MODEL 1
REMARK VINA RESULT:      -9.3      0.000      0.000
REMARK  7 active torsions:
REMARK  status: ('A' for Active; 'I' for Inactive)
REMARK    1  A    between atoms: C_2  and  C_3 
REMARK    2  A    between atoms: C_3  and  N_4 
REMARK    3  A    between atoms: N_4  and  C_7 
REMARK    4  A    between atoms: C_12  and  N_13 
REMARK       I    between atoms: N_13  and  C_14 
REMARK    5  A    between atoms: C_14  and  C_16 
REMARK    6  A    between atoms: C_20  and  C_22 
REMARK       I    between atoms: N_26  and  C_27 
REMARK       I    between atoms: C_27  and  N_29 
REMARK    7  A    between atoms: N_29  and  C_30 
ROOT
HETATM    1  C   UNL     1      -5.047   6.771 -28.618  1.00  0.00     0.037 A 
HETATM    2  C   UNL     1      -6.041   7.589 -28.082  1.00  0.00     0.029 A 
HETATM    3  C   UNL     1      -7.380   7.185 -28.115  1.00  0.00     0.004 A 
HETATM    4  C   UNL     1      -7.731   5.956 -28.677  1.00  0.00     0.023 A 
HETATM    5  C   UNL     1      -6.740   5.126 -29.204  1.00  0.00     0.046 A 
HETATM    6  C   UNL     1      -5.403   5.538 -29.176  1.00  0.00     0.052 A 
HETATM    7  C   UNL     1      -7.070   3.839 -29.739  1.00  0.00     0.099 C 
HETATM    8  N   UNL     1      -7.297   2.773 -30.138  1.00  0.00    -0.191 NA
ENDROOT
BRANCH   1   9
HETATM    9  N   UNL     1      -3.680   7.083 -28.593  1.00  0.00    -0.309 N 
HETATM   10  C   UNL     1      -2.847   7.210 -27.508  1.00  0.00     0.323 C 
HETATM   11  N   UNL     1      -1.504   7.353 -27.860  1.00  0.00    -0.325 N 
HETATM   12  O   UNL     1      -3.229   7.264 -26.344  1.00  0.00    -0.247 OA
HETATM   13  C   UNL     1      -0.824   6.579 -28.913  1.00  0.00     0.122 C 
HETATM   14  C   UNL     1      -0.548   7.710 -26.816  1.00  0.00     0.128 C 
HETATM   15  C   UNL     1       0.656   6.931 -28.725  1.00  0.00     0.032 C 
HETATM   16  C   UNL     1       0.767   7.050 -27.212  1.00  0.00     0.022 C 
HETATM   17  H   UNL     1      -3.308   7.504 -29.427  1.00  0.00     0.170 HD
BRANCH  13  18
HETATM   18  C   UNL     1      -1.305   6.794 -30.330  1.00  0.00    -0.034 A 
HETATM   19  C   UNL     1      -1.260   8.043 -30.966  1.00  0.00     0.009 A 
HETATM   20  C   UNL     1      -1.799   8.210 -32.248  1.00  0.00     0.002 A 
HETATM   21  C   UNL     1      -2.395   7.134 -32.912  1.00  0.00     0.017 A 
HETATM   22  C   UNL     1      -2.438   5.884 -32.294  1.00  0.00     0.033 A 
HETATM   23  C   UNL     1      -1.883   5.716 -31.019  1.00  0.00     0.026 A 
BRANCH  22  24
HETATM   24  C   UNL     1      -3.051   4.693 -32.937  1.00  0.00     0.257 C 
HETATM   25  N   UNL     1      -4.187   4.214 -32.322  1.00  0.00    -0.301 N 
HETATM   26  H   UNL     1      -4.548   4.629 -31.477  1.00  0.00     0.171 HD
HETATM   27  O   UNL     1      -2.470   4.209 -33.900  1.00  0.00    -0.267 OA
BRANCH  25  28
HETATM   28  C   UNL     1      -4.773   3.051 -32.742  1.00  0.00     0.174 A 
HETATM   29  N   UNL     1      -5.769   2.884 -33.575  1.00  0.00    -0.228 NA
HETATM   30  C   UNL     1      -6.010   1.550 -33.751  1.00  0.00     0.050 A 
HETATM   31  C   UNL     1      -7.072   1.085 -34.682  1.00  0.00     0.062 C 
HETATM   32  C   UNL     1      -5.175   0.705 -33.052  1.00  0.00     0.013 A 
HETATM   33  C   UNL     1      -7.370  -0.410 -34.475  1.00  0.00     0.039 C 
HETATM   34  C   UNL     1      -6.071  -1.230 -34.330  1.00  0.00     0.191 C 
HETATM   35  C   UNL     1      -5.239  -0.781 -33.093  1.00  0.00     0.081 C 
HETATM   36  S   UNL     1      -4.080   1.614 -32.111  1.00  0.00    -0.055 SA
BRANCH  34  37
HETATM   37  N   UNL     1      -6.405  -2.700 -34.191  1.00  0.00    -0.071 N 
HETATM   38  H   UNL     1      -7.421  -2.836 -34.298  1.00  0.00     0.277 HD
HETATM   39  H   UNL     1      -6.185  -3.001 -33.231  1.00  0.00     0.277 HD
BRANCH  37  40
HETATM   40  C   UNL     1      -5.681  -3.620 -35.132  1.00  0.00     0.232 C 
BRANCH  40  41
HETATM   41  C   UNL     1      -5.106  -4.786 -34.340  1.00  0.00     0.023 C 
HETATM   42  C   UNL     1      -3.653  -4.531 -33.968  1.00  0.00     0.007 C 
ENDBRANCH  40  41
ENDBRANCH  37  40
ENDBRANCH  34  37
ENDBRANCH  25  28
ENDBRANCH  22  24
ENDBRANCH  13  18
ENDBRANCH   1   9
TORSDOF 7
ENDMDL
MODEL 2
REMARK VINA RESULT:      -8.9      1.014      1.408
REMARK  7 active torsions:
REMARK  status: ('A' for Active; 'I' for Inactive)
REMARK    1  A    between atoms: C_2  and  C_3 
REMARK    2  A    between atoms: C_3  and  N_4 
REMARK    3  A    between atoms: N_4  and  C_7 
REMARK    4  A    between atoms: C_12  and  N_13 
REMARK       I    between atoms: N_13  and  C_14 
REMARK    5  A    between atoms: C_14  and  C_16 
REMARK    6  A    between atoms: C_20  and  C_22 
REMARK       I    between atoms: N_26  and  C_27 
REMARK       I    between atoms: C_27  and  N_29 
REMARK    7  A    between atoms: N_29  and  C_30 
ROOT
HETATM    1  C   UNL     1      -5.268   7.211 -28.267  1.00  0.00     0.037 A 
HETATM    2  C   UNL     1      -6.311   8.020 -27.820  1.00  0.00     0.029 A 
HETATM    3  C   UNL     1      -7.634   7.572 -27.901  1.00  0.00     0.004 A 
HETATM    4  C   UNL     1      -7.920   6.309 -28.421  1.00  0.00     0.023 A 
HETATM    5  C   UNL     1      -6.879   5.488 -28.859  1.00  0.00     0.046 A 
HETATM    6  C   UNL     1      -5.557   5.942 -28.783  1.00  0.00     0.052 A 
HETATM    7  C   UNL     1      -7.143   4.168 -29.349  1.00  0.00     0.099 C 
HETATM    8  N   UNL     1      -7.318   3.078 -29.708  1.00  0.00    -0.191 NA
ENDROOT
BRANCH   1   9
HETATM    9  N   UNL     1      -3.913   7.566 -28.188  1.00  0.00    -0.309 N 
HETATM   10  C   UNL     1      -3.147   7.793 -27.070  1.00  0.00     0.323 C 
HETATM   11  N   UNL     1      -1.791   7.954 -27.358  1.00  0.00    -0.325 N 
HETATM   12  O   UNL     1      -3.597   7.912 -25.935  1.00  0.00    -0.247 OA
HETATM   13  C   UNL     1      -1.031   7.132 -28.315  1.00  0.00     0.122 C 
HETATM   14  C   UNL     1      -0.907   8.411 -26.290  1.00  0.00     0.128 C 
HETATM   15  C   UNL     1       0.426   7.543 -28.071  1.00  0.00     0.032 C 
HETATM   16  C   UNL     1       0.447   7.767 -26.566  1.00  0.00     0.022 C 
HETATM   17  H   UNL     1      -3.506   7.942 -29.028  1.00  0.00     0.170 HD
BRANCH  13  18
HETATM   18  C   UNL     1      -1.436   7.236 -29.768  1.00  0.00    -0.034 A 
HETATM   19  C   UNL     1      -1.489   8.457 -30.457  1.00  0.00     0.009 A 
HETATM   20  C   UNL     1      -1.956   8.511 -31.776  1.00  0.00     0.002 A 
HETATM   21  C   UNL     1      -2.380   7.350 -32.426  1.00  0.00     0.017 A 
HETATM   22  C   UNL     1      -2.324   6.127 -31.756  1.00  0.00     0.033 A 
HETATM   23  C   UNL     1      -1.841   6.073 -30.442  1.00  0.00     0.026 A 
BRANCH  22  24
HETATM   24  C   UNL     1      -2.754   4.850 -32.381  1.00  0.00     0.257 C 
HETATM   25  N   UNL     1      -3.611   4.084 -31.621  1.00  0.00    -0.301 N 
HETATM   26  H   UNL     1      -3.891   4.364 -30.694  1.00  0.00     0.171 HD
HETATM   27  O   UNL     1      -2.269   4.562 -33.468  1.00  0.00    -0.267 OA
BRANCH  25  28
HETATM   28  C   UNL     1      -3.979   2.831 -32.029  1.00  0.00     0.174 A 
HETATM   29  N   UNL     1      -3.414   1.679 -31.765  1.00  0.00    -0.228 NA
HETATM   30  C   UNL     1      -4.134   0.667 -32.338  1.00  0.00     0.050 A 
HETATM   31  C   UNL     1      -3.726  -0.751 -32.158  1.00  0.00     0.062 C 
HETATM   32  C   UNL     1      -5.258   1.063 -33.029  1.00  0.00     0.013 A 
HETATM   33  C   UNL     1      -4.477  -1.669 -33.138  1.00  0.00     0.039 C 
HETATM   34  C   UNL     1      -5.976  -1.309 -33.211  1.00  0.00     0.191 C 
HETATM   35  C   UNL     1      -6.198   0.144 -33.725  1.00  0.00     0.081 C 
HETATM   36  S   UNL     1      -5.395   2.764 -32.995  1.00  0.00    -0.055 SA
BRANCH  34  37
HETATM   37  N   UNL     1      -6.690  -2.272 -34.137  1.00  0.00    -0.071 N 
HETATM   38  H   UNL     1      -7.496  -1.801 -34.572  1.00  0.00     0.277 HD
HETATM   39  H   UNL     1      -7.086  -3.039 -33.576  1.00  0.00     0.277 HD
BRANCH  37  40
HETATM   40  C   UNL     1      -5.839  -2.887 -35.210  1.00  0.00     0.232 C 
BRANCH  40  41
HETATM   41  C   UNL     1      -6.072  -4.392 -35.226  1.00  0.00     0.023 C 
HETATM   42  C   UNL     1      -5.002  -5.119 -34.426  1.00  0.00     0.007 C 
ENDBRANCH  40  41
ENDBRANCH  37  40
ENDBRANCH  34  37
ENDBRANCH  25  28
ENDBRANCH  22  24
ENDBRANCH  13  18
ENDBRANCH   1   9
TORSDOF 7
ENDMDL
MODEL 3
REMARK VINA RESULT:      -8.6      4.261      9.693
REMARK  7 active torsions:
REMARK  status: ('A' for Active; 'I' for Inactive)
REMARK    1  A    between atoms: C_2  and  C_3 
REMARK    2  A    between atoms: C_3  and  N_4 
REMARK    3  A    between atoms: N_4  and  C_7 
REMARK    4  A    between atoms: C_12  and  N_13 
REMARK       I    between atoms: N_13  and  C_14 
REMARK    5  A    between atoms: C_14  and  C_16 
REMARK    6  A    between atoms: C_20  and  C_22 
REMARK       I    between atoms: N_26  and  C_27 
REMARK       I    between atoms: C_27  and  N_29 
REMARK    7  A    between atoms: N_29  and  C_30 
ROOT
HETATM    1  C   UNL     1      -8.874   0.980 -33.843  1.00  0.00     0.037 A 
HETATM    2  C   UNL     1      -8.260   0.407 -34.955  1.00  0.00     0.029 A 
HETATM    3  C   UNL     1      -6.968  -0.120 -34.853  1.00  0.00     0.004 A 
HETATM    4  C   UNL     1      -6.286  -0.083 -33.635  1.00  0.00     0.023 A 
HETATM    5  C   UNL     1      -6.900   0.478 -32.515  1.00  0.00     0.046 A 
HETATM    6  C   UNL     1      -8.189   1.011 -32.623  1.00  0.00     0.052 A 
HETATM    7  C   UNL     1      -6.240   0.482 -31.243  1.00  0.00     0.099 C 
HETATM    8  N   UNL     1      -5.753   0.460 -30.189  1.00  0.00    -0.191 NA
ENDROOT
BRANCH   1   9
HETATM    9  N   UNL     1     -10.178   1.497 -33.849  1.00  0.00    -0.309 N 
HETATM   10  C   UNL     1     -11.346   0.886 -33.462  1.00  0.00     0.323 C 
HETATM   11  N   UNL     1     -12.437   1.756 -33.434  1.00  0.00    -0.325 N 
HETATM   12  O   UNL     1     -11.457  -0.312 -33.228  1.00  0.00    -0.247 OA
HETATM   13  C   UNL     1     -12.403   3.130 -32.904  1.00  0.00     0.122 C 
HETATM   14  C   UNL     1     -13.770   1.190 -33.249  1.00  0.00     0.128 C 
HETATM   15  C   UNL     1     -13.879   3.545 -32.875  1.00  0.00     0.032 C 
HETATM   16  C   UNL     1     -14.569   2.245 -32.493  1.00  0.00     0.022 C 
HETATM   17  H   UNL     1     -10.328   2.308 -34.424  1.00  0.00     0.170 HD
BRANCH  13  18
HETATM   18  C   UNL     1     -11.529   4.119 -33.641  1.00  0.00    -0.034 A 
HETATM   19  C   UNL     1     -11.878   4.662 -34.886  1.00  0.00     0.009 A 
HETATM   20  C   UNL     1     -10.992   5.505 -35.569  1.00  0.00     0.002 A 
HETATM   21  C   UNL     1      -9.745   5.816 -35.023  1.00  0.00     0.017 A 
HETATM   22  C   UNL     1      -9.388   5.290 -33.780  1.00  0.00     0.033 A 
HETATM   23  C   UNL     1     -10.282   4.460 -33.092  1.00  0.00     0.026 A 
BRANCH  22  24
HETATM   24  C   UNL     1      -8.082   5.577 -33.134  1.00  0.00     0.257 C 
HETATM   25  N   UNL     1      -6.972   5.212 -33.866  1.00  0.00    -0.301 N 
HETATM   26  H   UNL     1      -7.054   4.753 -34.760  1.00  0.00     0.171 HD
HETATM   27  O   UNL     1      -8.102   6.042 -32.001  1.00  0.00    -0.267 OA
BRANCH  25  28
HETATM   28  C   UNL     1      -5.717   5.308 -33.329  1.00  0.00     0.174 A 
HETATM   29  N   UNL     1      -4.861   6.295 -33.408  1.00  0.00    -0.228 NA
HETATM   30  C   UNL     1      -3.738   5.995 -32.686  1.00  0.00     0.050 A 
HETATM   31  C   UNL     1      -2.620   6.969 -32.580  1.00  0.00     0.062 C 
HETATM   32  C   UNL     1      -3.759   4.774 -32.047  1.00  0.00     0.013 A 
HETATM   33  C   UNL     1      -1.360   6.300 -32.004  1.00  0.00     0.039 C 
HETATM   34  C   UNL     1      -1.702   5.397 -30.800  1.00  0.00     0.191 C 
HETATM   35  C   UNL     1      -2.661   4.238 -31.200  1.00  0.00     0.081 C 
HETATM   36  S   UNL     1      -5.216   3.958 -32.397  1.00  0.00    -0.055 SA
BRANCH  34  37
HETATM   37  N   UNL     1      -0.431   4.808 -30.223  1.00  0.00    -0.071 N 
HETATM   38  H   UNL     1       0.061   4.270 -30.951  1.00  0.00     0.277 HD
HETATM   39  H   UNL     1      -0.683   4.125 -29.495  1.00  0.00     0.277 HD
BRANCH  37  40
HETATM   40  C   UNL     1       0.519   5.796 -29.611  1.00  0.00     0.232 C 
BRANCH  40  41
HETATM   41  C   UNL     1      -0.245   6.676 -28.630  1.00  0.00     0.023 C 
HETATM   42  C   UNL     1      -0.010   6.226 -27.196  1.00  0.00     0.007 C 
ENDBRANCH  40  41
ENDBRANCH  37  40
ENDBRANCH  34  37
ENDBRANCH  25  28
ENDBRANCH  22  24
ENDBRANCH  13  18
ENDBRANCH   1   9
TORSDOF 7
ENDMDL
MODEL 4
REMARK VINA RESULT:      -8.6      2.433      3.433
REMARK  7 active torsions:
REMARK  status: ('A' for Active; 'I' for Inactive)
REMARK    1  A    between atoms: C_2  and  C_3 
REMARK    2  A    between atoms: C_3  and  N_4 
REMARK    3  A    between atoms: N_4  and  C_7 
REMARK    4  A    between atoms: C_12  and  N_13 
REMARK       I    between atoms: N_13  and  C_14 
REMARK    5  A    between atoms: C_14  and  C_16 
REMARK    6  A    between atoms: C_20  and  C_22 
REMARK       I    between atoms: N_26  and  C_27 
REMARK       I    between atoms: C_27  and  N_29 
REMARK    7  A    between atoms: N_29  and  C_30 
ROOT
HETATM    1  C   UNL     1      -4.906   7.017 -29.804  1.00  0.00     0.037 A 
HETATM    2  C   UNL     1      -5.914   7.974 -29.686  1.00  0.00     0.029 A 
HETATM    3  C   UNL     1      -7.254   7.580 -29.624  1.00  0.00     0.004 A 
HETATM    4  C   UNL     1      -7.595   6.227 -29.671  1.00  0.00     0.023 A 
HETATM    5  C   UNL     1      -6.591   5.263 -29.776  1.00  0.00     0.046 A 
HETATM    6  C   UNL     1      -5.251   5.661 -29.846  1.00  0.00     0.052 A 
HETATM    7  C   UNL     1      -6.913   3.867 -29.775  1.00  0.00     0.099 C 
HETATM    8  N   UNL     1      -7.135   2.729 -29.730  1.00  0.00    -0.191 NA
ENDROOT
BRANCH   1   9
HETATM    9  N   UNL     1      -3.537   7.322 -29.835  1.00  0.00    -0.309 N 
HETATM   10  C   UNL     1      -2.764   7.903 -28.861  1.00  0.00     0.323 C 
HETATM   11  N   UNL     1      -1.401   7.896 -29.164  1.00  0.00    -0.325 N 
HETATM   12  O   UNL     1      -3.209   8.441 -27.853  1.00  0.00    -0.247 OA
HETATM   13  C   UNL     1      -0.677   6.755 -29.750  1.00  0.00     0.122 C 
HETATM   14  C   UNL     1      -0.499   8.670 -28.317  1.00  0.00     0.128 C 
HETATM   15  C   UNL     1       0.796   7.167 -29.645  1.00  0.00     0.032 C 
HETATM   16  C   UNL     1       0.825   7.915 -28.321  1.00  0.00     0.022 C 
HETATM   17  H   UNL     1      -3.114   7.353 -30.748  1.00  0.00     0.170 HD
BRANCH  13  18
HETATM   18  C   UNL     1      -1.075   6.346 -31.150  1.00  0.00    -0.034 A 
HETATM   19  C   UNL     1      -0.611   7.008 -32.296  1.00  0.00     0.009 A 
HETATM   20  C   UNL     1      -1.079   6.648 -33.566  1.00  0.00     0.002 A 
HETATM   21  C   UNL     1      -2.020   5.624 -33.711  1.00  0.00     0.017 A 
HETATM   22  C   UNL     1      -2.483   4.951 -32.580  1.00  0.00     0.033 A 
HETATM   23  C   UNL     1      -2.001   5.303 -31.312  1.00  0.00     0.026 A 
BRANCH  22  24
HETATM   24  C   UNL     1      -3.479   3.852 -32.653  1.00  0.00     0.257 C 
HETATM   25  N   UNL     1      -4.694   4.197 -33.205  1.00  0.00    -0.301 N 
HETATM   26  H   UNL     1      -4.892   5.139 -33.503  1.00  0.00     0.171 HD
HETATM   27  O   UNL     1      -3.166   2.772 -32.167  1.00  0.00    -0.267 OA
BRANCH  25  28
HETATM   28  C   UNL     1      -5.735   3.309 -33.215  1.00  0.00     0.174 A 
HETATM   29  N   UNL     1      -5.726   2.025 -32.958  1.00  0.00    -0.228 NA
HETATM   30  C   UNL     1      -6.996   1.526 -33.038  1.00  0.00     0.050 A 
HETATM   31  C   UNL     1      -7.270   0.093 -32.754  1.00  0.00     0.062 C 
HETATM   32  C   UNL     1      -7.972   2.449 -33.347  1.00  0.00     0.013 A 
HETATM   33  C   UNL     1      -8.684  -0.301 -33.213  1.00  0.00     0.039 C 
HETATM   34  C   UNL     1      -9.724   0.768 -32.815  1.00  0.00     0.191 C 
HETATM   35  C   UNL     1      -9.422   2.144 -33.478  1.00  0.00     0.081 C 
HETATM   36  S   UNL     1      -7.268   3.985 -33.584  1.00  0.00    -0.055 SA
BRANCH  34  37
HETATM   37  N   UNL     1     -11.108   0.315 -33.230  1.00  0.00    -0.071 N 
HETATM   38  H   UNL     1     -11.532  -0.240 -32.472  1.00  0.00     0.277 HD
HETATM   39  H   UNL     1     -11.022  -0.328 -34.029  1.00  0.00     0.277 HD
BRANCH  37  40
HETATM   40  C   UNL     1     -12.054   1.411 -33.630  1.00  0.00     0.232 C 
BRANCH  40  41
HETATM   41  C   UNL     1     -13.279   0.792 -34.289  1.00  0.00     0.023 C 
HETATM   42  C   UNL     1     -13.680  -0.500 -33.592  1.00  0.00     0.007 C 
ENDBRANCH  40  41
ENDBRANCH  37  40
ENDBRANCH  34  37
ENDBRANCH  25  28
ENDBRANCH  22  24
ENDBRANCH  13  18
ENDBRANCH   1   9
TORSDOF 7
ENDMDL
MODEL 5
REMARK VINA RESULT:      -8.4      3.066      4.154
REMARK  7 active torsions:
REMARK  status: ('A' for Active; 'I' for Inactive)
REMARK    1  A    between atoms: C_2  and  C_3 
REMARK    2  A    between atoms: C_3  and  N_4 
REMARK    3  A    between atoms: N_4  and  C_7 
REMARK    4  A    between atoms: C_12  and  N_13 
REMARK       I    between atoms: N_13  and  C_14 
REMARK    5  A    between atoms: C_14  and  C_16 
REMARK    6  A    between atoms: C_20  and  C_22 
REMARK       I    between atoms: N_26  and  C_27 
REMARK       I    between atoms: C_27  and  N_29 
REMARK    7  A    between atoms: N_29  and  C_30 
ROOT
HETATM    1  C   UNL     1      -3.532   9.437 -30.520  1.00  0.00     0.037 A 
HETATM    2  C   UNL     1      -3.572  10.807 -30.266  1.00  0.00     0.029 A 
HETATM    3  C   UNL     1      -4.770  11.515 -30.409  1.00  0.00     0.004 A 
HETATM    4  C   UNL     1      -5.937  10.854 -30.798  1.00  0.00     0.023 A 
HETATM    5  C   UNL     1      -5.907   9.481 -31.042  1.00  0.00     0.046 A 
HETATM    6  C   UNL     1      -4.705   8.777 -30.906  1.00  0.00     0.052 A 
HETATM    7  C   UNL     1      -7.101   8.772 -31.393  1.00  0.00     0.099 C 
HETATM    8  N   UNL     1      -8.058   8.161 -31.634  1.00  0.00    -0.191 NA
ENDROOT
BRANCH   1   9
HETATM    9  N   UNL     1      -2.384   8.646 -30.366  1.00  0.00    -0.309 N 
HETATM   10  C   UNL     1      -1.590   8.490 -29.256  1.00  0.00     0.323 C 
HETATM   11  N   UNL     1      -0.631   7.487 -29.404  1.00  0.00    -0.325 N 
HETATM   12  O   UNL     1      -1.655   9.193 -28.254  1.00  0.00    -0.247 OA
HETATM   13  C   UNL     1      -0.877   6.171 -30.019  1.00  0.00     0.122 C 
HETATM   14  C   UNL     1       0.408   7.367 -28.385  1.00  0.00     0.128 C 
HETATM   15  C   UNL     1       0.398   5.379 -29.708  1.00  0.00     0.032 C 
HETATM   16  C   UNL     1       0.757   5.885 -28.319  1.00  0.00     0.022 C 
HETATM   17  H   UNL     1      -1.936   8.348 -31.217  1.00  0.00     0.170 HD
BRANCH  13  18
HETATM   18  C   UNL     1      -1.228   6.167 -31.490  1.00  0.00    -0.034 A 
HETATM   19  C   UNL     1      -0.415   6.759 -32.467  1.00  0.00     0.009 A 
HETATM   20  C   UNL     1      -0.827   6.806 -33.805  1.00  0.00     0.002 A 
HETATM   21  C   UNL     1      -2.058   6.267 -34.187  1.00  0.00     0.017 A 
HETATM   22  C   UNL     1      -2.874   5.667 -33.226  1.00  0.00     0.033 A 
HETATM   23  C   UNL     1      -2.451   5.607 -31.892  1.00  0.00     0.026 A 
BRANCH  22  24
HETATM   24  C   UNL     1      -4.194   5.070 -33.555  1.00  0.00     0.257 C 
HETATM   25  N   UNL     1      -4.636   4.104 -32.677  1.00  0.00    -0.301 N 
HETATM   26  H   UNL     1      -4.079   3.808 -31.890  1.00  0.00     0.171 HD
HETATM   27  O   UNL     1      -4.734   5.432 -34.592  1.00  0.00    -0.267 OA
BRANCH  25  28
HETATM   28  C   UNL     1      -5.774   3.391 -32.936  1.00  0.00     0.174 A 
HETATM   29  N   UNL     1      -5.966   2.434 -33.810  1.00  0.00    -0.228 NA
HETATM   30  C   UNL     1      -7.245   1.962 -33.708  1.00  0.00     0.050 A 
HETATM   31  C   UNL     1      -7.712   0.842 -34.567  1.00  0.00     0.062 C 
HETATM   32  C   UNL     1      -8.018   2.562 -32.737  1.00  0.00     0.013 A 
HETATM   33  C   UNL     1      -9.243   0.702 -34.506  1.00  0.00     0.039 C 
HETATM   34  C   UNL     1      -9.762   0.821 -33.057  1.00  0.00     0.191 C 
HETATM   35  C   UNL     1      -9.431   2.209 -32.436  1.00  0.00     0.081 C 
HETATM   36  S   UNL     1      -7.124   3.787 -31.955  1.00  0.00    -0.055 SA
BRANCH  34  37
HETATM   37  N   UNL     1     -11.263   0.616 -33.032  1.00  0.00    -0.071 N 
HETATM   38  H   UNL     1     -11.608   0.702 -32.065  1.00  0.00     0.277 HD
HETATM   39  H   UNL     1     -11.471  -0.351 -33.316  1.00  0.00     0.277 HD
BRANCH  37  40
HETATM   40  C   UNL     1     -12.054   1.531 -33.923  1.00  0.00     0.232 C 
BRANCH  40  41
HETATM   41  C   UNL     1     -13.442   0.940 -34.131  1.00  0.00     0.023 C 
HETATM   42  C   UNL     1     -13.482  -0.522 -33.710  1.00  0.00     0.007 C 
ENDBRANCH  40  41
ENDBRANCH  37  40
ENDBRANCH  34  37
ENDBRANCH  25  28
ENDBRANCH  22  24
ENDBRANCH  13  18
ENDBRANCH   1   9
TORSDOF 7
ENDMDL
MODEL 6
REMARK VINA RESULT:      -8.3      1.684      2.084
REMARK  7 active torsions:
REMARK  status: ('A' for Active; 'I' for Inactive)
REMARK    1  A    between atoms: C_2  and  C_3 
REMARK    2  A    between atoms: C_3  and  N_4 
REMARK    3  A    between atoms: N_4  and  C_7 
REMARK    4  A    between atoms: C_12  and  N_13 
REMARK       I    between atoms: N_13  and  C_14 
REMARK    5  A    between atoms: C_14  and  C_16 
REMARK    6  A    between atoms: C_20  and  C_22 
REMARK       I    between atoms: N_26  and  C_27 
REMARK       I    between atoms: C_27  and  N_29 
REMARK    7  A    between atoms: N_29  and  C_30 
ROOT
HETATM    1  C   UNL     1      -4.447   6.826 -28.883  1.00  0.00     0.037 A 
HETATM    2  C   UNL     1      -5.153   5.766 -28.315  1.00  0.00     0.029 A 
HETATM    3  C   UNL     1      -6.466   5.499 -28.718  1.00  0.00     0.004 A 
HETATM    4  C   UNL     1      -7.077   6.285 -29.696  1.00  0.00     0.023 A 
HETATM    5  C   UNL     1      -6.372   7.340 -30.278  1.00  0.00     0.046 A 
HETATM    6  C   UNL     1      -5.061   7.609 -29.867  1.00  0.00     0.052 A 
HETATM    7  C   UNL     1      -6.960   8.128 -31.320  1.00  0.00     0.099 C 
HETATM    8  N   UNL     1      -7.389   8.756 -32.196  1.00  0.00    -0.191 NA
ENDROOT
BRANCH   1   9
HETATM    9  N   UNL     1      -3.117   7.140 -28.565  1.00  0.00    -0.309 N 
HETATM   10  C   UNL     1      -2.593   7.536 -27.359  1.00  0.00     0.323 C 
HETATM   11  N   UNL     1      -1.198   7.593 -27.360  1.00  0.00    -0.325 N 
HETATM   12  O   UNL     1      -3.263   7.875 -26.390  1.00  0.00    -0.247 OA
HETATM   13  C   UNL     1      -0.315   6.585 -27.971  1.00  0.00     0.122 C 
HETATM   14  C   UNL     1      -0.529   8.202 -26.214  1.00  0.00     0.128 C 
HETATM   15  C   UNL     1       1.082   6.979 -27.481  1.00  0.00     0.032 C 
HETATM   16  C   UNL     1       0.799   7.470 -26.069  1.00  0.00     0.022 C 
HETATM   17  H   UNL     1      -2.514   7.343 -29.344  1.00  0.00     0.170 HD
BRANCH  13  18
HETATM   18  C   UNL     1      -0.392   6.439 -29.474  1.00  0.00    -0.034 A 
HETATM   19  C   UNL     1       0.478   7.108 -30.348  1.00  0.00     0.009 A 
HETATM   20  C   UNL     1       0.309   7.010 -31.735  1.00  0.00     0.002 A 
HETATM   21  C   UNL     1      -0.732   6.248 -32.271  1.00  0.00     0.017 A 
HETATM   22  C   UNL     1      -1.601   5.571 -31.413  1.00  0.00     0.033 A 
HETATM   23  C   UNL     1      -1.419   5.657 -30.027  1.00  0.00     0.026 A 
BRANCH  22  24
HETATM   24  C   UNL     1      -2.728   4.739 -31.907  1.00  0.00     0.257 C 
HETATM   25  N   UNL     1      -3.239   3.843 -30.993  1.00  0.00    -0.301 N 
HETATM   26  H   UNL     1      -2.846   3.744 -30.070  1.00  0.00     0.171 HD
HETATM   27  O   UNL     1      -3.057   4.872 -33.078  1.00  0.00    -0.267 OA
BRANCH  25  28
HETATM   28  C   UNL     1      -4.194   2.935 -31.363  1.00  0.00     0.174 A 
HETATM   29  N   UNL     1      -5.485   2.960 -31.142  1.00  0.00    -0.228 NA
HETATM   30  C   UNL     1      -6.077   1.874 -31.725  1.00  0.00     0.050 A 
HETATM   31  C   UNL     1      -7.550   1.682 -31.654  1.00  0.00     0.062 C 
HETATM   32  C   UNL     1      -5.223   1.032 -32.403  1.00  0.00     0.013 A 
HETATM   33  C   UNL     1      -7.942   0.260 -32.089  1.00  0.00     0.039 C 
HETATM   34  C   UNL     1      -7.176  -0.173 -33.357  1.00  0.00     0.191 C 
HETATM   35  C   UNL     1      -5.637  -0.202 -33.122  1.00  0.00     0.081 C 
HETATM   36  S   UNL     1      -3.618   1.598 -32.270  1.00  0.00    -0.055 SA
BRANCH  34  37
HETATM   37  N   UNL     1      -7.634  -1.551 -33.787  1.00  0.00    -0.071 N 
HETATM   38  H   UNL     1      -8.524  -1.474 -34.301  1.00  0.00     0.277 HD
HETATM   39  H   UNL     1      -7.845  -2.107 -32.947  1.00  0.00     0.277 HD
BRANCH  37  40
HETATM   40  C   UNL     1      -6.652  -2.330 -34.613  1.00  0.00     0.232 C 
BRANCH  40  41
HETATM   41  C   UNL     1      -6.987  -3.812 -34.515  1.00  0.00     0.023 C 
HETATM   42  C   UNL     1      -6.155  -4.626 -35.495  1.00  0.00     0.007 C 
ENDBRANCH  40  41
ENDBRANCH  37  40
ENDBRANCH  34  37
ENDBRANCH  25  28
ENDBRANCH  22  24
ENDBRANCH  13  18
ENDBRANCH   1   9
TORSDOF 7
ENDMDL
MODEL 7
REMARK VINA RESULT:      -8.2      2.343      4.864
REMARK  7 active torsions:
REMARK  status: ('A' for Active; 'I' for Inactive)
REMARK    1  A    between atoms: C_2  and  C_3 
REMARK    2  A    between atoms: C_3  and  N_4 
REMARK    3  A    between atoms: N_4  and  C_7 
REMARK    4  A    between atoms: C_12  and  N_13 
REMARK       I    between atoms: N_13  and  C_14 
REMARK    5  A    between atoms: C_14  and  C_16 
REMARK    6  A    between atoms: C_20  and  C_22 
REMARK       I    between atoms: N_26  and  C_27 
REMARK       I    between atoms: C_27  and  N_29 
REMARK    7  A    between atoms: N_29  and  C_30 
ROOT
HETATM    1  C   UNL     1      -2.651   6.896 -31.398  1.00  0.00     0.037 A 
HETATM    2  C   UNL     1      -3.135   6.394 -32.605  1.00  0.00     0.029 A 
HETATM    3  C   UNL     1      -2.393   5.452 -33.325  1.00  0.00     0.004 A 
HETATM    4  C   UNL     1      -1.165   5.000 -32.836  1.00  0.00     0.023 A 
HETATM    5  C   UNL     1      -0.681   5.489 -31.622  1.00  0.00     0.046 A 
HETATM    6  C   UNL     1      -1.423   6.438 -30.909  1.00  0.00     0.052 A 
HETATM    7  C   UNL     1       0.551   5.003 -31.076  1.00  0.00     0.099 C 
HETATM    8  N   UNL     1       1.521   4.598 -30.584  1.00  0.00    -0.191 NA
ENDROOT
BRANCH   1   9
HETATM    9  N   UNL     1      -3.348   7.814 -30.597  1.00  0.00    -0.309 N 
HETATM   10  C   UNL     1      -3.471   9.172 -30.754  1.00  0.00     0.323 C 
HETATM   11  N   UNL     1      -4.384   9.747 -29.870  1.00  0.00    -0.325 N 
HETATM   12  O   UNL     1      -2.806   9.842 -31.539  1.00  0.00    -0.247 OA
HETATM   13  C   UNL     1      -5.696   9.173 -29.525  1.00  0.00     0.122 C 
HETATM   14  C   UNL     1      -4.448  11.203 -29.789  1.00  0.00     0.128 C 
HETATM   15  C   UNL     1      -6.387  10.291 -28.737  1.00  0.00     0.032 C 
HETATM   16  C   UNL     1      -5.897  11.539 -29.456  1.00  0.00     0.022 C 
HETATM   17  H   UNL     1      -3.580   7.501 -29.669  1.00  0.00     0.170 HD
BRANCH  13  18
HETATM   18  C   UNL     1      -5.684   7.853 -28.786  1.00  0.00    -0.034 A 
HETATM   19  C   UNL     1      -5.230   7.726 -27.465  1.00  0.00     0.009 A 
HETATM   20  C   UNL     1      -5.156   6.468 -26.855  1.00  0.00     0.002 A 
HETATM   21  C   UNL     1      -5.530   5.317 -27.555  1.00  0.00     0.017 A 
HETATM   22  C   UNL     1      -5.992   5.430 -28.866  1.00  0.00     0.033 A 
HETATM   23  C   UNL     1      -6.081   6.692 -29.468  1.00  0.00     0.026 A 
BRANCH  22  24
HETATM   24  C   UNL     1      -6.411   4.255 -29.673  1.00  0.00     0.257 C 
HETATM   25  N   UNL     1      -5.463   3.781 -30.554  1.00  0.00    -0.301 N 
HETATM   26  H   UNL     1      -4.566   4.229 -30.659  1.00  0.00     0.171 HD
HETATM   27  O   UNL     1      -7.561   3.857 -29.536  1.00  0.00    -0.267 OA
BRANCH  25  28
HETATM   28  C   UNL     1      -5.769   2.785 -31.441  1.00  0.00     0.174 A 
HETATM   29  N   UNL     1      -6.210   2.883 -32.670  1.00  0.00    -0.228 NA
HETATM   30  C   UNL     1      -6.342   1.636 -33.217  1.00  0.00     0.050 A 
HETATM   31  C   UNL     1      -6.794   1.467 -34.623  1.00  0.00     0.062 C 
HETATM   32  C   UNL     1      -5.984   0.592 -32.392  1.00  0.00     0.013 A 
HETATM   33  C   UNL     1      -7.171   0.003 -34.908  1.00  0.00     0.039 C 
HETATM   34  C   UNL     1      -6.131  -0.973 -34.318  1.00  0.00     0.191 C 
HETATM   35  C   UNL     1      -6.033  -0.846 -32.770  1.00  0.00     0.081 C 
HETATM   36  S   UNL     1      -5.504   1.190 -30.868  1.00  0.00    -0.055 SA
BRANCH  34  37
HETATM   37  N   UNL     1      -6.505  -2.397 -34.673  1.00  0.00    -0.071 N 
HETATM   38  H   UNL     1      -7.331  -2.394 -35.290  1.00  0.00     0.277 HD
HETATM   39  H   UNL     1      -6.801  -2.885 -33.816  1.00  0.00     0.277 HD
BRANCH  37  40
HETATM   40  C   UNL     1      -5.416  -3.212 -35.307  1.00  0.00     0.232 C 
BRANCH  40  41
HETATM   41  C   UNL     1      -5.140  -4.432 -34.439  1.00  0.00     0.023 C 
HETATM   42  C   UNL     1      -3.781  -4.324 -33.762  1.00  0.00     0.007 C 
ENDBRANCH  40  41
ENDBRANCH  37  40
ENDBRANCH  34  37
ENDBRANCH  25  28
ENDBRANCH  22  24
ENDBRANCH  13  18
ENDBRANCH   1   9
TORSDOF 7
ENDMDL
MODEL 8
REMARK VINA RESULT:      -8.1      2.414      3.590
REMARK  7 active torsions:
REMARK  status: ('A' for Active; 'I' for Inactive)
REMARK    1  A    between atoms: C_2  and  C_3 
REMARK    2  A    between atoms: C_3  and  N_4 
REMARK    3  A    between atoms: N_4  and  C_7 
REMARK    4  A    between atoms: C_12  and  N_13 
REMARK       I    between atoms: N_13  and  C_14 
REMARK    5  A    between atoms: C_14  and  C_16 
REMARK    6  A    between atoms: C_20  and  C_22 
REMARK       I    between atoms: N_26  and  C_27 
REMARK       I    between atoms: C_27  and  N_29 
REMARK    7  A    between atoms: N_29  and  C_30 
ROOT
HETATM    1  C   UNL     1      -5.033   6.903 -28.687  1.00  0.00     0.037 A 
HETATM    2  C   UNL     1      -5.620   5.673 -28.394  1.00  0.00     0.029 A 
HETATM    3  C   UNL     1      -7.012   5.536 -28.407  1.00  0.00     0.004 A 
HETATM    4  C   UNL     1      -7.825   6.627 -28.720  1.00  0.00     0.023 A 
HETATM    5  C   UNL     1      -7.244   7.858 -29.027  1.00  0.00     0.046 A 
HETATM    6  C   UNL     1      -5.851   7.993 -29.006  1.00  0.00     0.052 A 
HETATM    7  C   UNL     1      -8.055   8.978 -29.401  1.00  0.00     0.099 C 
HETATM    8  N   UNL     1      -8.680   9.891 -29.752  1.00  0.00    -0.191 NA
ENDROOT
BRANCH   1   9
HETATM    9  N   UNL     1      -3.648   7.118 -28.734  1.00  0.00    -0.309 N 
HETATM   10  C   UNL     1      -2.755   7.196 -27.693  1.00  0.00     0.323 C 
HETATM   11  N   UNL     1      -1.425   7.242 -28.114  1.00  0.00    -0.325 N 
HETATM   12  O   UNL     1      -3.073   7.287 -26.512  1.00  0.00    -0.247 OA
HETATM   13  C   UNL     1      -0.854   6.412 -29.189  1.00  0.00     0.122 C 
HETATM   14  C   UNL     1      -0.395   7.540 -27.123  1.00  0.00     0.128 C 
HETATM   15  C   UNL     1       0.654   6.662 -29.079  1.00  0.00     0.032 C 
HETATM   16  C   UNL     1       0.849   6.786 -27.575  1.00  0.00     0.022 C 
HETATM   17  H   UNL     1      -3.291   7.505 -29.591  1.00  0.00     0.170 HD
BRANCH  13  18
HETATM   18  C   UNL     1      -1.389   6.648 -30.583  1.00  0.00    -0.034 A 
HETATM   19  C   UNL     1      -0.991   7.734 -31.376  1.00  0.00     0.009 A 
HETATM   20  C   UNL     1      -1.582   7.958 -32.626  1.00  0.00     0.002 A 
HETATM   21  C   UNL     1      -2.582   7.105 -33.101  1.00  0.00     0.017 A 
HETATM   22  C   UNL     1      -2.981   6.015 -32.326  1.00  0.00     0.033 A 
HETATM   23  C   UNL     1      -2.377   5.784 -31.084  1.00  0.00     0.026 A 
BRANCH  22  24
HETATM   24  C   UNL     1      -4.034   5.063 -32.764  1.00  0.00     0.257 C 
HETATM   25  N   UNL     1      -4.761   4.484 -31.746  1.00  0.00    -0.301 N 
HETATM   26  H   UNL     1      -4.561   4.675 -30.777  1.00  0.00     0.171 HD
HETATM   27  O   UNL     1      -4.120   4.829 -33.962  1.00  0.00    -0.267 OA
BRANCH  25  28
HETATM   28  C   UNL     1      -5.672   3.499 -32.011  1.00  0.00     0.174 A 
HETATM   29  N   UNL     1      -5.466   2.225 -32.238  1.00  0.00    -0.228 NA
HETATM   30  C   UNL     1      -6.662   1.585 -32.413  1.00  0.00     0.050 A 
HETATM   31  C   UNL     1      -6.711   0.118 -32.650  1.00  0.00     0.062 C 
HETATM   32  C   UNL     1      -7.778   2.385 -32.303  1.00  0.00     0.013 A 
HETATM   33  C   UNL     1      -8.106  -0.316 -33.130  1.00  0.00     0.039 C 
HETATM   34  C   UNL     1      -9.222   0.362 -32.307  1.00  0.00     0.191 C 
HETATM   35  C   UNL     1      -9.182   1.912 -32.444  1.00  0.00     0.081 C 
HETATM   36  S   UNL     1      -7.312   4.000 -32.012  1.00  0.00    -0.055 SA
BRANCH  34  37
HETATM   37  N   UNL     1     -10.575  -0.138 -32.769  1.00  0.00    -0.071 N 
HETATM   38  H   UNL     1     -11.102  -0.503 -31.963  1.00  0.00     0.277 HD
HETATM   39  H   UNL     1     -10.435  -0.942 -33.396  1.00  0.00     0.277 HD
BRANCH  37  40
HETATM   40  C   UNL     1     -11.419   0.866 -33.500  1.00  0.00     0.232 C 
BRANCH  40  41
HETATM   41  C   UNL     1     -12.826   0.307 -33.660  1.00  0.00     0.023 C 
HETATM   42  C   UNL     1     -13.668   1.197 -34.562  1.00  0.00     0.007 C 
ENDBRANCH  40  41
ENDBRANCH  37  40
ENDBRANCH  34  37
ENDBRANCH  25  28
ENDBRANCH  22  24
ENDBRANCH  13  18
ENDBRANCH   1   9
TORSDOF 7
ENDMDL
MODEL 9
REMARK VINA RESULT:      -8.0      2.658      3.841
REMARK  7 active torsions:
REMARK  status: ('A' for Active; 'I' for Inactive)
REMARK    1  A    between atoms: C_2  and  C_3 
REMARK    2  A    between atoms: C_3  and  N_4 
REMARK    3  A    between atoms: N_4  and  C_7 
REMARK    4  A    between atoms: C_12  and  N_13 
REMARK       I    between atoms: N_13  and  C_14 
REMARK    5  A    between atoms: C_14  and  C_16 
REMARK    6  A    between atoms: C_20  and  C_22 
REMARK       I    between atoms: N_26  and  C_27 
REMARK       I    between atoms: C_27  and  N_29 
REMARK    7  A    between atoms: N_29  and  C_30 
ROOT
HETATM    1  C   UNL     1      -3.367   9.681 -29.592  1.00  0.00     0.037 A 
HETATM    2  C   UNL     1      -3.630  10.936 -30.139  1.00  0.00     0.029 A 
HETATM    3  C   UNL     1      -4.918  11.255 -30.582  1.00  0.00     0.004 A 
HETATM    4  C   UNL     1      -5.952  10.324 -30.472  1.00  0.00     0.023 A 
HETATM    5  C   UNL     1      -5.699   9.070 -29.915  1.00  0.00     0.046 A 
HETATM    6  C   UNL     1      -4.408   8.751 -29.479  1.00  0.00     0.052 A 
HETATM    7  C   UNL     1      -6.755   8.117 -29.746  1.00  0.00     0.099 C 
HETATM    8  N   UNL     1      -7.595   7.340 -29.552  1.00  0.00    -0.191 NA
ENDROOT
BRANCH   1   9
HETATM    9  N   UNL     1      -2.116   9.292 -29.090  1.00  0.00    -0.309 N 
HETATM   10  C   UNL     1      -1.504   9.671 -27.920  1.00  0.00     0.323 C 
HETATM   11  N   UNL     1      -0.338   8.952 -27.653  1.00  0.00    -0.325 N 
HETATM   12  O   UNL     1      -1.887  10.590 -27.204  1.00  0.00    -0.247 OA
HETATM   13  C   UNL     1      -0.186   7.498 -27.838  1.00  0.00     0.122 C 
HETATM   14  C   UNL     1       0.518   9.401 -26.559  1.00  0.00     0.128 C 
HETATM   15  C   UNL     1       1.161   7.187 -27.176  1.00  0.00     0.032 C 
HETATM   16  C   UNL     1       1.165   8.143 -25.993  1.00  0.00     0.022 C 
HETATM   17  H   UNL     1      -1.479   8.890 -29.757  1.00  0.00     0.170 HD
BRANCH  13  18
HETATM   18  C   UNL     1      -0.277   6.983 -29.257  1.00  0.00    -0.034 A 
HETATM   19  C   UNL     1       0.746   7.165 -30.199  1.00  0.00     0.009 A 
HETATM   20  C   UNL     1       0.575   6.747 -31.525  1.00  0.00     0.002 A 
HETATM   21  C   UNL     1      -0.618   6.145 -31.931  1.00  0.00     0.017 A 
HETATM   22  C   UNL     1      -1.641   5.949 -31.002  1.00  0.00     0.033 A 
HETATM   23  C   UNL     1      -1.462   6.353 -29.672  1.00  0.00     0.026 A 
BRANCH  22  24
HETATM   24  C   UNL     1      -2.935   5.314 -31.357  1.00  0.00     0.257 C 
HETATM   25  N   UNL     1      -3.112   4.034 -30.875  1.00  0.00    -0.301 N 
HETATM   26  H   UNL     1      -2.393   3.561 -30.351  1.00  0.00     0.171 HD
HETATM   27  O   UNL     1      -3.692   5.942 -32.086  1.00  0.00    -0.267 OA
BRANCH  25  28
HETATM   28  C   UNL     1      -4.206   3.296 -31.237  1.00  0.00     0.174 A 
HETATM   29  N   UNL     1      -4.276   2.271 -32.049  1.00  0.00    -0.228 NA
HETATM   30  C   UNL     1      -5.559   1.800 -32.094  1.00  0.00     0.050 A 
HETATM   31  C   UNL     1      -5.905   0.612 -32.917  1.00  0.00     0.062 C 
HETATM   32  C   UNL     1      -6.460   2.472 -31.296  1.00  0.00     0.013 A 
HETATM   33  C   UNL     1      -7.429   0.468 -33.065  1.00  0.00     0.039 C 
HETATM   34  C   UNL     1      -8.151   0.701 -31.721  1.00  0.00     0.191 C 
HETATM   35  C   UNL     1      -7.904   2.137 -31.173  1.00  0.00     0.081 C 
HETATM   36  S   UNL     1      -5.680   3.762 -30.495  1.00  0.00    -0.055 SA
BRANCH  34  37
HETATM   37  N   UNL     1      -9.640   0.490 -31.895  1.00  0.00    -0.071 N 
HETATM   38  H   UNL     1     -10.154   1.248 -31.423  1.00  0.00     0.277 HD
HETATM   39  H   UNL     1      -9.912  -0.375 -31.408  1.00  0.00     0.277 HD
BRANCH  37  40
HETATM   40  C   UNL     1     -10.115   0.380 -33.315  1.00  0.00     0.232 C 
BRANCH  40  41
HETATM   41  C   UNL     1     -11.428   1.137 -33.458  1.00  0.00     0.023 C 
HETATM   42  C   UNL     1     -11.223   2.630 -33.248  1.00  0.00     0.007 C 
ENDBRANCH  40  41
ENDBRANCH  37  40
ENDBRANCH  34  37
ENDBRANCH  25  28
ENDBRANCH  22  24
ENDBRANCH  13  18
ENDBRANCH   1   9
TORSDOF 7
ENDMDL
MODEL 10
REMARK VINA RESULT:      -8.0      1.811      4.137
REMARK  7 active torsions:
REMARK  status: ('A' for Active; 'I' for Inactive)
REMARK    1  A    between atoms: C_2  and  C_3 
REMARK    2  A    between atoms: C_3  and  N_4 
REMARK    3  A    between atoms: N_4  and  C_7 
REMARK    4  A    between atoms: C_12  and  N_13 
REMARK       I    between atoms: N_13  and  C_14 
REMARK    5  A    between atoms: C_14  and  C_16 
REMARK    6  A    between atoms: C_20  and  C_22 
REMARK       I    between atoms: N_26  and  C_27 
REMARK       I    between atoms: C_27  and  N_29 
REMARK    7  A    between atoms: N_29  and  C_30 
ROOT
HETATM    1  C   UNL     1      -2.150   6.774 -31.050  1.00  0.00     0.037 A 
HETATM    2  C   UNL     1      -0.896   7.294 -31.370  1.00  0.00     0.029 A 
HETATM    3  C   UNL     1      -0.426   7.240 -32.686  1.00  0.00     0.004 A 
HETATM    4  C   UNL     1      -1.210   6.672 -33.691  1.00  0.00     0.023 A 
HETATM    5  C   UNL     1      -2.471   6.160 -33.381  1.00  0.00     0.046 A 
HETATM    6  C   UNL     1      -2.935   6.209 -32.062  1.00  0.00     0.052 A 
HETATM    7  C   UNL     1      -3.314   5.618 -34.405  1.00  0.00     0.099 C 
HETATM    8  N   UNL     1      -4.040   5.215 -35.216  1.00  0.00    -0.191 NA
ENDROOT
BRANCH   1   9
HETATM    9  N   UNL     1      -2.712   6.821 -29.766  1.00  0.00    -0.309 N 
HETATM   10  C   UNL     1      -2.077   6.921 -28.552  1.00  0.00     0.323 C 
HETATM   11  N   UNL     1      -2.956   7.121 -27.487  1.00  0.00    -0.325 N 
HETATM   12  O   UNL     1      -0.869   6.784 -28.389  1.00  0.00    -0.247 OA
HETATM   13  C   UNL     1      -4.113   8.032 -27.511  1.00  0.00     0.122 C 
HETATM   14  C   UNL     1      -2.430   7.029 -26.128  1.00  0.00     0.128 C 
HETATM   15  C   UNL     1      -4.577   8.069 -26.051  1.00  0.00     0.032 C 
HETATM   16  C   UNL     1      -3.259   7.998 -25.295  1.00  0.00     0.022 C 
HETATM   17  H   UNL     1      -3.663   6.499 -29.689  1.00  0.00     0.170 HD
BRANCH  13  18
HETATM   18  C   UNL     1      -5.227   7.687 -28.474  1.00  0.00    -0.034 A 
HETATM   19  C   UNL     1      -6.210   8.609 -28.862  1.00  0.00     0.009 A 
HETATM   20  C   UNL     1      -7.271   8.216 -29.686  1.00  0.00     0.002 A 
HETATM   21  C   UNL     1      -7.371   6.895 -30.132  1.00  0.00     0.017 A 
HETATM   22  C   UNL     1      -6.396   5.968 -29.760  1.00  0.00     0.033 A 
HETATM   23  C   UNL     1      -5.326   6.369 -28.949  1.00  0.00     0.026 A 
BRANCH  22  24
HETATM   24  C   UNL     1      -6.432   4.549 -30.196  1.00  0.00     0.257 C 
HETATM   25  N   UNL     1      -6.130   4.335 -31.524  1.00  0.00    -0.301 N 
HETATM   26  H   UNL     1      -5.934   5.099 -32.152  1.00  0.00     0.171 HD
HETATM   27  O   UNL     1      -6.783   3.714 -29.373  1.00  0.00    -0.267 OA
BRANCH  25  28
HETATM   28  C   UNL     1      -6.250   3.090 -32.077  1.00  0.00     0.174 A 
HETATM   29  N   UNL     1      -7.297   2.533 -32.633  1.00  0.00    -0.228 NA
HETATM   30  C   UNL     1      -6.970   1.289 -33.098  1.00  0.00     0.050 A 
HETATM   31  C   UNL     1      -7.974   0.455 -33.809  1.00  0.00     0.062 C 
HETATM   32  C   UNL     1      -5.658   0.914 -32.900  1.00  0.00     0.013 A 
HETATM   33  C   UNL     1      -7.485  -0.997 -33.948  1.00  0.00     0.039 C 
HETATM   34  C   UNL     1      -6.004  -1.054 -34.378  1.00  0.00     0.191 C 
HETATM   35  C   UNL     1      -5.071  -0.384 -33.328  1.00  0.00     0.081 C 
HETATM   36  S   UNL     1      -4.819   2.144 -32.067  1.00  0.00    -0.055 SA
BRANCH  34  37
HETATM   37  N   UNL     1      -5.580  -2.496 -34.563  1.00  0.00    -0.071 N 
HETATM   38  H   UNL     1      -5.097  -2.827 -33.715  1.00  0.00     0.277 HD
HETATM   39  H   UNL     1      -4.879  -2.542 -35.316  1.00  0.00     0.277 HD
BRANCH  37  40
HETATM   40  C   UNL     1      -6.682  -3.455 -34.910  1.00  0.00     0.232 C 
BRANCH  40  41
HETATM   41  C   UNL     1      -6.089  -4.843 -35.104  1.00  0.00     0.023 C 
HETATM   42  C   UNL     1      -4.789  -4.995 -34.327  1.00  0.00     0.007 C 
ENDBRANCH  40  41
ENDBRANCH  37  40
ENDBRANCH  34  37
ENDBRANCH  25  28
ENDBRANCH  22  24
ENDBRANCH  13  18
ENDBRANCH   1   9
TORSDOF 7
ENDMDL
