MODEL 1
REMARK VINA RESULT:      -7.8      0.000      0.000
REMARK  6 active torsions:
REMARK  status: ('A' for Active; 'I' for Inactive)
REMARK    1  A    between atoms: C_2  and  C_3 
REMARK    2  A    between atoms: C_3  and  O_4 
REMARK    3  A    between atoms: O_4  and  C_5 
REMARK    4  A    between atoms: C_9  and  C_10 
REMARK       I    between atoms: C_10  and  N_11 
REMARK    5  A    between atoms: N_11  and  C_12 
REMARK    6  A    between atoms: C_25  and  O_26 
ROOT
HETATM    1  C   UNL     1      -4.805   2.637 -31.414  1.00  0.00     0.256 C 
HETATM    2  N   UNL     1      -4.562   2.052 -32.647  1.00  0.00    -0.323 N 
HETATM    3  O   UNL     1      -5.582   2.219 -30.561  1.00  0.00    -0.267 OA
HETATM    4  H   UNL     1      -3.963   2.557 -33.289  1.00  0.00     0.169 HD
ENDROOT
BRANCH   1   5
HETATM    5  C   UNL     1      -4.068   3.903 -31.133  1.00  0.00     0.036 A 
HETATM    6  C   UNL     1      -2.753   4.020 -31.597  1.00  0.00     0.044 A 
HETATM    7  C   UNL     1      -2.013   5.183 -31.352  1.00  0.00     0.071 A 
HETATM    8  C   UNL     1      -2.578   6.243 -30.628  1.00  0.00     0.123 A 
HETATM    9 CL   UNL     1      -0.424   5.256 -32.026  1.00  0.00    -0.081 Cl
HETATM   10  C   UNL     1      -3.928   6.153 -30.250  1.00  0.00     0.104 A 
HETATM   11  C   UNL     1      -4.660   4.983 -30.474  1.00  0.00     0.056 A 
BRANCH   8  12
HETATM   12  O   UNL     1      -1.899   7.391 -30.312  1.00  0.00    -0.346 OA
BRANCH  12  13
HETATM   13  C   UNL     1      -1.304   7.366 -29.006  1.00  0.00     0.179 C 
BRANCH  13  14
HETATM   14  C   UNL     1       0.214   7.146 -29.097  1.00  0.00     0.002 C 
HETATM   15  C   UNL     1       0.605   5.738 -28.647  1.00  0.00     0.011 C 
HETATM   16  C   UNL     1       0.988   8.192 -28.295  1.00  0.00     0.011 C 
ENDBRANCH  13  14
ENDBRANCH  12  13
ENDBRANCH   8  12
BRANCH  10  17
HETATM   17  O   UNL     1      -4.612   7.145 -29.592  1.00  0.00    -0.353 OA
HETATM   18  C   UNL     1      -5.114   6.718 -28.323  1.00  0.00     0.210 C 
ENDBRANCH  10  17
ENDBRANCH   1   5
BRANCH   2  19
HETATM   19  C   UNL     1      -5.117   0.853 -33.142  1.00  0.00     0.035 A 
HETATM   20  C   UNL     1      -4.370  -0.304 -33.380  1.00  0.00     0.039 A 
HETATM   21  C   UNL     1      -5.014  -1.433 -33.864  1.00  0.00    -0.022 A 
HETATM   22  C   UNL     1      -6.387  -1.435 -34.118  1.00  0.00    -0.025 A 
HETATM   23  C   UNL     1      -4.425  -2.773 -34.146  1.00  0.00     0.274 C 
HETATM   24  C   UNL     1      -6.824  -2.777 -34.596  1.00  0.00     0.273 C 
HETATM   25  C   UNL     1      -7.148  -0.302 -33.889  1.00  0.00     0.012 A 
HETATM   26  N   UNL     1      -5.525  -3.519 -34.890  1.00  0.00    -0.067 N 
HETATM   27  H   UNL     1      -5.334  -3.369 -35.888  1.00  0.00     0.280 HD
HETATM   28  C   UNL     1      -5.568  -4.980 -34.626  1.00  0.00     0.270 C 
HETATM   29  C   UNL     1      -6.503   0.843 -33.402  1.00  0.00     0.030 A 
ENDBRANCH   2  19
TORSDOF 6
ENDMDL
MODEL 2
REMARK VINA RESULT:      -7.5      1.589      2.283
REMARK  6 active torsions:
REMARK  status: ('A' for Active; 'I' for Inactive)
REMARK    1  A    between atoms: C_2  and  C_3 
REMARK    2  A    between atoms: C_3  and  O_4 
REMARK    3  A    between atoms: O_4  and  C_5 
REMARK    4  A    between atoms: C_9  and  C_10 
REMARK       I    between atoms: C_10  and  N_11 
REMARK    5  A    between atoms: N_11  and  C_12 
REMARK    6  A    between atoms: C_25  and  O_26 
ROOT
HETATM    1  C   UNL     1      -4.821   3.275 -32.924  1.00  0.00     0.256 C 
HETATM    2  N   UNL     1      -4.647   1.996 -32.418  1.00  0.00    -0.323 N 
HETATM    3  O   UNL     1      -5.474   3.571 -33.919  1.00  0.00    -0.267 OA
HETATM    4  H   UNL     1      -4.005   1.889 -31.641  1.00  0.00     0.169 HD
ENDROOT
BRANCH   1   5
HETATM    5  C   UNL     1      -4.116   4.369 -32.195  1.00  0.00     0.036 A 
HETATM    6  C   UNL     1      -4.681   4.843 -31.006  1.00  0.00     0.044 A 
HETATM    7  C   UNL     1      -4.066   5.875 -30.288  1.00  0.00     0.071 A 
HETATM    8  C   UNL     1      -2.879   6.456 -30.758  1.00  0.00     0.123 A 
HETATM    9 CL   UNL     1      -4.806   6.341 -28.798  1.00  0.00    -0.081 Cl
HETATM   10  C   UNL     1      -2.271   5.909 -31.900  1.00  0.00     0.104 A 
HETATM   11  C   UNL     1      -2.897   4.894 -32.630  1.00  0.00     0.056 A 
BRANCH   8  12
HETATM   12  O   UNL     1      -2.246   7.499 -30.133  1.00  0.00    -0.346 OA
BRANCH  12  13
HETATM   13  C   UNL     1      -1.479   7.101 -28.987  1.00  0.00     0.179 C 
BRANCH  13  14
HETATM   14  C   UNL     1       0.021   7.050 -29.320  1.00  0.00     0.002 C 
HETATM   15  C   UNL     1       0.564   5.624 -29.245  1.00  0.00     0.011 C 
HETATM   16  C   UNL     1       0.834   7.975 -28.415  1.00  0.00     0.011 C 
ENDBRANCH  13  14
ENDBRANCH  12  13
ENDBRANCH   8  12
BRANCH  10  17
HETATM   17  O   UNL     1      -1.081   6.347 -32.425  1.00  0.00    -0.353 OA
HETATM   18  C   UNL     1      -1.164   6.621 -33.826  1.00  0.00     0.210 C 
ENDBRANCH  10  17
ENDBRANCH   1   5
BRANCH   2  19
HETATM   19  C   UNL     1      -5.215   0.802 -32.912  1.00  0.00     0.035 A 
HETATM   20  C   UNL     1      -4.459  -0.276 -33.380  1.00  0.00     0.039 A 
HETATM   21  C   UNL     1      -5.117  -1.408 -33.841  1.00  0.00    -0.022 A 
HETATM   22  C   UNL     1      -6.510  -1.488 -33.847  1.00  0.00    -0.025 A 
HETATM   23  C   UNL     1      -4.514  -2.676 -34.340  1.00  0.00     0.274 C 
HETATM   24  C   UNL     1      -6.951  -2.817 -34.358  1.00  0.00     0.273 C 
HETATM   25  C   UNL     1      -7.280  -0.434 -33.387  1.00  0.00     0.012 A 
HETATM   26  N   UNL     1      -5.688  -3.439 -34.942  1.00  0.00    -0.067 N 
HETATM   27  H   UNL     1      -5.690  -3.199 -35.940  1.00  0.00     0.280 HD
HETATM   28  C   UNL     1      -5.599  -4.916 -34.806  1.00  0.00     0.270 C 
HETATM   29  C   UNL     1      -6.622   0.713 -32.922  1.00  0.00     0.030 A 
ENDBRANCH   2  19
TORSDOF 6
ENDMDL
MODEL 3
REMARK VINA RESULT:      -7.4      3.692      9.713
REMARK  6 active torsions:
REMARK  status: ('A' for Active; 'I' for Inactive)
REMARK    1  A    between atoms: C_2  and  C_3 
REMARK    2  A    between atoms: C_3  and  O_4 
REMARK    3  A    between atoms: O_4  and  C_5 
REMARK    4  A    between atoms: C_9  and  C_10 
REMARK       I    between atoms: C_10  and  N_11 
REMARK    5  A    between atoms: N_11  and  C_12 
REMARK    6  A    between atoms: C_25  and  O_26 
ROOT
HETATM    1  C   UNL     1      -4.757   2.654 -32.727  1.00  0.00     0.256 C 
HETATM    2  N   UNL     1      -4.513   4.014 -32.833  1.00  0.00    -0.323 N 
HETATM    3  O   UNL     1      -3.972   1.814 -32.300  1.00  0.00    -0.267 OA
HETATM    4  H   UNL     1      -5.220   4.577 -33.290  1.00  0.00     0.169 HD
ENDROOT
BRANCH   1   5
HETATM    5  C   UNL     1      -6.090   2.189 -33.210  1.00  0.00     0.036 A 
HETATM    6  C   UNL     1      -7.104   3.140 -33.371  1.00  0.00     0.044 A 
HETATM    7  C   UNL     1      -8.376   2.756 -33.812  1.00  0.00     0.071 A 
HETATM    8  C   UNL     1      -8.653   1.408 -34.088  1.00  0.00     0.123 A 
HETATM    9 CL   UNL     1      -9.536   4.013 -34.044  1.00  0.00    -0.081 Cl
HETATM   10  C   UNL     1      -7.604   0.478 -34.014  1.00  0.00     0.104 A 
HETATM   11  C   UNL     1      -6.340   0.857 -33.551  1.00  0.00     0.056 A 
BRANCH   8  12
HETATM   12  O   UNL     1      -9.886   0.953 -34.479  1.00  0.00    -0.346 OA
BRANCH  12  13
HETATM   13  C   UNL     1     -10.791   0.735 -33.387  1.00  0.00     0.179 C 
BRANCH  13  14
HETATM   14  C   UNL     1     -12.236   1.062 -33.795  1.00  0.00     0.002 C 
HETATM   15  C   UNL     1     -13.150  -0.154 -33.645  1.00  0.00     0.011 C 
HETATM   16  C   UNL     1     -12.312   1.609 -35.221  1.00  0.00     0.011 C 
ENDBRANCH  13  14
ENDBRANCH  12  13
ENDBRANCH   8  12
BRANCH  10  17
HETATM   17  O   UNL     1      -7.732  -0.855 -34.316  1.00  0.00    -0.353 OA
HETATM   18  C   UNL     1      -6.501  -1.570 -34.179  1.00  0.00     0.210 C 
ENDBRANCH  10  17
ENDBRANCH   1   5
BRANCH   2  19
HETATM   19  C   UNL     1      -3.346   4.701 -32.435  1.00  0.00     0.035 A 
HETATM   20  C   UNL     1      -3.221   5.370 -31.214  1.00  0.00     0.039 A 
HETATM   21  C   UNL     1      -2.027   6.011 -30.917  1.00  0.00    -0.022 A 
HETATM   22  C   UNL     1      -0.954   6.001 -31.811  1.00  0.00    -0.025 A 
HETATM   23  C   UNL     1      -1.667   6.741 -29.669  1.00  0.00     0.274 C 
HETATM   24  C   UNL     1       0.209   6.731 -31.231  1.00  0.00     0.273 C 
HETATM   25  C   UNL     1      -1.053   5.344 -33.025  1.00  0.00     0.012 A 
HETATM   26  N   UNL     1      -0.358   7.443 -30.009  1.00  0.00    -0.067 N 
HETATM   27  H   UNL     1      -0.623   8.382 -30.327  1.00  0.00     0.280 HD
HETATM   28  C   UNL     1       0.587   7.574 -28.870  1.00  0.00     0.270 C 
HETATM   29  C   UNL     1      -2.257   4.696 -33.332  1.00  0.00     0.030 A 
ENDBRANCH   2  19
TORSDOF 6
ENDMDL
MODEL 4
REMARK VINA RESULT:      -7.2      6.497      8.729
REMARK  6 active torsions:
REMARK  status: ('A' for Active; 'I' for Inactive)
REMARK    1  A    between atoms: C_2  and  C_3 
REMARK    2  A    between atoms: C_3  and  O_4 
REMARK    3  A    between atoms: O_4  and  C_5 
REMARK    4  A    between atoms: C_9  and  C_10 
REMARK       I    between atoms: C_10  and  N_11 
REMARK    5  A    between atoms: N_11  and  C_12 
REMARK    6  A    between atoms: C_25  and  O_26 
ROOT
HETATM    1  C   UNL     1      -9.519   0.792 -33.494  1.00  0.00     0.256 C 
HETATM    2  N   UNL     1      -8.257   0.854 -34.064  1.00  0.00    -0.323 N 
HETATM    3  O   UNL     1      -9.968  -0.145 -32.843  1.00  0.00    -0.267 OA
HETATM    4  H   UNL     1      -8.053   1.652 -34.653  1.00  0.00     0.169 HD
ENDROOT
BRANCH   1   5
HETATM    5  C   UNL     1     -10.403   1.970 -33.733  1.00  0.00     0.036 A 
HETATM    6  C   UNL     1      -9.820   3.147 -34.217  1.00  0.00     0.044 A 
HETATM    7  C   UNL     1     -10.602   4.284 -34.449  1.00  0.00     0.071 A 
HETATM    8  C   UNL     1     -11.980   4.262 -34.187  1.00  0.00     0.123 A 
HETATM    9 CL   UNL     1      -9.801   5.663 -35.112  1.00  0.00    -0.081 Cl
HETATM   10  C   UNL     1     -12.569   3.050 -33.792  1.00  0.00     0.104 A 
HETATM   11  C   UNL     1     -11.785   1.920 -33.539  1.00  0.00     0.056 A 
BRANCH   8  12
HETATM   12  O   UNL     1     -12.799   5.350 -34.347  1.00  0.00    -0.346 OA
BRANCH  12  13
HETATM   13  C   UNL     1     -13.174   5.592 -35.711  1.00  0.00     0.179 C 
BRANCH  13  14
HETATM   14  C   UNL     1     -13.627   7.047 -35.909  1.00  0.00     0.002 C 
HETATM   15  C   UNL     1     -14.697   7.159 -36.994  1.00  0.00     0.011 C 
HETATM   16  C   UNL     1     -12.450   7.969 -36.228  1.00  0.00     0.011 C 
ENDBRANCH  13  14
ENDBRANCH  12  13
ENDBRANCH   8  12
BRANCH  10  17
HETATM   17  O   UNL     1     -13.912   2.883 -33.565  1.00  0.00    -0.353 OA
HETATM   18  C   UNL     1     -14.238   2.879 -32.172  1.00  0.00     0.210 C 
ENDBRANCH  10  17
ENDBRANCH   1   5
BRANCH   2  19
HETATM   19  C   UNL     1      -7.236  -0.117 -33.973  1.00  0.00     0.035 A 
HETATM   20  C   UNL     1      -6.291  -0.150 -32.944  1.00  0.00     0.039 A 
HETATM   21  C   UNL     1      -5.330  -1.151 -32.945  1.00  0.00    -0.022 A 
HETATM   22  C   UNL     1      -5.289  -2.119 -33.950  1.00  0.00    -0.025 A 
HETATM   23  C   UNL     1      -4.264  -1.396 -31.933  1.00  0.00     0.274 C 
HETATM   24  C   UNL     1      -4.186  -3.088 -33.692  1.00  0.00     0.273 C 
HETATM   25  C   UNL     1      -6.215  -2.108 -34.978  1.00  0.00     0.012 A 
HETATM   26  N   UNL     1      -3.367  -2.445 -32.579  1.00  0.00    -0.067 N 
HETATM   27  H   UNL     1      -2.620  -1.918 -33.048  1.00  0.00     0.280 HD
HETATM   28  C   UNL     1      -2.750  -3.402 -31.626  1.00  0.00     0.270 C 
HETATM   29  C   UNL     1      -7.188  -1.099 -34.985  1.00  0.00     0.030 A 
ENDBRANCH   2  19
TORSDOF 6
ENDMDL
MODEL 5
REMARK VINA RESULT:      -7.1      1.725      2.507
REMARK  6 active torsions:
REMARK  status: ('A' for Active; 'I' for Inactive)
REMARK    1  A    between atoms: C_2  and  C_3 
REMARK    2  A    between atoms: C_3  and  O_4 
REMARK    3  A    between atoms: O_4  and  C_5 
REMARK    4  A    between atoms: C_9  and  C_10 
REMARK       I    between atoms: C_10  and  N_11 
REMARK    5  A    between atoms: N_11  and  C_12 
REMARK    6  A    between atoms: C_25  and  O_26 
ROOT
HETATM    1  C   UNL     1      -5.652   2.331 -31.076  1.00  0.00     0.256 C 
HETATM    2  N   UNL     1      -5.266   1.899 -32.335  1.00  0.00    -0.323 N 
HETATM    3  O   UNL     1      -6.368   1.716 -30.293  1.00  0.00    -0.267 OA
HETATM    4  H   UNL     1      -4.747   2.551 -32.910  1.00  0.00     0.169 HD
ENDROOT
BRANCH   1   5
HETATM    5  C   UNL     1      -5.165   3.681 -30.670  1.00  0.00     0.036 A 
HETATM    6  C   UNL     1      -5.762   4.295 -29.563  1.00  0.00     0.044 A 
HETATM    7  C   UNL     1      -5.349   5.566 -29.146  1.00  0.00     0.071 A 
HETATM    8  C   UNL     1      -4.339   6.247 -29.841  1.00  0.00     0.123 A 
HETATM    9 CL   UNL     1      -6.100   6.206 -27.728  1.00  0.00    -0.081 Cl
HETATM   10  C   UNL     1      -3.683   5.584 -30.891  1.00  0.00     0.104 A 
HETATM   11  C   UNL     1      -4.110   4.324 -31.322  1.00  0.00     0.056 A 
BRANCH   8  12
HETATM   12  O   UNL     1      -3.916   7.511 -29.518  1.00  0.00    -0.346 OA
BRANCH  12  13
HETATM   13  C   UNL     1      -2.860   7.532 -28.548  1.00  0.00     0.179 C 
BRANCH  13  14
HETATM   14  C   UNL     1      -1.826   8.618 -28.884  1.00  0.00     0.002 C 
HETATM   15  C   UNL     1      -2.180   9.350 -30.178  1.00  0.00     0.011 C 
HETATM   16  C   UNL     1      -0.411   8.045 -28.970  1.00  0.00     0.011 C 
ENDBRANCH  13  14
ENDBRANCH  12  13
ENDBRANCH   8  12
BRANCH  10  17
HETATM   17  O   UNL     1      -2.641   6.117 -31.608  1.00  0.00    -0.353 OA
HETATM   18  C   UNL     1      -1.821   5.114 -32.215  1.00  0.00     0.210 C 
ENDBRANCH  10  17
ENDBRANCH   1   5
BRANCH   2  19
HETATM   19  C   UNL     1      -5.579   0.664 -32.942  1.00  0.00     0.035 A 
HETATM   20  C   UNL     1      -4.674  -0.396 -33.050  1.00  0.00     0.039 A 
HETATM   21  C   UNL     1      -5.085  -1.572 -33.661  1.00  0.00    -0.022 A 
HETATM   22  C   UNL     1      -6.377  -1.715 -34.169  1.00  0.00    -0.025 A 
HETATM   23  C   UNL     1      -4.305  -2.828 -33.844  1.00  0.00     0.274 C 
HETATM   24  C   UNL     1      -6.562  -3.080 -34.738  1.00  0.00     0.273 C 
HETATM   25  C   UNL     1      -7.292  -0.681 -34.072  1.00  0.00     0.012 A 
HETATM   26  N   UNL     1      -5.156  -3.665 -34.792  1.00  0.00    -0.067 N 
HETATM   27  H   UNL     1      -4.801  -3.461 -35.734  1.00  0.00     0.280 HD
HETATM   28  C   UNL     1      -5.080  -5.130 -34.560  1.00  0.00     0.270 C 
HETATM   29  C   UNL     1      -6.883   0.511 -33.457  1.00  0.00     0.030 A 
ENDBRANCH   2  19
TORSDOF 6
ENDMDL
MODEL 6
REMARK VINA RESULT:      -7.0      3.605      9.979
REMARK  6 active torsions:
REMARK  status: ('A' for Active; 'I' for Inactive)
REMARK    1  A    between atoms: C_2  and  C_3 
REMARK    2  A    between atoms: C_3  and  O_4 
REMARK    3  A    between atoms: O_4  and  C_5 
REMARK    4  A    between atoms: C_9  and  C_10 
REMARK       I    between atoms: C_10  and  N_11 
REMARK    5  A    between atoms: N_11  and  C_12 
REMARK    6  A    between atoms: C_25  and  O_26 
ROOT
HETATM    1  C   UNL     1      -1.637   5.838 -31.166  1.00  0.00     0.256 C 
HETATM    2  N   UNL     1      -1.822   6.154 -29.830  1.00  0.00    -0.323 N 
HETATM    3  O   UNL     1      -0.660   6.134 -31.846  1.00  0.00    -0.267 OA
HETATM    4  H   UNL     1      -2.720   5.925 -29.420  1.00  0.00     0.169 HD
ENDROOT
BRANCH   1   5
HETATM    5  C   UNL     1      -2.752   5.097 -31.824  1.00  0.00     0.036 A 
HETATM    6  C   UNL     1      -2.693   3.699 -31.850  1.00  0.00     0.044 A 
HETATM    7  C   UNL     1      -3.709   2.956 -32.463  1.00  0.00     0.071 A 
HETATM    8  C   UNL     1      -4.794   3.605 -33.071  1.00  0.00     0.123 A 
HETATM    9 CL   UNL     1      -3.578   1.235 -32.381  1.00  0.00    -0.081 Cl
HETATM   10  C   UNL     1      -4.890   5.001 -32.957  1.00  0.00     0.104 A 
HETATM   11  C   UNL     1      -3.866   5.745 -32.364  1.00  0.00     0.056 A 
BRANCH   8  12
HETATM   12  O   UNL     1      -5.799   2.945 -33.729  1.00  0.00    -0.346 OA
BRANCH  12  13
HETATM   13  C   UNL     1      -6.819   2.436 -32.857  1.00  0.00     0.179 C 
BRANCH  13  14
HETATM   14  C   UNL     1      -7.387   1.110 -33.387  1.00  0.00     0.002 C 
HETATM   15  C   UNL     1      -6.993  -0.066 -32.495  1.00  0.00     0.011 C 
HETATM   16  C   UNL     1      -6.958   0.847 -34.831  1.00  0.00     0.011 C 
ENDBRANCH  13  14
ENDBRANCH  12  13
ENDBRANCH   8  12
BRANCH  10  17
HETATM   17  O   UNL     1      -5.931   5.745 -33.454  1.00  0.00    -0.353 OA
HETATM   18  C   UNL     1      -6.661   6.423 -32.428  1.00  0.00     0.210 C 
ENDBRANCH  10  17
ENDBRANCH   1   5
BRANCH   2  19
HETATM   19  C   UNL     1      -0.918   6.832 -28.984  1.00  0.00     0.035 A 
HETATM   20  C   UNL     1      -1.044   8.181 -28.640  1.00  0.00     0.039 A 
HETATM   21  C   UNL     1      -0.102   8.751 -27.796  1.00  0.00    -0.022 A 
HETATM   22  C   UNL     1       0.964   8.006 -27.288  1.00  0.00    -0.025 A 
HETATM   23  C   UNL     1      -0.068  10.146 -27.273  1.00  0.00     0.274 C 
HETATM   24  C   UNL     1       1.801   8.849 -26.386  1.00  0.00     0.273 C 
HETATM   25  C   UNL     1       1.109   6.669 -27.612  1.00  0.00     0.012 A 
HETATM   26  N   UNL     1       1.305  10.270 -26.624  1.00  0.00    -0.067 N 
HETATM   27  H   UNL     1       1.917  10.665 -27.348  1.00  0.00     0.280 HD
HETATM   28  C   UNL     1       1.347  11.153 -25.430  1.00  0.00     0.270 C 
HETATM   29  C   UNL     1       0.162   6.087 -28.466  1.00  0.00     0.030 A 
ENDBRANCH   2  19
TORSDOF 6
ENDMDL
MODEL 7
REMARK VINA RESULT:      -7.0      1.942      2.309
REMARK  6 active torsions:
REMARK  status: ('A' for Active; 'I' for Inactive)
REMARK    1  A    between atoms: C_2  and  C_3 
REMARK    2  A    between atoms: C_3  and  O_4 
REMARK    3  A    between atoms: O_4  and  C_5 
REMARK    4  A    between atoms: C_9  and  C_10 
REMARK       I    between atoms: C_10  and  N_11 
REMARK    5  A    between atoms: N_11  and  C_12 
REMARK    6  A    between atoms: C_25  and  O_26 
ROOT
HETATM    1  C   UNL     1      -3.065   4.133 -32.625  1.00  0.00     0.256 C 
HETATM    2  N   UNL     1      -3.472   3.007 -31.925  1.00  0.00    -0.323 N 
HETATM    3  O   UNL     1      -3.249   4.343 -33.819  1.00  0.00    -0.267 OA
HETATM    4  H   UNL     1      -3.171   2.927 -30.962  1.00  0.00     0.169 HD
ENDROOT
BRANCH   1   5
HETATM    5  C   UNL     1      -2.312   5.154 -31.840  1.00  0.00     0.036 A 
HETATM    6  C   UNL     1      -1.248   4.721 -31.040  1.00  0.00     0.044 A 
HETATM    7  C   UNL     1      -0.514   5.636 -30.276  1.00  0.00     0.071 A 
HETATM    8  C   UNL     1      -0.845   6.999 -30.293  1.00  0.00     0.123 A 
HETATM    9 CL   UNL     1       0.822   5.011 -29.378  1.00  0.00    -0.081 Cl
HETATM   10  C   UNL     1      -1.852   7.435 -31.169  1.00  0.00     0.104 A 
HETATM   11  C   UNL     1      -2.600   6.519 -31.916  1.00  0.00     0.056 A 
BRANCH   8  12
HETATM   12  O   UNL     1      -0.201   7.944 -29.537  1.00  0.00    -0.346 OA
BRANCH  12  13
HETATM   13  C   UNL     1      -0.764   8.114 -28.228  1.00  0.00     0.179 C 
BRANCH  13  14
HETATM   14  C   UNL     1       0.338   8.308 -27.175  1.00  0.00     0.002 C 
HETATM   15  C   UNL     1       1.662   8.719 -27.817  1.00  0.00     0.011 C 
HETATM   16  C   UNL     1       0.530   7.056 -26.319  1.00  0.00     0.011 C 
ENDBRANCH  13  14
ENDBRANCH  12  13
ENDBRANCH   8  12
BRANCH  10  17
HETATM   17  O   UNL     1      -2.226   8.746 -31.323  1.00  0.00    -0.353 OA
HETATM   18  C   UNL     1      -3.560   8.994 -30.872  1.00  0.00     0.210 C 
ENDBRANCH  10  17
ENDBRANCH   1   5
BRANCH   2  19
HETATM   19  C   UNL     1      -4.206   1.913 -32.430  1.00  0.00     0.035 A 
HETATM   20  C   UNL     1      -3.622   0.708 -32.827  1.00  0.00     0.039 A 
HETATM   21  C   UNL     1      -4.437  -0.309 -33.306  1.00  0.00    -0.022 A 
HETATM   22  C   UNL     1      -5.820  -0.150 -33.399  1.00  0.00    -0.025 A 
HETATM   23  C   UNL     1      -4.033  -1.676 -33.740  1.00  0.00     0.274 C 
HETATM   24  C   UNL     1      -6.452  -1.400 -33.910  1.00  0.00     0.273 C 
HETATM   25  C   UNL     1      -6.422   1.034 -33.011  1.00  0.00     0.012 A 
HETATM   26  N   UNL     1      -5.283  -2.246 -34.399  1.00  0.00    -0.067 N 
HETATM   27  H   UNL     1      -5.185  -2.040 -35.400  1.00  0.00     0.280 HD
HETATM   28  C   UNL     1      -5.459  -3.711 -34.228  1.00  0.00     0.270 C 
HETATM   29  C   UNL     1      -5.605   2.066 -32.528  1.00  0.00     0.030 A 
ENDBRANCH   2  19
TORSDOF 6
ENDMDL
MODEL 8
REMARK VINA RESULT:      -7.0      6.054     11.704
REMARK  6 active torsions:
REMARK  status: ('A' for Active; 'I' for Inactive)
REMARK    1  A    between atoms: C_2  and  C_3 
REMARK    2  A    between atoms: C_3  and  O_4 
REMARK    3  A    between atoms: O_4  and  C_5 
REMARK    4  A    between atoms: C_9  and  C_10 
REMARK       I    between atoms: C_10  and  N_11 
REMARK    5  A    between atoms: N_11  and  C_12 
REMARK    6  A    between atoms: C_25  and  O_26 
ROOT
HETATM    1  C   UNL     1      -0.393   8.583 -27.610  1.00  0.00     0.256 C 
HETATM    2  N   UNL     1       0.870   9.137 -27.479  1.00  0.00    -0.323 N 
HETATM    3  O   UNL     1      -1.175   8.350 -26.695  1.00  0.00    -0.267 OA
HETATM    4  H   UNL     1       1.443   9.187 -28.312  1.00  0.00     0.169 HD
ENDROOT
BRANCH   1   5
HETATM    5  C   UNL     1      -0.805   8.216 -28.997  1.00  0.00     0.036 A 
HETATM    6  C   UNL     1      -0.225   7.085 -29.583  1.00  0.00     0.044 A 
HETATM    7  C   UNL     1      -0.569   6.703 -30.884  1.00  0.00     0.071 A 
HETATM    8  C   UNL     1      -1.492   7.457 -31.624  1.00  0.00     0.123 A 
HETATM    9 CL   UNL     1       0.150   5.254 -31.490  1.00  0.00    -0.081 Cl
HETATM   10  C   UNL     1      -2.138   8.533 -30.994  1.00  0.00     0.104 A 
HETATM   11  C   UNL     1      -1.778   8.929 -29.702  1.00  0.00     0.056 A 
BRANCH   8  12
HETATM   12  O   UNL     1      -1.842   7.169 -32.918  1.00  0.00    -0.346 OA
BRANCH  12  13
HETATM   13  C   UNL     1      -2.919   6.227 -33.026  1.00  0.00     0.179 C 
BRANCH  13  14
HETATM   14  C   UNL     1      -2.650   5.208 -34.144  1.00  0.00     0.002 C 
HETATM   15  C   UNL     1      -1.288   5.439 -34.798  1.00  0.00     0.011 C 
HETATM   16  C   UNL     1      -3.754   5.221 -35.201  1.00  0.00     0.011 C 
ENDBRANCH  13  14
ENDBRANCH  12  13
ENDBRANCH   8  12
BRANCH  10  17
HETATM   17  O   UNL     1      -3.102   9.309 -31.588  1.00  0.00    -0.353 OA
HETATM   18  C   UNL     1      -4.354   9.253 -30.900  1.00  0.00     0.210 C 
ENDBRANCH  10  17
ENDBRANCH   1   5
BRANCH   2  19
HETATM   19  C   UNL     1       1.484   9.579 -26.287  1.00  0.00     0.035 A 
HETATM   20  C   UNL     1       2.335   8.784 -25.515  1.00  0.00     0.039 A 
HETATM   21  C   UNL     1       2.892   9.317 -24.361  1.00  0.00    -0.022 A 
HETATM   22  C   UNL     1       2.616  10.625 -23.958  1.00  0.00    -0.025 A 
HETATM   23  C   UNL     1       3.849   8.666 -23.423  1.00  0.00     0.274 C 
HETATM   24  C   UNL     1       3.366  10.952 -22.712  1.00  0.00     0.273 C 
HETATM   25  C   UNL     1       1.778  11.432 -24.707  1.00  0.00     0.012 A 
HETATM   26  N   UNL     1       3.903   9.610 -22.227  1.00  0.00    -0.067 N 
HETATM   27  H   UNL     1       3.207   9.252 -21.561  1.00  0.00     0.280 HD
HETATM   28  C   UNL     1       5.223   9.675 -21.550  1.00  0.00     0.270 C 
HETATM   29  C   UNL     1       1.211  10.899 -25.873  1.00  0.00     0.030 A 
ENDBRANCH   2  19
TORSDOF 6
ENDMDL
MODEL 9
REMARK VINA RESULT:      -6.8      6.285      8.860
REMARK  6 active torsions:
REMARK  status: ('A' for Active; 'I' for Inactive)
REMARK    1  A    between atoms: C_2  and  C_3 
REMARK    2  A    between atoms: C_3  and  O_4 
REMARK    3  A    between atoms: O_4  and  C_5 
REMARK    4  A    between atoms: C_9  and  C_10 
REMARK       I    between atoms: C_10  and  N_11 
REMARK    5  A    between atoms: N_11  and  C_12 
REMARK    6  A    between atoms: C_25  and  O_26 
ROOT
HETATM    1  C   UNL     1      -8.731   1.908 -33.845  1.00  0.00     0.256 C 
HETATM    2  N   UNL     1      -8.702   0.534 -33.669  1.00  0.00    -0.323 N 
HETATM    3  O   UNL     1      -7.756   2.632 -34.012  1.00  0.00    -0.267 OA
HETATM    4  H   UNL     1      -9.579   0.076 -33.450  1.00  0.00     0.169 HD
ENDROOT
BRANCH   1   5
HETATM    5  C   UNL     1     -10.079   2.546 -33.791  1.00  0.00     0.036 A 
HETATM    6  C   UNL     1     -10.196   3.796 -33.171  1.00  0.00     0.044 A 
HETATM    7  C   UNL     1     -11.438   4.434 -33.085  1.00  0.00     0.071 A 
HETATM    8  C   UNL     1     -12.587   3.821 -33.608  1.00  0.00     0.123 A 
HETATM    9 CL   UNL     1     -11.464   6.003 -32.364  1.00  0.00    -0.081 Cl
HETATM   10  C   UNL     1     -12.443   2.613 -34.310  1.00  0.00     0.104 A 
HETATM   11  C   UNL     1     -11.206   1.965 -34.377  1.00  0.00     0.056 A 
BRANCH   8  12
HETATM   12  O   UNL     1     -13.843   4.365 -33.519  1.00  0.00    -0.346 OA
BRANCH  12  13
HETATM   13  C   UNL     1     -14.583   3.917 -32.375  1.00  0.00     0.179 C 
BRANCH  13  14
HETATM   14  C   UNL     1     -15.023   5.104 -31.504  1.00  0.00     0.002 C 
HETATM   15  C   UNL     1     -15.086   6.400 -32.312  1.00  0.00     0.011 C 
HETATM   16  C   UNL     1     -14.115   5.283 -30.287  1.00  0.00     0.011 C 
ENDBRANCH  13  14
ENDBRANCH  12  13
ENDBRANCH   8  12
BRANCH  10  17
HETATM   17  O   UNL     1     -13.478   1.947 -34.918  1.00  0.00    -0.353 OA
HETATM   18  C   UNL     1     -13.716   0.659 -34.344  1.00  0.00     0.210 C 
ENDBRANCH  10  17
ENDBRANCH   1   5
BRANCH   2  19
HETATM   19  C   UNL     1      -7.565  -0.301 -33.692  1.00  0.00     0.035 A 
HETATM   20  C   UNL     1      -6.622  -0.351 -32.661  1.00  0.00     0.039 A 
HETATM   21  C   UNL     1      -5.540  -1.212 -32.780  1.00  0.00    -0.022 A 
HETATM   22  C   UNL     1      -5.376  -2.023 -33.905  1.00  0.00    -0.025 A 
HETATM   23  C   UNL     1      -4.451  -1.453 -31.792  1.00  0.00     0.274 C 
HETATM   24  C   UNL     1      -4.157  -2.869 -33.760  1.00  0.00     0.273 C 
HETATM   25  C   UNL     1      -6.297  -1.992 -34.937  1.00  0.00     0.012 A 
HETATM   26  N   UNL     1      -3.426  -2.282 -32.558  1.00  0.00    -0.067 N 
HETATM   27  H   UNL     1      -2.754  -1.606 -32.940  1.00  0.00     0.280 HD
HETATM   28  C   UNL     1      -2.690  -3.272 -31.731  1.00  0.00     0.270 C 
HETATM   29  C   UNL     1      -7.391  -1.124 -34.824  1.00  0.00     0.030 A 
ENDBRANCH   2  19
TORSDOF 6
ENDMDL
MODEL 10
REMARK VINA RESULT:      -6.8      3.458      9.990
REMARK  6 active torsions:
REMARK  status: ('A' for Active; 'I' for Inactive)
REMARK    1  A    between atoms: C_2  and  C_3 
REMARK    2  A    between atoms: C_3  and  O_4 
REMARK    3  A    between atoms: O_4  and  C_5 
REMARK    4  A    between atoms: C_9  and  C_10 
REMARK       I    between atoms: C_10  and  N_11 
REMARK    5  A    between atoms: N_11  and  C_12 
REMARK    6  A    between atoms: C_25  and  O_26 
ROOT
HETATM    1  C   UNL     1      -1.914   4.908 -31.189  1.00  0.00     0.256 C 
HETATM    2  N   UNL     1      -2.246   5.765 -30.151  1.00  0.00    -0.323 N 
HETATM    3  O   UNL     1      -0.795   4.758 -31.667  1.00  0.00    -0.267 OA
HETATM    4  H   UNL     1      -3.228   5.854 -29.919  1.00  0.00     0.169 HD
ENDROOT
BRANCH   1   5
HETATM    5  C   UNL     1      -3.042   4.132 -31.782  1.00  0.00     0.036 A 
HETATM    6  C   UNL     1      -4.065   4.838 -32.424  1.00  0.00     0.044 A 
HETATM    7  C   UNL     1      -5.151   4.160 -32.989  1.00  0.00     0.071 A 
HETATM    8  C   UNL     1      -5.234   2.761 -32.907  1.00  0.00     0.123 A 
HETATM    9 CL   UNL     1      -6.325   5.116 -33.820  1.00  0.00    -0.081 Cl
HETATM   10  C   UNL     1      -4.157   2.058 -32.344  1.00  0.00     0.104 A 
HETATM   11  C   UNL     1      -3.083   2.736 -31.760  1.00  0.00     0.056 A 
BRANCH   8  12
HETATM   12  O   UNL     1      -6.289   2.035 -33.397  1.00  0.00    -0.346 OA
BRANCH  12  13
HETATM   13  C   UNL     1      -7.361   1.876 -32.457  1.00  0.00     0.179 C 
BRANCH  13  14
HETATM   14  C   UNL     1      -7.821   0.411 -32.390  1.00  0.00     0.002 C 
HETATM   15  C   UNL     1      -7.243  -0.413 -33.539  1.00  0.00     0.011 C 
HETATM   16  C   UNL     1      -9.346   0.296 -32.371  1.00  0.00     0.011 C 
ENDBRANCH  13  14
ENDBRANCH  12  13
ENDBRANCH   8  12
BRANCH  10  17
HETATM   17  O   UNL     1      -4.090   0.689 -32.260  1.00  0.00    -0.353 OA
HETATM   18  C   UNL     1      -4.263   0.211 -30.924  1.00  0.00     0.210 C 
ENDBRANCH  10  17
ENDBRANCH   1   5
BRANCH   2  19
HETATM   19  C   UNL     1      -1.367   6.590 -29.417  1.00  0.00     0.035 A 
HETATM   20  C   UNL     1      -1.705   7.868 -28.964  1.00  0.00     0.039 A 
HETATM   21  C   UNL     1      -0.767   8.597 -28.246  1.00  0.00    -0.022 A 
HETATM   22  C   UNL     1       0.500   8.081 -27.971  1.00  0.00    -0.025 A 
HETATM   23  C   UNL     1      -0.930   9.949 -27.639  1.00  0.00     0.274 C 
HETATM   24  C   UNL     1       1.290   9.051 -27.160  1.00  0.00     0.273 C 
HETATM   25  C   UNL     1       0.857   6.817 -28.407  1.00  0.00     0.012 A 
HETATM   26  N   UNL     1       0.480  10.342 -27.215  1.00  0.00    -0.067 N 
HETATM   27  H   UNL     1       0.864  10.882 -27.999  1.00  0.00     0.280 HD
HETATM   28  C   UNL     1       0.546  11.172 -25.985  1.00  0.00     0.270 C 
HETATM   29  C   UNL     1      -0.084   6.076 -29.135  1.00  0.00     0.030 A 
ENDBRANCH   2  19
TORSDOF 6
ENDMDL
