MODEL 1
REMARK VINA RESULT:      -8.5      0.000      0.000
REMARK  7 active torsions:
REMARK  status: ('A' for Active; 'I' for Inactive)
REMARK    1  A    between atoms: O_2  and  C_3 
REMARK    2  A    between atoms: N_9  and  N_10 
REMARK       I    between atoms: N_10  and  C_11 
REMARK    3  A    between atoms: C_11  and  C_12 
REMARK    4  A    between atoms: C_12  and  C_13 
REMARK    5  A    between atoms: C_13  and  C_14 
REMARK    6  A    between atoms: C_14  and  N_15 
REMARK       I    between atoms: N_15  and  C_16 
REMARK    7  A    between atoms: C_16  and  C_17 
ROOT
HETATM    1  N   UNL     1      -4.754   3.604 -31.882  1.00  0.00    -0.246 N 
HETATM    2  C   UNL     1      -5.861   3.910 -31.104  1.00  0.00     0.237 C 
HETATM    3  O   UNL     1      -6.760   4.691 -31.400  1.00  0.00    -0.272 OA
HETATM    4  H   UNL     1      -4.194   2.792 -31.650  1.00  0.00     0.192 HD
ENDROOT
BRANCH   1   5
HETATM    5  N   UNL     1      -4.639   4.133 -33.130  1.00  0.00    -0.166 NA
HETATM    6  C   UNL     1      -3.655   4.931 -33.397  1.00  0.00     0.157 A 
HETATM    7  C   UNL     1      -2.601   5.548 -32.577  1.00  0.00     0.029 A 
HETATM    8  C   UNL     1      -3.420   5.450 -34.832  1.00  0.00     0.277 A 
HETATM    9  C   UNL     1      -2.325   5.529 -31.222  1.00  0.00     0.053 A 
HETATM   10  C   UNL     1      -1.824   6.310 -33.451  1.00  0.00     0.048 A 
HETATM   11  C   UNL     1      -1.214   6.247 -30.759  1.00  0.00     0.069 A 
HETATM   12  C   UNL     1      -0.430   7.001 -31.652  1.00  0.00     0.039 A 
HETATM   13  C   UNL     1      -0.738   7.043 -33.017  1.00  0.00     0.033 A 
HETATM   14  N   UNL     1      -2.300   6.247 -34.754  1.00  0.00    -0.321 N 
HETATM   15  H   UNL     1      -1.920   6.725 -35.556  1.00  0.00     0.169 HD
HETATM   16  O   UNL     1      -4.076   5.195 -35.817  1.00  0.00    -0.266 OA
BRANCH  11  17
HETATM   17  O   UNL     1      -1.006   6.148 -29.409  1.00  0.00    -0.356 OA
HETATM   18  C   UNL     1       0.345   6.123 -28.966  1.00  0.00     0.210 C 
ENDBRANCH  11  17
ENDBRANCH   1   5
BRANCH   2  19
HETATM   19  C   UNL     1      -5.860   3.186 -29.776  1.00  0.00     0.106 C 
BRANCH  19  20
HETATM   20  C   UNL     1      -5.722   1.681 -29.962  1.00  0.00     0.029 C 
BRANCH  20  21
HETATM   21  C   UNL     1      -6.935   1.124 -30.703  1.00  0.00     0.123 C 
BRANCH  21  22
HETATM   22  N   UNL     1      -6.614  -0.063 -31.464  1.00  0.00    -0.357 N 
HETATM   23  C   UNL     1      -6.215  -0.012 -32.779  1.00  0.00     0.253 C 
HETATM   24  O   UNL     1      -6.105   1.054 -33.381  1.00  0.00    -0.268 OA
HETATM   25  H   UNL     1      -6.754  -0.963 -31.021  1.00  0.00     0.162 HD
BRANCH  23  26
HETATM   26  C   UNL     1      -5.867  -1.298 -33.467  1.00  0.00     0.053 A 
HETATM   27  C   UNL     1      -4.605  -1.915 -33.486  1.00  0.00     0.049 A 
HETATM   28 CL   UNL     1      -3.211  -1.317 -32.654  1.00  0.00    -0.083 Cl
HETATM   29  C   UNL     1      -4.419  -3.113 -34.195  1.00  0.00     0.025 A 
HETATM   30  C   UNL     1      -5.477  -3.710 -34.880  1.00  0.00     0.002 A 
HETATM   31  C   UNL     1      -6.732  -3.117 -34.857  1.00  0.00     0.001 A 
HETATM   32  C   UNL     1      -6.925  -1.923 -34.157  1.00  0.00     0.019 A 
ENDBRANCH  23  26
ENDBRANCH  21  22
ENDBRANCH  20  21
ENDBRANCH  19  20
ENDBRANCH   2  19
TORSDOF 7
ENDMDL
MODEL 2
REMARK VINA RESULT:      -8.2      2.792      9.040
REMARK  7 active torsions:
REMARK  status: ('A' for Active; 'I' for Inactive)
REMARK    1  A    between atoms: O_2  and  C_3 
REMARK    2  A    between atoms: N_9  and  N_10 
REMARK       I    between atoms: N_10  and  C_11 
REMARK    3  A    between atoms: C_11  and  C_12 
REMARK    4  A    between atoms: C_12  and  C_13 
REMARK    5  A    between atoms: C_13  and  C_14 
REMARK    6  A    between atoms: C_14  and  N_15 
REMARK       I    between atoms: N_15  and  C_16 
REMARK    7  A    between atoms: C_16  and  C_17 
ROOT
HETATM    1  N   UNL     1      -3.905   2.277 -32.501  1.00  0.00    -0.246 N 
HETATM    2  C   UNL     1      -3.266   3.475 -32.216  1.00  0.00     0.237 C 
HETATM    3  O   UNL     1      -2.233   3.607 -31.567  1.00  0.00    -0.272 OA
HETATM    4  H   UNL     1      -4.618   2.255 -33.221  1.00  0.00     0.192 HD
ENDROOT
BRANCH   1   5
HETATM    5  N   UNL     1      -3.341   1.102 -32.113  1.00  0.00    -0.166 NA
HETATM    6  C   UNL     1      -3.809  -0.014 -32.575  1.00  0.00     0.157 A 
HETATM    7  C   UNL     1      -4.976  -0.357 -33.402  1.00  0.00     0.029 A 
HETATM    8  C   UNL     1      -3.116  -1.357 -32.258  1.00  0.00     0.277 A 
HETATM    9  C   UNL     1      -6.010   0.390 -33.933  1.00  0.00     0.053 A 
HETATM   10  C   UNL     1      -4.938  -1.743 -33.571  1.00  0.00     0.048 A 
HETATM   11  C   UNL     1      -6.987  -0.270 -34.691  1.00  0.00     0.069 A 
HETATM   12  C   UNL     1      -6.931  -1.665 -34.866  1.00  0.00     0.039 A 
HETATM   13  C   UNL     1      -5.899  -2.418 -34.295  1.00  0.00     0.033 A 
HETATM   14  N   UNL     1      -3.859  -2.314 -32.911  1.00  0.00    -0.321 N 
HETATM   15  H   UNL     1      -3.632  -3.296 -32.870  1.00  0.00     0.169 HD
HETATM   16  O   UNL     1      -2.121  -1.525 -31.589  1.00  0.00    -0.266 OA
BRANCH  11  17
HETATM   17  O   UNL     1      -7.956   0.556 -35.197  1.00  0.00    -0.356 OA
HETATM   18  C   UNL     1      -9.013   0.921 -34.319  1.00  0.00     0.210 C 
ENDBRANCH  11  17
ENDBRANCH   1   5
BRANCH   2  19
HETATM   19  C   UNL     1      -3.997   4.676 -32.775  1.00  0.00     0.106 C 
BRANCH  19  20
HETATM   20  C   UNL     1      -3.402   5.120 -34.105  1.00  0.00     0.029 C 
BRANCH  20  21
HETATM   21  C   UNL     1      -2.577   6.391 -33.921  1.00  0.00     0.123 C 
BRANCH  21  22
HETATM   22  N   UNL     1      -1.980   6.470 -32.606  1.00  0.00    -0.357 N 
HETATM   23  C   UNL     1      -1.597   7.663 -32.039  1.00  0.00     0.253 C 
HETATM   24  O   UNL     1      -1.747   8.734 -32.623  1.00  0.00    -0.268 OA
HETATM   25  H   UNL     1      -1.782   5.602 -32.122  1.00  0.00     0.162 HD
BRANCH  23  26
HETATM   26  C   UNL     1      -1.023   7.640 -30.655  1.00  0.00     0.053 A 
HETATM   27  C   UNL     1      -0.034   6.764 -30.178  1.00  0.00     0.049 A 
HETATM   28 CL   UNL     1       0.756   5.564 -31.143  1.00  0.00    -0.083 Cl
HETATM   29  C   UNL     1       0.393   6.844 -28.843  1.00  0.00     0.025 A 
HETATM   30  C   UNL     1      -0.147   7.792 -27.976  1.00  0.00     0.002 A 
HETATM   31  C   UNL     1      -1.116   8.674 -28.438  1.00  0.00     0.001 A 
HETATM   32  C   UNL     1      -1.549   8.598 -29.764  1.00  0.00     0.019 A 
ENDBRANCH  23  26
ENDBRANCH  21  22
ENDBRANCH  20  21
ENDBRANCH  19  20
ENDBRANCH   2  19
TORSDOF 7
ENDMDL
MODEL 3
REMARK VINA RESULT:      -8.2      2.747      5.506
REMARK  7 active torsions:
REMARK  status: ('A' for Active; 'I' for Inactive)
REMARK    1  A    between atoms: O_2  and  C_3 
REMARK    2  A    between atoms: N_9  and  N_10 
REMARK       I    between atoms: N_10  and  C_11 
REMARK    3  A    between atoms: C_11  and  C_12 
REMARK    4  A    between atoms: C_12  and  C_13 
REMARK    5  A    between atoms: C_13  and  C_14 
REMARK    6  A    between atoms: C_14  and  N_15 
REMARK       I    between atoms: N_15  and  C_16 
REMARK    7  A    between atoms: C_16  and  C_17 
ROOT
HETATM    1  N   UNL     1      -6.190   5.327 -33.052  1.00  0.00    -0.246 N 
HETATM    2  C   UNL     1      -4.945   4.990 -33.563  1.00  0.00     0.237 C 
HETATM    3  O   UNL     1      -4.704   4.659 -34.720  1.00  0.00    -0.272 OA
HETATM    4  H   UNL     1      -6.247   5.795 -32.155  1.00  0.00     0.192 HD
ENDROOT
BRANCH   1   5
HETATM    5  N   UNL     1      -7.267   5.384 -33.881  1.00  0.00    -0.166 NA
HETATM    6  C   UNL     1      -8.183   4.473 -33.799  1.00  0.00     0.157 A 
HETATM    7  C   UNL     1      -8.299   3.218 -33.041  1.00  0.00     0.029 A 
HETATM    8  C   UNL     1      -9.479   4.573 -34.634  1.00  0.00     0.277 A 
HETATM    9  C   UNL     1      -7.444   2.549 -32.185  1.00  0.00     0.053 A 
HETATM   10  C   UNL     1      -9.541   2.674 -33.375  1.00  0.00     0.048 A 
HETATM   11  C   UNL     1      -7.878   1.342 -31.619  1.00  0.00     0.069 A 
HETATM   12  C   UNL     1      -9.137   0.811 -31.953  1.00  0.00     0.039 A 
HETATM   13  C   UNL     1      -9.982   1.478 -32.848  1.00  0.00     0.033 A 
HETATM   14  N   UNL     1     -10.219   3.464 -34.293  1.00  0.00    -0.321 N 
HETATM   15  H   UNL     1     -11.123   3.272 -34.699  1.00  0.00     0.169 HD
HETATM   16  O   UNL     1      -9.781   5.452 -35.410  1.00  0.00    -0.266 OA
BRANCH  11  17
HETATM   17  O   UNL     1      -6.974   0.768 -30.766  1.00  0.00    -0.356 OA
HETATM   18  C   UNL     1      -6.338   1.627 -29.828  1.00  0.00     0.210 C 
ENDBRANCH  11  17
ENDBRANCH   1   5
BRANCH   2  19
HETATM   19  C   UNL     1      -3.851   5.038 -32.520  1.00  0.00     0.106 C 
BRANCH  19  20
HETATM   20  C   UNL     1      -2.869   3.887 -32.689  1.00  0.00     0.029 C 
BRANCH  20  21
HETATM   21  C   UNL     1      -3.298   2.692 -31.843  1.00  0.00     0.123 C 
BRANCH  21  22
HETATM   22  N   UNL     1      -3.914   1.652 -32.636  1.00  0.00    -0.357 N 
HETATM   23  C   UNL     1      -3.957   0.339 -32.229  1.00  0.00     0.253 C 
HETATM   24  O   UNL     1      -3.473  -0.022 -31.158  1.00  0.00    -0.268 OA
HETATM   25  H   UNL     1      -4.267   1.901 -33.553  1.00  0.00     0.162 HD
BRANCH  23  26
HETATM   26  C   UNL     1      -4.654  -0.655 -33.107  1.00  0.00     0.053 A 
HETATM   27  C   UNL     1      -4.370  -2.028 -33.197  1.00  0.00     0.049 A 
HETATM   28 CL   UNL     1      -3.175  -2.843 -32.249  1.00  0.00    -0.083 Cl
HETATM   29  C   UNL     1      -5.094  -2.840 -34.085  1.00  0.00     0.025 A 
HETATM   30  C   UNL     1      -6.105  -2.303 -34.881  1.00  0.00     0.002 A 
HETATM   31  C   UNL     1      -6.406  -0.950 -34.791  1.00  0.00     0.001 A 
HETATM   32  C   UNL     1      -5.688  -0.135 -33.913  1.00  0.00     0.019 A 
ENDBRANCH  23  26
ENDBRANCH  21  22
ENDBRANCH  20  21
ENDBRANCH  19  20
ENDBRANCH   2  19
TORSDOF 7
ENDMDL
MODEL 4
REMARK VINA RESULT:      -8.1      2.785      8.245
REMARK  7 active torsions:
REMARK  status: ('A' for Active; 'I' for Inactive)
REMARK    1  A    between atoms: O_2  and  C_3 
REMARK    2  A    between atoms: N_9  and  N_10 
REMARK       I    between atoms: N_10  and  C_11 
REMARK    3  A    between atoms: C_11  and  C_12 
REMARK    4  A    between atoms: C_12  and  C_13 
REMARK    5  A    between atoms: C_13  and  C_14 
REMARK    6  A    between atoms: C_14  and  N_15 
REMARK       I    between atoms: N_15  and  C_16 
REMARK    7  A    between atoms: C_16  and  C_17 
ROOT
HETATM    1  N   UNL     1      -3.801   0.856 -31.220  1.00  0.00    -0.246 N 
HETATM    2  C   UNL     1      -4.835   1.272 -30.394  1.00  0.00     0.237 C 
HETATM    3  O   UNL     1      -5.509   0.554 -29.661  1.00  0.00    -0.272 OA
HETATM    4  H   UNL     1      -3.171   1.547 -31.610  1.00  0.00     0.192 HD
ENDROOT
BRANCH   1   5
HETATM    5  N   UNL     1      -3.404  -0.445 -31.201  1.00  0.00    -0.166 NA
HETATM    6  C   UNL     1      -3.846  -1.259 -32.106  1.00  0.00     0.157 A 
HETATM    7  C   UNL     1      -4.848  -1.137 -33.176  1.00  0.00     0.029 A 
HETATM    8  C   UNL     1      -3.321  -2.709 -32.194  1.00  0.00     0.277 A 
HETATM    9  C   UNL     1      -5.705  -0.121 -33.556  1.00  0.00     0.053 A 
HETATM   10  C   UNL     1      -4.872  -2.371 -33.829  1.00  0.00     0.048 A 
HETATM   11  C   UNL     1      -6.556  -0.342 -34.648  1.00  0.00     0.069 A 
HETATM   12  C   UNL     1      -6.561  -1.585 -35.307  1.00  0.00     0.039 A 
HETATM   13  C   UNL     1      -5.715  -2.619 -34.893  1.00  0.00     0.033 A 
HETATM   14  N   UNL     1      -3.985  -3.273 -33.260  1.00  0.00    -0.321 N 
HETATM   15  H   UNL     1      -3.836  -4.230 -33.543  1.00  0.00     0.169 HD
HETATM   16  O   UNL     1      -2.491  -3.229 -31.482  1.00  0.00    -0.266 OA
BRANCH  11  17
HETATM   17  O   UNL     1      -7.348   0.729 -34.965  1.00  0.00    -0.356 OA
HETATM   18  C   UNL     1      -8.389   1.053 -34.052  1.00  0.00     0.210 C 
ENDBRANCH  11  17
ENDBRANCH   1   5
BRANCH   2  19
HETATM   19  C   UNL     1      -5.102   2.758 -30.494  1.00  0.00     0.106 C 
BRANCH  19  20
HETATM   20  C   UNL     1      -5.878   3.101 -31.759  1.00  0.00     0.029 C 
BRANCH  20  21
HETATM   21  C   UNL     1      -4.972   3.808 -32.763  1.00  0.00     0.123 C 
BRANCH  21  22
HETATM   22  N   UNL     1      -3.857   4.469 -32.123  1.00  0.00    -0.357 N 
HETATM   23  C   UNL     1      -2.620   4.572 -32.715  1.00  0.00     0.253 C 
HETATM   24  O   UNL     1      -2.396   4.107 -33.831  1.00  0.00    -0.268 OA
HETATM   25  H   UNL     1      -3.985   4.809 -31.177  1.00  0.00     0.162 HD
BRANCH  23  26
HETATM   26  C   UNL     1      -1.541   5.313 -31.985  1.00  0.00     0.053 A 
HETATM   27  C   UNL     1      -1.050   6.591 -32.299  1.00  0.00     0.049 A 
HETATM   28 CL   UNL     1      -1.657   7.584 -33.579  1.00  0.00    -0.083 Cl
HETATM   29  C   UNL     1      -0.015   7.155 -31.536  1.00  0.00     0.025 A 
HETATM   30  C   UNL     1       0.535   6.464 -30.457  1.00  0.00     0.002 A 
HETATM   31  C   UNL     1       0.050   5.205 -30.128  1.00  0.00     0.001 A 
HETATM   32  C   UNL     1      -0.977   4.636 -30.884  1.00  0.00     0.019 A 
ENDBRANCH  23  26
ENDBRANCH  21  22
ENDBRANCH  20  21
ENDBRANCH  19  20
ENDBRANCH   2  19
TORSDOF 7
ENDMDL
MODEL 5
REMARK VINA RESULT:      -8.1      2.644      8.585
REMARK  7 active torsions:
REMARK  status: ('A' for Active; 'I' for Inactive)
REMARK    1  A    between atoms: O_2  and  C_3 
REMARK    2  A    between atoms: N_9  and  N_10 
REMARK       I    between atoms: N_10  and  C_11 
REMARK    3  A    between atoms: C_11  and  C_12 
REMARK    4  A    between atoms: C_12  and  C_13 
REMARK    5  A    between atoms: C_13  and  C_14 
REMARK    6  A    between atoms: C_14  and  N_15 
REMARK       I    between atoms: N_15  and  C_16 
REMARK    7  A    between atoms: C_16  and  C_17 
ROOT
HETATM    1  N   UNL     1      -5.293   4.423 -33.344  1.00  0.00    -0.246 N 
HETATM    2  C   UNL     1      -4.570   5.523 -33.781  1.00  0.00     0.237 C 
HETATM    3  O   UNL     1      -4.530   6.624 -33.239  1.00  0.00    -0.272 OA
HETATM    4  H   UNL     1      -5.087   3.510 -33.731  1.00  0.00     0.192 HD
ENDROOT
BRANCH   1   5
HETATM    5  N   UNL     1      -5.981   4.489 -32.173  1.00  0.00    -0.166 NA
HETATM    6  C   UNL     1      -6.201   3.404 -31.500  1.00  0.00     0.157 A 
HETATM    7  C   UNL     1      -5.965   1.978 -31.773  1.00  0.00     0.029 A 
HETATM    8  C   UNL     1      -6.865   3.455 -30.107  1.00  0.00     0.277 A 
HETATM    9  C   UNL     1      -5.471   1.295 -32.868  1.00  0.00     0.053 A 
HETATM   10  C   UNL     1      -6.413   1.287 -30.645  1.00  0.00     0.048 A 
HETATM   11  C   UNL     1      -5.379  -0.102 -32.796  1.00  0.00     0.069 A 
HETATM   12  C   UNL     1      -5.821  -0.786 -31.649  1.00  0.00     0.039 A 
HETATM   13  C   UNL     1      -6.353  -0.088 -30.558  1.00  0.00     0.033 A 
HETATM   14  N   UNL     1      -6.929   2.146 -29.685  1.00  0.00    -0.321 N 
HETATM   15  H   UNL     1      -7.328   1.884 -28.797  1.00  0.00     0.169 HD
HETATM   16  O   UNL     1      -7.236   4.441 -29.510  1.00  0.00    -0.266 OA
BRANCH  11  17
HETATM   17  O   UNL     1      -4.855  -0.687 -33.917  1.00  0.00    -0.356 OA
HETATM   18  C   UNL     1      -4.787  -2.108 -33.930  1.00  0.00     0.210 C 
ENDBRANCH  11  17
ENDBRANCH   1   5
BRANCH   2  19
HETATM   19  C   UNL     1      -3.816   5.256 -35.064  1.00  0.00     0.106 C 
BRANCH  19  20
HETATM   20  C   UNL     1      -2.486   4.564 -34.794  1.00  0.00     0.029 C 
BRANCH  20  21
HETATM   21  C   UNL     1      -1.368   5.594 -34.659  1.00  0.00     0.123 C 
BRANCH  21  22
HETATM   22  N   UNL     1      -1.129   5.965 -33.282  1.00  0.00    -0.357 N 
HETATM   23  C   UNL     1      -1.262   7.257 -32.830  1.00  0.00     0.253 C 
HETATM   24  O   UNL     1      -1.599   8.172 -33.578  1.00  0.00    -0.268 OA
HETATM   25  H   UNL     1      -0.787   5.250 -32.650  1.00  0.00     0.162 HD
BRANCH  23  26
HETATM   26  C   UNL     1      -1.029   7.530 -31.375  1.00  0.00     0.053 A 
HETATM   27  C   UNL     1      -1.864   8.274 -30.524  1.00  0.00     0.049 A 
HETATM   28 CL   UNL     1      -3.370   8.978 -31.003  1.00  0.00    -0.083 Cl
HETATM   29  C   UNL     1      -1.505   8.468 -29.181  1.00  0.00     0.025 A 
HETATM   30  C   UNL     1      -0.329   7.923 -28.669  1.00  0.00     0.002 A 
HETATM   31  C   UNL     1       0.498   7.173 -29.496  1.00  0.00     0.001 A 
HETATM   32  C   UNL     1       0.150   6.978 -30.835  1.00  0.00     0.019 A 
ENDBRANCH  23  26
ENDBRANCH  21  22
ENDBRANCH  20  21
ENDBRANCH  19  20
ENDBRANCH   2  19
TORSDOF 7
ENDMDL
MODEL 6
REMARK VINA RESULT:      -8.1      2.805      7.881
REMARK  7 active torsions:
REMARK  status: ('A' for Active; 'I' for Inactive)
REMARK    1  A    between atoms: O_2  and  C_3 
REMARK    2  A    between atoms: N_9  and  N_10 
REMARK       I    between atoms: N_10  and  C_11 
REMARK    3  A    between atoms: C_11  and  C_12 
REMARK    4  A    between atoms: C_12  and  C_13 
REMARK    5  A    between atoms: C_13  and  C_14 
REMARK    6  A    between atoms: C_14  and  N_15 
REMARK       I    between atoms: N_15  and  C_16 
REMARK    7  A    between atoms: C_16  and  C_17 
ROOT
HETATM    1  N   UNL     1      -5.213   1.016 -30.213  1.00  0.00    -0.246 N 
HETATM    2  C   UNL     1      -4.914   2.333 -30.531  1.00  0.00     0.237 C 
HETATM    3  O   UNL     1      -3.902   2.727 -31.105  1.00  0.00    -0.272 OA
HETATM    4  H   UNL     1      -6.159   0.775 -29.944  1.00  0.00     0.192 HD
ENDROOT
BRANCH   1   5
HETATM    5  N   UNL     1      -4.380   0.019 -30.615  1.00  0.00    -0.166 NA
HETATM    6  C   UNL     1      -4.624  -0.609 -31.721  1.00  0.00     0.157 A 
HETATM    7  C   UNL     1      -5.743  -0.582 -32.676  1.00  0.00     0.029 A 
HETATM    8  C   UNL     1      -3.635  -1.658 -32.273  1.00  0.00     0.277 A 
HETATM    9  C   UNL     1      -6.950   0.092 -32.697  1.00  0.00     0.053 A 
HETATM   10  C   UNL     1      -5.416  -1.490 -33.685  1.00  0.00     0.048 A 
HETATM   11  C   UNL     1      -7.810  -0.118 -33.784  1.00  0.00     0.069 A 
HETATM   12  C   UNL     1      -7.464  -1.025 -34.802  1.00  0.00     0.039 A 
HETATM   13  C   UNL     1      -6.255  -1.729 -34.754  1.00  0.00     0.033 A 
HETATM   14  N   UNL     1      -4.195  -2.106 -33.448  1.00  0.00    -0.321 N 
HETATM   15  H   UNL     1      -3.756  -2.810 -34.023  1.00  0.00     0.169 HD
HETATM   16  O   UNL     1      -2.583  -2.000 -31.781  1.00  0.00    -0.266 OA
BRANCH  11  17
HETATM   17  O   UNL     1      -8.968   0.611 -33.730  1.00  0.00    -0.356 OA
HETATM   18  C   UNL     1     -10.011   0.102 -32.907  1.00  0.00     0.210 C 
ENDBRANCH  11  17
ENDBRANCH   1   5
BRANCH   2  19
HETATM   19  C   UNL     1      -5.976   3.304 -30.065  1.00  0.00     0.106 C 
BRANCH  19  20
HETATM   20  C   UNL     1      -6.973   3.612 -31.174  1.00  0.00     0.029 C 
BRANCH  20  21
HETATM   21  C   UNL     1      -6.806   5.051 -31.654  1.00  0.00     0.123 C 
BRANCH  21  22
HETATM   22  N   UNL     1      -5.431   5.367 -31.970  1.00  0.00    -0.357 N 
HETATM   23  C   UNL     1      -4.996   5.566 -33.259  1.00  0.00     0.253 C 
HETATM   24  O   UNL     1      -5.760   5.489 -34.219  1.00  0.00    -0.268 OA
HETATM   25  H   UNL     1      -4.760   5.376 -31.211  1.00  0.00     0.162 HD
BRANCH  23  26
HETATM   26  C   UNL     1      -3.558   5.929 -33.477  1.00  0.00     0.053 A 
HETATM   27  C   UNL     1      -2.856   6.966 -32.841  1.00  0.00     0.049 A 
HETATM   28 CL   UNL     1      -3.527   7.998 -31.625  1.00  0.00    -0.083 Cl
HETATM   29  C   UNL     1      -1.511   7.206 -33.163  1.00  0.00     0.025 A 
HETATM   30  C   UNL     1      -0.851   6.420 -34.105  1.00  0.00     0.002 A 
HETATM   31  C   UNL     1      -1.529   5.382 -34.731  1.00  0.00     0.001 A 
HETATM   32  C   UNL     1      -2.868   5.139 -34.419  1.00  0.00     0.019 A 
ENDBRANCH  23  26
ENDBRANCH  21  22
ENDBRANCH  20  21
ENDBRANCH  19  20
ENDBRANCH   2  19
TORSDOF 7
ENDMDL
MODEL 7
REMARK VINA RESULT:      -8.1      4.158      7.109
REMARK  7 active torsions:
REMARK  status: ('A' for Active; 'I' for Inactive)
REMARK    1  A    between atoms: O_2  and  C_3 
REMARK    2  A    between atoms: N_9  and  N_10 
REMARK       I    between atoms: N_10  and  C_11 
REMARK    3  A    between atoms: C_11  and  C_12 
REMARK    4  A    between atoms: C_12  and  C_13 
REMARK    5  A    between atoms: C_13  and  C_14 
REMARK    6  A    between atoms: C_14  and  N_15 
REMARK       I    between atoms: N_15  and  C_16 
REMARK    7  A    between atoms: C_16  and  C_17 
ROOT
HETATM    1  N   UNL     1      -8.822   1.190 -32.204  1.00  0.00    -0.246 N 
HETATM    2  C   UNL     1      -8.761   2.214 -31.271  1.00  0.00     0.237 C 
HETATM    3  O   UNL     1      -9.702   2.654 -30.617  1.00  0.00    -0.272 OA
HETATM    4  H   UNL     1      -7.963   0.757 -32.522  1.00  0.00     0.192 HD
ENDROOT
BRANCH   1   5
HETATM    5  N   UNL     1      -9.992   0.525 -32.402  1.00  0.00    -0.166 NA
HETATM    6  C   UNL     1     -10.837   0.968 -33.277  1.00  0.00     0.157 A 
HETATM    7  C   UNL     1     -10.897   2.184 -34.102  1.00  0.00     0.029 A 
HETATM    8  C   UNL     1     -12.117   0.173 -33.618  1.00  0.00     0.277 A 
HETATM    9  C   UNL     1     -10.092   3.304 -34.193  1.00  0.00     0.053 A 
HETATM   10  C   UNL     1     -12.064   2.082 -34.861  1.00  0.00     0.048 A 
HETATM   11  C   UNL     1     -10.447   4.306 -35.107  1.00  0.00     0.069 A 
HETATM   12  C   UNL     1     -11.619   4.186 -35.876  1.00  0.00     0.039 A 
HETATM   13  C   UNL     1     -12.447   3.065 -35.751  1.00  0.00     0.033 A 
HETATM   14  N   UNL     1     -12.763   0.916 -34.580  1.00  0.00    -0.321 N 
HETATM   15  H   UNL     1     -13.641   0.629 -34.985  1.00  0.00     0.169 HD
HETATM   16  O   UNL     1     -12.464  -0.887 -33.148  1.00  0.00    -0.266 OA
BRANCH  11  17
HETATM   17  O   UNL     1      -9.577   5.363 -35.145  1.00  0.00    -0.356 OA
HETATM   18  C   UNL     1      -8.827   5.622 -33.964  1.00  0.00     0.210 C 
ENDBRANCH  11  17
ENDBRANCH   1   5
BRANCH   2  19
HETATM   19  C   UNL     1      -7.372   2.798 -31.133  1.00  0.00     0.106 C 
BRANCH  19  20
HETATM   20  C   UNL     1      -6.656   2.852 -32.476  1.00  0.00     0.029 C 
BRANCH  20  21
HETATM   21  C   UNL     1      -5.259   2.250 -32.358  1.00  0.00     0.123 C 
BRANCH  21  22
HETATM   22  N   UNL     1      -5.151   0.979 -33.038  1.00  0.00    -0.357 N 
HETATM   23  C   UNL     1      -5.519  -0.208 -32.449  1.00  0.00     0.253 C 
HETATM   24  O   UNL     1      -5.967  -0.251 -31.305  1.00  0.00    -0.268 OA
HETATM   25  H   UNL     1      -4.726   0.967 -33.958  1.00  0.00     0.162 HD
BRANCH  23  26
HETATM   26  C   UNL     1      -5.405  -1.467 -33.254  1.00  0.00     0.053 A 
HETATM   27  C   UNL     1      -4.353  -2.397 -33.201  1.00  0.00     0.049 A 
HETATM   28 CL   UNL     1      -2.999  -2.279 -32.131  1.00  0.00    -0.083 Cl
HETATM   29  C   UNL     1      -4.369  -3.526 -34.035  1.00  0.00     0.025 A 
HETATM   30  C   UNL     1      -5.425  -3.748 -34.918  1.00  0.00     0.002 A 
HETATM   31  C   UNL     1      -6.478  -2.844 -34.972  1.00  0.00     0.001 A 
HETATM   32  C   UNL     1      -6.468  -1.716 -34.147  1.00  0.00     0.019 A 
ENDBRANCH  23  26
ENDBRANCH  21  22
ENDBRANCH  20  21
ENDBRANCH  19  20
ENDBRANCH   2  19
TORSDOF 7
ENDMDL
MODEL 8
REMARK VINA RESULT:      -8.1      2.747      4.316
REMARK  7 active torsions:
REMARK  status: ('A' for Active; 'I' for Inactive)
REMARK    1  A    between atoms: O_2  and  C_3 
REMARK    2  A    between atoms: N_9  and  N_10 
REMARK       I    between atoms: N_10  and  C_11 
REMARK    3  A    between atoms: C_11  and  C_12 
REMARK    4  A    between atoms: C_12  and  C_13 
REMARK    5  A    between atoms: C_13  and  C_14 
REMARK    6  A    between atoms: C_14  and  N_15 
REMARK       I    between atoms: N_15  and  C_16 
REMARK    7  A    between atoms: C_16  and  C_17 
ROOT
HETATM    1  N   UNL     1      -2.587   4.722 -32.711  1.00  0.00    -0.246 N 
HETATM    2  C   UNL     1      -2.472   4.994 -34.067  1.00  0.00     0.237 C 
HETATM    3  O   UNL     1      -1.424   5.146 -34.688  1.00  0.00    -0.272 OA
HETATM    4  H   UNL     1      -3.474   4.398 -32.345  1.00  0.00     0.192 HD
ENDROOT
BRANCH   1   5
HETATM    5  N   UNL     1      -1.467   4.524 -31.966  1.00  0.00    -0.166 NA
HETATM    6  C   UNL     1      -1.113   5.416 -31.096  1.00  0.00     0.157 A 
HETATM    7  C   UNL     1      -1.607   6.762 -30.769  1.00  0.00     0.029 A 
HETATM    8  C   UNL     1       0.078   5.169 -30.145  1.00  0.00     0.277 A 
HETATM    9  C   UNL     1      -2.593   7.565 -31.312  1.00  0.00     0.053 A 
HETATM   10  C   UNL     1      -0.809   7.224 -29.720  1.00  0.00     0.048 A 
HETATM   11  C   UNL     1      -2.808   8.829 -30.746  1.00  0.00     0.069 A 
HETATM   12  C   UNL     1      -2.007   9.279 -29.680  1.00  0.00     0.039 A 
HETATM   13  C   UNL     1      -0.988   8.473 -29.160  1.00  0.00     0.033 A 
HETATM   14  N   UNL     1       0.160   6.297 -29.361  1.00  0.00    -0.321 N 
HETATM   15  H   UNL     1       0.862   6.409 -28.647  1.00  0.00     0.169 HD
HETATM   16  O   UNL     1       0.778   4.182 -30.093  1.00  0.00    -0.266 OA
BRANCH  11  17
HETATM   17  O   UNL     1      -3.821   9.540 -31.333  1.00  0.00    -0.356 OA
HETATM   18  C   UNL     1      -4.584  10.391 -30.487  1.00  0.00     0.210 C 
ENDBRANCH  11  17
ENDBRANCH   1   5
BRANCH   2  19
HETATM   19  C   UNL     1      -3.814   5.122 -34.754  1.00  0.00     0.106 C 
BRANCH  19  20
HETATM   20  C   UNL     1      -4.921   5.437 -33.757  1.00  0.00     0.029 C 
BRANCH  20  21
HETATM   21  C   UNL     1      -6.125   4.529 -33.995  1.00  0.00     0.123 C 
BRANCH  21  22
HETATM   22  N   UNL     1      -5.746   3.139 -34.122  1.00  0.00    -0.357 N 
HETATM   23  C   UNL     1      -6.287   2.150 -33.334  1.00  0.00     0.253 C 
HETATM   24  O   UNL     1      -7.132   2.397 -32.476  1.00  0.00    -0.268 OA
HETATM   25  H   UNL     1      -5.006   2.907 -34.774  1.00  0.00     0.162 HD
BRANCH  23  26
HETATM   26  C   UNL     1      -5.855   0.735 -33.572  1.00  0.00     0.053 A 
HETATM   27  C   UNL     1      -6.525  -0.217 -34.358  1.00  0.00     0.049 A 
HETATM   28 CL   UNL     1      -7.969   0.098 -35.257  1.00  0.00    -0.083 Cl
HETATM   29  C   UNL     1      -6.013  -1.520 -34.473  1.00  0.00     0.025 A 
HETATM   30  C   UNL     1      -4.837  -1.886 -33.821  1.00  0.00     0.002 A 
HETATM   31  C   UNL     1      -4.158  -0.950 -33.051  1.00  0.00     0.001 A 
HETATM   32  C   UNL     1      -4.662   0.347 -32.929  1.00  0.00     0.019 A 
ENDBRANCH  23  26
ENDBRANCH  21  22
ENDBRANCH  20  21
ENDBRANCH  19  20
ENDBRANCH   2  19
TORSDOF 7
ENDMDL
MODEL 9
REMARK VINA RESULT:      -8.0      4.684      7.295
REMARK  7 active torsions:
REMARK  status: ('A' for Active; 'I' for Inactive)
REMARK    1  A    between atoms: O_2  and  C_3 
REMARK    2  A    between atoms: N_9  and  N_10 
REMARK       I    between atoms: N_10  and  C_11 
REMARK    3  A    between atoms: C_11  and  C_12 
REMARK    4  A    between atoms: C_12  and  C_13 
REMARK    5  A    between atoms: C_13  and  C_14 
REMARK    6  A    between atoms: C_14  and  N_15 
REMARK       I    between atoms: N_15  and  C_16 
REMARK    7  A    between atoms: C_16  and  C_17 
ROOT
HETATM    1  N   UNL     1      -8.281   2.582 -32.281  1.00  0.00    -0.246 N 
HETATM    2  C   UNL     1      -7.342   1.590 -32.525  1.00  0.00     0.237 C 
HETATM    3  O   UNL     1      -6.636   1.493 -33.525  1.00  0.00    -0.272 OA
HETATM    4  H   UNL     1      -8.646   2.697 -31.343  1.00  0.00     0.192 HD
ENDROOT
BRANCH   1   5
HETATM    5  N   UNL     1      -8.424   3.608 -33.162  1.00  0.00    -0.166 NA
HETATM    6  C   UNL     1      -9.498   3.688 -33.880  1.00  0.00     0.157 A 
HETATM    7  C   UNL     1     -10.654   2.799 -34.074  1.00  0.00     0.029 A 
HETATM    8  C   UNL     1      -9.752   4.904 -34.797  1.00  0.00     0.277 A 
HETATM    9  C   UNL     1     -10.971   1.543 -33.593  1.00  0.00     0.053 A 
HETATM   10  C   UNL     1     -11.497   3.450 -34.977  1.00  0.00     0.048 A 
HETATM   11  C   UNL     1     -12.185   0.965 -33.990  1.00  0.00     0.069 A 
HETATM   12  C   UNL     1     -13.033   1.636 -34.890  1.00  0.00     0.039 A 
HETATM   13  C   UNL     1     -12.687   2.893 -35.400  1.00  0.00     0.033 A 
HETATM   14  N   UNL     1     -10.972   4.667 -35.388  1.00  0.00    -0.321 N 
HETATM   15  H   UNL     1     -11.387   5.308 -36.048  1.00  0.00     0.169 HD
HETATM   16  O   UNL     1      -9.034   5.867 -34.948  1.00  0.00    -0.266 OA
BRANCH  11  17
HETATM   17  O   UNL     1     -12.423  -0.268 -33.443  1.00  0.00    -0.356 OA
HETATM   18  C   UNL     1     -13.765  -0.740 -33.480  1.00  0.00     0.210 C 
ENDBRANCH  11  17
ENDBRANCH   1   5
BRANCH   2  19
HETATM   19  C   UNL     1      -7.271   0.565 -31.415  1.00  0.00     0.106 C 
BRANCH  19  20
HETATM   20  C   UNL     1      -6.203   0.927 -30.391  1.00  0.00     0.029 C 
BRANCH  20  21
HETATM   21  C   UNL     1      -4.838   0.414 -30.841  1.00  0.00     0.123 C 
BRANCH  21  22
HETATM   22  N   UNL     1      -4.930  -0.854 -31.530  1.00  0.00    -0.357 N 
HETATM   23  C   UNL     1      -4.286  -1.097 -32.721  1.00  0.00     0.253 C 
HETATM   24  O   UNL     1      -3.590  -0.243 -33.265  1.00  0.00    -0.268 OA
HETATM   25  H   UNL     1      -5.546  -1.560 -31.144  1.00  0.00     0.162 HD
BRANCH  23  26
HETATM   26  C   UNL     1      -4.413  -2.459 -33.333  1.00  0.00     0.053 A 
HETATM   27  C   UNL     1      -3.720  -3.615 -32.940  1.00  0.00     0.049 A 
HETATM   28 CL   UNL     1      -2.613  -3.688 -31.612  1.00  0.00    -0.083 Cl
HETATM   29  C   UNL     1      -3.923  -4.824 -33.624  1.00  0.00     0.025 A 
HETATM   30  C   UNL     1      -4.816  -4.899 -34.693  1.00  0.00     0.002 A 
HETATM   31  C   UNL     1      -5.518  -3.766 -35.083  1.00  0.00     0.001 A 
HETATM   32  C   UNL     1      -5.318  -2.559 -34.409  1.00  0.00     0.019 A 
ENDBRANCH  23  26
ENDBRANCH  21  22
ENDBRANCH  20  21
ENDBRANCH  19  20
ENDBRANCH   2  19
TORSDOF 7
ENDMDL
MODEL 10
REMARK VINA RESULT:      -7.9      2.456      7.965
REMARK  7 active torsions:
REMARK  status: ('A' for Active; 'I' for Inactive)
REMARK    1  A    between atoms: O_2  and  C_3 
REMARK    2  A    between atoms: N_9  and  N_10 
REMARK       I    between atoms: N_10  and  C_11 
REMARK    3  A    between atoms: C_11  and  C_12 
REMARK    4  A    between atoms: C_12  and  C_13 
REMARK    5  A    between atoms: C_13  and  C_14 
REMARK    6  A    between atoms: C_14  and  N_15 
REMARK       I    between atoms: N_15  and  C_16 
REMARK    7  A    between atoms: C_16  and  C_17 
ROOT
HETATM    1  N   UNL     1      -5.194   2.894 -32.172  1.00  0.00    -0.246 N 
HETATM    2  C   UNL     1      -6.313   3.219 -31.419  1.00  0.00     0.237 C 
HETATM    3  O   UNL     1      -6.622   2.732 -30.335  1.00  0.00    -0.272 OA
HETATM    4  H   UNL     1      -4.915   3.502 -32.932  1.00  0.00     0.192 HD
ENDROOT
BRANCH   1   5
HETATM    5  N   UNL     1      -4.280   2.015 -31.678  1.00  0.00    -0.166 NA
HETATM    6  C   UNL     1      -4.228   0.813 -32.158  1.00  0.00     0.157 A 
HETATM    7  C   UNL     1      -5.063   0.066 -33.110  1.00  0.00     0.029 A 
HETATM    8  C   UNL     1      -3.124  -0.171 -31.713  1.00  0.00     0.277 A 
HETATM    9  C   UNL     1      -6.227   0.373 -33.789  1.00  0.00     0.053 A 
HETATM   10  C   UNL     1      -4.483  -1.199 -33.227  1.00  0.00     0.048 A 
HETATM   11  C   UNL     1      -6.777  -0.596 -34.641  1.00  0.00     0.069 A 
HETATM   12  C   UNL     1      -6.175  -1.862 -34.761  1.00  0.00     0.039 A 
HETATM   13  C   UNL     1      -5.016  -2.176 -34.042  1.00  0.00     0.033 A 
HETATM   14  N   UNL     1      -3.361  -1.328 -32.421  1.00  0.00    -0.321 N 
HETATM   15  H   UNL     1      -2.786  -2.151 -32.320  1.00  0.00     0.169 HD
HETATM   16  O   UNL     1      -2.233   0.040 -30.921  1.00  0.00    -0.266 OA
BRANCH  11  17
HETATM   17  O   UNL     1      -7.913  -0.191 -35.289  1.00  0.00    -0.356 OA
HETATM   18  C   UNL     1      -8.767   0.707 -34.591  1.00  0.00     0.210 C 
ENDBRANCH  11  17
ENDBRANCH   1   5
BRANCH   2  19
HETATM   19  C   UNL     1      -7.187   4.256 -32.088  1.00  0.00     0.106 C 
BRANCH  19  20
HETATM   20  C   UNL     1      -6.418   5.028 -33.153  1.00  0.00     0.029 C 
BRANCH  20  21
HETATM   21  C   UNL     1      -5.962   6.378 -32.606  1.00  0.00     0.123 C 
BRANCH  21  22
HETATM   22  N   UNL     1      -4.529   6.441 -32.429  1.00  0.00    -0.357 N 
HETATM   23  C   UNL     1      -3.922   6.192 -31.220  1.00  0.00     0.253 C 
HETATM   24  O   UNL     1      -4.571   5.896 -30.219  1.00  0.00    -0.268 OA
HETATM   25  H   UNL     1      -3.966   6.744 -33.215  1.00  0.00     0.162 HD
BRANCH  23  26
HETATM   26  C   UNL     1      -2.426   6.244 -31.151  1.00  0.00     0.053 A 
HETATM   27  C   UNL     1      -1.531   5.444 -31.881  1.00  0.00     0.049 A 
HETATM   28 CL   UNL     1      -2.007   4.268 -33.058  1.00  0.00    -0.083 Cl
HETATM   29  C   UNL     1      -0.146   5.588 -31.696  1.00  0.00     0.025 A 
HETATM   30  C   UNL     1       0.361   6.526 -30.798  1.00  0.00     0.002 A 
HETATM   31  C   UNL     1      -0.513   7.333 -30.080  1.00  0.00     0.001 A 
HETATM   32  C   UNL     1      -1.891   7.193 -30.256  1.00  0.00     0.019 A 
ENDBRANCH  23  26
ENDBRANCH  21  22
ENDBRANCH  20  21
ENDBRANCH  19  20
ENDBRANCH   2  19
TORSDOF 7
ENDMDL
