MODEL 1
REMARK VINA RESULT:      -9.0      0.000      0.000
REMARK  5 active torsions:
REMARK  status: ('A' for Active; 'I' for Inactive)
REMARK    1  A    between atoms: C_2  and  O_3 
REMARK    2  A    between atoms: O_3  and  C_4 
REMARK    3  A    between atoms: C_8  and  C_9 
REMARK    4  A    between atoms: C_9  and  N_10 
REMARK       I    between atoms: N_10  and  C_11 
REMARK       I    between atoms: C_11  and  N_12 
REMARK    5  A    between atoms: N_12  and  C_13 
ROOT
HETATM    1  N   UNL     1      -6.012   3.904 -34.122  1.00  0.00    -0.339 N 
HETATM    2  C   UNL     1      -6.901   3.323 -33.252  1.00  0.00     0.316 C 
HETATM    3  N   UNL     1      -7.294   2.082 -33.687  1.00  0.00    -0.337 N 
HETATM    4  O   UNL     1      -7.300   3.854 -32.224  1.00  0.00    -0.247 OA
HETATM    5  H   UNL     1      -5.476   3.278 -34.704  1.00  0.00     0.164 HD
HETATM    6  H   UNL     1      -7.095   1.838 -34.647  1.00  0.00     0.164 HD
ENDROOT
BRANCH   1   7
HETATM    7  C   UNL     1      -5.436   5.201 -33.850  1.00  0.00     0.163 C 
BRANCH   7   8
HETATM    8  C   UNL     1      -3.934   5.141 -33.819  1.00  0.00    -0.035 A 
HETATM    9  C   UNL     1      -3.187   5.295 -34.989  1.00  0.00     0.028 A 
HETATM   10  C   UNL     1      -1.806   5.230 -34.908  1.00  0.00     0.120 A 
HETATM   11  N   UNL     1      -1.128   5.016 -33.760  1.00  0.00    -0.237 NA
HETATM   12  C   UNL     1      -1.861   4.865 -32.643  1.00  0.00     0.165 A 
HETATM   13  C   UNL     1      -3.247   4.938 -32.619  1.00  0.00     0.066 A 
BRANCH  12  14
HETATM   14  O   UNL     1      -1.250   4.674 -31.425  1.00  0.00    -0.324 OA
BRANCH  14  15
HETATM   15  C   UNL     1      -0.710   5.807 -30.720  1.00  0.00     0.058 C 
HETATM   16  C   UNL     1      -1.754   6.514 -29.842  1.00  0.00     0.045 C 
HETATM   17  C   UNL     1       0.027   6.785 -31.647  1.00  0.00     0.045 C 
HETATM   18  C   UNL     1       0.337   5.182 -29.777  1.00  0.00     0.045 C 
ENDBRANCH  14  15
ENDBRANCH  12  14
ENDBRANCH   7   8
ENDBRANCH   1   7
BRANCH   3  19
HETATM   19  C   UNL     1      -8.255   1.282 -32.989  1.00  0.00     0.100 A 
HETATM   20  C   UNL     1      -8.263  -0.225 -33.117  1.00  0.00     0.049 A 
HETATM   21  C   UNL     1      -7.862   0.433 -31.805  1.00  0.00     0.024 A 
HETATM   22  C   UNL     1      -7.043  -0.979 -33.547  1.00  0.00    -0.045 A 
HETATM   23  C   UNL     1      -6.420   0.081 -31.473  1.00  0.00     0.046 A 
HETATM   24  C   UNL     1      -5.996  -0.808 -32.619  1.00  0.00    -0.051 A 
HETATM   25  C   UNL     1      -4.756  -1.399 -32.805  1.00  0.00     0.007 A 
HETATM   26  C   UNL     1      -4.560  -2.177 -33.947  1.00  0.00     0.001 A 
HETATM   27  C   UNL     1      -5.594  -2.352 -34.879  1.00  0.00     0.001 A 
HETATM   28  C   UNL     1      -6.840  -1.751 -34.681  1.00  0.00     0.008 A 
ENDBRANCH   3  19
TORSDOF 5
ENDMDL
MODEL 2
REMARK VINA RESULT:      -8.6      2.474      8.993
REMARK  5 active torsions:
REMARK  status: ('A' for Active; 'I' for Inactive)
REMARK    1  A    between atoms: C_2  and  O_3 
REMARK    2  A    between atoms: O_3  and  C_4 
REMARK    3  A    between atoms: C_8  and  C_9 
REMARK    4  A    between atoms: C_9  and  N_10 
REMARK       I    between atoms: N_10  and  C_11 
REMARK       I    between atoms: C_11  and  N_12 
REMARK    5  A    between atoms: N_12  and  C_13 
ROOT
HETATM    1  N   UNL     1      -3.619   3.735 -31.072  1.00  0.00    -0.339 N 
HETATM    2  C   UNL     1      -2.542   4.147 -31.815  1.00  0.00     0.316 C 
HETATM    3  N   UNL     1      -1.586   4.741 -31.029  1.00  0.00    -0.337 N 
HETATM    4  O   UNL     1      -2.452   4.010 -33.028  1.00  0.00    -0.247 OA
HETATM    5  H   UNL     1      -3.450   3.550 -30.095  1.00  0.00     0.164 HD
HETATM    6  H   UNL     1      -1.852   5.014 -30.094  1.00  0.00     0.164 HD
ENDROOT
BRANCH   1   7
HETATM    7  C   UNL     1      -4.735   3.052 -31.685  1.00  0.00     0.163 C 
BRANCH   7   8
HETATM    8  C   UNL     1      -4.513   1.565 -31.729  1.00  0.00    -0.035 A 
HETATM    9  C   UNL     1      -3.340   1.002 -31.223  1.00  0.00     0.028 A 
HETATM   10  C   UNL     1      -3.182  -0.373 -31.290  1.00  0.00     0.120 A 
HETATM   11  N   UNL     1      -4.096  -1.211 -31.825  1.00  0.00    -0.237 NA
HETATM   12  C   UNL     1      -5.217  -0.653 -32.312  1.00  0.00     0.165 A 
HETATM   13  C   UNL     1      -5.478   0.710 -32.269  1.00  0.00     0.066 A 
BRANCH  12  14
HETATM   14  O   UNL     1      -6.214  -1.436 -32.847  1.00  0.00    -0.324 OA
BRANCH  14  15
HETATM   15  C   UNL     1      -6.166  -1.788 -34.242  1.00  0.00     0.058 C 
HETATM   16  C   UNL     1      -4.766  -2.227 -34.697  1.00  0.00     0.045 C 
HETATM   17  C   UNL     1      -6.755  -0.696 -35.148  1.00  0.00     0.045 C 
HETATM   18  C   UNL     1      -7.089  -3.019 -34.338  1.00  0.00     0.045 C 
ENDBRANCH  14  15
ENDBRANCH  12  14
ENDBRANCH   7   8
ENDBRANCH   1   7
BRANCH   3  19
HETATM   19  C   UNL     1      -0.380   5.303 -31.562  1.00  0.00     0.100 A 
HETATM   20  C   UNL     1       0.216   6.568 -30.988  1.00  0.00     0.049 A 
HETATM   21  C   UNL     1       0.923   5.232 -30.807  1.00  0.00     0.024 A 
HETATM   22  C   UNL     1      -0.099   7.018 -29.595  1.00  0.00    -0.045 A 
HETATM   23  C   UNL     1       1.011   4.895 -29.326  1.00  0.00     0.046 A 
HETATM   24  C   UNL     1       0.349   6.074 -28.650  1.00  0.00    -0.051 A 
HETATM   25  C   UNL     1       0.160   6.259 -27.290  1.00  0.00     0.007 A 
HETATM   26  C   UNL     1      -0.495   7.417 -26.867  1.00  0.00     0.001 A 
HETATM   27  C   UNL     1      -0.947   8.364 -27.798  1.00  0.00     0.001 A 
HETATM   28  C   UNL     1      -0.750   8.165 -29.168  1.00  0.00     0.008 A 
ENDBRANCH   3  19
TORSDOF 5
ENDMDL
MODEL 3
REMARK VINA RESULT:      -8.5      2.110      3.000
REMARK  5 active torsions:
REMARK  status: ('A' for Active; 'I' for Inactive)
REMARK    1  A    between atoms: C_2  and  O_3 
REMARK    2  A    between atoms: O_3  and  C_4 
REMARK    3  A    between atoms: C_8  and  C_9 
REMARK    4  A    between atoms: C_9  and  N_10 
REMARK       I    between atoms: N_10  and  C_11 
REMARK       I    between atoms: C_11  and  N_12 
REMARK    5  A    between atoms: N_12  and  C_13 
ROOT
HETATM    1  N   UNL     1      -3.594   3.625 -32.756  1.00  0.00    -0.339 N 
HETATM    2  C   UNL     1      -3.793   2.582 -31.886  1.00  0.00     0.316 C 
HETATM    3  N   UNL     1      -5.129   2.340 -31.687  1.00  0.00    -0.337 N 
HETATM    4  O   UNL     1      -2.889   1.955 -31.349  1.00  0.00    -0.247 OA
HETATM    5  H   UNL     1      -4.339   3.818 -33.408  1.00  0.00     0.164 HD
HETATM    6  H   UNL     1      -5.782   3.050 -31.985  1.00  0.00     0.164 HD
ENDROOT
BRANCH   1   7
HETATM    7  C   UNL     1      -2.263   4.037 -33.140  1.00  0.00     0.163 C 
BRANCH   7   8
HETATM    8  C   UNL     1      -1.943   5.413 -32.627  1.00  0.00    -0.035 A 
HETATM    9  C   UNL     1      -2.712   6.515 -33.007  1.00  0.00     0.028 A 
HETATM   10  C   UNL     1      -2.375   7.763 -32.508  1.00  0.00     0.120 A 
HETATM   11  N   UNL     1      -1.334   7.987 -31.677  1.00  0.00    -0.237 NA
HETATM   12  C   UNL     1      -0.600   6.917 -31.326  1.00  0.00     0.165 A 
HETATM   13  C   UNL     1      -0.874   5.624 -31.752  1.00  0.00     0.066 A 
BRANCH  12  14
HETATM   14  O   UNL     1       0.459   7.050 -30.458  1.00  0.00    -0.324 OA
BRANCH  14  15
HETATM   15  C   UNL     1       0.213   7.080 -29.040  1.00  0.00     0.058 C 
HETATM   16  C   UNL     1      -1.280   7.204 -28.698  1.00  0.00     0.045 C 
HETATM   17  C   UNL     1       1.064   8.133 -28.315  1.00  0.00     0.045 C 
HETATM   18  C   UNL     1       0.682   5.692 -28.560  1.00  0.00     0.045 C 
ENDBRANCH  14  15
ENDBRANCH  12  14
ENDBRANCH   7   8
ENDBRANCH   1   7
BRANCH   3  19
HETATM   19  C   UNL     1      -5.612   1.335 -30.787  1.00  0.00     0.100 A 
HETATM   20  C   UNL     1      -6.846   0.523 -31.107  1.00  0.00     0.049 A 
HETATM   21  C   UNL     1      -5.473  -0.134 -31.099  1.00  0.00     0.024 A 
HETATM   22  C   UNL     1      -7.331   0.360 -32.514  1.00  0.00    -0.045 A 
HETATM   23  C   UNL     1      -5.149  -0.665 -32.487  1.00  0.00     0.046 A 
HETATM   24  C   UNL     1      -6.374  -0.311 -33.300  1.00  0.00    -0.051 A 
HETATM   25  C   UNL     1      -6.588  -0.569 -34.645  1.00  0.00     0.007 A 
HETATM   26  C   UNL     1      -7.788  -0.142 -35.216  1.00  0.00     0.001 A 
HETATM   27  C   UNL     1      -8.747   0.530 -34.444  1.00  0.00     0.001 A 
HETATM   28  C   UNL     1      -8.520   0.784 -33.088  1.00  0.00     0.008 A 
ENDBRANCH   3  19
TORSDOF 5
ENDMDL
MODEL 4
REMARK VINA RESULT:      -8.4      2.348      8.865
REMARK  5 active torsions:
REMARK  status: ('A' for Active; 'I' for Inactive)
REMARK    1  A    between atoms: C_2  and  O_3 
REMARK    2  A    between atoms: O_3  and  C_4 
REMARK    3  A    between atoms: C_8  and  C_9 
REMARK    4  A    between atoms: C_9  and  N_10 
REMARK       I    between atoms: N_10  and  C_11 
REMARK       I    between atoms: C_11  and  N_12 
REMARK    5  A    between atoms: N_12  and  C_13 
ROOT
HETATM    1  N   UNL     1      -4.022   4.187 -30.649  1.00  0.00    -0.339 N 
HETATM    2  C   UNL     1      -3.048   4.523 -31.555  1.00  0.00     0.316 C 
HETATM    3  N   UNL     1      -1.845   4.755 -30.937  1.00  0.00    -0.337 N 
HETATM    4  O   UNL     1      -3.235   4.614 -32.761  1.00  0.00    -0.247 OA
HETATM    5  H   UNL     1      -3.710   3.783 -29.779  1.00  0.00     0.164 HD
HETATM    6  H   UNL     1      -1.850   4.884 -29.935  1.00  0.00     0.164 HD
ENDROOT
BRANCH   1   7
HETATM    7  C   UNL     1      -5.365   3.865 -31.077  1.00  0.00     0.163 C 
BRANCH   7   8
HETATM    8  C   UNL     1      -5.595   2.379 -31.096  1.00  0.00    -0.035 A 
HETATM    9  C   UNL     1      -5.838   1.678 -29.913  1.00  0.00     0.028 A 
HETATM   10  C   UNL     1      -6.042   0.309 -29.983  1.00  0.00     0.120 A 
HETATM   11  N   UNL     1      -6.012  -0.399 -31.133  1.00  0.00    -0.237 NA
HETATM   12  C   UNL     1      -5.772   0.290 -32.262  1.00  0.00     0.165 A 
HETATM   13  C   UNL     1      -5.580   1.664 -32.296  1.00  0.00     0.066 A 
BRANCH  12  14
HETATM   14  O   UNL     1      -5.755  -0.348 -33.480  1.00  0.00    -0.324 OA
BRANCH  14  15
HETATM   15  C   UNL     1      -6.989  -0.537 -34.197  1.00  0.00     0.058 C 
HETATM   16  C   UNL     1      -7.090   0.347 -35.449  1.00  0.00     0.045 C 
HETATM   17  C   UNL     1      -8.224  -0.407 -33.293  1.00  0.00     0.045 C 
HETATM   18  C   UNL     1      -6.912  -2.002 -34.672  1.00  0.00     0.045 C 
ENDBRANCH  14  15
ENDBRANCH  12  14
ENDBRANCH   7   8
ENDBRANCH   1   7
BRANCH   3  19
HETATM   19  C   UNL     1      -0.672   5.170 -31.649  1.00  0.00     0.100 A 
HETATM   20  C   UNL     1      -0.428   6.625 -31.979  1.00  0.00     0.049 A 
HETATM   21  C   UNL     1       0.447   5.910 -30.960  1.00  0.00     0.024 A 
HETATM   22  C   UNL     1      -1.086   7.723 -31.203  1.00  0.00    -0.045 A 
HETATM   23  C   UNL     1       0.296   6.571 -29.599  1.00  0.00     0.046 A 
HETATM   24  C   UNL     1      -0.680   7.697 -29.854  1.00  0.00    -0.051 A 
HETATM   25  C   UNL     1      -1.165   8.608 -28.930  1.00  0.00     0.007 A 
HETATM   26  C   UNL     1      -2.080   9.568 -29.367  1.00  0.00     0.001 A 
HETATM   27  C   UNL     1      -2.494   9.603 -30.707  1.00  0.00     0.001 A 
HETATM   28  C   UNL     1      -1.998   8.678 -31.630  1.00  0.00     0.008 A 
ENDBRANCH   3  19
TORSDOF 5
ENDMDL
MODEL 5
REMARK VINA RESULT:      -8.0      2.029      8.511
REMARK  5 active torsions:
REMARK  status: ('A' for Active; 'I' for Inactive)
REMARK    1  A    between atoms: C_2  and  O_3 
REMARK    2  A    between atoms: O_3  and  C_4 
REMARK    3  A    between atoms: C_8  and  C_9 
REMARK    4  A    between atoms: C_9  and  N_10 
REMARK       I    between atoms: N_10  and  C_11 
REMARK       I    between atoms: C_11  and  N_12 
REMARK    5  A    between atoms: N_12  and  C_13 
ROOT
HETATM    1  N   UNL     1      -3.857   4.594 -30.687  1.00  0.00    -0.339 N 
HETATM    2  C   UNL     1      -2.863   5.259 -31.360  1.00  0.00     0.316 C 
HETATM    3  N   UNL     1      -1.624   4.750 -31.060  1.00  0.00    -0.337 N 
HETATM    4  O   UNL     1      -3.059   6.197 -32.123  1.00  0.00    -0.247 OA
HETATM    5  H   UNL     1      -3.654   3.649 -30.401  1.00  0.00     0.164 HD
HETATM    6  H   UNL     1      -1.549   4.145 -30.254  1.00  0.00     0.164 HD
ENDROOT
BRANCH   1   7
HETATM    7  C   UNL     1      -5.248   4.938 -30.874  1.00  0.00     0.163 C 
BRANCH   7   8
HETATM    8  C   UNL     1      -5.934   3.973 -31.802  1.00  0.00    -0.035 A 
HETATM    9  C   UNL     1      -7.198   4.257 -32.323  1.00  0.00     0.028 A 
HETATM   10  C   UNL     1      -7.788   3.335 -33.171  1.00  0.00     0.120 A 
HETATM   11  N   UNL     1      -7.218   2.162 -33.524  1.00  0.00    -0.237 NA
HETATM   12  C   UNL     1      -6.004   1.902 -33.010  1.00  0.00     0.165 A 
HETATM   13  C   UNL     1      -5.321   2.773 -32.172  1.00  0.00     0.066 A 
BRANCH  12  14
HETATM   14  O   UNL     1      -5.337   0.745 -33.342  1.00  0.00    -0.324 OA
BRANCH  14  15
HETATM   15  C   UNL     1      -5.768  -0.507 -32.776  1.00  0.00     0.058 C 
HETATM   16  C   UNL     1      -6.803  -1.231 -33.651  1.00  0.00     0.045 C 
HETATM   17  C   UNL     1      -6.235  -0.368 -31.319  1.00  0.00     0.045 C 
HETATM   18  C   UNL     1      -4.487  -1.364 -32.774  1.00  0.00     0.045 C 
ENDBRANCH  14  15
ENDBRANCH  12  14
ENDBRANCH   7   8
ENDBRANCH   1   7
BRANCH   3  19
HETATM   19  C   UNL     1      -0.410   5.295 -31.590  1.00  0.00     0.100 A 
HETATM   20  C   UNL     1       0.199   6.556 -31.020  1.00  0.00     0.049 A 
HETATM   21  C   UNL     1       0.889   5.213 -30.829  1.00  0.00     0.024 A 
HETATM   22  C   UNL     1      -0.117   7.017 -29.631  1.00  0.00    -0.045 A 
HETATM   23  C   UNL     1       0.967   4.882 -29.346  1.00  0.00     0.046 A 
HETATM   24  C   UNL     1       0.316   6.073 -28.679  1.00  0.00    -0.051 A 
HETATM   25  C   UNL     1       0.123   6.268 -27.321  1.00  0.00     0.007 A 
HETATM   26  C   UNL     1      -0.520   7.435 -26.906  1.00  0.00     0.001 A 
HETATM   27  C   UNL     1      -0.957   8.382 -27.845  1.00  0.00     0.001 A 
HETATM   28  C   UNL     1      -0.757   8.174 -29.212  1.00  0.00     0.008 A 
ENDBRANCH   3  19
TORSDOF 5
ENDMDL
MODEL 6
REMARK VINA RESULT:      -7.9      2.368      8.868
REMARK  5 active torsions:
REMARK  status: ('A' for Active; 'I' for Inactive)
REMARK    1  A    between atoms: C_2  and  O_3 
REMARK    2  A    between atoms: O_3  and  C_4 
REMARK    3  A    between atoms: C_8  and  C_9 
REMARK    4  A    between atoms: C_9  and  N_10 
REMARK       I    between atoms: N_10  and  C_11 
REMARK       I    between atoms: C_11  and  N_12 
REMARK    5  A    between atoms: N_12  and  C_13 
ROOT
HETATM    1  N   UNL     1      -3.255   3.238 -31.554  1.00  0.00    -0.339 N 
HETATM    2  C   UNL     1      -2.602   4.229 -32.243  1.00  0.00     0.316 C 
HETATM    3  N   UNL     1      -2.489   5.373 -31.492  1.00  0.00    -0.337 N 
HETATM    4  O   UNL     1      -2.185   4.110 -33.387  1.00  0.00    -0.247 OA
HETATM    5  H   UNL     1      -3.221   3.290 -30.548  1.00  0.00     0.164 HD
HETATM    6  H   UNL     1      -3.063   5.448 -30.664  1.00  0.00     0.164 HD
ENDROOT
BRANCH   1   7
HETATM    7  C   UNL     1      -3.460   1.931 -32.137  1.00  0.00     0.163 C 
BRANCH   7   8
HETATM    8  C   UNL     1      -4.826   1.392 -31.813  1.00  0.00    -0.035 A 
HETATM    9  C   UNL     1      -4.980   0.319 -30.932  1.00  0.00     0.028 A 
HETATM   10  C   UNL     1      -6.259  -0.143 -30.667  1.00  0.00     0.120 A 
HETATM   11  N   UNL     1      -7.377   0.377 -31.219  1.00  0.00    -0.237 NA
HETATM   12  C   UNL     1      -7.211   1.405 -32.068  1.00  0.00     0.165 A 
HETATM   13  C   UNL     1      -5.974   1.954 -32.377  1.00  0.00     0.066 A 
BRANCH  12  14
HETATM   14  O   UNL     1      -8.299   2.015 -32.650  1.00  0.00    -0.324 OA
BRANCH  14  15
HETATM   15  C   UNL     1      -9.032   1.322 -33.677  1.00  0.00     0.058 C 
HETATM   16  C   UNL     1     -10.085   0.358 -33.109  1.00  0.00     0.045 C 
HETATM   17  C   UNL     1      -8.113   0.639 -34.702  1.00  0.00     0.045 C 
HETATM   18  C   UNL     1      -9.787   2.450 -34.408  1.00  0.00     0.045 C 
ENDBRANCH  14  15
ENDBRANCH  12  14
ENDBRANCH   7   8
ENDBRANCH   1   7
BRANCH   3  19
HETATM   19  C   UNL     1      -1.892   6.575 -31.992  1.00  0.00     0.100 A 
HETATM   20  C   UNL     1      -1.350   7.631 -31.054  1.00  0.00     0.049 A 
HETATM   21  C   UNL     1      -0.403   6.807 -31.916  1.00  0.00     0.024 A 
HETATM   22  C   UNL     1      -0.961   7.300 -29.647  1.00  0.00    -0.045 A 
HETATM   23  C   UNL     1       0.522   5.992 -31.025  1.00  0.00     0.046 A 
HETATM   24  C   UNL     1       0.099   6.372 -29.625  1.00  0.00    -0.051 A 
HETATM   25  C   UNL     1       0.627   5.899 -28.434  1.00  0.00     0.007 A 
HETATM   26  C   UNL     1       0.080   6.365 -27.238  1.00  0.00     0.001 A 
HETATM   27  C   UNL     1      -0.977   7.288 -27.247  1.00  0.00     0.001 A 
HETATM   28  C   UNL     1      -1.502   7.757 -28.455  1.00  0.00     0.008 A 
ENDBRANCH   3  19
TORSDOF 5
ENDMDL
MODEL 7
REMARK VINA RESULT:      -7.8      2.351      8.691
REMARK  5 active torsions:
REMARK  status: ('A' for Active; 'I' for Inactive)
REMARK    1  A    between atoms: C_2  and  O_3 
REMARK    2  A    between atoms: O_3  and  C_4 
REMARK    3  A    between atoms: C_8  and  C_9 
REMARK    4  A    between atoms: C_9  and  N_10 
REMARK       I    between atoms: N_10  and  C_11 
REMARK       I    between atoms: C_11  and  N_12 
REMARK    5  A    between atoms: N_12  and  C_13 
ROOT
HETATM    1  N   UNL     1      -4.533   4.195 -30.482  1.00  0.00    -0.339 N 
HETATM    2  C   UNL     1      -4.615   5.285 -31.312  1.00  0.00     0.316 C 
HETATM    3  N   UNL     1      -3.371   5.721 -31.694  1.00  0.00    -0.337 N 
HETATM    4  O   UNL     1      -5.667   5.808 -31.657  1.00  0.00    -0.247 OA
HETATM    5  H   UNL     1      -3.700   3.631 -30.559  1.00  0.00     0.164 HD
HETATM    6  H   UNL     1      -2.575   5.377 -31.177  1.00  0.00     0.164 HD
ENDROOT
BRANCH   1   7
HETATM    7  C   UNL     1      -5.722   3.544 -29.981  1.00  0.00     0.163 C 
BRANCH   7   8
HETATM    8  C   UNL     1      -5.816   2.123 -30.463  1.00  0.00    -0.035 A 
HETATM    9  C   UNL     1      -5.875   1.062 -29.556  1.00  0.00     0.028 A 
HETATM   10  C   UNL     1      -5.959  -0.229 -30.050  1.00  0.00     0.120 A 
HETATM   11  N   UNL     1      -5.980  -0.533 -31.366  1.00  0.00    -0.237 NA
HETATM   12  C   UNL     1      -5.918   0.499 -32.226  1.00  0.00     0.165 A 
HETATM   13  C   UNL     1      -5.857   1.827 -31.828  1.00  0.00     0.066 A 
BRANCH  12  14
HETATM   14  O   UNL     1      -5.965   0.282 -33.583  1.00  0.00    -0.324 OA
BRANCH  14  15
HETATM   15  C   UNL     1      -7.103  -0.391 -34.153  1.00  0.00     0.058 C 
HETATM   16  C   UNL     1      -8.396  -0.150 -33.359  1.00  0.00     0.045 C 
HETATM   17  C   UNL     1      -6.844  -1.885 -34.402  1.00  0.00     0.045 C 
HETATM   18  C   UNL     1      -7.274   0.286 -35.528  1.00  0.00     0.045 C 
ENDBRANCH  14  15
ENDBRANCH  12  14
ENDBRANCH   7   8
ENDBRANCH   1   7
BRANCH   3  19
HETATM   19  C   UNL     1      -3.171   6.874 -32.521  1.00  0.00     0.100 A 
HETATM   20  C   UNL     1      -2.476   8.108 -31.993  1.00  0.00     0.049 A 
HETATM   21  C   UNL     1      -1.806   7.239 -33.047  1.00  0.00     0.024 A 
HETATM   22  C   UNL     1      -1.558   8.043 -30.813  1.00  0.00    -0.045 A 
HETATM   23  C   UNL     1      -0.515   6.659 -32.489  1.00  0.00     0.046 A 
HETATM   24  C   UNL     1      -0.445   7.223 -31.088  1.00  0.00    -0.051 A 
HETATM   25  C   UNL     1       0.542   6.994 -30.143  1.00  0.00     0.007 A 
HETATM   26  C   UNL     1       0.411   7.600 -28.892  1.00  0.00     0.001 A 
HETATM   27  C   UNL     1      -0.693   8.416 -28.605  1.00  0.00     0.001 A 
HETATM   28  C   UNL     1      -1.683   8.639 -29.567  1.00  0.00     0.008 A 
ENDBRANCH   3  19
TORSDOF 5
ENDMDL
MODEL 8
REMARK VINA RESULT:      -7.6      4.333      7.356
REMARK  5 active torsions:
REMARK  status: ('A' for Active; 'I' for Inactive)
REMARK    1  A    between atoms: C_2  and  O_3 
REMARK    2  A    between atoms: O_3  and  C_4 
REMARK    3  A    between atoms: C_8  and  C_9 
REMARK    4  A    between atoms: C_9  and  N_10 
REMARK       I    between atoms: N_10  and  C_11 
REMARK       I    between atoms: C_11  and  N_12 
REMARK    5  A    between atoms: N_12  and  C_13 
ROOT
HETATM    1  N   UNL     1      -8.494   3.997 -32.112  1.00  0.00    -0.339 N 
HETATM    2  C   UNL     1      -8.770   4.455 -33.376  1.00  0.00     0.316 C 
HETATM    3  N   UNL     1     -10.121   4.551 -33.594  1.00  0.00    -0.337 N 
HETATM    4  O   UNL     1      -7.914   4.731 -34.208  1.00  0.00    -0.247 OA
HETATM    5  H   UNL     1      -9.202   4.154 -31.411  1.00  0.00     0.164 HD
HETATM    6  H   UNL     1     -10.735   4.084 -32.941  1.00  0.00     0.164 HD
ENDROOT
BRANCH   1   7
HETATM    7  C   UNL     1      -7.134   3.847 -31.649  1.00  0.00     0.163 C 
BRANCH   7   8
HETATM    8  C   UNL     1      -6.804   2.408 -31.365  1.00  0.00    -0.035 A 
HETATM    9  C   UNL     1      -6.121   2.047 -30.201  1.00  0.00     0.028 A 
HETATM   10  C   UNL     1      -5.839   0.708 -29.986  1.00  0.00     0.120 A 
HETATM   11  N   UNL     1      -6.177  -0.280 -30.842  1.00  0.00    -0.237 NA
HETATM   12  C   UNL     1      -6.829   0.084 -31.959  1.00  0.00     0.165 A 
HETATM   13  C   UNL     1      -7.178   1.395 -32.252  1.00  0.00     0.066 A 
BRANCH  12  14
HETATM   14  O   UNL     1      -7.238  -0.862 -32.870  1.00  0.00    -0.324 OA
BRANCH  14  15
HETATM   15  C   UNL     1      -6.479  -1.057 -34.078  1.00  0.00     0.058 C 
HETATM   16  C   UNL     1      -4.965  -0.930 -33.856  1.00  0.00     0.045 C 
HETATM   17  C   UNL     1      -6.972  -0.175 -35.235  1.00  0.00     0.045 C 
HETATM   18  C   UNL     1      -6.768  -2.523 -34.456  1.00  0.00     0.045 C 
ENDBRANCH  14  15
ENDBRANCH  12  14
ENDBRANCH   7   8
ENDBRANCH   1   7
BRANCH   3  19
HETATM   19  C   UNL     1     -10.680   4.958 -34.849  1.00  0.00     0.100 A 
HETATM   20  C   UNL     1     -11.609   4.053 -35.625  1.00  0.00     0.049 A 
HETATM   21  C   UNL     1     -12.137   5.327 -34.980  1.00  0.00     0.024 A 
HETATM   22  C   UNL     1     -12.367   2.951 -34.952  1.00  0.00    -0.045 A 
HETATM   23  C   UNL     1     -13.183   4.977 -33.933  1.00  0.00     0.046 A 
HETATM   24  C   UNL     1     -13.260   3.468 -33.993  1.00  0.00    -0.051 A 
HETATM   25  C   UNL     1     -14.065   2.641 -33.227  1.00  0.00     0.007 A 
HETATM   26  C   UNL     1     -13.973   1.262 -33.425  1.00  0.00     0.001 A 
HETATM   27  C   UNL     1     -13.086   0.735 -34.376  1.00  0.00     0.001 A 
HETATM   28  C   UNL     1     -12.279   1.580 -35.143  1.00  0.00     0.008 A 
ENDBRANCH   3  19
TORSDOF 5
ENDMDL
MODEL 9
REMARK VINA RESULT:      -7.6      1.843      2.523
REMARK  5 active torsions:
REMARK  status: ('A' for Active; 'I' for Inactive)
REMARK    1  A    between atoms: C_2  and  O_3 
REMARK    2  A    between atoms: O_3  and  C_4 
REMARK    3  A    between atoms: C_8  and  C_9 
REMARK    4  A    between atoms: C_9  and  N_10 
REMARK       I    between atoms: N_10  and  C_11 
REMARK       I    between atoms: C_11  and  N_12 
REMARK    5  A    between atoms: N_12  and  C_13 
ROOT
HETATM    1  N   UNL     1      -4.321   3.959 -32.801  1.00  0.00    -0.339 N 
HETATM    2  C   UNL     1      -5.561   4.147 -33.359  1.00  0.00     0.316 C 
HETATM    3  N   UNL     1      -6.555   3.641 -32.559  1.00  0.00    -0.337 N 
HETATM    4  O   UNL     1      -5.752   4.688 -34.441  1.00  0.00    -0.247 OA
HETATM    5  H   UNL     1      -4.288   3.861 -31.798  1.00  0.00     0.164 HD
HETATM    6  H   UNL     1      -6.283   3.015 -31.814  1.00  0.00     0.164 HD
ENDROOT
BRANCH   1   7
HETATM    7  C   UNL     1      -3.126   4.442 -33.453  1.00  0.00     0.163 C 
BRANCH   7   8
HETATM    8  C   UNL     1      -2.547   5.628 -32.732  1.00  0.00    -0.035 A 
HETATM    9  C   UNL     1      -2.279   6.818 -33.412  1.00  0.00     0.028 A 
HETATM   10  C   UNL     1      -1.743   7.881 -32.704  1.00  0.00     0.120 A 
HETATM   11  N   UNL     1      -1.452   7.838 -31.385  1.00  0.00    -0.237 NA
HETATM   12  C   UNL     1      -1.711   6.684 -30.746  1.00  0.00     0.165 A 
HETATM   13  C   UNL     1      -2.270   5.573 -31.363  1.00  0.00     0.066 A 
BRANCH  12  14
HETATM   14  O   UNL     1      -1.475   6.564 -29.396  1.00  0.00    -0.324 OA
BRANCH  14  15
HETATM   15  C   UNL     1      -0.121   6.437 -28.924  1.00  0.00     0.058 C 
HETATM   16  C   UNL     1       0.681   7.741 -29.057  1.00  0.00     0.045 C 
HETATM   17  C   UNL     1       0.612   5.239 -29.546  1.00  0.00     0.045 C 
HETATM   18  C   UNL     1      -0.287   6.150 -27.418  1.00  0.00     0.045 C 
ENDBRANCH  14  15
ENDBRANCH  12  14
ENDBRANCH   7   8
ENDBRANCH   1   7
BRANCH   3  19
HETATM   19  C   UNL     1      -7.939   3.663 -32.930  1.00  0.00     0.100 A 
HETATM   20  C   UNL     1      -8.519   2.621 -33.859  1.00  0.00     0.049 A 
HETATM   21  C   UNL     1      -8.916   2.649 -32.390  1.00  0.00     0.024 A 
HETATM   22  C   UNL     1      -7.862   1.289 -34.046  1.00  0.00    -0.045 A 
HETATM   23  C   UNL     1      -8.486   1.353 -31.718  1.00  0.00     0.046 A 
HETATM   24  C   UNL     1      -7.841   0.567 -32.836  1.00  0.00    -0.051 A 
HETATM   25  C   UNL     1      -7.270  -0.693 -32.751  1.00  0.00     0.007 A 
HETATM   26  C   UNL     1      -6.707  -1.242 -33.905  1.00  0.00     0.001 A 
HETATM   27  C   UNL     1      -6.721  -0.532 -35.114  1.00  0.00     0.001 A 
HETATM   28  C   UNL     1      -7.299   0.739 -35.188  1.00  0.00     0.008 A 
ENDBRANCH   3  19
TORSDOF 5
ENDMDL
MODEL 10
REMARK VINA RESULT:      -7.5      2.435      8.656
REMARK  5 active torsions:
REMARK  status: ('A' for Active; 'I' for Inactive)
REMARK    1  A    between atoms: C_2  and  O_3 
REMARK    2  A    between atoms: O_3  and  C_4 
REMARK    3  A    between atoms: C_8  and  C_9 
REMARK    4  A    between atoms: C_9  and  N_10 
REMARK       I    between atoms: N_10  and  C_11 
REMARK       I    between atoms: C_11  and  N_12 
REMARK    5  A    between atoms: N_12  and  C_13 
ROOT
HETATM    1  N   UNL     1      -4.130   3.721 -30.851  1.00  0.00    -0.339 N 
HETATM    2  C   UNL     1      -4.370   4.952 -31.407  1.00  0.00     0.316 C 
HETATM    3  N   UNL     1      -3.355   5.331 -32.249  1.00  0.00    -0.337 N 
HETATM    4  O   UNL     1      -5.362   5.630 -31.170  1.00  0.00    -0.247 OA
HETATM    5  H   UNL     1      -3.520   3.104 -31.366  1.00  0.00     0.164 HD
HETATM    6  H   UNL     1      -2.486   4.819 -32.195  1.00  0.00     0.164 HD
ENDROOT
BRANCH   1   7
HETATM    7  C   UNL     1      -5.082   3.104 -29.956  1.00  0.00     0.163 C 
BRANCH   7   8
HETATM    8  C   UNL     1      -5.930   2.087 -30.670  1.00  0.00    -0.035 A 
HETATM    9  C   UNL     1      -5.365   0.917 -31.182  1.00  0.00     0.028 A 
HETATM   10  C   UNL     1      -6.188   0.013 -31.834  1.00  0.00     0.120 A 
HETATM   11  N   UNL     1      -7.513   0.196 -32.015  1.00  0.00    -0.237 NA
HETATM   12  C   UNL     1      -8.041   1.329 -31.522  1.00  0.00     0.165 A 
HETATM   13  C   UNL     1      -7.304   2.283 -30.833  1.00  0.00     0.066 A 
BRANCH  12  14
HETATM   14  O   UNL     1      -9.389   1.581 -31.635  1.00  0.00    -0.324 OA
BRANCH  14  15
HETATM   15  C   UNL     1      -9.946   1.883 -32.928  1.00  0.00     0.058 C 
HETATM   16  C   UNL     1     -10.764   0.720 -33.510  1.00  0.00     0.045 C 
HETATM   17  C   UNL     1      -8.893   2.404 -33.918  1.00  0.00     0.045 C 
HETATM   18  C   UNL     1     -10.926   3.038 -32.640  1.00  0.00     0.045 C 
ENDBRANCH  14  15
ENDBRANCH  12  14
ENDBRANCH   7   8
ENDBRANCH   1   7
BRANCH   3  19
HETATM   19  C   UNL     1      -3.333   6.596 -32.921  1.00  0.00     0.100 A 
HETATM   20  C   UNL     1      -2.675   7.806 -32.297  1.00  0.00     0.049 A 
HETATM   21  C   UNL     1      -2.065   7.146 -33.526  1.00  0.00     0.024 A 
HETATM   22  C   UNL     1      -1.628   7.665 -31.237  1.00  0.00    -0.045 A 
HETATM   23  C   UNL     1      -0.681   6.613 -33.188  1.00  0.00     0.046 A 
HETATM   24  C   UNL     1      -0.497   6.990 -31.736  1.00  0.00    -0.051 A 
HETATM   25  C   UNL     1       0.604   6.725 -30.937  1.00  0.00     0.007 A 
HETATM   26  C   UNL     1       0.570   7.146 -29.606  1.00  0.00     0.001 A 
HETATM   27  C   UNL     1      -0.551   7.817 -29.097  1.00  0.00     0.001 A 
HETATM   28  C   UNL     1      -1.656   8.078 -29.913  1.00  0.00     0.008 A 
ENDBRANCH   3  19
TORSDOF 5
ENDMDL
