MODEL 1
REMARK VINA RESULT:      -9.1      0.000      0.000
REMARK  5 active torsions:
REMARK  status: ('A' for Active; 'I' for Inactive)
REMARK    1  A    between atoms: O_2  and  C_3 
REMARK    2  A    between atoms: C_4  and  O_5 
REMARK    3  A    between atoms: C_10  and  C_11 
REMARK    4  A    between atoms: C_13  and  O_14 
REMARK    5  A    between atoms: O_14  and  C_15 
ROOT
HETATM    1  C   UNL     1      -2.243   4.521 -32.115  1.00  0.00     0.102 A 
HETATM    2  C   UNL     1      -2.293   5.163 -33.369  1.00  0.00     0.103 A 
HETATM    3  C   UNL     1      -3.518   5.287 -34.034  1.00  0.00     0.069 A 
HETATM    4  C   UNL     1      -4.685   4.796 -33.447  1.00  0.00     0.044 A 
HETATM    5  C   UNL     1      -4.648   4.162 -32.203  1.00  0.00    -0.020 A 
HETATM    6  C   UNL     1      -5.910   3.571 -31.613  1.00  0.00     0.063 C 
HETATM    7  C   UNL     1      -7.162   4.287 -32.129  1.00  0.00     0.117 C 
HETATM    8  C   UNL     1      -7.119   4.584 -33.607  1.00  0.00     0.223 C 
HETATM    9  O   UNL     1      -8.137   4.645 -34.295  1.00  0.00    -0.273 OA
HETATM   10  N   UNL     1      -5.899   4.911 -34.132  1.00  0.00    -0.327 N 
HETATM   11  C   UNL     1      -3.419   4.028 -31.540  1.00  0.00     0.049 A 
HETATM   12  H   UNL     1      -5.911   5.228 -35.094  1.00  0.00     0.169 HD
ENDROOT
BRANCH   6  13
HETATM   13  C   UNL     1      -6.011   2.059 -31.789  1.00  0.00    -0.046 A 
HETATM   14  C   UNL     1      -5.874   1.452 -33.047  1.00  0.00     0.045 A 
HETATM   15  C   UNL     1      -6.096   0.080 -33.208  1.00  0.00     0.076 A 
HETATM   16  C   UNL     1      -6.359  -0.717 -32.096  1.00  0.00     0.037 A 
HETATM   17  C   UNL     1      -6.455  -0.136 -30.832  1.00  0.00     0.003 A 
HETATM   18  C   UNL     1      -6.298   1.244 -30.682  1.00  0.00     0.008 A 
BRANCH  15  19
HETATM   19  O   UNL     1      -6.027  -0.563 -34.424  1.00  0.00    -0.311 OA
BRANCH  19  20
HETATM   20  C   UNL     1      -5.738  -1.910 -34.445  1.00  0.00     0.076 A 
HETATM   21  C   UNL     1      -6.784  -2.762 -34.807  1.00  0.00     0.037 A 
HETATM   22  C   UNL     1      -6.579  -4.142 -34.854  1.00  0.00     0.003 A 
HETATM   23  C   UNL     1      -5.325  -4.671 -34.545  1.00  0.00     0.000 A 
HETATM   24  C   UNL     1      -4.272  -3.821 -34.211  1.00  0.00     0.003 A 
HETATM   25  C   UNL     1      -4.470  -2.440 -34.183  1.00  0.00     0.037 A 
ENDBRANCH  19  20
ENDBRANCH  15  19
ENDBRANCH   6  13
BRANCH   1  26
HETATM   26  O   UNL     1      -1.007   4.438 -31.522  1.00  0.00    -0.353 OA
HETATM   27  C   UNL     1      -0.738   5.347 -30.463  1.00  0.00     0.210 C 
ENDBRANCH   1  26
BRANCH   2  28
HETATM   28  O   UNL     1      -1.095   5.624 -33.855  1.00  0.00    -0.353 OA
HETATM   29  C   UNL     1      -0.862   7.025 -33.826  1.00  0.00     0.210 C 
ENDBRANCH   2  28
TORSDOF 5
ENDMDL
MODEL 2
REMARK VINA RESULT:      -8.5      2.934      5.919
REMARK  5 active torsions:
REMARK  status: ('A' for Active; 'I' for Inactive)
REMARK    1  A    between atoms: O_2  and  C_3 
REMARK    2  A    between atoms: C_4  and  O_5 
REMARK    3  A    between atoms: C_10  and  C_11 
REMARK    4  A    between atoms: C_13  and  O_14 
REMARK    5  A    between atoms: O_14  and  C_15 
ROOT
HETATM    1  C   UNL     1     -11.045   2.306 -33.499  1.00  0.00     0.102 A 
HETATM    2  C   UNL     1     -11.353   3.319 -32.568  1.00  0.00     0.103 A 
HETATM    3  C   UNL     1     -10.330   4.130 -32.064  1.00  0.00     0.069 A 
HETATM    4  C   UNL     1      -9.016   3.950 -32.500  1.00  0.00     0.044 A 
HETATM    5  C   UNL     1      -8.701   2.953 -33.426  1.00  0.00    -0.020 A 
HETATM    6  C   UNL     1      -7.261   2.723 -33.833  1.00  0.00     0.063 C 
HETATM    7  C   UNL     1      -6.423   3.996 -33.685  1.00  0.00     0.117 C 
HETATM    8  C   UNL     1      -6.708   4.759 -32.414  1.00  0.00     0.223 C 
HETATM    9  O   UNL     1      -5.854   5.445 -31.855  1.00  0.00    -0.273 OA
HETATM   10  N   UNL     1      -8.002   4.756 -31.974  1.00  0.00    -0.327 N 
HETATM   11  C   UNL     1      -9.723   2.133 -33.923  1.00  0.00     0.049 A 
HETATM   12  H   UNL     1      -8.197   5.373 -31.194  1.00  0.00     0.169 HD
ENDROOT
BRANCH   6  13
HETATM   13  C   UNL     1      -6.615   1.535 -33.129  1.00  0.00    -0.046 A 
HETATM   14  C   UNL     1      -5.617   0.765 -33.746  1.00  0.00     0.045 A 
HETATM   15  C   UNL     1      -5.128  -0.395 -33.137  1.00  0.00     0.076 A 
HETATM   16  C   UNL     1      -5.558  -0.743 -31.858  1.00  0.00     0.037 A 
HETATM   17  C   UNL     1      -6.517   0.035 -31.212  1.00  0.00     0.003 A 
HETATM   18  C   UNL     1      -7.053   1.157 -31.849  1.00  0.00     0.008 A 
BRANCH  15  19
HETATM   19  O   UNL     1      -4.187  -1.218 -33.715  1.00  0.00    -0.311 OA
BRANCH  19  20
HETATM   20  C   UNL     1      -4.535  -2.519 -34.007  1.00  0.00     0.076 A 
HETATM   21  C   UNL     1      -5.640  -2.691 -34.844  1.00  0.00     0.037 A 
HETATM   22  C   UNL     1      -6.063  -3.975 -35.192  1.00  0.00     0.003 A 
HETATM   23  C   UNL     1      -5.378  -5.089 -34.707  1.00  0.00     0.000 A 
HETATM   24  C   UNL     1      -4.258  -4.920 -33.894  1.00  0.00     0.003 A 
HETATM   25  C   UNL     1      -3.822  -3.637 -33.563  1.00  0.00     0.037 A 
ENDBRANCH  19  20
ENDBRANCH  15  19
ENDBRANCH   6  13
BRANCH   1  26
HETATM   26  O   UNL     1     -12.100   1.552 -33.950  1.00  0.00    -0.353 OA
HETATM   27  C   UNL     1     -12.473   1.713 -35.311  1.00  0.00     0.210 C 
ENDBRANCH   1  26
BRANCH   2  28
HETATM   28  O   UNL     1     -12.675   3.425 -32.214  1.00  0.00    -0.353 OA
HETATM   29  C   UNL     1     -13.402   4.546 -32.694  1.00  0.00     0.210 C 
ENDBRANCH   2  28
TORSDOF 5
ENDMDL
MODEL 3
REMARK VINA RESULT:      -8.3      2.331      4.445
REMARK  5 active torsions:
REMARK  status: ('A' for Active; 'I' for Inactive)
REMARK    1  A    between atoms: O_2  and  C_3 
REMARK    2  A    between atoms: C_4  and  O_5 
REMARK    3  A    between atoms: C_10  and  C_11 
REMARK    4  A    between atoms: C_13  and  O_14 
REMARK    5  A    between atoms: O_14  and  C_15 
ROOT
HETATM    1  C   UNL     1      -8.041   5.199 -30.294  1.00  0.00     0.102 A 
HETATM    2  C   UNL     1      -7.196   5.653 -29.261  1.00  0.00     0.103 A 
HETATM    3  C   UNL     1      -5.820   5.411 -29.336  1.00  0.00     0.069 A 
HETATM    4  C   UNL     1      -5.287   4.743 -30.440  1.00  0.00     0.044 A 
HETATM    5  C   UNL     1      -6.114   4.294 -31.472  1.00  0.00    -0.020 A 
HETATM    6  C   UNL     1      -5.530   3.508 -32.626  1.00  0.00     0.063 C 
HETATM    7  C   UNL     1      -4.054   3.851 -32.852  1.00  0.00     0.117 C 
HETATM    8  C   UNL     1      -3.261   3.966 -31.573  1.00  0.00     0.223 C 
HETATM    9  O   UNL     1      -2.060   3.708 -31.521  1.00  0.00    -0.273 OA
HETATM   10  N   UNL     1      -3.912   4.494 -30.492  1.00  0.00    -0.327 N 
HETATM   11  C   UNL     1      -7.495   4.526 -31.392  1.00  0.00     0.049 A 
HETATM   12  H   UNL     1      -3.331   4.678 -29.683  1.00  0.00     0.169 HD
ENDROOT
BRANCH   6  13
HETATM   13  C   UNL     1      -5.749   2.004 -32.508  1.00  0.00    -0.046 A 
HETATM   14  C   UNL     1      -5.868   1.184 -33.641  1.00  0.00     0.045 A 
HETATM   15  C   UNL     1      -6.196  -0.170 -33.515  1.00  0.00     0.076 A 
HETATM   16  C   UNL     1      -6.310  -0.742 -32.249  1.00  0.00     0.037 A 
HETATM   17  C   UNL     1      -6.153   0.049 -31.112  1.00  0.00     0.003 A 
HETATM   18  C   UNL     1      -5.890   1.415 -31.240  1.00  0.00     0.008 A 
BRANCH  15  19
HETATM   19  O   UNL     1      -6.375  -1.011 -34.590  1.00  0.00    -0.311 OA
BRANCH  19  20
HETATM   20  C   UNL     1      -5.852  -2.285 -34.529  1.00  0.00     0.076 A 
HETATM   21  C   UNL     1      -6.712  -3.325 -34.889  1.00  0.00     0.037 A 
HETATM   22  C   UNL     1      -6.264  -4.647 -34.855  1.00  0.00     0.003 A 
HETATM   23  C   UNL     1      -4.955  -4.930 -34.466  1.00  0.00     0.000 A 
HETATM   24  C   UNL     1      -4.086  -3.892 -34.133  1.00  0.00     0.003 A 
HETATM   25  C   UNL     1      -4.526  -2.568 -34.186  1.00  0.00     0.037 A 
ENDBRANCH  19  20
ENDBRANCH  15  19
ENDBRANCH   6  13
BRANCH   1  26
HETATM   26  O   UNL     1      -9.379   5.474 -30.152  1.00  0.00    -0.353 OA
HETATM   27  C   UNL     1     -10.289   4.432 -30.474  1.00  0.00     0.210 C 
ENDBRANCH   1  26
BRANCH   2  28
HETATM   28  O   UNL     1      -7.815   6.310 -28.227  1.00  0.00    -0.353 OA
HETATM   29  C   UNL     1      -7.631   7.715 -28.130  1.00  0.00     0.210 C 
ENDBRANCH   2  28
TORSDOF 5
ENDMDL
MODEL 4
REMARK VINA RESULT:      -8.3      2.115      4.472
REMARK  5 active torsions:
REMARK  status: ('A' for Active; 'I' for Inactive)
REMARK    1  A    between atoms: O_2  and  C_3 
REMARK    2  A    between atoms: C_4  and  O_5 
REMARK    3  A    between atoms: C_10  and  C_11 
REMARK    4  A    between atoms: C_13  and  O_14 
REMARK    5  A    between atoms: O_14  and  C_15 
ROOT
HETATM    1  C   UNL     1      -7.377   4.965 -31.432  1.00  0.00     0.102 A 
HETATM    2  C   UNL     1      -6.851   5.808 -30.433  1.00  0.00     0.103 A 
HETATM    3  C   UNL     1      -5.471   5.827 -30.200  1.00  0.00     0.069 A 
HETATM    4  C   UNL     1      -4.621   5.031 -30.970  1.00  0.00     0.044 A 
HETATM    5  C   UNL     1      -5.132   4.195 -31.966  1.00  0.00    -0.020 A 
HETATM    6  C   UNL     1      -4.205   3.285 -32.742  1.00  0.00     0.063 C 
HETATM    7  C   UNL     1      -2.780   3.843 -32.794  1.00  0.00     0.117 C 
HETATM    8  C   UNL     1      -2.308   4.412 -31.479  1.00  0.00     0.223 C 
HETATM    9  O   UNL     1      -1.123   4.413 -31.151  1.00  0.00    -0.273 OA
HETATM   10  N   UNL     1      -3.247   5.047 -30.713  1.00  0.00    -0.327 N 
HETATM   11  C   UNL     1      -6.515   4.167 -32.193  1.00  0.00     0.049 A 
HETATM   12  H   UNL     1      -2.888   5.529 -29.898  1.00  0.00     0.169 HD
ENDROOT
BRANCH   6  13
HETATM   13  C   UNL     1      -4.228   1.840 -32.256  1.00  0.00    -0.046 A 
HETATM   14  C   UNL     1      -3.825   0.777 -33.081  1.00  0.00     0.045 A 
HETATM   15  C   UNL     1      -3.974  -0.549 -32.664  1.00  0.00     0.076 A 
HETATM   16  C   UNL     1      -4.435  -0.826 -31.379  1.00  0.00     0.037 A 
HETATM   17  C   UNL     1      -4.800   0.218 -30.531  1.00  0.00     0.003 A 
HETATM   18  C   UNL     1      -4.712   1.541 -30.972  1.00  0.00     0.008 A 
BRANCH  15  19
HETATM   19  O   UNL     1      -3.644  -1.633 -33.447  1.00  0.00    -0.311 OA
BRANCH  19  20
HETATM   20  C   UNL     1      -4.657  -2.428 -33.939  1.00  0.00     0.076 A 
HETATM   21  C   UNL     1      -4.338  -3.769 -34.162  1.00  0.00     0.037 A 
HETATM   22  C   UNL     1      -5.305  -4.646 -34.658  1.00  0.00     0.003 A 
HETATM   23  C   UNL     1      -6.593  -4.183 -34.928  1.00  0.00     0.000 A 
HETATM   24  C   UNL     1      -6.922  -2.851 -34.680  1.00  0.00     0.003 A 
HETATM   25  C   UNL     1      -5.962  -1.979 -34.164  1.00  0.00     0.037 A 
ENDBRANCH  19  20
ENDBRANCH  15  19
ENDBRANCH   6  13
BRANCH   1  26
HETATM   26  O   UNL     1      -8.739   5.000 -31.604  1.00  0.00    -0.353 OA
HETATM   27  C   UNL     1      -9.363   3.809 -32.063  1.00  0.00     0.210 C 
ENDBRANCH   1  26
BRANCH   2  28
HETATM   28  O   UNL     1      -7.766   6.561 -29.741  1.00  0.00    -0.353 OA
HETATM   29  C   UNL     1      -8.043   6.198 -28.396  1.00  0.00     0.210 C 
ENDBRANCH   2  28
TORSDOF 5
ENDMDL
MODEL 5
REMARK VINA RESULT:      -8.2     15.936     18.487
REMARK  5 active torsions:
REMARK  status: ('A' for Active; 'I' for Inactive)
REMARK    1  A    between atoms: O_2  and  C_3 
REMARK    2  A    between atoms: C_4  and  O_5 
REMARK    3  A    between atoms: C_10  and  C_11 
REMARK    4  A    between atoms: C_13  and  O_14 
REMARK    5  A    between atoms: O_14  and  C_15 
ROOT
HETATM    1  C   UNL     1     -10.652 -13.336 -40.042  1.00  0.00     0.102 A 
HETATM    2  C   UNL     1     -10.839 -14.653 -40.507  1.00  0.00     0.103 A 
HETATM    3  C   UNL     1     -10.015 -15.679 -40.029  1.00  0.00     0.069 A 
HETATM    4  C   UNL     1      -9.030 -15.399 -39.080  1.00  0.00     0.044 A 
HETATM    5  C   UNL     1      -8.840 -14.098 -38.609  1.00  0.00    -0.020 A 
HETATM    6  C   UNL     1      -7.721 -13.799 -37.635  1.00  0.00     0.063 C 
HETATM    7  C   UNL     1      -7.352 -15.032 -36.804  1.00  0.00     0.117 C 
HETATM    8  C   UNL     1      -7.295 -16.306 -37.611  1.00  0.00     0.223 C 
HETATM    9  O   UNL     1      -6.552 -17.239 -37.312  1.00  0.00    -0.273 OA
HETATM   10  N   UNL     1      -8.204 -16.431 -38.625  1.00  0.00    -0.327 N 
HETATM   11  C   UNL     1      -9.657 -13.068 -39.095  1.00  0.00     0.049 A 
HETATM   12  H   UNL     1      -8.233 -17.339 -39.072  1.00  0.00     0.169 HD
ENDROOT
BRANCH   6  13
HETATM   13  C   UNL     1      -6.496 -13.174 -38.294  1.00  0.00    -0.046 A 
HETATM   14  C   UNL     1      -5.280 -13.033 -37.606  1.00  0.00     0.045 A 
HETATM   15  C   UNL     1      -4.208 -12.343 -38.181  1.00  0.00     0.076 A 
HETATM   16  C   UNL     1      -4.305 -11.874 -39.490  1.00  0.00     0.037 A 
HETATM   17  C   UNL     1      -5.491 -12.043 -40.202  1.00  0.00     0.003 A 
HETATM   18  C   UNL     1      -6.583 -12.675 -39.604  1.00  0.00     0.008 A 
BRANCH  15  19
HETATM   19  O   UNL     1      -3.009 -12.129 -37.537  1.00  0.00    -0.311 OA
BRANCH  19  20
HETATM   20  C   UNL     1      -2.044 -13.111 -37.591  1.00  0.00     0.076 A 
HETATM   21  C   UNL     1      -1.131 -13.024 -38.645  1.00  0.00     0.037 A 
HETATM   22  C   UNL     1      -0.120 -13.977 -38.777  1.00  0.00     0.003 A 
HETATM   23  C   UNL     1      -0.017 -15.017 -37.851  1.00  0.00     0.000 A 
HETATM   24  C   UNL     1      -0.909 -15.090 -36.782  1.00  0.00     0.003 A 
HETATM   25  C   UNL     1      -1.908 -14.126 -36.639  1.00  0.00     0.037 A 
ENDBRANCH  19  20
ENDBRANCH  15  19
ENDBRANCH   6  13
BRANCH   1  26
HETATM   26  O   UNL     1     -11.498 -12.383 -40.555  1.00  0.00    -0.353 OA
HETATM   27  C   UNL     1     -11.008 -11.051 -40.617  1.00  0.00     0.210 C 
ENDBRANCH   1  26
BRANCH   2  28
HETATM   28  O   UNL     1     -11.842 -14.827 -41.428  1.00  0.00    -0.353 OA
HETATM   29  C   UNL     1     -11.744 -15.932 -42.315  1.00  0.00     0.210 C 
ENDBRANCH   2  28
TORSDOF 5
ENDMDL
MODEL 6
REMARK VINA RESULT:      -8.2      4.015      7.019
REMARK  5 active torsions:
REMARK  status: ('A' for Active; 'I' for Inactive)
REMARK    1  A    between atoms: O_2  and  C_3 
REMARK    2  A    between atoms: C_4  and  O_5 
REMARK    3  A    between atoms: C_10  and  C_11 
REMARK    4  A    between atoms: C_13  and  O_14 
REMARK    5  A    between atoms: O_14  and  C_15 
ROOT
HETATM    1  C   UNL     1     -12.710   2.224 -34.165  1.00  0.00     0.102 A 
HETATM    2  C   UNL     1     -13.212   3.137 -33.216  1.00  0.00     0.103 A 
HETATM    3  C   UNL     1     -12.337   4.029 -32.585  1.00  0.00     0.069 A 
HETATM    4  C   UNL     1     -10.981   4.028 -32.913  1.00  0.00     0.044 A 
HETATM    5  C   UNL     1     -10.474   3.131 -33.856  1.00  0.00    -0.020 A 
HETATM    6  C   UNL     1      -8.989   3.093 -34.147  1.00  0.00     0.063 C 
HETATM    7  C   UNL     1      -8.325   4.443 -33.864  1.00  0.00     0.117 C 
HETATM    8  C   UNL     1      -8.800   5.091 -32.587  1.00  0.00     0.223 C 
HETATM    9  O   UNL     1      -8.083   5.837 -31.923  1.00  0.00    -0.273 OA
HETATM   10  N   UNL     1     -10.117   4.913 -32.262  1.00  0.00    -0.327 N 
HETATM   11  C   UNL     1     -11.347   2.229 -34.481  1.00  0.00     0.049 A 
HETATM   12  H   UNL     1     -10.446   5.456 -31.473  1.00  0.00     0.169 HD
ENDROOT
BRANCH   6  13
HETATM   13  C   UNL     1      -8.264   1.948 -33.449  1.00  0.00    -0.046 A 
HETATM   14  C   UNL     1      -7.122   1.350 -34.004  1.00  0.00     0.045 A 
HETATM   15  C   UNL     1      -6.547   0.220 -33.415  1.00  0.00     0.076 A 
HETATM   16  C   UNL     1      -7.046  -0.265 -32.208  1.00  0.00     0.037 A 
HETATM   17  C   UNL     1      -8.154   0.343 -31.620  1.00  0.00     0.003 A 
HETATM   18  C   UNL     1      -8.768   1.432 -32.243  1.00  0.00     0.008 A 
BRANCH  15  19
HETATM   19  O   UNL     1      -5.458  -0.440 -33.940  1.00  0.00    -0.311 OA
BRANCH  19  20
HETATM   20  C   UNL     1      -5.568  -1.786 -34.215  1.00  0.00     0.076 A 
HETATM   21  C   UNL     1      -4.433  -2.562 -33.971  1.00  0.00     0.037 A 
HETATM   22  C   UNL     1      -4.457  -3.936 -34.222  1.00  0.00     0.003 A 
HETATM   23  C   UNL     1      -5.618  -4.535 -34.711  1.00  0.00     0.000 A 
HETATM   24  C   UNL     1      -6.761  -3.767 -34.928  1.00  0.00     0.003 A 
HETATM   25  C   UNL     1      -6.745  -2.398 -34.659  1.00  0.00     0.037 A 
ENDBRANCH  19  20
ENDBRANCH  15  19
ENDBRANCH   6  13
BRANCH   1  26
HETATM   26  O   UNL     1     -13.627   1.380 -34.744  1.00  0.00    -0.353 OA
HETATM   27  C   UNL     1     -13.730   0.071 -34.202  1.00  0.00     0.210 C 
ENDBRANCH   1  26
BRANCH   2  28
HETATM   28  O   UNL     1     -14.561   3.069 -32.973  1.00  0.00    -0.353 OA
HETATM   29  C   UNL     1     -14.984   2.576 -31.710  1.00  0.00     0.210 C 
ENDBRANCH   2  28
TORSDOF 5
ENDMDL
MODEL 7
REMARK VINA RESULT:      -8.2      3.597      6.672
REMARK  5 active torsions:
REMARK  status: ('A' for Active; 'I' for Inactive)
REMARK    1  A    between atoms: O_2  and  C_3 
REMARK    2  A    between atoms: C_4  and  O_5 
REMARK    3  A    between atoms: C_10  and  C_11 
REMARK    4  A    between atoms: C_13  and  O_14 
REMARK    5  A    between atoms: O_14  and  C_15 
ROOT
HETATM    1  C   UNL     1      -2.578   9.121 -29.050  1.00  0.00     0.102 A 
HETATM    2  C   UNL     1      -2.465   8.405 -27.842  1.00  0.00     0.103 A 
HETATM    3  C   UNL     1      -1.695   7.237 -27.799  1.00  0.00     0.069 A 
HETATM    4  C   UNL     1      -1.026   6.799 -28.943  1.00  0.00     0.044 A 
HETATM    5  C   UNL     1      -1.128   7.503 -30.145  1.00  0.00    -0.020 A 
HETATM    6  C   UNL     1      -0.456   6.976 -31.394  1.00  0.00     0.063 C 
HETATM    7  C   UNL     1       0.759   6.106 -31.056  1.00  0.00     0.117 C 
HETATM    8  C   UNL     1       0.521   5.163 -29.903  1.00  0.00     0.223 C 
HETATM    9  O   UNL     1       1.098   4.080 -29.811  1.00  0.00    -0.273 OA
HETATM   10  N   UNL     1      -0.275   5.620 -28.890  1.00  0.00    -0.327 N 
HETATM   11  C   UNL     1      -1.908   8.668 -30.191  1.00  0.00     0.049 A 
HETATM   12  H   UNL     1      -0.322   5.026 -28.072  1.00  0.00     0.169 HD
ENDROOT
BRANCH   6  13
HETATM   13  C   UNL     1      -1.414   6.264 -32.343  1.00  0.00    -0.046 A 
HETATM   14  C   UNL     1      -2.557   5.598 -31.874  1.00  0.00     0.045 A 
HETATM   15  C   UNL     1      -3.353   4.844 -32.743  1.00  0.00     0.076 A 
HETATM   16  C   UNL     1      -3.072   4.830 -34.108  1.00  0.00     0.037 A 
HETATM   17  C   UNL     1      -1.965   5.521 -34.596  1.00  0.00     0.003 A 
HETATM   18  C   UNL     1      -1.133   6.221 -33.719  1.00  0.00     0.008 A 
BRANCH  15  19
HETATM   19  O   UNL     1      -4.457   4.129 -32.334  1.00  0.00    -0.311 OA
BRANCH  19  20
HETATM   20  C   UNL     1      -4.391   2.752 -32.336  1.00  0.00     0.076 A 
HETATM   21  C   UNL     1      -5.397   2.086 -33.041  1.00  0.00     0.037 A 
HETATM   22  C   UNL     1      -5.408   0.691 -33.096  1.00  0.00     0.003 A 
HETATM   23  C   UNL     1      -4.410  -0.040 -32.451  1.00  0.00     0.000 A 
HETATM   24  C   UNL     1      -3.389   0.623 -31.770  1.00  0.00     0.003 A 
HETATM   25  C   UNL     1      -3.366   2.018 -31.732  1.00  0.00     0.037 A 
ENDBRANCH  19  20
ENDBRANCH  15  19
ENDBRANCH   6  13
BRANCH   1  26
HETATM   26  O   UNL     1      -3.349  10.257 -29.015  1.00  0.00    -0.353 OA
HETATM   27  C   UNL     1      -2.706  11.483 -29.335  1.00  0.00     0.210 C 
ENDBRANCH   1  26
BRANCH   2  28
HETATM   28  O   UNL     1      -3.148   8.925 -26.770  1.00  0.00    -0.353 OA
HETATM   29  C   UNL     1      -3.840   8.019 -25.923  1.00  0.00     0.210 C 
ENDBRANCH   2  28
TORSDOF 5
ENDMDL
MODEL 8
REMARK VINA RESULT:      -8.0     16.108     17.645
REMARK  5 active torsions:
REMARK  status: ('A' for Active; 'I' for Inactive)
REMARK    1  A    between atoms: O_2  and  C_3 
REMARK    2  A    between atoms: C_4  and  O_5 
REMARK    3  A    between atoms: C_10  and  C_11 
REMARK    4  A    between atoms: C_13  and  O_14 
REMARK    5  A    between atoms: O_14  and  C_15 
ROOT
HETATM    1  C   UNL     1      -4.841 -14.245 -35.079  1.00  0.00     0.102 A 
HETATM    2  C   UNL     1      -3.970 -15.310 -34.772  1.00  0.00     0.103 A 
HETATM    3  C   UNL     1      -2.780 -15.460 -35.493  1.00  0.00     0.069 A 
HETATM    4  C   UNL     1      -2.449 -14.547 -36.495  1.00  0.00     0.044 A 
HETATM    5  C   UNL     1      -3.302 -13.485 -36.804  1.00  0.00    -0.020 A 
HETATM    6  C   UNL     1      -2.964 -12.545 -37.941  1.00  0.00     0.063 C 
HETATM    7  C   UNL     1      -1.454 -12.479 -38.188  1.00  0.00     0.117 C 
HETATM    8  C   UNL     1      -0.776 -13.826 -38.129  1.00  0.00     0.223 C 
HETATM    9  O   UNL     1       0.236 -14.079 -38.780  1.00  0.00    -0.273 OA
HETATM   10  N   UNL     1      -1.266 -14.720 -37.218  1.00  0.00    -0.327 N 
HETATM   11  C   UNL     1      -4.500 -13.339 -36.089  1.00  0.00     0.049 A 
HETATM   12  H   UNL     1      -0.722 -15.567 -37.106  1.00  0.00     0.169 HD
ENDROOT
BRANCH   6  13
HETATM   13  C   UNL     1      -3.734 -12.844 -39.223  1.00  0.00    -0.046 A 
HETATM   14  C   UNL     1      -4.958 -12.219 -39.512  1.00  0.00     0.045 A 
HETATM   15  C   UNL     1      -5.710 -12.599 -40.627  1.00  0.00     0.076 A 
HETATM   16  C   UNL     1      -5.201 -13.538 -41.522  1.00  0.00     0.037 A 
HETATM   17  C   UNL     1      -3.967 -14.137 -41.274  1.00  0.00     0.003 A 
HETATM   18  C   UNL     1      -3.246 -13.804 -40.125  1.00  0.00     0.008 A 
BRANCH  15  19
HETATM   19  O   UNL     1      -6.940 -12.059 -40.934  1.00  0.00    -0.311 OA
BRANCH  19  20
HETATM   20  C   UNL     1      -8.075 -12.757 -40.584  1.00  0.00     0.076 A 
HETATM   21  C   UNL     1      -9.188 -11.991 -40.230  1.00  0.00     0.037 A 
HETATM   22  C   UNL     1     -10.381 -12.617 -39.862  1.00  0.00     0.003 A 
HETATM   23  C   UNL     1     -10.463 -14.010 -39.853  1.00  0.00     0.000 A 
HETATM   24  C   UNL     1      -9.363 -14.776 -40.234  1.00  0.00     0.003 A 
HETATM   25  C   UNL     1      -8.177 -14.152 -40.621  1.00  0.00     0.037 A 
ENDBRANCH  19  20
ENDBRANCH  15  19
ENDBRANCH   6  13
BRANCH   1  26
HETATM   26  O   UNL     1      -5.988 -14.160 -34.329  1.00  0.00    -0.353 OA
HETATM   27  C   UNL     1      -7.097 -13.498 -34.920  1.00  0.00     0.210 C 
ENDBRANCH   1  26
BRANCH   2  28
HETATM   28  O   UNL     1      -4.378 -16.145 -33.762  1.00  0.00    -0.353 OA
HETATM   29  C   UNL     1      -3.573 -16.216 -32.594  1.00  0.00     0.210 C 
ENDBRANCH   2  28
TORSDOF 5
ENDMDL
MODEL 9
REMARK VINA RESULT:      -7.9      2.184      3.406
REMARK  5 active torsions:
REMARK  status: ('A' for Active; 'I' for Inactive)
REMARK    1  A    between atoms: O_2  and  C_3 
REMARK    2  A    between atoms: C_4  and  O_5 
REMARK    3  A    between atoms: C_10  and  C_11 
REMARK    4  A    between atoms: C_13  and  O_14 
REMARK    5  A    between atoms: O_14  and  C_15 
ROOT
HETATM    1  C   UNL     1      -3.842   5.031 -32.651  1.00  0.00     0.102 A 
HETATM    2  C   UNL     1      -4.398   5.539 -31.460  1.00  0.00     0.103 A 
HETATM    3  C   UNL     1      -4.946   4.657 -30.521  1.00  0.00     0.069 A 
HETATM    4  C   UNL     1      -4.919   3.282 -30.755  1.00  0.00     0.044 A 
HETATM    5  C   UNL     1      -4.365   2.767 -31.929  1.00  0.00    -0.020 A 
HETATM    6  C   UNL     1      -4.408   1.279 -32.201  1.00  0.00     0.063 C 
HETATM    7  C   UNL     1      -4.467   0.470 -30.901  1.00  0.00     0.117 C 
HETATM    8  C   UNL     1      -5.406   1.051 -29.873  1.00  0.00     0.223 C 
HETATM    9  O   UNL     1      -5.991   0.350 -29.048  1.00  0.00    -0.273 OA
HETATM   10  N   UNL     1      -5.486   2.415 -29.816  1.00  0.00    -0.327 N 
HETATM   11  C   UNL     1      -3.826   3.650 -32.876  1.00  0.00     0.049 A 
HETATM   12  H   UNL     1      -6.022   2.786 -29.041  1.00  0.00     0.169 HD
ENDROOT
BRANCH   6  13
HETATM   13  C   UNL     1      -5.513   0.871 -33.170  1.00  0.00    -0.046 A 
HETATM   14  C   UNL     1      -5.562  -0.412 -33.736  1.00  0.00     0.045 A 
HETATM   15  C   UNL     1      -6.506  -0.726 -34.719  1.00  0.00     0.076 A 
HETATM   16  C   UNL     1      -7.476   0.209 -35.075  1.00  0.00     0.037 A 
HETATM   17  C   UNL     1      -7.468   1.475 -34.492  1.00  0.00     0.003 A 
HETATM   18  C   UNL     1      -6.485   1.809 -33.557  1.00  0.00     0.008 A 
BRANCH  15  19
HETATM   19  O   UNL     1      -6.571  -1.951 -35.346  1.00  0.00    -0.311 OA
BRANCH  19  20
HETATM   20  C   UNL     1      -5.764  -2.971 -34.891  1.00  0.00     0.076 A 
HETATM   21  C   UNL     1      -4.616  -2.588 -34.193  1.00  0.00     0.037 A 
HETATM   22  C   UNL     1      -3.742  -3.557 -33.696  1.00  0.00     0.003 A 
HETATM   23  C   UNL     1      -4.018  -4.910 -33.893  1.00  0.00     0.000 A 
HETATM   24  C   UNL     1      -5.177  -5.296 -34.565  1.00  0.00     0.003 A 
HETATM   25  C   UNL     1      -6.062  -4.329 -35.044  1.00  0.00     0.037 A 
ENDBRANCH  19  20
ENDBRANCH  15  19
ENDBRANCH   6  13
BRANCH   1  26
HETATM   26  O   UNL     1      -3.322   5.955 -33.524  1.00  0.00    -0.353 OA
HETATM   27  C   UNL     1      -2.534   5.458 -34.596  1.00  0.00     0.210 C 
ENDBRANCH   1  26
BRANCH   2  28
HETATM   28  O   UNL     1      -4.365   6.904 -31.318  1.00  0.00    -0.353 OA
HETATM   29  C   UNL     1      -3.502   7.446 -30.328  1.00  0.00     0.210 C 
ENDBRANCH   2  28
TORSDOF 5
ENDMDL
MODEL 10
REMARK VINA RESULT:      -7.9      2.535      6.959
REMARK  5 active torsions:
REMARK  status: ('A' for Active; 'I' for Inactive)
REMARK    1  A    between atoms: O_2  and  C_3 
REMARK    2  A    between atoms: C_4  and  O_5 
REMARK    3  A    between atoms: C_10  and  C_11 
REMARK    4  A    between atoms: C_13  and  O_14 
REMARK    5  A    between atoms: O_14  and  C_15 
ROOT
HETATM    1  C   UNL     1      -9.758   2.326 -32.303  1.00  0.00     0.102 A 
HETATM    2  C   UNL     1      -9.977   2.471 -33.688  1.00  0.00     0.103 A 
HETATM    3  C   UNL     1      -9.238   1.698 -34.591  1.00  0.00     0.069 A 
HETATM    4  C   UNL     1      -8.306   0.773 -34.118  1.00  0.00     0.044 A 
HETATM    5  C   UNL     1      -8.084   0.617 -32.748  1.00  0.00    -0.020 A 
HETATM    6  C   UNL     1      -7.019  -0.339 -32.255  1.00  0.00     0.063 C 
HETATM    7  C   UNL     1      -6.767  -1.469 -33.258  1.00  0.00     0.117 C 
HETATM    8  C   UNL     1      -6.719  -1.001 -34.691  1.00  0.00     0.223 C 
HETATM    9  O   UNL     1      -6.044  -1.572 -35.546  1.00  0.00    -0.273 OA
HETATM   10  N   UNL     1      -7.563   0.020 -35.033  1.00  0.00    -0.327 N 
HETATM   11  C   UNL     1      -8.816   1.399 -31.843  1.00  0.00     0.049 A 
HETATM   12  H   UNL     1      -7.607   0.235 -36.021  1.00  0.00     0.169 HD
ENDROOT
BRANCH   6  13
HETATM   13  C   UNL     1      -5.724   0.356 -31.849  1.00  0.00    -0.046 A 
HETATM   14  C   UNL     1      -5.604   1.754 -31.850  1.00  0.00     0.045 A 
HETATM   15  C   UNL     1      -4.373   2.368 -31.599  1.00  0.00     0.076 A 
HETATM   16  C   UNL     1      -3.270   1.594 -31.244  1.00  0.00     0.037 A 
HETATM   17  C   UNL     1      -3.382   0.206 -31.196  1.00  0.00     0.003 A 
HETATM   18  C   UNL     1      -4.596  -0.410 -31.511  1.00  0.00     0.008 A 
BRANCH  15  19
HETATM   19  O   UNL     1      -4.183   3.732 -31.636  1.00  0.00    -0.311 OA
BRANCH  19  20
HETATM   20  C   UNL     1      -3.609   4.290 -32.757  1.00  0.00     0.076 A 
HETATM   21  C   UNL     1      -2.224   4.466 -32.721  1.00  0.00     0.037 A 
HETATM   22  C   UNL     1      -1.560   5.025 -33.815  1.00  0.00     0.003 A 
HETATM   23  C   UNL     1      -2.280   5.403 -34.948  1.00  0.00     0.000 A 
HETATM   24  C   UNL     1      -3.659   5.202 -34.998  1.00  0.00     0.003 A 
HETATM   25  C   UNL     1      -4.321   4.625 -33.913  1.00  0.00     0.037 A 
ENDBRANCH  19  20
ENDBRANCH  15  19
ENDBRANCH   6  13
BRANCH   1  26
HETATM   26  O   UNL     1     -10.520   3.117 -31.479  1.00  0.00    -0.353 OA
HETATM   27  C   UNL     1      -9.828   3.910 -30.525  1.00  0.00     0.210 C 
ENDBRANCH   1  26
BRANCH   2  28
HETATM   28  O   UNL     1     -10.924   3.397 -34.051  1.00  0.00    -0.353 OA
HETATM   29  C   UNL     1     -10.589   4.320 -35.077  1.00  0.00     0.210 C 
ENDBRANCH   2  28
TORSDOF 5
ENDMDL
