MODEL 1
REMARK VINA RESULT:      -8.9      0.000      0.000
REMARK  4 active torsions:
REMARK  status: ('A' for Active; 'I' for Inactive)
REMARK    1  A    between atoms: C_3  and  C_4 
REMARK    2  A    between atoms: C_9  and  N_10 
REMARK       I    between atoms: N_10  and  C_11 
REMARK    3  A    between atoms: C_11  and  C_12 
REMARK    4  A    between atoms: C_16  and  C_17 
ROOT
HETATM    1  N   UNL     1      -2.926   3.025 -32.000  1.00  0.00    -0.322 N 
HETATM    2  C   UNL     1      -3.765   2.168 -31.315  1.00  0.00     0.276 C 
HETATM    3  O   UNL     1      -4.609   2.477 -30.480  1.00  0.00    -0.266 OA
HETATM    4  H   UNL     1      -2.299   2.540 -32.639  1.00  0.00     0.169 HD
ENDROOT
BRANCH   2   5
HETATM    5  C   UNL     1      -3.504   0.759 -31.663  1.00  0.00     0.147 A 
HETATM    6  N   UNL     1      -2.547   0.036 -31.048  1.00  0.00    -0.169 NA
HETATM    7  N   UNL     1      -2.657  -1.182 -31.609  1.00  0.00    -0.277 N 
HETATM    8  H   UNL     1      -2.009  -1.900 -31.308  1.00  0.00     0.189 HD
HETATM    9  C   UNL     1      -3.675  -1.305 -32.522  1.00  0.00     0.063 A 
HETATM   10  C   UNL     1      -4.210  -0.033 -32.601  1.00  0.00     0.071 A 
BRANCH   9  11
HETATM   11  C   UNL     1      -4.041  -2.557 -33.195  1.00  0.00    -0.008 A 
HETATM   12  C   UNL     1      -3.431  -3.780 -32.869  1.00  0.00     0.014 A 
HETATM   13  C   UNL     1      -3.816  -4.967 -33.501  1.00  0.00     0.001 A 
HETATM   14  C   UNL     1      -4.818  -4.953 -34.467  1.00  0.00     0.000 A 
HETATM   15  C   UNL     1      -5.434  -3.751 -34.805  1.00  0.00     0.001 A 
HETATM   16  C   UNL     1      -5.047  -2.564 -34.175  1.00  0.00     0.014 A 
ENDBRANCH   9  11
ENDBRANCH   2   5
BRANCH   1  17
HETATM   17  C   UNL     1      -2.769   4.409 -31.837  1.00  0.00     0.035 A 
HETATM   18  C   UNL     1      -3.831   5.311 -31.806  1.00  0.00     0.030 A 
HETATM   19  C   UNL     1      -3.595   6.672 -31.591  1.00  0.00     0.018 A 
HETATM   20  C   UNL     1      -2.292   7.150 -31.396  1.00  0.00     0.015 A 
HETATM   21  C   UNL     1      -1.207   6.255 -31.436  1.00  0.00    -0.046 A 
HETATM   22  C   UNL     1       0.216   6.701 -31.239  1.00  0.00     0.049 C 
HETATM   23  C   UNL     1      -1.464   4.890 -31.670  1.00  0.00     0.037 A 
BRANCH  20  24
HETATM   24  C   UNL     1      -2.092   8.607 -31.150  1.00  0.00     0.156 C 
HETATM   25  C   UNL     1      -2.114   9.097 -29.725  1.00  0.00     0.097 C 
HETATM   26  O   UNL     1      -1.931   9.382 -32.090  1.00  0.00    -0.293 OA
ENDBRANCH  20  24
ENDBRANCH   1  17
TORSDOF 4
ENDMDL
MODEL 2
REMARK VINA RESULT:      -8.8      2.182      2.681
REMARK  4 active torsions:
REMARK  status: ('A' for Active; 'I' for Inactive)
REMARK    1  A    between atoms: C_3  and  C_4 
REMARK    2  A    between atoms: C_9  and  N_10 
REMARK       I    between atoms: N_10  and  C_11 
REMARK    3  A    between atoms: C_11  and  C_12 
REMARK    4  A    between atoms: C_16  and  C_17 
ROOT
HETATM    1  N   UNL     1      -4.378   2.726 -32.910  1.00  0.00    -0.322 N 
HETATM    2  C   UNL     1      -5.753   2.591 -32.904  1.00  0.00     0.276 C 
HETATM    3  O   UNL     1      -6.578   3.482 -32.734  1.00  0.00    -0.266 OA
HETATM    4  H   UNL     1      -3.893   1.844 -33.062  1.00  0.00     0.169 HD
ENDROOT
BRANCH   2   5
HETATM    5  C   UNL     1      -6.160   1.185 -33.083  1.00  0.00     0.147 A 
HETATM    6  N   UNL     1      -7.441   0.788 -32.943  1.00  0.00    -0.169 NA
HETATM    7  N   UNL     1      -7.401  -0.527 -33.224  1.00  0.00    -0.277 N 
HETATM    8  H   UNL     1      -8.266  -1.050 -33.161  1.00  0.00     0.189 HD
HETATM    9  C   UNL     1      -6.165  -0.999 -33.593  1.00  0.00     0.063 A 
HETATM   10  C   UNL     1      -5.334   0.099 -33.463  1.00  0.00     0.071 A 
BRANCH   9  11
HETATM   11  C   UNL     1      -5.896  -2.375 -34.028  1.00  0.00    -0.008 A 
HETATM   12  C   UNL     1      -6.877  -3.158 -34.658  1.00  0.00     0.014 A 
HETATM   13  C   UNL     1      -6.591  -4.457 -35.092  1.00  0.00     0.001 A 
HETATM   14  C   UNL     1      -5.320  -4.993 -34.907  1.00  0.00     0.000 A 
HETATM   15  C   UNL     1      -4.335  -4.233 -34.284  1.00  0.00     0.001 A 
HETATM   16  C   UNL     1      -4.622  -2.936 -33.848  1.00  0.00     0.014 A 
ENDBRANCH   9  11
ENDBRANCH   2   5
BRANCH   1  17
HETATM   17  C   UNL     1      -3.612   3.867 -32.629  1.00  0.00     0.035 A 
HETATM   18  C   UNL     1      -3.615   4.518 -31.397  1.00  0.00     0.030 A 
HETATM   19  C   UNL     1      -2.785   5.623 -31.181  1.00  0.00     0.018 A 
HETATM   20  C   UNL     1      -1.933   6.087 -32.192  1.00  0.00     0.015 A 
HETATM   21  C   UNL     1      -1.927   5.448 -33.446  1.00  0.00    -0.046 A 
HETATM   22  C   UNL     1      -1.041   5.897 -34.576  1.00  0.00     0.049 C 
HETATM   23  C   UNL     1      -2.782   4.348 -33.650  1.00  0.00     0.037 A 
BRANCH  20  24
HETATM   24  C   UNL     1      -1.052   7.256 -31.908  1.00  0.00     0.156 C 
HETATM   25  C   UNL     1       0.254   7.005 -31.198  1.00  0.00     0.097 C 
HETATM   26  O   UNL     1      -1.396   8.390 -32.231  1.00  0.00    -0.293 OA
ENDBRANCH  20  24
ENDBRANCH   1  17
TORSDOF 4
ENDMDL
MODEL 3
REMARK VINA RESULT:      -8.5      2.439      9.387
REMARK  4 active torsions:
REMARK  status: ('A' for Active; 'I' for Inactive)
REMARK    1  A    between atoms: C_3  and  C_4 
REMARK    2  A    between atoms: C_9  and  N_10 
REMARK       I    between atoms: N_10  and  C_11 
REMARK    3  A    between atoms: C_11  and  C_12 
REMARK    4  A    between atoms: C_16  and  C_17 
ROOT
HETATM    1  N   UNL     1      -4.329   0.593 -32.524  1.00  0.00    -0.322 N 
HETATM    2  C   UNL     1      -5.111   1.450 -31.774  1.00  0.00     0.276 C 
HETATM    3  O   UNL     1      -6.255   1.247 -31.382  1.00  0.00    -0.266 OA
HETATM    4  H   UNL     1      -3.411   0.980 -32.741  1.00  0.00     0.169 HD
ENDROOT
BRANCH   2   5
HETATM    5  C   UNL     1      -4.422   2.727 -31.516  1.00  0.00     0.147 A 
HETATM    6  N   UNL     1      -4.970   3.695 -30.754  1.00  0.00    -0.169 NA
HETATM    7  N   UNL     1      -4.029   4.655 -30.729  1.00  0.00    -0.277 N 
HETATM    8  H   UNL     1      -4.236   5.506 -30.220  1.00  0.00     0.189 HD
HETATM    9  C   UNL     1      -2.869   4.340 -31.392  1.00  0.00     0.063 A 
HETATM   10  C   UNL     1      -3.127   3.101 -31.950  1.00  0.00     0.071 A 
BRANCH   9  11
HETATM   11  C   UNL     1      -1.673   5.192 -31.428  1.00  0.00    -0.008 A 
HETATM   12  C   UNL     1      -1.658   6.418 -32.112  1.00  0.00     0.014 A 
HETATM   13  C   UNL     1      -0.518   7.230 -32.109  1.00  0.00     0.001 A 
HETATM   14  C   UNL     1       0.623   6.831 -31.419  1.00  0.00     0.000 A 
HETATM   15  C   UNL     1       0.627   5.619 -30.735  1.00  0.00     0.001 A 
HETATM   16  C   UNL     1      -0.511   4.807 -30.741  1.00  0.00     0.014 A 
ENDBRANCH   9  11
ENDBRANCH   2   5
BRANCH   1  17
HETATM   17  C   UNL     1      -4.681  -0.641 -33.089  1.00  0.00     0.035 A 
HETATM   18  C   UNL     1      -5.710  -0.805 -34.013  1.00  0.00     0.030 A 
HETATM   19  C   UNL     1      -5.968  -2.063 -34.567  1.00  0.00     0.018 A 
HETATM   20  C   UNL     1      -5.192  -3.174 -34.211  1.00  0.00     0.015 A 
HETATM   21  C   UNL     1      -4.156  -3.029 -33.269  1.00  0.00    -0.046 A 
HETATM   22  C   UNL     1      -3.289  -4.180 -32.839  1.00  0.00     0.049 C 
HETATM   23  C   UNL     1      -3.923  -1.758 -32.710  1.00  0.00     0.037 A 
BRANCH  20  24
HETATM   24  C   UNL     1      -5.492  -4.491 -34.843  1.00  0.00     0.156 C 
HETATM   25  C   UNL     1      -6.689  -4.585 -35.754  1.00  0.00     0.097 C 
HETATM   26  O   UNL     1      -4.788  -5.470 -34.610  1.00  0.00    -0.293 OA
ENDBRANCH  20  24
ENDBRANCH   1  17
TORSDOF 4
ENDMDL
MODEL 4
REMARK VINA RESULT:      -8.3      2.815      9.574
REMARK  4 active torsions:
REMARK  status: ('A' for Active; 'I' for Inactive)
REMARK    1  A    between atoms: C_3  and  C_4 
REMARK    2  A    between atoms: C_9  and  N_10 
REMARK       I    between atoms: N_10  and  C_11 
REMARK    3  A    between atoms: C_11  and  C_12 
REMARK    4  A    between atoms: C_16  and  C_17 
ROOT
HETATM    1  N   UNL     1      -3.178   3.763 -31.494  1.00  0.00    -0.322 N 
HETATM    2  C   UNL     1      -2.162   4.443 -32.137  1.00  0.00     0.276 C 
HETATM    3  O   UNL     1      -1.946   4.474 -33.343  1.00  0.00    -0.266 OA
HETATM    4  H   UNL     1      -3.155   3.876 -30.482  1.00  0.00     0.169 HD
ENDROOT
BRANCH   2   5
HETATM    5  C   UNL     1      -1.279   5.131 -31.177  1.00  0.00     0.147 A 
HETATM    6  N   UNL     1       0.013   4.782 -31.016  1.00  0.00    -0.169 NA
HETATM    7  N   UNL     1       0.471   5.658 -30.103  1.00  0.00    -0.277 N 
HETATM    8  H   UNL     1       1.435   5.570 -29.807  1.00  0.00     0.189 HD
HETATM    9  C   UNL     1      -0.445   6.598 -29.699  1.00  0.00     0.063 A 
HETATM   10  C   UNL     1      -1.606   6.240 -30.358  1.00  0.00     0.071 A 
BRANCH   9  11
HETATM   11  C   UNL     1      -0.151   7.704 -28.780  1.00  0.00    -0.008 A 
HETATM   12  C   UNL     1      -1.142   8.613 -28.375  1.00  0.00     0.014 A 
HETATM   13  C   UNL     1      -0.848   9.643 -27.474  1.00  0.00     0.001 A 
HETATM   14  C   UNL     1       0.439   9.779 -26.962  1.00  0.00     0.000 A 
HETATM   15  C   UNL     1       1.434   8.889 -27.352  1.00  0.00     0.001 A 
HETATM   16  C   UNL     1       1.141   7.861 -28.254  1.00  0.00     0.014 A 
ENDBRANCH   9  11
ENDBRANCH   2   5
BRANCH   1  17
HETATM   17  C   UNL     1      -4.122   2.883 -32.044  1.00  0.00     0.035 A 
HETATM   18  C   UNL     1      -5.429   3.246 -32.358  1.00  0.00     0.030 A 
HETATM   19  C   UNL     1      -6.297   2.322 -32.948  1.00  0.00     0.018 A 
HETATM   20  C   UNL     1      -5.865   1.021 -33.241  1.00  0.00     0.015 A 
HETATM   21  C   UNL     1      -4.551   0.633 -32.918  1.00  0.00    -0.046 A 
HETATM   22  C   UNL     1      -4.025  -0.747 -33.201  1.00  0.00     0.049 C 
HETATM   23  C   UNL     1      -3.698   1.573 -32.309  1.00  0.00     0.037 A 
BRANCH  20  24
HETATM   24  C   UNL     1      -6.820   0.077 -33.889  1.00  0.00     0.156 C 
HETATM   25  C   UNL     1      -7.051   0.208 -35.372  1.00  0.00     0.097 C 
HETATM   26  O   UNL     1      -7.409  -0.770 -33.222  1.00  0.00    -0.293 OA
ENDBRANCH  20  24
ENDBRANCH   1  17
TORSDOF 4
ENDMDL
MODEL 5
REMARK VINA RESULT:      -8.2      1.548      2.357
REMARK  4 active torsions:
REMARK  status: ('A' for Active; 'I' for Inactive)
REMARK    1  A    between atoms: C_3  and  C_4 
REMARK    2  A    between atoms: C_9  and  N_10 
REMARK       I    between atoms: N_10  and  C_11 
REMARK    3  A    between atoms: C_11  and  C_12 
REMARK    4  A    between atoms: C_16  and  C_17 
ROOT
HETATM    1  N   UNL     1      -4.227   3.184 -32.398  1.00  0.00    -0.322 N 
HETATM    2  C   UNL     1      -3.799   1.930 -32.008  1.00  0.00     0.276 C 
HETATM    3  O   UNL     1      -2.867   1.673 -31.254  1.00  0.00    -0.266 OA
HETATM    4  H   UNL     1      -5.018   3.153 -33.039  1.00  0.00     0.169 HD
ENDROOT
BRANCH   2   5
HETATM    5  C   UNL     1      -4.582   0.864 -32.659  1.00  0.00     0.147 A 
HETATM    6  N   UNL     1      -5.746   1.114 -33.290  1.00  0.00    -0.169 NA
HETATM    7  N   UNL     1      -6.112  -0.086 -33.776  1.00  0.00    -0.277 N 
HETATM    8  H   UNL     1      -6.988  -0.144 -34.281  1.00  0.00     0.189 HD
HETATM    9  C   UNL     1      -5.216  -1.099 -33.539  1.00  0.00     0.063 A 
HETATM   10  C   UNL     1      -4.231  -0.504 -32.772  1.00  0.00     0.071 A 
BRANCH   9  11
HETATM   11  C   UNL     1      -5.358  -2.470 -34.046  1.00  0.00    -0.008 A 
HETATM   12  C   UNL     1      -6.560  -2.932 -34.605  1.00  0.00     0.014 A 
HETATM   13  C   UNL     1      -6.665  -4.233 -35.110  1.00  0.00     0.001 A 
HETATM   14  C   UNL     1      -5.570  -5.091 -35.068  1.00  0.00     0.000 A 
HETATM   15  C   UNL     1      -4.371  -4.651 -34.517  1.00  0.00     0.001 A 
HETATM   16  C   UNL     1      -4.267  -3.352 -34.010  1.00  0.00     0.014 A 
ENDBRANCH   9  11
ENDBRANCH   2   5
BRANCH   1  17
HETATM   17  C   UNL     1      -3.650   4.431 -32.114  1.00  0.00     0.035 A 
HETATM   18  C   UNL     1      -2.286   4.694 -32.213  1.00  0.00     0.030 A 
HETATM   19  C   UNL     1      -1.794   5.978 -31.959  1.00  0.00     0.018 A 
HETATM   20  C   UNL     1      -2.663   7.021 -31.609  1.00  0.00     0.015 A 
HETATM   21  C   UNL     1      -4.042   6.769 -31.491  1.00  0.00    -0.046 A 
HETATM   22  C   UNL     1      -5.029   7.841 -31.116  1.00  0.00     0.049 C 
HETATM   23  C   UNL     1      -4.516   5.466 -31.735  1.00  0.00     0.037 A 
BRANCH  20  24
HETATM   24  C   UNL     1      -2.094   8.377 -31.366  1.00  0.00     0.156 C 
HETATM   25  C   UNL     1      -1.900   8.822 -29.939  1.00  0.00     0.097 C 
HETATM   26  O   UNL     1      -1.810   9.113 -32.309  1.00  0.00    -0.293 OA
ENDBRANCH  20  24
ENDBRANCH   1  17
TORSDOF 4
ENDMDL
MODEL 6
REMARK VINA RESULT:      -8.0      6.294     10.376
REMARK  4 active torsions:
REMARK  status: ('A' for Active; 'I' for Inactive)
REMARK    1  A    between atoms: C_3  and  C_4 
REMARK    2  A    between atoms: C_9  and  N_10 
REMARK       I    between atoms: N_10  and  C_11 
REMARK    3  A    between atoms: C_11  and  C_12 
REMARK    4  A    between atoms: C_16  and  C_17 
ROOT
HETATM    1  N   UNL     1      -7.831   0.428 -34.425  1.00  0.00    -0.322 N 
HETATM    2  C   UNL     1      -8.914   0.673 -33.604  1.00  0.00     0.276 C 
HETATM    3  O   UNL     1      -9.142   0.159 -32.514  1.00  0.00    -0.266 OA
HETATM    4  H   UNL     1      -7.857   0.966 -35.289  1.00  0.00     0.169 HD
ENDROOT
BRANCH   2   5
HETATM    5  C   UNL     1      -9.853   1.631 -34.217  1.00  0.00     0.147 A 
HETATM    6  N   UNL     1     -11.085   1.266 -34.623  1.00  0.00    -0.169 NA
HETATM    7  N   UNL     1     -11.627   2.411 -35.074  1.00  0.00    -0.277 N 
HETATM    8  H   UNL     1     -12.565   2.372 -35.454  1.00  0.00     0.189 HD
HETATM    9  C   UNL     1     -10.828   3.519 -34.933  1.00  0.00     0.063 A 
HETATM   10  C   UNL     1      -9.648   3.018 -34.415  1.00  0.00     0.071 A 
BRANCH   9  11
HETATM   11  C   UNL     1     -11.237   4.888 -35.272  1.00  0.00    -0.008 A 
HETATM   12  C   UNL     1     -10.306   5.934 -35.379  1.00  0.00     0.014 A 
HETATM   13  C   UNL     1     -10.712   7.225 -35.733  1.00  0.00     0.001 A 
HETATM   14  C   UNL     1     -12.054   7.491 -35.990  1.00  0.00     0.000 A 
HETATM   15  C   UNL     1     -12.992   6.468 -35.889  1.00  0.00     0.001 A 
HETATM   16  C   UNL     1     -12.586   5.178 -35.532  1.00  0.00     0.014 A 
ENDBRANCH   9  11
ENDBRANCH   2   5
BRANCH   1  17
HETATM   17  C   UNL     1      -6.809  -0.520 -34.262  1.00  0.00     0.035 A 
HETATM   18  C   UNL     1      -5.568  -0.232 -33.698  1.00  0.00     0.030 A 
HETATM   19  C   UNL     1      -4.619  -1.244 -33.526  1.00  0.00     0.018 A 
HETATM   20  C   UNL     1      -4.902  -2.562 -33.909  1.00  0.00     0.015 A 
HETATM   21  C   UNL     1      -6.146  -2.868 -34.491  1.00  0.00    -0.046 A 
HETATM   22  C   UNL     1      -6.512  -4.260 -34.928  1.00  0.00     0.049 C 
HETATM   23  C   UNL     1      -7.082  -1.832 -34.671  1.00  0.00     0.037 A 
BRANCH  20  24
HETATM   24  C   UNL     1      -3.866  -3.611 -33.687  1.00  0.00     0.156 C 
HETATM   25  C   UNL     1      -3.264  -3.736 -32.311  1.00  0.00     0.097 C 
HETATM   26  O   UNL     1      -3.506  -4.338 -34.610  1.00  0.00    -0.293 OA
ENDBRANCH  20  24
ENDBRANCH   1  17
TORSDOF 4
ENDMDL
MODEL 7
REMARK VINA RESULT:      -7.9      6.071      7.664
REMARK  4 active torsions:
REMARK  status: ('A' for Active; 'I' for Inactive)
REMARK    1  A    between atoms: C_3  and  C_4 
REMARK    2  A    between atoms: C_9  and  N_10 
REMARK       I    between atoms: N_10  and  C_11 
REMARK    3  A    between atoms: C_11  and  C_12 
REMARK    4  A    between atoms: C_16  and  C_17 
ROOT
HETATM    1  N   UNL     1      -8.831   1.529 -32.961  1.00  0.00    -0.322 N 
HETATM    2  C   UNL     1      -7.629   1.982 -33.469  1.00  0.00     0.276 C 
HETATM    3  O   UNL     1      -7.369   3.124 -33.833  1.00  0.00    -0.266 OA
HETATM    4  H   UNL     1      -8.817   0.536 -32.734  1.00  0.00     0.169 HD
ENDROOT
BRANCH   2   5
HETATM    5  C   UNL     1      -6.644   0.892 -33.588  1.00  0.00     0.147 A 
HETATM    6  N   UNL     1      -5.368   1.032 -33.179  1.00  0.00    -0.169 NA
HETATM    7  N   UNL     1      -4.821  -0.174 -33.414  1.00  0.00    -0.277 N 
HETATM    8  H   UNL     1      -3.840  -0.298 -33.197  1.00  0.00     0.189 HD
HETATM    9  C   UNL     1      -5.692  -1.114 -33.907  1.00  0.00     0.063 A 
HETATM   10  C   UNL     1      -6.878  -0.420 -34.068  1.00  0.00     0.071 A 
BRANCH   9  11
HETATM   11  C   UNL     1      -5.346  -2.518 -34.157  1.00  0.00    -0.008 A 
HETATM   12  C   UNL     1      -4.135  -3.073 -33.712  1.00  0.00     0.014 A 
HETATM   13  C   UNL     1      -3.837  -4.422 -33.935  1.00  0.00     0.001 A 
HETATM   14  C   UNL     1      -4.746  -5.239 -34.601  1.00  0.00     0.000 A 
HETATM   15  C   UNL     1      -5.951  -4.708 -35.049  1.00  0.00     0.001 A 
HETATM   16  C   UNL     1      -6.247  -3.359 -34.829  1.00  0.00     0.014 A 
ENDBRANCH   9  11
ENDBRANCH   2   5
BRANCH   1  17
HETATM   17  C   UNL     1     -10.043   2.222 -32.836  1.00  0.00     0.035 A 
HETATM   18  C   UNL     1     -10.261   3.243 -31.913  1.00  0.00     0.030 A 
HETATM   19  C   UNL     1     -11.485   3.919 -31.884  1.00  0.00     0.018 A 
HETATM   20  C   UNL     1     -12.506   3.589 -32.785  1.00  0.00     0.015 A 
HETATM   21  C   UNL     1     -12.308   2.553 -33.715  1.00  0.00    -0.046 A 
HETATM   22  C   UNL     1     -13.363   2.145 -34.707  1.00  0.00     0.049 C 
HETATM   23  C   UNL     1     -11.075   1.872 -33.718  1.00  0.00     0.037 A 
BRANCH  20  24
HETATM   24  C   UNL     1     -13.786   4.352 -32.728  1.00  0.00     0.156 C 
HETATM   25  C   UNL     1     -14.865   3.862 -31.797  1.00  0.00     0.097 C 
HETATM   26  O   UNL     1     -13.955   5.341 -33.437  1.00  0.00    -0.293 OA
ENDBRANCH  20  24
ENDBRANCH   1  17
TORSDOF 4
ENDMDL
MODEL 8
REMARK VINA RESULT:      -7.7      6.363     11.704
REMARK  4 active torsions:
REMARK  status: ('A' for Active; 'I' for Inactive)
REMARK    1  A    between atoms: C_3  and  C_4 
REMARK    2  A    between atoms: C_9  and  N_10 
REMARK       I    between atoms: N_10  and  C_11 
REMARK    3  A    between atoms: C_11  and  C_12 
REMARK    4  A    between atoms: C_16  and  C_17 
ROOT
HETATM    1  N   UNL     1       0.835   7.440 -28.741  1.00  0.00    -0.322 N 
HETATM    2  C   UNL     1       0.150   7.931 -27.647  1.00  0.00     0.276 C 
HETATM    3  O   UNL     1      -1.058   7.870 -27.448  1.00  0.00    -0.266 OA
HETATM    4  H   UNL     1       1.838   7.615 -28.694  1.00  0.00     0.169 HD
ENDROOT
BRANCH   2   5
HETATM    5  C   UNL     1       1.053   8.621 -26.707  1.00  0.00     0.147 A 
HETATM    6  N   UNL     1       1.092   9.965 -26.607  1.00  0.00    -0.169 NA
HETATM    7  N   UNL     1       1.989  10.188 -25.631  1.00  0.00    -0.277 N 
HETATM    8  H   UNL     1       2.199  11.150 -25.393  1.00  0.00     0.189 HD
HETATM    9  C   UNL     1       2.501   9.054 -25.050  1.00  0.00     0.063 A 
HETATM   10  C   UNL     1       1.932   8.021 -25.772  1.00  0.00     0.071 A 
BRANCH   9  11
HETATM   11  C   UNL     1       3.427   9.048 -23.911  1.00  0.00    -0.008 A 
HETATM   12  C   UNL     1       3.097   8.435 -22.691  1.00  0.00     0.014 A 
HETATM   13  C   UNL     1       4.005   8.414 -21.627  1.00  0.00     0.001 A 
HETATM   14  C   UNL     1       5.260   9.001 -21.766  1.00  0.00     0.000 A 
HETATM   15  C   UNL     1       5.606   9.613 -22.967  1.00  0.00     0.001 A 
HETATM   16  C   UNL     1       4.696   9.637 -24.029  1.00  0.00     0.014 A 
ENDBRANCH   9  11
ENDBRANCH   2   5
BRANCH   1  17
HETATM   17  C   UNL     1       0.316   6.858 -29.906  1.00  0.00     0.035 A 
HETATM   18  C   UNL     1       0.625   5.568 -30.333  1.00  0.00     0.030 A 
HETATM   19  C   UNL     1       0.027   5.042 -31.482  1.00  0.00     0.018 A 
HETATM   20  C   UNL     1      -0.896   5.797 -32.218  1.00  0.00     0.015 A 
HETATM   21  C   UNL     1      -1.210   7.106 -31.808  1.00  0.00    -0.046 A 
HETATM   22  C   UNL     1      -2.189   7.972 -32.554  1.00  0.00     0.049 C 
HETATM   23  C   UNL     1      -0.585   7.624 -30.658  1.00  0.00     0.037 A 
BRANCH  20  24
HETATM   24  C   UNL     1      -1.523   5.186 -33.425  1.00  0.00     0.156 C 
HETATM   25  C   UNL     1      -2.700   4.266 -33.226  1.00  0.00     0.097 C 
HETATM   26  O   UNL     1      -1.075   5.418 -34.545  1.00  0.00    -0.293 OA
ENDBRANCH  20  24
ENDBRANCH   1  17
TORSDOF 4
ENDMDL
MODEL 9
REMARK VINA RESULT:      -7.6      7.336     10.795
REMARK  4 active torsions:
REMARK  status: ('A' for Active; 'I' for Inactive)
REMARK    1  A    between atoms: C_3  and  C_4 
REMARK    2  A    between atoms: C_9  and  N_10 
REMARK       I    between atoms: N_10  and  C_11 
REMARK    3  A    between atoms: C_11  and  C_12 
REMARK    4  A    between atoms: C_16  and  C_17 
ROOT
HETATM    1  N   UNL     1      -9.404   1.639 -34.324  1.00  0.00    -0.322 N 
HETATM    2  C   UNL     1     -10.728   1.416 -34.002  1.00  0.00     0.276 C 
HETATM    3  O   UNL     1     -11.200   0.405 -33.491  1.00  0.00    -0.266 OA
HETATM    4  H   UNL     1      -9.246   2.552 -34.749  1.00  0.00     0.169 HD
ENDROOT
BRANCH   2   5
HETATM    5  C   UNL     1     -11.581   2.552 -34.396  1.00  0.00     0.147 A 
HETATM    6  N   UNL     1     -12.904   2.578 -34.136  1.00  0.00    -0.169 NA
HETATM    7  N   UNL     1     -13.299   3.775 -34.605  1.00  0.00    -0.277 N 
HETATM    8  H   UNL     1     -14.282   4.009 -34.534  1.00  0.00     0.189 HD
HETATM    9  C   UNL     1     -12.289   4.556 -35.111  1.00  0.00     0.063 A 
HETATM   10  C   UNL     1     -11.167   3.753 -35.022  1.00  0.00     0.071 A 
BRANCH   9  11
HETATM   11  C   UNL     1     -12.465   5.930 -35.598  1.00  0.00    -0.008 A 
HETATM   12  C   UNL     1     -11.419   6.866 -35.566  1.00  0.00     0.014 A 
HETATM   13  C   UNL     1     -11.597   8.162 -36.062  1.00  0.00     0.001 A 
HETATM   14  C   UNL     1     -12.823   8.542 -36.603  1.00  0.00     0.000 A 
HETATM   15  C   UNL     1     -13.871   7.628 -36.643  1.00  0.00     0.001 A 
HETATM   16  C   UNL     1     -13.693   6.334 -36.143  1.00  0.00     0.014 A 
ENDBRANCH   9  11
ENDBRANCH   2   5
BRANCH   1  17
HETATM   17  C   UNL     1      -8.323   0.749 -34.242  1.00  0.00     0.035 A 
HETATM   18  C   UNL     1      -7.777   0.088 -35.340  1.00  0.00     0.030 A 
HETATM   19  C   UNL     1      -6.668  -0.748 -35.183  1.00  0.00     0.018 A 
HETATM   20  C   UNL     1      -6.082  -0.929 -33.922  1.00  0.00     0.015 A 
HETATM   21  C   UNL     1      -6.628  -0.279 -32.799  1.00  0.00    -0.046 A 
HETATM   22  C   UNL     1      -6.052  -0.433 -31.418  1.00  0.00     0.049 C 
HETATM   23  C   UNL     1      -7.756   0.545 -32.976  1.00  0.00     0.037 A 
BRANCH  20  24
HETATM   24  C   UNL     1      -4.888  -1.814 -33.807  1.00  0.00     0.156 C 
HETATM   25  C   UNL     1      -5.012  -3.240 -34.281  1.00  0.00     0.097 C 
HETATM   26  O   UNL     1      -3.842  -1.391 -33.321  1.00  0.00    -0.293 OA
ENDBRANCH  20  24
ENDBRANCH   1  17
TORSDOF 4
ENDMDL
MODEL 10
REMARK VINA RESULT:      -7.5      2.757      3.333
REMARK  4 active torsions:
REMARK  status: ('A' for Active; 'I' for Inactive)
REMARK    1  A    between atoms: C_3  and  C_4 
REMARK    2  A    between atoms: C_9  and  N_10 
REMARK       I    between atoms: N_10  and  C_11 
REMARK    3  A    between atoms: C_11  and  C_12 
REMARK    4  A    between atoms: C_16  and  C_17 
ROOT
HETATM    1  N   UNL     1      -4.937   2.561 -31.364  1.00  0.00    -0.322 N 
HETATM    2  C   UNL     1      -3.652   2.065 -31.459  1.00  0.00     0.276 C 
HETATM    3  O   UNL     1      -2.610   2.676 -31.249  1.00  0.00    -0.266 OA
HETATM    4  H   UNL     1      -5.649   1.870 -31.594  1.00  0.00     0.169 HD
ENDROOT
BRANCH   2   5
HETATM    5  C   UNL     1      -3.645   0.661 -31.910  1.00  0.00     0.147 A 
HETATM    6  N   UNL     1      -2.792  -0.251 -31.401  1.00  0.00    -0.169 NA
HETATM    7  N   UNL     1      -3.129  -1.391 -32.029  1.00  0.00    -0.277 N 
HETATM    8  H   UNL     1      -2.596  -2.224 -31.814  1.00  0.00     0.189 HD
HETATM    9  C   UNL     1      -4.197  -1.282 -32.885  1.00  0.00     0.063 A 
HETATM   10  C   UNL     1      -4.517   0.063 -32.852  1.00  0.00     0.071 A 
BRANCH   9  11
HETATM   11  C   UNL     1      -4.799  -2.406 -33.613  1.00  0.00    -0.008 A 
HETATM   12  C   UNL     1      -6.045  -2.294 -34.250  1.00  0.00     0.014 A 
HETATM   13  C   UNL     1      -6.587  -3.368 -34.965  1.00  0.00     0.001 A 
HETATM   14  C   UNL     1      -5.891  -4.570 -35.058  1.00  0.00     0.000 A 
HETATM   15  C   UNL     1      -4.655  -4.700 -34.433  1.00  0.00     0.001 A 
HETATM   16  C   UNL     1      -4.115  -3.627 -33.716  1.00  0.00     0.014 A 
ENDBRANCH   9  11
ENDBRANCH   2   5
BRANCH   1  17
HETATM   17  C   UNL     1      -5.347   3.879 -31.111  1.00  0.00     0.035 A 
HETATM   18  C   UNL     1      -5.470   4.855 -32.097  1.00  0.00     0.030 A 
HETATM   19  C   UNL     1      -5.932   6.134 -31.771  1.00  0.00     0.018 A 
HETATM   20  C   UNL     1      -6.286   6.452 -30.452  1.00  0.00     0.015 A 
HETATM   21  C   UNL     1      -6.156   5.481 -29.442  1.00  0.00    -0.046 A 
HETATM   22  C   UNL     1      -6.514   5.757 -28.007  1.00  0.00     0.049 C 
HETATM   23  C   UNL     1      -5.673   4.204 -29.787  1.00  0.00     0.037 A 
BRANCH  20  24
HETATM   24  C   UNL     1      -6.793   7.822 -30.156  1.00  0.00     0.156 C 
HETATM   25  C   UNL     1      -8.271   8.080 -30.301  1.00  0.00     0.097 C 
HETATM   26  O   UNL     1      -6.018   8.715 -29.821  1.00  0.00    -0.293 OA
ENDBRANCH  20  24
ENDBRANCH   1  17
TORSDOF 4
ENDMDL
