MODEL 1
REMARK VINA RESULT:      -8.6      0.000      0.000
REMARK  8 active torsions:
REMARK  status: ('A' for Active; 'I' for Inactive)
REMARK    1  A    between atoms: C_3  and  N_4 
REMARK    2  A    between atoms: N_7  and  C_9 
REMARK    3  A    between atoms: C_9  and  C_10 
REMARK    4  A    between atoms: C_10  and  C_11 
REMARK    5  A    between atoms: C_11  and  N_12 
REMARK       I    between atoms: N_12  and  C_13 
REMARK    6  A    between atoms: C_13  and  C_14 
REMARK    7  A    between atoms: C_14  and  O_15 
REMARK    8  A    between atoms: O_15  and  C_16 
ROOT
HETATM    1  C   UNL     1      -4.931   4.200 -31.333  1.00  0.00     0.236 C 
ENDROOT
BRANCH   1   2
HETATM    2  N   UNL     1      -4.918   2.690 -31.451  1.00  0.00    -0.069 N 
HETATM    3  C   UNL     1      -6.275   2.112 -31.899  1.00  0.00     0.249 C 
HETATM    4  C   UNL     1      -6.193   0.584 -32.107  1.00  0.00     0.123 C 
HETATM    5  N   UNL     1      -5.108   0.276 -33.059  1.00  0.00    -0.280 NA
HETATM    6  C   UNL     1      -3.783   0.720 -32.598  1.00  0.00     0.123 C 
HETATM    7  C   UNL     1      -3.798   2.250 -32.413  1.00  0.00     0.249 C 
HETATM    8  H   UNL     1      -4.703   2.286 -30.531  1.00  0.00     0.280 HD
BRANCH   5   9
HETATM    9  C   UNL     1      -5.200  -1.011 -33.614  1.00  0.00     0.018 A 
HETATM   10  C   UNL     1      -6.201  -1.296 -34.574  1.00  0.00    -0.041 A 
HETATM   11  C   UNL     1      -7.182  -0.254 -35.047  1.00  0.00     0.050 C 
HETATM   12  C   UNL     1      -6.312  -2.590 -35.114  1.00  0.00     0.010 A 
HETATM   13  C   UNL     1      -5.424  -3.597 -34.743  1.00  0.00     0.024 A 
HETATM   14  C   UNL     1      -4.427  -3.316 -33.820  1.00  0.00     0.035 A 
HETATM   15  C   UNL     1      -4.316  -2.043 -33.256  1.00  0.00     0.048 A 
HETATM   16 CL   UNL     1      -3.319  -4.549 -33.357  1.00  0.00    -0.084 Cl
ENDBRANCH   5   9
ENDBRANCH   1   2
BRANCH   1  17
HETATM   17  C   UNL     1      -6.145   4.812 -32.014  1.00  0.00     0.047 C 
BRANCH  17  18
HETATM   18  C   UNL     1      -5.728   5.472 -33.330  1.00  0.00     0.124 C 
BRANCH  18  19
HETATM   19  N   UNL     1      -4.322   5.790 -33.365  1.00  0.00    -0.359 N 
HETATM   20  C   UNL     1      -3.560   5.568 -34.496  1.00  0.00     0.241 C 
HETATM   21  O   UNL     1      -4.064   5.264 -35.576  1.00  0.00    -0.271 OA
HETATM   22  H   UNL     1      -3.801   5.914 -32.499  1.00  0.00     0.162 HD
BRANCH  20  23
HETATM   23  C   UNL     1      -2.049   5.707 -34.295  1.00  0.00     0.278 C 
BRANCH  23  24
HETATM   24  O   UNL     1      -1.609   4.839 -33.252  1.00  0.00    -0.342 OA
BRANCH  24  25
HETATM   25  C   UNL     1      -1.011   5.423 -32.170  1.00  0.00     0.069 A 
HETATM   26  C   UNL     1      -0.497   4.756 -31.056  1.00  0.00     0.038 A 
HETATM   27  C   UNL     1       0.081   5.482 -30.008  1.00  0.00     0.026 A 
HETATM   28  C   UNL     1       0.148   6.872 -30.075  1.00  0.00     0.034 A 
HETATM   29 CL   UNL     1       0.860   7.759 -28.786  1.00  0.00    -0.084 Cl
HETATM   30  C   UNL     1      -0.361   7.545 -31.183  1.00  0.00     0.026 A 
HETATM   31  C   UNL     1      -0.941   6.818 -32.226  1.00  0.00     0.038 A 
ENDBRANCH  24  25
ENDBRANCH  23  24
ENDBRANCH  20  23
ENDBRANCH  18  19
ENDBRANCH  17  18
ENDBRANCH   1  17
TORSDOF 8
ENDMDL
MODEL 2
REMARK VINA RESULT:      -8.4      1.432      2.235
REMARK  8 active torsions:
REMARK  status: ('A' for Active; 'I' for Inactive)
REMARK    1  A    between atoms: C_3  and  N_4 
REMARK    2  A    between atoms: N_7  and  C_9 
REMARK    3  A    between atoms: C_9  and  C_10 
REMARK    4  A    between atoms: C_10  and  C_11 
REMARK    5  A    between atoms: C_11  and  N_12 
REMARK       I    between atoms: N_12  and  C_13 
REMARK    6  A    between atoms: C_13  and  C_14 
REMARK    7  A    between atoms: C_14  and  O_15 
REMARK    8  A    between atoms: O_15  and  C_16 
ROOT
HETATM    1  C   UNL     1      -7.338   3.797 -32.488  1.00  0.00     0.236 C 
ENDROOT
BRANCH   1   2
HETATM    2  N   UNL     1      -7.345   2.340 -32.903  1.00  0.00    -0.069 N 
HETATM    3  C   UNL     1      -6.517   2.075 -34.175  1.00  0.00     0.249 C 
HETATM    4  C   UNL     1      -6.464   0.567 -34.507  1.00  0.00     0.123 C 
HETATM    5  N   UNL     1      -5.953  -0.174 -33.337  1.00  0.00    -0.280 NA
HETATM    6  C   UNL     1      -6.794  -0.026 -32.138  1.00  0.00     0.123 C 
HETATM    7  C   UNL     1      -6.847   1.463 -31.740  1.00  0.00     0.249 C 
HETATM    8  H   UNL     1      -8.313   2.056 -33.104  1.00  0.00     0.280 HD
BRANCH   5   9
HETATM    9  C   UNL     1      -5.498  -1.466 -33.650  1.00  0.00     0.018 A 
HETATM   10  C   UNL     1      -4.239  -1.905 -33.174  1.00  0.00    -0.041 A 
HETATM   11  C   UNL     1      -3.354  -1.036 -32.317  1.00  0.00     0.050 C 
HETATM   12  C   UNL     1      -3.769  -3.189 -33.505  1.00  0.00     0.010 A 
HETATM   13  C   UNL     1      -4.544  -4.056 -34.272  1.00  0.00     0.024 A 
HETATM   14  C   UNL     1      -5.788  -3.638 -34.722  1.00  0.00     0.035 A 
HETATM   15  C   UNL     1      -6.261  -2.358 -34.421  1.00  0.00     0.048 A 
HETATM   16 CL   UNL     1      -6.758  -4.702 -35.665  1.00  0.00    -0.084 Cl
ENDBRANCH   5   9
ENDBRANCH   1   2
BRANCH   1  17
HETATM   17  C   UNL     1      -7.104   4.723 -33.673  1.00  0.00     0.047 C 
BRANCH  17  18
HETATM   18  C   UNL     1      -6.088   5.803 -33.298  1.00  0.00     0.124 C 
BRANCH  18  19
HETATM   19  N   UNL     1      -4.820   5.249 -32.893  1.00  0.00    -0.359 N 
HETATM   20  C   UNL     1      -3.748   5.187 -33.763  1.00  0.00     0.241 C 
HETATM   21  O   UNL     1      -3.757   5.757 -34.853  1.00  0.00    -0.271 OA
HETATM   22  H   UNL     1      -4.760   4.645 -32.075  1.00  0.00     0.162 HD
BRANCH  20  23
HETATM   23  C   UNL     1      -2.568   4.343 -33.276  1.00  0.00     0.278 C 
BRANCH  23  24
HETATM   24  O   UNL     1      -1.349   5.069 -33.423  1.00  0.00    -0.342 OA
BRANCH  24  25
HETATM   25  C   UNL     1      -0.915   5.780 -32.339  1.00  0.00     0.069 A 
HETATM   26  C   UNL     1      -1.281   7.087 -32.012  1.00  0.00     0.038 A 
HETATM   27  C   UNL     1      -0.748   7.701 -30.872  1.00  0.00     0.026 A 
HETATM   28  C   UNL     1       0.147   7.009 -30.060  1.00  0.00     0.034 A 
HETATM   29 CL   UNL     1       0.798   7.768 -28.662  1.00  0.00    -0.084 Cl
HETATM   30  C   UNL     1       0.517   5.705 -30.378  1.00  0.00     0.026 A 
HETATM   31  C   UNL     1      -0.013   5.096 -31.518  1.00  0.00     0.038 A 
ENDBRANCH  24  25
ENDBRANCH  23  24
ENDBRANCH  20  23
ENDBRANCH  18  19
ENDBRANCH  17  18
ENDBRANCH   1  17
TORSDOF 8
ENDMDL
MODEL 3
REMARK VINA RESULT:      -8.4      1.833      2.628
REMARK  8 active torsions:
REMARK  status: ('A' for Active; 'I' for Inactive)
REMARK    1  A    between atoms: C_3  and  N_4 
REMARK    2  A    between atoms: N_7  and  C_9 
REMARK    3  A    between atoms: C_9  and  C_10 
REMARK    4  A    between atoms: C_10  and  C_11 
REMARK    5  A    between atoms: C_11  and  N_12 
REMARK       I    between atoms: N_12  and  C_13 
REMARK    6  A    between atoms: C_13  and  C_14 
REMARK    7  A    between atoms: C_14  and  O_15 
REMARK    8  A    between atoms: O_15  and  C_16 
ROOT
HETATM    1  C   UNL     1      -8.929   3.846 -32.343  1.00  0.00     0.236 C 
ENDROOT
BRANCH   1   2
HETATM    2  N   UNL     1      -8.649   2.391 -32.656  1.00  0.00    -0.069 N 
HETATM    3  C   UNL     1      -8.160   2.172 -34.101  1.00  0.00     0.249 C 
HETATM    4  C   UNL     1      -7.788   0.693 -34.349  1.00  0.00     0.123 C 
HETATM    5  N   UNL     1      -6.794   0.263 -33.346  1.00  0.00    -0.280 NA
HETATM    6  C   UNL     1      -7.284   0.357 -31.961  1.00  0.00     0.123 C 
HETATM    7  C   UNL     1      -7.632   1.826 -31.648  1.00  0.00     0.249 C 
HETATM    8  H   UNL     1      -9.518   1.854 -32.544  1.00  0.00     0.280 HD
BRANCH   5   9
HETATM    9  C   UNL     1      -6.105  -0.907 -33.709  1.00  0.00     0.018 A 
HETATM   10  C   UNL     1      -4.721  -1.024 -33.436  1.00  0.00    -0.041 A 
HETATM   11  C   UNL     1      -3.941   0.066 -32.747  1.00  0.00     0.050 C 
HETATM   12  C   UNL     1      -4.023  -2.184 -33.819  1.00  0.00     0.010 A 
HETATM   13  C   UNL     1      -4.684  -3.242 -34.438  1.00  0.00     0.024 A 
HETATM   14  C   UNL     1      -6.045  -3.142 -34.686  1.00  0.00     0.035 A 
HETATM   15  C   UNL     1      -6.750  -1.988 -34.332  1.00  0.00     0.048 A 
HETATM   16 CL   UNL     1      -6.875  -4.445 -35.443  1.00  0.00    -0.084 Cl
ENDBRANCH   5   9
ENDBRANCH   1   2
BRANCH   1  17
HETATM   17  C   UNL     1      -8.396   4.773 -33.426  1.00  0.00     0.047 C 
BRANCH  17  18
HETATM   18  C   UNL     1      -7.125   5.470 -32.937  1.00  0.00     0.124 C 
BRANCH  18  19
HETATM   19  N   UNL     1      -6.107   5.538 -33.956  1.00  0.00    -0.359 N 
HETATM   20  C   UNL     1      -5.083   4.612 -34.017  1.00  0.00     0.241 C 
HETATM   21  O   UNL     1      -5.084   3.590 -33.331  1.00  0.00    -0.271 OA
HETATM   22  H   UNL     1      -5.950   6.403 -34.470  1.00  0.00     0.162 HD
BRANCH  20  23
HETATM   23  C   UNL     1      -3.948   4.965 -34.980  1.00  0.00     0.278 C 
BRANCH  23  24
HETATM   24  O   UNL     1      -3.396   6.237 -34.646  1.00  0.00    -0.342 OA
BRANCH  24  25
HETATM   25  C   UNL     1      -2.428   6.259 -33.680  1.00  0.00     0.069 A 
HETATM   26  C   UNL     1      -1.696   5.161 -33.225  1.00  0.00     0.038 A 
HETATM   27  C   UNL     1      -0.738   5.326 -32.217  1.00  0.00     0.026 A 
HETATM   28  C   UNL     1      -0.510   6.585 -31.668  1.00  0.00     0.034 A 
HETATM   29 CL   UNL     1       0.667   6.782 -30.431  1.00  0.00    -0.084 Cl
HETATM   30  C   UNL     1      -1.235   7.686 -32.117  1.00  0.00     0.026 A 
HETATM   31  C   UNL     1      -2.194   7.519 -33.120  1.00  0.00     0.038 A 
ENDBRANCH  24  25
ENDBRANCH  23  24
ENDBRANCH  20  23
ENDBRANCH  18  19
ENDBRANCH  17  18
ENDBRANCH   1  17
TORSDOF 8
ENDMDL
MODEL 4
REMARK VINA RESULT:      -8.0      2.090      2.805
REMARK  8 active torsions:
REMARK  status: ('A' for Active; 'I' for Inactive)
REMARK    1  A    between atoms: C_3  and  N_4 
REMARK    2  A    between atoms: N_7  and  C_9 
REMARK    3  A    between atoms: C_9  and  C_10 
REMARK    4  A    between atoms: C_10  and  C_11 
REMARK    5  A    between atoms: C_11  and  N_12 
REMARK       I    between atoms: N_12  and  C_13 
REMARK    6  A    between atoms: C_13  and  C_14 
REMARK    7  A    between atoms: C_14  and  O_15 
REMARK    8  A    between atoms: O_15  and  C_16 
ROOT
HETATM    1  C   UNL     1      -4.767   3.547 -30.720  1.00  0.00     0.236 C 
ENDROOT
BRANCH   1   2
HETATM    2  N   UNL     1      -4.667   2.069 -31.031  1.00  0.00    -0.069 N 
HETATM    3  C   UNL     1      -6.044   1.395 -31.192  1.00  0.00     0.249 C 
HETATM    4  C   UNL     1      -5.900  -0.085 -31.608  1.00  0.00     0.123 C 
HETATM    5  N   UNL     1      -5.083  -0.172 -32.835  1.00  0.00    -0.280 NA
HETATM    6  C   UNL     1      -3.722   0.363 -32.669  1.00  0.00     0.123 C 
HETATM    7  C   UNL     1      -3.809   1.856 -32.291  1.00  0.00     0.249 C 
HETATM    8  H   UNL     1      -4.186   1.597 -30.254  1.00  0.00     0.280 HD
BRANCH   5   9
HETATM    9  C   UNL     1      -5.216  -1.397 -33.509  1.00  0.00     0.018 A 
HETATM   10  C   UNL     1      -6.327  -1.619 -34.357  1.00  0.00    -0.041 A 
HETATM   11  C   UNL     1      -7.388  -0.572 -34.585  1.00  0.00     0.050 C 
HETATM   12  C   UNL     1      -6.477  -2.853 -35.015  1.00  0.00     0.010 A 
HETATM   13  C   UNL     1      -5.525  -3.858 -34.872  1.00  0.00     0.024 A 
HETATM   14  C   UNL     1      -4.421  -3.638 -34.059  1.00  0.00     0.035 A 
HETATM   15  C   UNL     1      -4.268  -2.426 -33.381  1.00  0.00     0.048 A 
HETATM   16 CL   UNL     1      -3.233  -4.869 -33.878  1.00  0.00    -0.084 Cl
ENDBRANCH   5   9
ENDBRANCH   1   2
BRANCH   1  17
HETATM   17  C   UNL     1      -3.792   4.369 -31.550  1.00  0.00     0.047 C 
BRANCH  17  18
HETATM   18  C   UNL     1      -3.566   5.732 -30.893  1.00  0.00     0.124 C 
BRANCH  18  19
HETATM   19  N   UNL     1      -2.183   5.956 -30.551  1.00  0.00    -0.359 N 
HETATM   20  C   UNL     1      -1.410   6.876 -31.232  1.00  0.00     0.241 C 
HETATM   21  O   UNL     1      -1.896   7.674 -32.033  1.00  0.00    -0.271 OA
HETATM   22  H   UNL     1      -1.669   5.264 -30.007  1.00  0.00     0.162 HD
BRANCH  20  23
HETATM   23  C   UNL     1       0.089   6.811 -30.931  1.00  0.00     0.278 C 
BRANCH  23  24
HETATM   24  O   UNL     1       0.323   6.017 -29.770  1.00  0.00    -0.342 OA
BRANCH  24  25
HETATM   25  C   UNL     1       0.490   6.681 -28.586  1.00  0.00     0.069 A 
HETATM   26  C   UNL     1       0.087   6.232 -27.328  1.00  0.00     0.038 A 
HETATM   27  C   UNL     1       0.311   7.024 -26.195  1.00  0.00     0.026 A 
HETATM   28  C   UNL     1       0.938   8.261 -26.320  1.00  0.00     0.034 A 
HETATM   29 CL   UNL     1       1.210   9.229 -24.926  1.00  0.00    -0.084 Cl
HETATM   30  C   UNL     1       1.344   8.716 -27.572  1.00  0.00     0.026 A 
HETATM   31  C   UNL     1       1.116   7.926 -28.701  1.00  0.00     0.038 A 
ENDBRANCH  24  25
ENDBRANCH  23  24
ENDBRANCH  20  23
ENDBRANCH  18  19
ENDBRANCH  17  18
ENDBRANCH   1  17
TORSDOF 8
ENDMDL
MODEL 5
REMARK VINA RESULT:      -8.0      2.341      9.294
REMARK  8 active torsions:
REMARK  status: ('A' for Active; 'I' for Inactive)
REMARK    1  A    between atoms: C_3  and  N_4 
REMARK    2  A    between atoms: N_7  and  C_9 
REMARK    3  A    between atoms: C_9  and  C_10 
REMARK    4  A    between atoms: C_10  and  C_11 
REMARK    5  A    between atoms: C_11  and  N_12 
REMARK       I    between atoms: N_12  and  C_13 
REMARK    6  A    between atoms: C_13  and  C_14 
REMARK    7  A    between atoms: C_14  and  O_15 
REMARK    8  A    between atoms: O_15  and  C_16 
ROOT
HETATM    1  C   UNL     1      -4.474   4.730 -34.209  1.00  0.00     0.236 C 
ENDROOT
BRANCH   1   2
HETATM    2  N   UNL     1      -3.968   4.977 -32.803  1.00  0.00    -0.069 N 
HETATM    3  C   UNL     1      -2.494   4.570 -32.616  1.00  0.00     0.249 C 
HETATM    4  C   UNL     1      -1.986   4.932 -31.203  1.00  0.00     0.123 C 
HETATM    5  N   UNL     1      -2.210   6.370 -30.955  1.00  0.00    -0.280 NA
HETATM    6  C   UNL     1      -3.628   6.760 -31.017  1.00  0.00     0.123 C 
HETATM    7  C   UNL     1      -4.174   6.456 -32.426  1.00  0.00     0.249 C 
HETATM    8  H   UNL     1      -4.525   4.416 -32.146  1.00  0.00     0.280 HD
BRANCH   5   9
HETATM    9  C   UNL     1      -1.446   6.878 -29.891  1.00  0.00     0.018 A 
HETATM   10  C   UNL     1      -0.062   7.115 -30.065  1.00  0.00    -0.041 A 
HETATM   11  C   UNL     1       0.641   6.854 -31.373  1.00  0.00     0.050 C 
HETATM   12  C   UNL     1       0.711   7.601 -28.995  1.00  0.00     0.010 A 
HETATM   13  C   UNL     1       0.124   7.888 -27.765  1.00  0.00     0.024 A 
HETATM   14  C   UNL     1      -1.237   7.680 -27.596  1.00  0.00     0.035 A 
HETATM   15  C   UNL     1      -2.015   7.177 -28.642  1.00  0.00     0.048 A 
HETATM   16 CL   UNL     1      -1.976   8.037 -26.084  1.00  0.00    -0.084 Cl
ENDBRANCH   5   9
ENDBRANCH   1   2
BRANCH   1  17
HETATM   17  C   UNL     1      -5.844   4.067 -34.211  1.00  0.00     0.047 C 
BRANCH  17  18
HETATM   18  C   UNL     1      -6.334   3.878 -32.774  1.00  0.00     0.124 C 
BRANCH  18  19
HETATM   19  N   UNL     1      -6.376   2.490 -32.384  1.00  0.00    -0.359 N 
HETATM   20  C   UNL     1      -5.501   1.978 -31.446  1.00  0.00     0.241 C 
HETATM   21  O   UNL     1      -4.772   2.700 -30.767  1.00  0.00    -0.271 OA
HETATM   22  H   UNL     1      -6.841   1.804 -32.975  1.00  0.00     0.162 HD
BRANCH  20  23
HETATM   23  C   UNL     1      -5.494   0.451 -31.334  1.00  0.00     0.278 C 
BRANCH  23  24
HETATM   24  O   UNL     1      -4.657  -0.112 -32.341  1.00  0.00    -0.342 OA
BRANCH  24  25
HETATM   25  C   UNL     1      -5.198  -1.102 -33.116  1.00  0.00     0.069 A 
HETATM   26  C   UNL     1      -6.540  -1.219 -33.480  1.00  0.00     0.038 A 
HETATM   27  C   UNL     1      -6.961  -2.295 -34.271  1.00  0.00     0.026 A 
HETATM   28  C   UNL     1      -6.041  -3.249 -34.700  1.00  0.00     0.034 A 
HETATM   29 CL   UNL     1      -6.562  -4.568 -35.671  1.00  0.00    -0.084 Cl
HETATM   30  C   UNL     1      -4.700  -3.139 -34.341  1.00  0.00     0.026 A 
HETATM   31  C   UNL     1      -4.283  -2.067 -33.548  1.00  0.00     0.038 A 
ENDBRANCH  24  25
ENDBRANCH  23  24
ENDBRANCH  20  23
ENDBRANCH  18  19
ENDBRANCH  17  18
ENDBRANCH   1  17
TORSDOF 8
ENDMDL
MODEL 6
REMARK VINA RESULT:      -7.8      4.074      7.289
REMARK  8 active torsions:
REMARK  status: ('A' for Active; 'I' for Inactive)
REMARK    1  A    between atoms: C_3  and  N_4 
REMARK    2  A    between atoms: N_7  and  C_9 
REMARK    3  A    between atoms: C_9  and  C_10 
REMARK    4  A    between atoms: C_10  and  C_11 
REMARK    5  A    between atoms: C_11  and  N_12 
REMARK       I    between atoms: N_12  and  C_13 
REMARK    6  A    between atoms: C_13  and  C_14 
REMARK    7  A    between atoms: C_14  and  O_15 
REMARK    8  A    between atoms: O_15  and  C_16 
ROOT
HETATM    1  C   UNL     1      -4.924   3.584 -30.600  1.00  0.00     0.236 C 
ENDROOT
BRANCH   1   2
HETATM    2  N   UNL     1      -4.746   2.122 -30.952  1.00  0.00    -0.069 N 
HETATM    3  C   UNL     1      -6.078   1.349 -30.994  1.00  0.00     0.249 C 
HETATM    4  C   UNL     1      -5.867  -0.110 -31.456  1.00  0.00     0.123 C 
HETATM    5  N   UNL     1      -5.171  -0.115 -32.758  1.00  0.00    -0.280 NA
HETATM    6  C   UNL     1      -3.844   0.519 -32.713  1.00  0.00     0.123 C 
HETATM    7  C   UNL     1      -4.003   1.995 -32.295  1.00  0.00     0.249 C 
HETATM    8  H   UNL     1      -4.157   1.677 -30.237  1.00  0.00     0.280 HD
BRANCH   5   9
HETATM    9  C   UNL     1      -5.280  -1.337 -33.443  1.00  0.00     0.018 A 
HETATM   10  C   UNL     1      -6.385  -1.573 -34.295  1.00  0.00    -0.041 A 
HETATM   11  C   UNL     1      -7.466  -0.544 -34.515  1.00  0.00     0.050 C 
HETATM   12  C   UNL     1      -6.510  -2.803 -34.964  1.00  0.00     0.010 A 
HETATM   13  C   UNL     1      -5.538  -3.791 -34.829  1.00  0.00     0.024 A 
HETATM   14  C   UNL     1      -4.440  -3.556 -34.013  1.00  0.00     0.035 A 
HETATM   15  C   UNL     1      -4.312  -2.348 -33.323  1.00  0.00     0.048 A 
HETATM   16 CL   UNL     1      -3.228  -4.765 -33.841  1.00  0.00    -0.084 Cl
ENDBRANCH   5   9
ENDBRANCH   1   2
BRANCH   1  17
HETATM   17  C   UNL     1      -4.728   4.487 -31.809  1.00  0.00     0.047 C 
BRANCH  17  18
HETATM   18  C   UNL     1      -5.967   5.362 -32.014  1.00  0.00     0.124 C 
BRANCH  18  19
HETATM   19  N   UNL     1      -7.189   4.596 -32.004  1.00  0.00    -0.359 N 
HETATM   20  C   UNL     1      -7.988   4.499 -33.127  1.00  0.00     0.241 C 
HETATM   21  O   UNL     1      -7.619   4.899 -34.230  1.00  0.00    -0.271 OA
HETATM   22  H   UNL     1      -7.635   4.349 -31.122  1.00  0.00     0.162 HD
BRANCH  20  23
HETATM   23  C   UNL     1      -9.367   3.878 -32.887  1.00  0.00     0.278 C 
BRANCH  23  24
HETATM   24  O   UNL     1      -9.808   3.192 -34.057  1.00  0.00    -0.342 OA
BRANCH  24  25
HETATM   25  C   UNL     1     -11.074   2.675 -34.033  1.00  0.00     0.069 A 
HETATM   26  C   UNL     1     -11.575   1.688 -34.884  1.00  0.00     0.038 A 
HETATM   27  C   UNL     1     -12.902   1.259 -34.756  1.00  0.00     0.026 A 
HETATM   28  C   UNL     1     -13.724   1.814 -33.778  1.00  0.00     0.034 A 
HETATM   29 CL   UNL     1     -15.352   1.284 -33.625  1.00  0.00    -0.084 Cl
HETATM   30  C   UNL     1     -13.232   2.798 -32.925  1.00  0.00     0.026 A 
HETATM   31  C   UNL     1     -11.909   3.228 -33.057  1.00  0.00     0.038 A 
ENDBRANCH  24  25
ENDBRANCH  23  24
ENDBRANCH  20  23
ENDBRANCH  18  19
ENDBRANCH  17  18
ENDBRANCH   1  17
TORSDOF 8
ENDMDL
MODEL 7
REMARK VINA RESULT:      -7.8      2.965      4.045
REMARK  8 active torsions:
REMARK  status: ('A' for Active; 'I' for Inactive)
REMARK    1  A    between atoms: C_3  and  N_4 
REMARK    2  A    between atoms: N_7  and  C_9 
REMARK    3  A    between atoms: C_9  and  C_10 
REMARK    4  A    between atoms: C_10  and  C_11 
REMARK    5  A    between atoms: C_11  and  N_12 
REMARK       I    between atoms: N_12  and  C_13 
REMARK    6  A    between atoms: C_13  and  C_14 
REMARK    7  A    between atoms: C_14  and  O_15 
REMARK    8  A    between atoms: O_15  and  C_16 
ROOT
HETATM    1  C   UNL     1     -10.477   3.204 -32.532  1.00  0.00     0.236 C 
ENDROOT
BRANCH   1   2
HETATM    2  N   UNL     1      -9.898   1.878 -32.978  1.00  0.00    -0.069 N 
HETATM    3  C   UNL     1      -9.006   2.003 -34.229  1.00  0.00     0.249 C 
HETATM    4  C   UNL     1      -8.353   0.651 -34.591  1.00  0.00     0.123 C 
HETATM    5  N   UNL     1      -7.615   0.135 -33.421  1.00  0.00    -0.280 NA
HETATM    6  C   UNL     1      -8.470  -0.101 -32.248  1.00  0.00     0.123 C 
HETATM    7  C   UNL     1      -9.117   1.232 -31.818  1.00  0.00     0.249 C 
HETATM    8  H   UNL     1     -10.669   1.241 -33.216  1.00  0.00     0.280 HD
BRANCH   5   9
HETATM    9  C   UNL     1      -6.678  -0.861 -33.748  1.00  0.00     0.018 A 
HETATM   10  C   UNL     1      -5.308  -0.665 -33.453  1.00  0.00    -0.041 A 
HETATM   11  C   UNL     1      -4.800   0.584 -32.777  1.00  0.00     0.050 C 
HETATM   12  C   UNL     1      -4.364  -1.649 -33.800  1.00  0.00     0.010 A 
HETATM   13  C   UNL     1      -4.763  -2.838 -34.404  1.00  0.00     0.024 A 
HETATM   14  C   UNL     1      -6.109  -3.045 -34.674  1.00  0.00     0.035 A 
HETATM   15  C   UNL     1      -7.057  -2.069 -34.356  1.00  0.00     0.048 A 
HETATM   16 CL   UNL     1      -6.617  -4.513 -35.414  1.00  0.00    -0.084 Cl
ENDBRANCH   5   9
ENDBRANCH   1   2
BRANCH   1  17
HETATM   17  C   UNL     1      -9.464   4.333 -32.644  1.00  0.00     0.047 C 
BRANCH  17  18
HETATM   18  C   UNL     1      -9.086   4.837 -31.249  1.00  0.00     0.124 C 
BRANCH  18  19
HETATM   19  N   UNL     1      -7.660   4.856 -31.038  1.00  0.00    -0.359 N 
HETATM   20  C   UNL     1      -7.063   4.072 -30.069  1.00  0.00     0.241 C 
HETATM   21  O   UNL     1      -7.679   3.193 -29.468  1.00  0.00    -0.271 OA
HETATM   22  H   UNL     1      -7.099   5.632 -31.385  1.00  0.00     0.162 HD
BRANCH  20  23
HETATM   23  C   UNL     1      -5.593   4.395 -29.791  1.00  0.00     0.278 C 
BRANCH  23  24
HETATM   24  O   UNL     1      -4.750   3.612 -30.633  1.00  0.00    -0.342 OA
BRANCH  24  25
HETATM   25  C   UNL     1      -3.835   4.286 -31.395  1.00  0.00     0.069 A 
HETATM   26  C   UNL     1      -2.956   3.717 -32.318  1.00  0.00     0.038 A 
HETATM   27  C   UNL     1      -2.059   4.528 -33.024  1.00  0.00     0.026 A 
HETATM   28  C   UNL     1      -2.043   5.904 -32.809  1.00  0.00     0.034 A 
HETATM   29 CL   UNL     1      -0.940   6.895 -33.678  1.00  0.00    -0.084 Cl
HETATM   30  C   UNL     1      -2.917   6.479 -31.890  1.00  0.00     0.026 A 
HETATM   31  C   UNL     1      -3.808   5.668 -31.184  1.00  0.00     0.038 A 
ENDBRANCH  24  25
ENDBRANCH  23  24
ENDBRANCH  20  23
ENDBRANCH  18  19
ENDBRANCH  17  18
ENDBRANCH   1  17
TORSDOF 8
ENDMDL
MODEL 8
REMARK VINA RESULT:      -7.8      1.732      2.218
REMARK  8 active torsions:
REMARK  status: ('A' for Active; 'I' for Inactive)
REMARK    1  A    between atoms: C_3  and  N_4 
REMARK    2  A    between atoms: N_7  and  C_9 
REMARK    3  A    between atoms: C_9  and  C_10 
REMARK    4  A    between atoms: C_10  and  C_11 
REMARK    5  A    between atoms: C_11  and  N_12 
REMARK       I    between atoms: N_12  and  C_13 
REMARK    6  A    between atoms: C_13  and  C_14 
REMARK    7  A    between atoms: C_14  and  O_15 
REMARK    8  A    between atoms: O_15  and  C_16 
ROOT
HETATM    1  C   UNL     1      -7.570   5.001 -30.997  1.00  0.00     0.236 C 
ENDROOT
BRANCH   1   2
HETATM    2  N   UNL     1      -6.722   3.793 -31.334  1.00  0.00    -0.069 N 
HETATM    3  C   UNL     1      -7.292   2.480 -30.763  1.00  0.00     0.249 C 
HETATM    4  C   UNL     1      -6.457   1.262 -31.214  1.00  0.00     0.123 C 
HETATM    5  N   UNL     1      -6.371   1.245 -32.688  1.00  0.00    -0.280 NA
HETATM    6  C   UNL     1      -5.724   2.442 -33.249  1.00  0.00     0.123 C 
HETATM    7  C   UNL     1      -6.545   3.688 -32.861  1.00  0.00     0.249 C 
HETATM    8  H   UNL     1      -5.785   3.920 -30.929  1.00  0.00     0.280 HD
BRANCH   5   9
HETATM    9  C   UNL     1      -5.986  -0.002 -33.210  1.00  0.00     0.018 A 
HETATM   10  C   UNL     1      -6.641  -0.521 -34.352  1.00  0.00    -0.041 A 
HETATM   11  C   UNL     1      -7.745   0.225 -35.056  1.00  0.00     0.050 C 
HETATM   12  C   UNL     1      -6.274  -1.779 -34.864  1.00  0.00     0.010 A 
HETATM   13  C   UNL     1      -5.246  -2.515 -34.280  1.00  0.00     0.024 A 
HETATM   14  C   UNL     1      -4.585  -1.999 -33.174  1.00  0.00     0.035 A 
HETATM   15  C   UNL     1      -4.951  -0.761 -32.640  1.00  0.00     0.048 A 
HETATM   16 CL   UNL     1      -3.308  -2.894 -32.447  1.00  0.00    -0.084 Cl
ENDBRANCH   5   9
ENDBRANCH   1   2
BRANCH   1  17
HETATM   17  C   UNL     1      -6.975   6.286 -31.553  1.00  0.00     0.047 C 
BRANCH  17  18
HETATM   18  C   UNL     1      -5.720   6.664 -30.762  1.00  0.00     0.124 C 
BRANCH  18  19
HETATM   19  N   UNL     1      -4.556   6.790 -31.604  1.00  0.00    -0.359 N 
HETATM   20  C   UNL     1      -3.597   5.797 -31.662  1.00  0.00     0.241 C 
HETATM   21  O   UNL     1      -3.767   4.692 -31.150  1.00  0.00    -0.271 OA
HETATM   22  H   UNL     1      -4.268   7.703 -31.951  1.00  0.00     0.162 HD
BRANCH  20  23
HETATM   23  C   UNL     1      -2.307   6.187 -32.388  1.00  0.00     0.278 C 
BRANCH  23  24
HETATM   24  O   UNL     1      -1.197   5.485 -31.831  1.00  0.00    -0.342 OA
BRANCH  24  25
HETATM   25  C   UNL     1      -0.625   6.018 -30.709  1.00  0.00     0.069 A 
HETATM   26  C   UNL     1      -0.667   7.359 -30.324  1.00  0.00     0.038 A 
HETATM   27  C   UNL     1      -0.024   7.772 -29.151  1.00  0.00     0.026 A 
HETATM   28  C   UNL     1       0.657   6.846 -28.364  1.00  0.00     0.034 A 
HETATM   29 CL   UNL     1       1.444   7.358 -26.924  1.00  0.00    -0.084 Cl
HETATM   30  C   UNL     1       0.702   5.507 -28.741  1.00  0.00     0.026 A 
HETATM   31  C   UNL     1       0.063   5.097 -29.914  1.00  0.00     0.038 A 
ENDBRANCH  24  25
ENDBRANCH  23  24
ENDBRANCH  20  23
ENDBRANCH  18  19
ENDBRANCH  17  18
ENDBRANCH   1  17
TORSDOF 8
ENDMDL
MODEL 9
REMARK VINA RESULT:      -7.7      2.514      7.784
REMARK  8 active torsions:
REMARK  status: ('A' for Active; 'I' for Inactive)
REMARK    1  A    between atoms: C_3  and  N_4 
REMARK    2  A    between atoms: N_7  and  C_9 
REMARK    3  A    between atoms: C_9  and  C_10 
REMARK    4  A    between atoms: C_10  and  C_11 
REMARK    5  A    between atoms: C_11  and  N_12 
REMARK       I    between atoms: N_12  and  C_13 
REMARK    6  A    between atoms: C_13  and  C_14 
REMARK    7  A    between atoms: C_14  and  O_15 
REMARK    8  A    between atoms: O_15  and  C_16 
ROOT
HETATM    1  C   UNL     1      -8.517   3.715 -30.041  1.00  0.00     0.236 C 
ENDROOT
BRANCH   1   2
HETATM    2  N   UNL     1      -7.071   4.143 -30.180  1.00  0.00    -0.069 N 
HETATM    3  C   UNL     1      -6.152   3.002 -30.658  1.00  0.00     0.249 C 
HETATM    4  C   UNL     1      -4.708   3.502 -30.885  1.00  0.00     0.123 C 
HETATM    5  N   UNL     1      -4.726   4.643 -31.822  1.00  0.00    -0.280 NA
HETATM    6  C   UNL     1      -5.507   5.790 -31.331  1.00  0.00     0.123 C 
HETATM    7  C   UNL     1      -6.972   5.353 -31.127  1.00  0.00     0.249 C 
HETATM    8  H   UNL     1      -6.725   4.448 -29.261  1.00  0.00     0.280 HD
BRANCH   5   9
HETATM    9  C   UNL     1      -3.472   4.914 -32.395  1.00  0.00     0.018 A 
HETATM   10  C   UNL     1      -3.355   5.062 -33.798  1.00  0.00    -0.041 A 
HETATM   11  C   UNL     1      -4.542   4.954 -34.721  1.00  0.00     0.050 C 
HETATM   12  C   UNL     1      -2.097   5.310 -34.378  1.00  0.00     0.010 A 
HETATM   13  C   UNL     1      -0.960   5.446 -33.585  1.00  0.00     0.024 A 
HETATM   14  C   UNL     1      -1.074   5.325 -32.208  1.00  0.00     0.035 A 
HETATM   15  C   UNL     1      -2.312   5.057 -31.617  1.00  0.00     0.048 A 
HETATM   16 CL   UNL     1       0.321   5.498 -31.216  1.00  0.00    -0.084 Cl
ENDBRANCH   5   9
ENDBRANCH   1   2
BRANCH   1  17
HETATM   17  C   UNL     1      -8.792   2.402 -30.760  1.00  0.00     0.047 C 
BRANCH  17  18
HETATM   18  C   UNL     1      -9.401   2.678 -32.136  1.00  0.00     0.124 C 
BRANCH  18  19
HETATM   19  N   UNL     1      -8.547   2.242 -33.213  1.00  0.00    -0.359 N 
HETATM   20  C   UNL     1      -8.891   1.175 -34.021  1.00  0.00     0.241 C 
HETATM   21  O   UNL     1     -10.009   0.662 -33.986  1.00  0.00    -0.271 OA
HETATM   22  H   UNL     1      -7.565   2.510 -33.232  1.00  0.00     0.162 HD
BRANCH  20  23
HETATM   23  C   UNL     1      -7.775   0.672 -34.939  1.00  0.00     0.278 C 
BRANCH  23  24
HETATM   24  O   UNL     1      -6.553   0.561 -34.212  1.00  0.00    -0.342 OA
BRANCH  24  25
HETATM   25  C   UNL     1      -5.943  -0.664 -34.206  1.00  0.00     0.069 A 
HETATM   26  C   UNL     1      -6.398  -1.811 -34.859  1.00  0.00     0.038 A 
HETATM   27  C   UNL     1      -5.677  -3.007 -34.757  1.00  0.00     0.026 A 
HETATM   28  C   UNL     1      -4.505  -3.055 -34.008  1.00  0.00     0.034 A 
HETATM   29 CL   UNL     1      -3.624  -4.527 -33.887  1.00  0.00    -0.084 Cl
HETATM   30  C   UNL     1      -4.044  -1.915 -33.355  1.00  0.00     0.026 A 
HETATM   31  C   UNL     1      -4.766  -0.724 -33.454  1.00  0.00     0.038 A 
ENDBRANCH  24  25
ENDBRANCH  23  24
ENDBRANCH  20  23
ENDBRANCH  18  19
ENDBRANCH  17  18
ENDBRANCH   1  17
TORSDOF 8
ENDMDL
MODEL 10
REMARK VINA RESULT:      -7.7      2.163      8.603
REMARK  8 active torsions:
REMARK  status: ('A' for Active; 'I' for Inactive)
REMARK    1  A    between atoms: C_3  and  N_4 
REMARK    2  A    between atoms: N_7  and  C_9 
REMARK    3  A    between atoms: C_9  and  C_10 
REMARK    4  A    between atoms: C_10  and  C_11 
REMARK    5  A    between atoms: C_11  and  N_12 
REMARK       I    between atoms: N_12  and  C_13 
REMARK    6  A    between atoms: C_13  and  C_14 
REMARK    7  A    between atoms: C_14  and  O_15 
REMARK    8  A    between atoms: O_15  and  C_16 
ROOT
HETATM    1  C   UNL     1      -7.511   5.402 -33.447  1.00  0.00     0.236 C 
ENDROOT
BRANCH   1   2
HETATM    2  N   UNL     1      -6.266   5.309 -32.589  1.00  0.00    -0.069 N 
HETATM    3  C   UNL     1      -5.033   4.817 -33.371  1.00  0.00     0.249 C 
HETATM    4  C   UNL     1      -3.765   4.834 -32.490  1.00  0.00     0.123 C 
HETATM    5  N   UNL     1      -3.575   6.187 -31.931  1.00  0.00    -0.280 NA
HETATM    6  C   UNL     1      -4.694   6.631 -31.084  1.00  0.00     0.123 C 
HETATM    7  C   UNL     1      -5.982   6.672 -31.931  1.00  0.00     0.249 C 
HETATM    8  H   UNL     1      -6.434   4.635 -31.831  1.00  0.00     0.280 HD
BRANCH   5   9
HETATM    9  C   UNL     1      -2.274   6.415 -31.452  1.00  0.00     0.018 A 
HETATM   10  C   UNL     1      -1.256   6.829 -32.345  1.00  0.00    -0.041 A 
HETATM   11  C   UNL     1      -1.515   7.053 -33.813  1.00  0.00     0.050 C 
HETATM   12  C   UNL     1       0.054   7.035 -31.875  1.00  0.00     0.010 A 
HETATM   13  C   UNL     1       0.362   6.871 -30.527  1.00  0.00     0.024 A 
HETATM   14  C   UNL     1      -0.638   6.488 -29.643  1.00  0.00     0.035 A 
HETATM   15  C   UNL     1      -1.939   6.257 -30.097  1.00  0.00     0.048 A 
HETATM   16 CL   UNL     1      -0.273   6.288 -27.974  1.00  0.00    -0.084 Cl
ENDBRANCH   5   9
ENDBRANCH   1   2
BRANCH   1  17
HETATM   17  C   UNL     1      -8.182   4.048 -33.622  1.00  0.00     0.047 C 
BRANCH  17  18
HETATM   18  C   UNL     1      -8.218   3.306 -32.284  1.00  0.00     0.124 C 
BRANCH  18  19
HETATM   19  N   UNL     1      -7.395   2.122 -32.288  1.00  0.00    -0.359 N 
HETATM   20  C   UNL     1      -6.287   2.010 -31.470  1.00  0.00     0.241 C 
HETATM   21  O   UNL     1      -6.049   2.821 -30.577  1.00  0.00    -0.271 OA
HETATM   22  H   UNL     1      -7.433   1.471 -33.071  1.00  0.00     0.162 HD
BRANCH  20  23
HETATM   23  C   UNL     1      -5.376   0.819 -31.776  1.00  0.00     0.278 C 
BRANCH  23  24
HETATM   24  O   UNL     1      -5.239   0.653 -33.185  1.00  0.00    -0.342 OA
BRANCH  24  25
HETATM   25  C   UNL     1      -5.370  -0.617 -33.677  1.00  0.00     0.069 A 
HETATM   26  C   UNL     1      -4.367  -1.586 -33.726  1.00  0.00     0.038 A 
HETATM   27  C   UNL     1      -4.638  -2.848 -34.270  1.00  0.00     0.026 A 
HETATM   28  C   UNL     1      -5.908  -3.140 -34.760  1.00  0.00     0.034 A 
HETATM   29 CL   UNL     1      -6.236  -4.691 -35.426  1.00  0.00    -0.084 Cl
HETATM   30  C   UNL     1      -6.914  -2.179 -34.714  1.00  0.00     0.026 A 
HETATM   31  C   UNL     1      -6.641  -0.919 -34.175  1.00  0.00     0.038 A 
ENDBRANCH  24  25
ENDBRANCH  23  24
ENDBRANCH  20  23
ENDBRANCH  18  19
ENDBRANCH  17  18
ENDBRANCH   1  17
TORSDOF 8
ENDMDL
