MODEL 1
REMARK VINA RESULT:      -8.7      0.000      0.000
REMARK  3 active torsions:
REMARK  status: ('A' for Active; 'I' for Inactive)
REMARK    1  A    between atoms: C_3  and  N_4 
REMARK    2  A    between atoms: C_10  and  O_11 
REMARK    3  A    between atoms: C_14  and  C_15 
ROOT
HETATM    1  N   UNL     1      -6.375  -0.664 -34.299  1.00  0.00    -0.212 N 
HETATM    2  N   UNL     1      -6.647   0.014 -35.453  1.00  0.00    -0.177 NA
HETATM    3  C   UNL     1      -7.000   1.234 -35.064  1.00  0.00     0.152 A 
HETATM    4  C   UNL     1      -6.937   1.406 -33.670  1.00  0.00     0.027 A 
HETATM    5  C   UNL     1      -6.504   0.179 -33.185  1.00  0.00     0.163 A 
HETATM    6  N   UNL     1      -6.161  -0.165 -31.916  1.00  0.00    -0.208 NA
HETATM    7  C   UNL     1      -7.034   0.117 -31.006  1.00  0.00     0.149 C 
HETATM    8  C   UNL     1      -8.388   0.753 -31.167  1.00  0.00     0.161 C 
HETATM    9  S   UNL     1      -8.270   2.546 -31.442  1.00  0.00    -0.146 SA
HETATM   10  C   UNL     1      -7.169   2.678 -32.920  1.00  0.00     0.124 C 
ENDROOT
BRANCH  10  11
HETATM   11  C   UNL     1      -5.865   3.377 -32.593  1.00  0.00     0.028 A 
HETATM   12  C   UNL     1      -5.512   4.512 -33.513  1.00  0.00     0.253 A 
HETATM   13  O   UNL     1      -6.238   4.847 -34.444  1.00  0.00    -0.268 OA
HETATM   14  N   UNL     1      -4.327   5.161 -33.259  1.00  0.00    -0.333 N 
HETATM   15  C   UNL     1      -3.476   4.839 -32.238  1.00  0.00     0.091 A 
HETATM   16  H   UNL     1      -4.100   5.920 -33.891  1.00  0.00     0.168 HD
HETATM   17  C   UNL     1      -3.779   3.836 -31.408  1.00  0.00     0.018 A 
HETATM   18  C   UNL     1      -5.003   3.092 -31.596  1.00  0.00     0.015 A 
ENDBRANCH  10  11
BRANCH   1  19
HETATM   19  C   UNL     1      -5.997  -2.033 -34.382  1.00  0.00     0.099 A 
HETATM   20  C   UNL     1      -6.990  -2.990 -34.662  1.00  0.00     0.035 A 
HETATM   21  C   UNL     1      -6.664  -4.344 -34.785  1.00  0.00     0.002 A 
HETATM   22  C   UNL     1      -5.348  -4.762 -34.614  1.00  0.00     0.003 A 
HETATM   23  C   UNL     1      -4.364  -3.826 -34.301  1.00  0.00     0.045 A 
HETATM   24  C   UNL     1      -4.688  -2.473 -34.180  1.00  0.00     0.145 A 
HETATM   25  F   UNL     1      -3.711  -1.659 -33.761  1.00  0.00    -0.204 F 
ENDBRANCH   1  19
BRANCH   7  26
HETATM   26  O   UNL     1      -6.709  -0.189 -29.741  1.00  0.00    -0.347 OA
HETATM   27  H   UNL     1      -6.985   0.560 -29.185  1.00  0.00     0.219 HD
ENDBRANCH   7  26
TORSDOF 3
ENDMDL
MODEL 2
REMARK VINA RESULT:      -8.4      2.558      6.859
REMARK  3 active torsions:
REMARK  status: ('A' for Active; 'I' for Inactive)
REMARK    1  A    between atoms: C_3  and  N_4 
REMARK    2  A    between atoms: C_10  and  O_11 
REMARK    3  A    between atoms: C_14  and  C_15 
ROOT
HETATM    1  N   UNL     1      -3.458   3.845 -32.318  1.00  0.00    -0.212 N 
HETATM    2  N   UNL     1      -2.994   2.921 -31.426  1.00  0.00    -0.177 NA
HETATM    3  C   UNL     1      -4.045   2.162 -31.135  1.00  0.00     0.152 A 
HETATM    4  C   UNL     1      -5.203   2.532 -31.842  1.00  0.00     0.027 A 
HETATM    5  C   UNL     1      -4.805   3.606 -32.627  1.00  0.00     0.163 A 
HETATM    6  N   UNL     1      -5.503   4.266 -33.589  1.00  0.00    -0.208 NA
HETATM    7  C   UNL     1      -6.671   4.692 -33.237  1.00  0.00     0.149 C 
HETATM    8  C   UNL     1      -7.351   4.576 -31.900  1.00  0.00     0.161 C 
HETATM    9  S   UNL     1      -8.005   2.904 -31.611  1.00  0.00    -0.146 SA
HETATM   10  C   UNL     1      -6.520   1.825 -31.824  1.00  0.00     0.124 C 
ENDROOT
BRANCH  10  11
HETATM   11  C   UNL     1      -6.666   0.890 -33.007  1.00  0.00     0.028 A 
HETATM   12  C   UNL     1      -6.237  -0.527 -32.744  1.00  0.00     0.253 A 
HETATM   13  O   UNL     1      -5.816  -0.890 -31.651  1.00  0.00    -0.268 OA
HETATM   14  N   UNL     1      -6.337  -1.404 -33.799  1.00  0.00    -0.333 N 
HETATM   15  C   UNL     1      -6.800  -1.064 -35.041  1.00  0.00     0.091 A 
HETATM   16  H   UNL     1      -6.039  -2.353 -33.609  1.00  0.00     0.168 HD
HETATM   17  C   UNL     1      -7.191   0.190 -35.288  1.00  0.00     0.018 A 
HETATM   18  C   UNL     1      -7.119   1.185 -34.242  1.00  0.00     0.015 A 
ENDBRANCH  10  11
BRANCH   1  19
HETATM   19  C   UNL     1      -2.563   4.840 -32.801  1.00  0.00     0.099 A 
HETATM   20  C   UNL     1      -2.070   4.721 -34.114  1.00  0.00     0.035 A 
HETATM   21  C   UNL     1      -1.213   5.689 -34.646  1.00  0.00     0.002 A 
HETATM   22  C   UNL     1      -0.823   6.776 -33.870  1.00  0.00     0.003 A 
HETATM   23  C   UNL     1      -1.278   6.883 -32.557  1.00  0.00     0.045 A 
HETATM   24  C   UNL     1      -2.136   5.919 -32.025  1.00  0.00     0.145 A 
HETATM   25  F   UNL     1      -2.429   6.031 -30.724  1.00  0.00    -0.204 F 
ENDBRANCH   1  19
BRANCH   7  26
HETATM   26  O   UNL     1      -7.391   5.324 -34.176  1.00  0.00    -0.347 OA
HETATM   27  H   UNL     1      -7.878   6.040 -33.731  1.00  0.00     0.219 HD
ENDBRANCH   7  26
TORSDOF 3
ENDMDL
MODEL 3
REMARK VINA RESULT:      -8.2      2.015      2.465
REMARK  3 active torsions:
REMARK  status: ('A' for Active; 'I' for Inactive)
REMARK    1  A    between atoms: C_3  and  N_4 
REMARK    2  A    between atoms: C_10  and  O_11 
REMARK    3  A    between atoms: C_14  and  C_15 
ROOT
HETATM    1  N   UNL     1      -6.006  -0.087 -33.819  1.00  0.00    -0.212 N 
HETATM    2  N   UNL     1      -7.063   0.621 -34.315  1.00  0.00    -0.177 NA
HETATM    3  C   UNL     1      -6.943   1.835 -33.790  1.00  0.00     0.152 A 
HETATM    4  C   UNL     1      -5.803   1.973 -32.977  1.00  0.00     0.027 A 
HETATM    5  C   UNL     1      -5.187   0.729 -33.026  1.00  0.00     0.163 A 
HETATM    6  N   UNL     1      -3.987   0.350 -32.514  1.00  0.00    -0.208 NA
HETATM    7  C   UNL     1      -3.803   0.621 -31.264  1.00  0.00     0.149 C 
HETATM    8  C   UNL     1      -4.749   1.276 -30.295  1.00  0.00     0.161 C 
HETATM    9  S   UNL     1      -4.845   3.074 -30.547  1.00  0.00    -0.146 SA
HETATM   10  C   UNL     1      -5.323   3.229 -32.325  1.00  0.00     0.124 C 
ENDROOT
BRANCH  10  11
HETATM   11  C   UNL     1      -4.243   3.904 -33.144  1.00  0.00     0.028 A 
HETATM   12  C   UNL     1      -4.751   4.791 -34.246  1.00  0.00     0.253 A 
HETATM   13  O   UNL     1      -5.949   4.960 -34.448  1.00  0.00    -0.268 OA
HETATM   14  N   UNL     1      -3.800   5.409 -35.024  1.00  0.00    -0.333 N 
HETATM   15  C   UNL     1      -2.451   5.266 -34.850  1.00  0.00     0.091 A 
HETATM   16  H   UNL     1      -4.158   5.999 -35.766  1.00  0.00     0.168 HD
HETATM   17  C   UNL     1      -1.984   4.485 -33.871  1.00  0.00     0.018 A 
HETATM   18  C   UNL     1      -2.906   3.791 -33.002  1.00  0.00     0.015 A 
ENDBRANCH  10  11
BRANCH   1  19
HETATM   19  C   UNL     1      -5.873  -1.459 -34.176  1.00  0.00     0.099 A 
HETATM   20  C   UNL     1      -4.596  -1.946 -34.510  1.00  0.00     0.035 A 
HETATM   21  C   UNL     1      -4.407  -3.293 -34.836  1.00  0.00     0.002 A 
HETATM   22  C   UNL     1      -5.492  -4.164 -34.851  1.00  0.00     0.003 A 
HETATM   23  C   UNL     1      -6.766  -3.682 -34.557  1.00  0.00     0.045 A 
HETATM   24  C   UNL     1      -6.956  -2.338 -34.229  1.00  0.00     0.145 A 
HETATM   25  F   UNL     1      -8.222  -1.931 -34.078  1.00  0.00    -0.204 F 
ENDBRANCH   1  19
BRANCH   7  26
HETATM   26  O   UNL     1      -2.616   0.280 -30.740  1.00  0.00    -0.347 OA
HETATM   27  H   UNL     1      -1.995   0.175 -31.481  1.00  0.00     0.219 HD
ENDBRANCH   7  26
TORSDOF 3
ENDMDL
MODEL 4
REMARK VINA RESULT:      -7.4      3.215      4.782
REMARK  3 active torsions:
REMARK  status: ('A' for Active; 'I' for Inactive)
REMARK    1  A    between atoms: C_3  and  N_4 
REMARK    2  A    between atoms: C_10  and  O_11 
REMARK    3  A    between atoms: C_14  and  C_15 
ROOT
HETATM    1  N   UNL     1      -7.443   0.779 -32.725  1.00  0.00    -0.212 N 
HETATM    2  N   UNL     1      -8.378   0.455 -31.784  1.00  0.00    -0.177 NA
HETATM    3  C   UNL     1      -8.943   1.609 -31.445  1.00  0.00     0.152 A 
HETATM    4  C   UNL     1      -8.433   2.703 -32.167  1.00  0.00     0.027 A 
HETATM    5  C   UNL     1      -7.481   2.151 -33.013  1.00  0.00     0.163 A 
HETATM    6  N   UNL     1      -6.773   2.748 -34.008  1.00  0.00    -0.208 NA
HETATM    7  C   UNL     1      -6.148   3.830 -33.675  1.00  0.00     0.149 C 
HETATM    8  C   UNL     1      -6.080   4.501 -32.330  1.00  0.00     0.161 C 
HETATM    9  S   UNL     1      -7.608   5.407 -31.943  1.00  0.00    -0.146 SA
HETATM   10  C   UNL     1      -8.920   4.115 -32.101  1.00  0.00     0.124 C 
ENDROOT
BRANCH  10  11
HETATM   11  C   UNL     1      -9.884   4.423 -33.228  1.00  0.00     0.028 A 
HETATM   12  C   UNL     1     -11.331   4.181 -32.902  1.00  0.00     0.253 A 
HETATM   13  O   UNL     1     -11.693   3.779 -31.801  1.00  0.00    -0.268 OA
HETATM   14  N   UNL     1     -12.237   4.433 -33.905  1.00  0.00    -0.333 N 
HETATM   15  C   UNL     1     -11.899   4.886 -35.151  1.00  0.00     0.091 A 
HETATM   16  H   UNL     1     -13.207   4.260 -33.672  1.00  0.00     0.168 HD
HETATM   17  C   UNL     1     -10.617   5.112 -35.455  1.00  0.00     0.018 A 
HETATM   18  C   UNL     1      -9.591   4.872 -34.466  1.00  0.00     0.015 A 
ENDBRANCH  10  11
BRANCH   1  19
HETATM   19  C   UNL     1      -6.631  -0.256 -33.268  1.00  0.00     0.099 A 
HETATM   20  C   UNL     1      -5.457  -0.620 -32.581  1.00  0.00     0.035 A 
HETATM   21  C   UNL     1      -4.643  -1.653 -33.056  1.00  0.00     0.002 A 
HETATM   22  C   UNL     1      -4.979  -2.322 -34.229  1.00  0.00     0.003 A 
HETATM   23  C   UNL     1      -6.120  -1.944 -34.934  1.00  0.00     0.045 A 
HETATM   24  C   UNL     1      -6.936  -0.914 -34.460  1.00  0.00     0.145 A 
HETATM   25  F   UNL     1      -7.944  -0.534 -35.255  1.00  0.00    -0.204 F 
ENDBRANCH   1  19
BRANCH   7  26
HETATM   26  O   UNL     1      -5.462   4.453 -34.644  1.00  0.00    -0.347 OA
HETATM   27  H   UNL     1      -6.109   4.934 -35.190  1.00  0.00     0.219 HD
ENDBRANCH   7  26
TORSDOF 3
ENDMDL
MODEL 5
REMARK VINA RESULT:      -7.4      2.935      4.358
REMARK  3 active torsions:
REMARK  status: ('A' for Active; 'I' for Inactive)
REMARK    1  A    between atoms: C_3  and  N_4 
REMARK    2  A    between atoms: C_10  and  O_11 
REMARK    3  A    between atoms: C_14  and  C_15 
ROOT
HETATM    1  N   UNL     1      -6.111   0.331 -31.952  1.00  0.00    -0.212 N 
HETATM    2  N   UNL     1      -6.181  -0.011 -30.632  1.00  0.00    -0.177 NA
HETATM    3  C   UNL     1      -6.280   1.142 -29.980  1.00  0.00     0.152 A 
HETATM    4  C   UNL     1      -6.316   2.257 -30.837  1.00  0.00     0.027 A 
HETATM    5  C   UNL     1      -6.234   1.718 -32.114  1.00  0.00     0.163 A 
HETATM    6  N   UNL     1      -6.345   2.346 -33.315  1.00  0.00    -0.208 NA
HETATM    7  C   UNL     1      -5.583   3.377 -33.478  1.00  0.00     0.149 C 
HETATM    8  C   UNL     1      -4.573   3.959 -32.528  1.00  0.00     0.161 C 
HETATM    9  S   UNL     1      -5.362   4.904 -31.189  1.00  0.00    -0.146 SA
HETATM   10  C   UNL     1      -6.524   3.681 -30.434  1.00  0.00     0.124 C 
ENDROOT
BRANCH  10  11
HETATM   11  C   UNL     1      -7.970   4.100 -30.599  1.00  0.00     0.028 A 
HETATM   12  C   UNL     1      -8.448   5.117 -29.602  1.00  0.00     0.253 A 
HETATM   13  O   UNL     1      -7.711   5.577 -28.734  1.00  0.00    -0.268 OA
HETATM   14  N   UNL     1      -9.761   5.511 -29.707  1.00  0.00    -0.333 N 
HETATM   15  C   UNL     1     -10.632   5.040 -30.651  1.00  0.00     0.091 A 
HETATM   16  H   UNL     1     -10.070   6.193 -29.024  1.00  0.00     0.168 HD
HETATM   17  C   UNL     1     -10.221   4.140 -31.549  1.00  0.00     0.018 A 
HETATM   18  C   UNL     1      -8.857   3.662 -31.516  1.00  0.00     0.015 A 
ENDBRANCH  10  11
BRANCH   1  19
HETATM   19  C   UNL     1      -5.961  -0.702 -32.920  1.00  0.00     0.099 A 
HETATM   20  C   UNL     1      -4.673  -1.215 -33.163  1.00  0.00     0.035 A 
HETATM   21  C   UNL     1      -4.477  -2.252 -34.080  1.00  0.00     0.002 A 
HETATM   22  C   UNL     1      -5.560  -2.777 -34.778  1.00  0.00     0.003 A 
HETATM   23  C   UNL     1      -6.834  -2.252 -34.570  1.00  0.00     0.045 A 
HETATM   24  C   UNL     1      -7.031  -1.218 -33.652  1.00  0.00     0.145 A 
HETATM   25  F   UNL     1      -8.261  -0.690 -33.600  1.00  0.00    -0.204 F 
ENDBRANCH   1  19
BRANCH   7  26
HETATM   26  O   UNL     1      -5.693   4.030 -34.644  1.00  0.00    -0.347 OA
HETATM   27  H   UNL     1      -4.943   3.753 -35.200  1.00  0.00     0.219 HD
ENDBRANCH   7  26
TORSDOF 3
ENDMDL
MODEL 6
REMARK VINA RESULT:      -7.4      3.097      4.073
REMARK  3 active torsions:
REMARK  status: ('A' for Active; 'I' for Inactive)
REMARK    1  A    between atoms: C_3  and  N_4 
REMARK    2  A    between atoms: C_10  and  O_11 
REMARK    3  A    between atoms: C_14  and  C_15 
ROOT
HETATM    1  N   UNL     1      -7.849  -0.007 -32.936  1.00  0.00    -0.212 N 
HETATM    2  N   UNL     1      -9.099  -0.557 -32.957  1.00  0.00    -0.177 NA
HETATM    3  C   UNL     1      -9.908   0.405 -32.528  1.00  0.00     0.152 A 
HETATM    4  C   UNL     1      -9.234   1.609 -32.253  1.00  0.00     0.027 A 
HETATM    5  C   UNL     1      -7.904   1.339 -32.547  1.00  0.00     0.163 A 
HETATM    6  N   UNL     1      -6.845   2.191 -32.569  1.00  0.00    -0.208 NA
HETATM    7  C   UNL     1      -6.679   2.903 -31.503  1.00  0.00     0.149 C 
HETATM    8  C   UNL     1      -7.485   2.896 -30.233  1.00  0.00     0.161 C 
HETATM    9  S   UNL     1      -9.067   3.772 -30.427  1.00  0.00    -0.146 SA
HETATM   10  C   UNL     1      -9.859   2.907 -31.855  1.00  0.00     0.124 C 
ENDROOT
BRANCH  10  11
HETATM   11  C   UNL     1     -10.037   3.826 -33.045  1.00  0.00     0.028 A 
HETATM   12  C   UNL     1     -11.361   3.700 -33.745  1.00  0.00     0.253 A 
HETATM   13  O   UNL     1     -12.228   2.920 -33.366  1.00  0.00    -0.268 OA
HETATM   14  N   UNL     1     -11.555   4.507 -34.842  1.00  0.00    -0.333 N 
HETATM   15  C   UNL     1     -10.631   5.398 -35.315  1.00  0.00     0.091 A 
HETATM   16  H   UNL     1     -12.449   4.406 -35.307  1.00  0.00     0.168 HD
HETATM   17  C   UNL     1      -9.451   5.527 -34.699  1.00  0.00     0.018 A 
HETATM   18  C   UNL     1      -9.154   4.718 -33.539  1.00  0.00     0.015 A 
ENDBRANCH  10  11
BRANCH   1  19
HETATM   19  C   UNL     1      -6.739  -0.814 -33.313  1.00  0.00     0.099 A 
HETATM   20  C   UNL     1      -6.815  -1.541 -34.517  1.00  0.00     0.035 A 
HETATM   21  C   UNL     1      -5.740  -2.323 -34.948  1.00  0.00     0.002 A 
HETATM   22  C   UNL     1      -4.584  -2.404 -34.177  1.00  0.00     0.003 A 
HETATM   23  C   UNL     1      -4.515  -1.717 -32.967  1.00  0.00     0.045 A 
HETATM   24  C   UNL     1      -5.587  -0.933 -32.536  1.00  0.00     0.145 A 
HETATM   25  F   UNL     1      -5.487  -0.404 -31.310  1.00  0.00    -0.204 F 
ENDBRANCH   1  19
BRANCH   7  26
HETATM   26  O   UNL     1      -5.656   3.770 -31.510  1.00  0.00    -0.347 OA
HETATM   27  H   UNL     1      -5.758   4.339 -30.727  1.00  0.00     0.219 HD
ENDBRANCH   7  26
TORSDOF 3
ENDMDL
MODEL 7
REMARK VINA RESULT:      -7.3      3.593      5.399
REMARK  3 active torsions:
REMARK  status: ('A' for Active; 'I' for Inactive)
REMARK    1  A    between atoms: C_3  and  N_4 
REMARK    2  A    between atoms: C_10  and  O_11 
REMARK    3  A    between atoms: C_14  and  C_15 
ROOT
HETATM    1  N   UNL     1      -9.486   2.357 -32.830  1.00  0.00    -0.212 N 
HETATM    2  N   UNL     1      -9.757   2.833 -31.579  1.00  0.00    -0.177 NA
HETATM    3  C   UNL     1      -8.689   2.524 -30.852  1.00  0.00     0.152 A 
HETATM    4  C   UNL     1      -7.684   1.881 -31.598  1.00  0.00     0.027 A 
HETATM    5  C   UNL     1      -8.199   1.803 -32.885  1.00  0.00     0.163 A 
HETATM    6  N   UNL     1      -7.590   1.380 -34.024  1.00  0.00    -0.208 NA
HETATM    7  C   UNL     1      -7.029   0.218 -33.957  1.00  0.00     0.149 C 
HETATM    8  C   UNL     1      -6.980  -0.738 -32.797  1.00  0.00     0.161 C 
HETATM    9  S   UNL     1      -5.777  -0.217 -31.536  1.00  0.00    -0.146 SA
HETATM   10  C   UNL     1      -6.324   1.495 -31.109  1.00  0.00     0.124 C 
ENDROOT
BRANCH  10  11
HETATM   11  C   UNL     1      -5.285   2.531 -31.484  1.00  0.00     0.028 A 
HETATM   12  C   UNL     1      -5.075   3.611 -30.460  1.00  0.00     0.253 A 
HETATM   13  O   UNL     1      -5.693   3.635 -29.401  1.00  0.00    -0.268 OA
HETATM   14  N   UNL     1      -4.150   4.581 -30.771  1.00  0.00    -0.333 N 
HETATM   15  C   UNL     1      -3.427   4.610 -31.932  1.00  0.00     0.091 A 
HETATM   16  H   UNL     1      -4.024   5.305 -30.074  1.00  0.00     0.168 HD
HETATM   17  C   UNL     1      -3.597   3.653 -32.849  1.00  0.00     0.018 A 
HETATM   18  C   UNL     1      -4.550   2.593 -32.614  1.00  0.00     0.015 A 
ENDBRANCH  10  11
BRANCH   1  19
HETATM   19  C   UNL     1     -10.471   2.506 -33.847  1.00  0.00     0.099 A 
HETATM   20  C   UNL     1     -10.524   3.718 -34.560  1.00  0.00     0.035 A 
HETATM   21  C   UNL     1     -11.452   3.901 -35.590  1.00  0.00     0.002 A 
HETATM   22  C   UNL     1     -12.349   2.886 -35.908  1.00  0.00     0.003 A 
HETATM   23  C   UNL     1     -12.327   1.696 -35.183  1.00  0.00     0.045 A 
HETATM   24  C   UNL     1     -11.399   1.510 -34.156  1.00  0.00     0.145 A 
HETATM   25  F   UNL     1     -11.523   0.391 -33.432  1.00  0.00    -0.204 F 
ENDBRANCH   1  19
BRANCH   7  26
HETATM   26  O   UNL     1      -6.399  -0.212 -35.061  1.00  0.00    -0.347 OA
HETATM   27  H   UNL     1      -6.437  -1.184 -35.052  1.00  0.00     0.219 HD
ENDBRANCH   7  26
TORSDOF 3
ENDMDL
MODEL 8
REMARK VINA RESULT:      -7.2      3.163      4.552
REMARK  3 active torsions:
REMARK  status: ('A' for Active; 'I' for Inactive)
REMARK    1  A    between atoms: C_3  and  N_4 
REMARK    2  A    between atoms: C_10  and  O_11 
REMARK    3  A    between atoms: C_14  and  C_15 
ROOT
HETATM    1  N   UNL     1      -5.632   3.410 -33.348  1.00  0.00    -0.212 N 
HETATM    2  N   UNL     1      -5.460   4.099 -34.514  1.00  0.00    -0.177 NA
HETATM    3  C   UNL     1      -4.955   5.273 -34.151  1.00  0.00     0.152 A 
HETATM    4  C   UNL     1      -4.747   5.377 -32.763  1.00  0.00     0.027 A 
HETATM    5  C   UNL     1      -5.163   4.153 -32.255  1.00  0.00     0.163 A 
HETATM    6  N   UNL     1      -5.067   3.679 -30.985  1.00  0.00    -0.208 NA
HETATM    7  C   UNL     1      -5.535   4.454 -30.063  1.00  0.00     0.149 C 
HETATM    8  C   UNL     1      -6.195   5.798 -30.210  1.00  0.00     0.161 C 
HETATM    9  S   UNL     1      -4.986   7.117 -30.538  1.00  0.00    -0.146 SA
HETATM   10  C   UNL     1      -4.101   6.517 -32.044  1.00  0.00     0.124 C 
ENDROOT
BRANCH  10  11
HETATM   11  C   UNL     1      -2.637   6.243 -31.768  1.00  0.00     0.028 A 
HETATM   12  C   UNL     1      -1.705   7.356 -32.155  1.00  0.00     0.253 A 
HETATM   13  O   UNL     1      -2.110   8.407 -32.643  1.00  0.00    -0.268 OA
HETATM   14  N   UNL     1      -0.365   7.139 -31.936  1.00  0.00    -0.333 N 
HETATM   15  C   UNL     1       0.151   5.994 -31.394  1.00  0.00     0.091 A 
HETATM   16  H   UNL     1       0.251   7.896 -32.207  1.00  0.00     0.168 HD
HETATM   17  C   UNL     1      -0.666   4.997 -31.038  1.00  0.00     0.018 A 
HETATM   18  C   UNL     1      -2.092   5.132 -31.234  1.00  0.00     0.015 A 
ENDBRANCH  10  11
BRANCH   1  19
HETATM   19  C   UNL     1      -6.201   2.106 -33.401  1.00  0.00     0.099 A 
HETATM   20  C   UNL     1      -7.583   1.985 -33.638  1.00  0.00     0.035 A 
HETATM   21  C   UNL     1      -8.185   0.726 -33.731  1.00  0.00     0.002 A 
HETATM   22  C   UNL     1      -7.419  -0.425 -33.572  1.00  0.00     0.003 A 
HETATM   23  C   UNL     1      -6.056  -0.313 -33.302  1.00  0.00     0.045 A 
HETATM   24  C   UNL     1      -5.454   0.943 -33.211  1.00  0.00     0.145 A 
HETATM   25  F   UNL     1      -4.170   0.966 -32.831  1.00  0.00    -0.204 F 
ENDBRANCH   1  19
BRANCH   7  26
HETATM   26  O   UNL     1      -5.429   4.020 -28.799  1.00  0.00    -0.347 OA
HETATM   27  H   UNL     1      -4.723   3.351 -28.783  1.00  0.00     0.219 HD
ENDBRANCH   7  26
TORSDOF 3
ENDMDL
MODEL 9
REMARK VINA RESULT:      -7.1      2.815      3.477
REMARK  3 active torsions:
REMARK  status: ('A' for Active; 'I' for Inactive)
REMARK    1  A    between atoms: C_3  and  N_4 
REMARK    2  A    between atoms: C_10  and  O_11 
REMARK    3  A    between atoms: C_14  and  C_15 
ROOT
HETATM    1  N   UNL     1      -6.440   2.199 -33.550  1.00  0.00    -0.212 N 
HETATM    2  N   UNL     1      -5.830   3.126 -34.346  1.00  0.00    -0.177 NA
HETATM    3  C   UNL     1      -6.299   4.298 -33.934  1.00  0.00     0.152 A 
HETATM    4  C   UNL     1      -7.187   4.185 -32.849  1.00  0.00     0.027 A 
HETATM    5  C   UNL     1      -7.249   2.822 -32.590  1.00  0.00     0.163 A 
HETATM    6  N   UNL     1      -7.869   2.175 -31.568  1.00  0.00    -0.208 NA
HETATM    7  C   UNL     1      -9.114   2.474 -31.392  1.00  0.00     0.149 C 
HETATM    8  C   UNL     1      -9.974   3.423 -32.181  1.00  0.00     0.161 C 
HETATM    9  S   UNL     1      -9.622   5.160 -31.773  1.00  0.00    -0.146 SA
HETATM   10  C   UNL     1      -7.808   5.311 -32.087  1.00  0.00     0.124 C 
ENDROOT
BRANCH  10  11
HETATM   11  C   UNL     1      -7.038   5.615 -30.819  1.00  0.00     0.028 A 
HETATM   12  C   UNL     1      -5.965   6.657 -30.969  1.00  0.00     0.253 A 
HETATM   13  O   UNL     1      -5.747   7.221 -32.037  1.00  0.00    -0.268 OA
HETATM   14  N   UNL     1      -5.231   6.950 -29.843  1.00  0.00    -0.333 N 
HETATM   15  C   UNL     1      -5.426   6.361 -28.624  1.00  0.00     0.091 A 
HETATM   16  H   UNL     1      -4.508   7.650 -29.961  1.00  0.00     0.168 HD
HETATM   17  C   UNL     1      -6.380   5.437 -28.473  1.00  0.00     0.018 A 
HETATM   18  C   UNL     1      -7.201   5.060 -29.601  1.00  0.00     0.015 A 
ENDBRANCH  10  11
BRANCH   1  19
HETATM   19  C   UNL     1      -6.166   0.820 -33.772  1.00  0.00     0.099 A 
HETATM   20  C   UNL     1      -5.151   0.206 -33.014  1.00  0.00     0.035 A 
HETATM   21  C   UNL     1      -4.865  -1.154 -33.171  1.00  0.00     0.002 A 
HETATM   22  C   UNL     1      -5.574  -1.912 -34.098  1.00  0.00     0.003 A 
HETATM   23  C   UNL     1      -6.556  -1.304 -34.878  1.00  0.00     0.045 A 
HETATM   24  C   UNL     1      -6.844   0.053 -34.720  1.00  0.00     0.145 A 
HETATM   25  F   UNL     1      -7.714   0.585 -35.588  1.00  0.00    -0.204 F 
ENDBRANCH   1  19
BRANCH   7  26
HETATM   26  O   UNL     1      -9.743   1.868 -30.374  1.00  0.00    -0.347 OA
HETATM   27  H   UNL     1      -9.689   2.465 -29.608  1.00  0.00     0.219 HD
ENDBRANCH   7  26
TORSDOF 3
ENDMDL
MODEL 10
REMARK VINA RESULT:      -7.0      4.938      6.185
REMARK  3 active torsions:
REMARK  status: ('A' for Active; 'I' for Inactive)
REMARK    1  A    between atoms: C_3  and  N_4 
REMARK    2  A    between atoms: C_10  and  O_11 
REMARK    3  A    between atoms: C_14  and  C_15 
ROOT
HETATM    1  N   UNL     1      -8.903   2.301 -33.952  1.00  0.00    -0.212 N 
HETATM    2  N   UNL     1      -8.138   3.393 -33.656  1.00  0.00    -0.177 NA
HETATM    3  C   UNL     1      -8.983   4.418 -33.659  1.00  0.00     0.152 A 
HETATM    4  C   UNL     1     -10.312   4.035 -33.914  1.00  0.00     0.027 A 
HETATM    5  C   UNL     1     -10.253   2.657 -34.075  1.00  0.00     0.163 A 
HETATM    6  N   UNL     1     -11.273   1.770 -34.223  1.00  0.00    -0.208 NA
HETATM    7  C   UNL     1     -12.124   2.049 -35.155  1.00  0.00     0.149 C 
HETATM    8  C   UNL     1     -12.123   3.209 -36.113  1.00  0.00     0.161 C 
HETATM    9  S   UNL     1     -12.670   4.750 -35.317  1.00  0.00    -0.146 SA
HETATM   10  C   UNL     1     -11.514   4.923 -33.886  1.00  0.00     0.124 C 
ENDROOT
BRANCH  10  11
HETATM   11  C   UNL     1     -12.239   4.834 -32.559  1.00  0.00     0.028 A 
HETATM   12  C   UNL     1     -11.793   5.835 -31.531  1.00  0.00     0.253 A 
HETATM   13  O   UNL     1     -10.919   6.664 -31.763  1.00  0.00    -0.268 OA
HETATM   14  N   UNL     1     -12.416   5.777 -30.306  1.00  0.00    -0.333 N 
HETATM   15  C   UNL     1     -13.399   4.880 -29.985  1.00  0.00     0.091 A 
HETATM   16  H   UNL     1     -12.101   6.454 -29.622  1.00  0.00     0.168 HD
HETATM   17  C   UNL     1     -13.811   3.988 -30.891  1.00  0.00     0.018 A 
HETATM   18  C   UNL     1     -13.212   3.970 -32.206  1.00  0.00     0.015 A 
ENDBRANCH  10  11
BRANCH   1  19
HETATM   19  C   UNL     1      -8.269   1.031 -34.060  1.00  0.00     0.099 A 
HETATM   20  C   UNL     1      -7.481   0.767 -35.195  1.00  0.00     0.035 A 
HETATM   21  C   UNL     1      -6.812  -0.453 -35.333  1.00  0.00     0.002 A 
HETATM   22  C   UNL     1      -6.936  -1.430 -34.350  1.00  0.00     0.003 A 
HETATM   23  C   UNL     1      -7.743  -1.191 -33.240  1.00  0.00     0.045 A 
HETATM   24  C   UNL     1      -8.410   0.028 -33.099  1.00  0.00     0.145 A 
HETATM   25  F   UNL     1      -9.257   0.132 -32.068  1.00  0.00    -0.204 F 
ENDBRANCH   1  19
BRANCH   7  26
HETATM   26  O   UNL     1     -13.154   1.204 -35.305  1.00  0.00    -0.347 OA
HETATM   27  H   UNL     1     -12.974   0.429 -34.744  1.00  0.00     0.219 HD
ENDBRANCH   7  26
TORSDOF 3
ENDMDL
