MODEL 1
REMARK VINA RESULT:      -8.7      0.000      0.000
REMARK  6 active torsions:
REMARK  status: ('A' for Active; 'I' for Inactive)
REMARK    1  A    between atoms: C_4  and  C_5 
REMARK    2  A    between atoms: C_6  and  O_7 
REMARK    3  A    between atoms: O_7  and  C_8 
REMARK    4  A    between atoms: C_8  and  C_9 
REMARK       I    between atoms: C_9  and  N_10 
REMARK    5  A    between atoms: N_10  and  N_11 
REMARK    6  A    between atoms: C_12  and  C_13 
ROOT
HETATM    1  O   UNL     1      -4.132  -1.321 -33.502  1.00  0.00    -0.341 OA
ENDROOT
BRANCH   1   2
HETATM    2  C   UNL     1      -4.789  -2.425 -33.987  1.00  0.00     0.080 A 
HETATM    3  C   UNL     1      -6.160  -2.309 -34.292  1.00  0.00     0.007 A 
HETATM    4  C   UNL     1      -6.834  -3.461 -34.734  1.00  0.00     0.015 A 
HETATM    5  C   UNL     1      -6.172  -4.687 -34.855  1.00  0.00     0.001 A 
HETATM    6  C   UNL     1      -4.823  -4.785 -34.527  1.00  0.00     0.003 A 
HETATM    7  C   UNL     1      -4.132  -3.656 -34.086  1.00  0.00     0.037 A 
BRANCH   3   8
HETATM    8  C   UNL     1      -6.892  -1.035 -34.177  1.00  0.00    -0.023 A 
HETATM    9  C   UNL     1      -7.552  -0.681 -32.988  1.00  0.00     0.012 A 
HETATM   10  C   UNL     1      -8.235   0.531 -32.878  1.00  0.00     0.001 A 
HETATM   11  C   UNL     1      -8.262   1.417 -33.953  1.00  0.00     0.000 A 
HETATM   12  C   UNL     1      -7.610   1.088 -35.138  1.00  0.00     0.001 A 
HETATM   13  C   UNL     1      -6.931  -0.129 -35.249  1.00  0.00     0.012 A 
ENDBRANCH   3   8
ENDBRANCH   1   2
BRANCH   1  14
HETATM   14  C   UNL     1      -3.914  -1.388 -32.089  1.00  0.00     0.280 C 
BRANCH  14  15
HETATM   15  C   UNL     1      -3.065  -0.212 -31.613  1.00  0.00     0.261 C 
HETATM   16  N   UNL     1      -3.664   1.018 -31.831  1.00  0.00    -0.246 N 
HETATM   17  H   UNL     1      -4.559   1.045 -32.317  1.00  0.00     0.192 HD
HETATM   18  O   UNL     1      -1.973  -0.387 -31.074  1.00  0.00    -0.269 OA
BRANCH  16  19
HETATM   19  N   UNL     1      -3.048   2.166 -31.434  1.00  0.00    -0.182 NA
HETATM   20  C   UNL     1      -3.020   3.116 -32.311  1.00  0.00     0.168 C 
BRANCH  20  21
HETATM   21  C   UNL     1      -2.388   4.362 -31.975  1.00  0.00     0.051 A 
HETATM   22  N   UNL     1      -2.652   5.055 -30.814  1.00  0.00    -0.365 N 
HETATM   23  H   UNL     1      -3.313   4.743 -30.112  1.00  0.00     0.165 HD
HETATM   24  C   UNL     1      -1.896   6.196 -30.768  1.00  0.00     0.088 A 
HETATM   25  C   UNL     1      -1.142   6.249 -31.919  1.00  0.00     0.019 A 
HETATM   26  C   UNL     1      -1.450   5.094 -32.679  1.00  0.00     0.032 A 
ENDBRANCH  20  21
ENDBRANCH  16  19
ENDBRANCH  14  15
ENDBRANCH   1  14
TORSDOF 6
ENDMDL
MODEL 2
REMARK VINA RESULT:      -8.5      1.230      1.439
REMARK  6 active torsions:
REMARK  status: ('A' for Active; 'I' for Inactive)
REMARK    1  A    between atoms: C_4  and  C_5 
REMARK    2  A    between atoms: C_6  and  O_7 
REMARK    3  A    between atoms: O_7  and  C_8 
REMARK    4  A    between atoms: C_8  and  C_9 
REMARK       I    between atoms: C_9  and  N_10 
REMARK    5  A    between atoms: N_10  and  N_11 
REMARK    6  A    between atoms: C_12  and  C_13 
ROOT
HETATM    1  O   UNL     1      -5.099   0.221 -33.111  1.00  0.00    -0.341 OA
ENDROOT
BRANCH   1   2
HETATM    2  C   UNL     1      -5.293  -0.992 -33.726  1.00  0.00     0.080 A 
HETATM    3  C   UNL     1      -6.605  -1.357 -34.090  1.00  0.00     0.007 A 
HETATM    4  C   UNL     1      -6.797  -2.625 -34.668  1.00  0.00     0.015 A 
HETATM    5  C   UNL     1      -5.726  -3.502 -34.864  1.00  0.00     0.001 A 
HETATM    6  C   UNL     1      -4.442  -3.131 -34.477  1.00  0.00     0.003 A 
HETATM    7  C   UNL     1      -4.225  -1.879 -33.902  1.00  0.00     0.037 A 
BRANCH   3   8
HETATM    8  C   UNL     1      -7.758  -0.460 -33.899  1.00  0.00    -0.023 A 
HETATM    9  C   UNL     1      -8.550  -0.531 -32.740  1.00  0.00     0.012 A 
HETATM   10  C   UNL     1      -9.635   0.327 -32.556  1.00  0.00     0.001 A 
HETATM   11  C   UNL     1      -9.943   1.279 -33.525  1.00  0.00     0.000 A 
HETATM   12  C   UNL     1      -9.169   1.369 -34.679  1.00  0.00     0.001 A 
HETATM   13  C   UNL     1      -8.086   0.505 -34.864  1.00  0.00     0.012 A 
ENDBRANCH   3   8
ENDBRANCH   1   2
BRANCH   1  14
HETATM   14  C   UNL     1      -4.796   0.088 -31.719  1.00  0.00     0.280 C 
BRANCH  14  15
HETATM   15  C   UNL     1      -3.498   0.815 -31.373  1.00  0.00     0.261 C 
HETATM   16  N   UNL     1      -3.579   2.188 -31.546  1.00  0.00    -0.246 N 
HETATM   17  H   UNL     1      -4.439   2.582 -31.923  1.00  0.00     0.192 HD
HETATM   18  O   UNL     1      -2.512   0.205 -30.965  1.00  0.00    -0.269 OA
BRANCH  16  19
HETATM   19  N   UNL     1      -2.514   2.983 -31.251  1.00  0.00    -0.182 NA
HETATM   20  C   UNL     1      -2.566   4.184 -31.729  1.00  0.00     0.168 C 
BRANCH  20  21
HETATM   21  C   UNL     1      -1.481   5.090 -31.466  1.00  0.00     0.051 A 
HETATM   22  N   UNL     1      -0.802   5.129 -30.268  1.00  0.00    -0.365 N 
HETATM   23  H   UNL     1      -1.016   4.526 -29.482  1.00  0.00     0.165 HD
HETATM   24  C   UNL     1       0.178   6.084 -30.317  1.00  0.00     0.088 A 
HETATM   25  C   UNL     1       0.126   6.680 -31.557  1.00  0.00     0.019 A 
HETATM   26  C   UNL     1      -0.919   6.055 -32.282  1.00  0.00     0.032 A 
ENDBRANCH  20  21
ENDBRANCH  16  19
ENDBRANCH  14  15
ENDBRANCH   1  14
TORSDOF 6
ENDMDL
MODEL 3
REMARK VINA RESULT:      -8.4      1.133      3.628
REMARK  6 active torsions:
REMARK  status: ('A' for Active; 'I' for Inactive)
REMARK    1  A    between atoms: C_4  and  C_5 
REMARK    2  A    between atoms: C_6  and  O_7 
REMARK    3  A    between atoms: O_7  and  C_8 
REMARK    4  A    between atoms: C_8  and  C_9 
REMARK       I    between atoms: C_9  and  N_10 
REMARK    5  A    between atoms: N_10  and  N_11 
REMARK    6  A    between atoms: C_12  and  C_13 
ROOT
HETATM    1  O   UNL     1      -5.218  -0.677 -32.170  1.00  0.00    -0.341 OA
ENDROOT
BRANCH   1   2
HETATM    2  C   UNL     1      -6.098  -0.198 -33.110  1.00  0.00     0.080 A 
HETATM    3  C   UNL     1      -6.417  -1.019 -34.210  1.00  0.00     0.007 A 
HETATM    4  C   UNL     1      -7.276  -0.496 -35.193  1.00  0.00     0.015 A 
HETATM    5  C   UNL     1      -7.788   0.801 -35.093  1.00  0.00     0.001 A 
HETATM    6  C   UNL     1      -7.442   1.604 -34.009  1.00  0.00     0.003 A 
HETATM    7  C   UNL     1      -6.592   1.108 -33.021  1.00  0.00     0.037 A 
BRANCH   3   8
HETATM    8  C   UNL     1      -5.897  -2.391 -34.351  1.00  0.00    -0.023 A 
HETATM    9  C   UNL     1      -4.552  -2.690 -34.077  1.00  0.00     0.012 A 
HETATM   10  C   UNL     1      -4.065  -3.993 -34.200  1.00  0.00     0.001 A 
HETATM   11  C   UNL     1      -4.917  -5.022 -34.590  1.00  0.00     0.000 A 
HETATM   12  C   UNL     1      -6.256  -4.748 -34.862  1.00  0.00     0.001 A 
HETATM   13  C   UNL     1      -6.741  -3.442 -34.744  1.00  0.00     0.012 A 
ENDBRANCH   3   8
ENDBRANCH   1   2
BRANCH   1  14
HETATM   14  C   UNL     1      -5.049   0.221 -31.069  1.00  0.00     0.280 C 
BRANCH  14  15
HETATM   15  C   UNL     1      -3.674   0.883 -31.112  1.00  0.00     0.261 C 
HETATM   16  N   UNL     1      -3.736   2.262 -31.240  1.00  0.00    -0.246 N 
HETATM   17  H   UNL     1      -4.649   2.701 -31.344  1.00  0.00     0.192 HD
HETATM   18  O   UNL     1      -2.642   0.222 -31.017  1.00  0.00    -0.269 OA
BRANCH  16  19
HETATM   19  N   UNL     1      -2.594   3.004 -31.262  1.00  0.00    -0.182 NA
HETATM   20  C   UNL     1      -2.763   4.284 -31.339  1.00  0.00     0.168 C 
BRANCH  20  21
HETATM   21  C   UNL     1      -1.610   5.142 -31.370  1.00  0.00     0.051 A 
HETATM   22  N   UNL     1      -0.606   5.093 -30.428  1.00  0.00    -0.365 N 
HETATM   23  H   UNL     1      -0.605   4.453 -29.643  1.00  0.00     0.165 HD
HETATM   24  C   UNL     1       0.357   6.021 -30.723  1.00  0.00     0.088 A 
HETATM   25  C   UNL     1      -0.033   6.687 -31.863  1.00  0.00     0.019 A 
HETATM   26  C   UNL     1      -1.272   6.134 -32.272  1.00  0.00     0.032 A 
ENDBRANCH  20  21
ENDBRANCH  16  19
ENDBRANCH  14  15
ENDBRANCH   1  14
TORSDOF 6
ENDMDL
MODEL 4
REMARK VINA RESULT:      -8.4      2.180      2.409
REMARK  6 active torsions:
REMARK  status: ('A' for Active; 'I' for Inactive)
REMARK    1  A    between atoms: C_4  and  C_5 
REMARK    2  A    between atoms: C_6  and  O_7 
REMARK    3  A    between atoms: O_7  and  C_8 
REMARK    4  A    between atoms: C_8  and  C_9 
REMARK       I    between atoms: C_9  and  N_10 
REMARK    5  A    between atoms: N_10  and  N_11 
REMARK    6  A    between atoms: C_12  and  C_13 
ROOT
HETATM    1  O   UNL     1      -4.012  -1.455 -33.453  1.00  0.00    -0.341 OA
ENDROOT
BRANCH   1   2
HETATM    2  C   UNL     1      -4.691  -2.537 -33.959  1.00  0.00     0.080 A 
HETATM    3  C   UNL     1      -6.049  -2.377 -34.298  1.00  0.00     0.007 A 
HETATM    4  C   UNL     1      -6.748  -3.506 -34.762  1.00  0.00     0.015 A 
HETATM    5  C   UNL     1      -6.122  -4.751 -34.871  1.00  0.00     0.001 A 
HETATM    6  C   UNL     1      -4.786  -4.893 -34.509  1.00  0.00     0.003 A 
HETATM    7  C   UNL     1      -4.071  -3.788 -34.046  1.00  0.00     0.037 A 
BRANCH   3   8
HETATM    8  C   UNL     1      -6.744  -1.081 -34.197  1.00  0.00    -0.023 A 
HETATM    9  C   UNL     1      -6.706  -0.152 -35.251  1.00  0.00     0.012 A 
HETATM   10  C   UNL     1      -7.374   1.070 -35.157  1.00  0.00     0.001 A 
HETATM   11  C   UNL     1      -8.100   1.382 -34.010  1.00  0.00     0.000 A 
HETATM   12  C   UNL     1      -8.154   0.474 -32.955  1.00  0.00     0.001 A 
HETATM   13  C   UNL     1      -7.480  -0.748 -33.049  1.00  0.00     0.012 A 
ENDBRANCH   3   8
ENDBRANCH   1   2
BRANCH   1  14
HETATM   14  C   UNL     1      -3.646  -1.629 -32.081  1.00  0.00     0.280 C 
BRANCH  14  15
HETATM   15  C   UNL     1      -3.656  -0.294 -31.341  1.00  0.00     0.261 C 
HETATM   16  N   UNL     1      -4.933   0.171 -31.069  1.00  0.00    -0.246 N 
HETATM   17  H   UNL     1      -5.729  -0.363 -31.414  1.00  0.00     0.192 HD
HETATM   18  O   UNL     1      -2.610   0.267 -31.019  1.00  0.00    -0.269 OA
BRANCH  16  19
HETATM   19  N   UNL     1      -5.113   1.335 -30.387  1.00  0.00    -0.182 NA
HETATM   20  C   UNL     1      -5.429   2.361 -31.109  1.00  0.00     0.168 C 
BRANCH  20  21
HETATM   21  C   UNL     1      -5.636   3.631 -30.469  1.00  0.00     0.051 A 
HETATM   22  N   UNL     1      -5.397   3.851 -29.130  1.00  0.00    -0.365 N 
HETATM   23  H   UNL     1      -5.060   3.136 -28.496  1.00  0.00     0.165 HD
HETATM   24  C   UNL     1      -5.677   5.154 -28.813  1.00  0.00     0.088 A 
HETATM   25  C   UNL     1      -6.115   5.782 -29.957  1.00  0.00     0.019 A 
HETATM   26  C   UNL     1      -6.089   4.825 -31.001  1.00  0.00     0.032 A 
ENDBRANCH  20  21
ENDBRANCH  16  19
ENDBRANCH  14  15
ENDBRANCH   1  14
TORSDOF 6
ENDMDL
MODEL 5
REMARK VINA RESULT:      -7.8      3.766      7.672
REMARK  6 active torsions:
REMARK  status: ('A' for Active; 'I' for Inactive)
REMARK    1  A    between atoms: C_4  and  C_5 
REMARK    2  A    between atoms: C_6  and  O_7 
REMARK    3  A    between atoms: O_7  and  C_8 
REMARK    4  A    between atoms: C_8  and  C_9 
REMARK       I    between atoms: C_9  and  N_10 
REMARK    5  A    between atoms: N_10  and  N_11 
REMARK    6  A    between atoms: C_12  and  C_13 
ROOT
HETATM    1  O   UNL     1      -5.712  -0.023 -34.180  1.00  0.00    -0.341 OA
ENDROOT
BRANCH   1   2
HETATM    2  C   UNL     1      -4.743   0.002 -33.206  1.00  0.00     0.080 A 
HETATM    3  C   UNL     1      -4.144  -1.216 -32.826  1.00  0.00     0.007 A 
HETATM    4  C   UNL     1      -3.194  -1.184 -31.789  1.00  0.00     0.015 A 
HETATM    5  C   UNL     1      -2.863   0.012 -31.145  1.00  0.00     0.001 A 
HETATM    6  C   UNL     1      -3.483   1.200 -31.521  1.00  0.00     0.003 A 
HETATM    7  C   UNL     1      -4.429   1.195 -32.547  1.00  0.00     0.037 A 
BRANCH   3   8
HETATM    8  C   UNL     1      -4.467  -2.496 -33.480  1.00  0.00    -0.023 A 
HETATM    9  C   UNL     1      -3.690  -3.645 -33.252  1.00  0.00     0.012 A 
HETATM   10  C   UNL     1      -4.005  -4.859 -33.864  1.00  0.00     0.001 A 
HETATM   11  C   UNL     1      -5.108  -4.949 -34.709  1.00  0.00     0.000 A 
HETATM   12  C   UNL     1      -5.894  -3.824 -34.945  1.00  0.00     0.001 A 
HETATM   13  C   UNL     1      -5.574  -2.607 -34.336  1.00  0.00     0.012 A 
ENDBRANCH   3   8
ENDBRANCH   1   2
BRANCH   1  14
HETATM   14  C   UNL     1      -6.467   1.191 -34.234  1.00  0.00     0.280 C 
BRANCH  14  15
HETATM   15  C   UNL     1      -7.914   0.915 -34.635  1.00  0.00     0.261 C 
HETATM   16  N   UNL     1      -8.812   1.825 -34.101  1.00  0.00    -0.246 N 
HETATM   17  H   UNL     1      -8.461   2.542 -33.468  1.00  0.00     0.192 HD
HETATM   18  O   UNL     1      -8.205  -0.020 -35.379  1.00  0.00    -0.269 OA
BRANCH  16  19
HETATM   19  N   UNL     1     -10.140   1.735 -34.389  1.00  0.00    -0.182 NA
HETATM   20  C   UNL     1     -10.851   1.066 -33.541  1.00  0.00     0.168 C 
BRANCH  20  21
HETATM   21  C   UNL     1     -12.263   0.920 -33.770  1.00  0.00     0.051 A 
HETATM   22  N   UNL     1     -13.014  -0.101 -33.232  1.00  0.00    -0.365 N 
HETATM   23  H   UNL     1     -12.631  -0.826 -32.637  1.00  0.00     0.165 HD
HETATM   24  C   UNL     1     -14.322   0.027 -33.619  1.00  0.00     0.088 A 
HETATM   25  C   UNL     1     -14.416   1.137 -34.428  1.00  0.00     0.019 A 
HETATM   26  C   UNL     1     -13.120   1.701 -34.524  1.00  0.00     0.032 A 
ENDBRANCH  20  21
ENDBRANCH  16  19
ENDBRANCH  14  15
ENDBRANCH   1  14
TORSDOF 6
ENDMDL
MODEL 6
REMARK VINA RESULT:      -7.8      2.013      4.341
REMARK  6 active torsions:
REMARK  status: ('A' for Active; 'I' for Inactive)
REMARK    1  A    between atoms: C_4  and  C_5 
REMARK    2  A    between atoms: C_6  and  O_7 
REMARK    3  A    between atoms: O_7  and  C_8 
REMARK    4  A    between atoms: C_8  and  C_9 
REMARK       I    between atoms: C_9  and  N_10 
REMARK    5  A    between atoms: N_10  and  N_11 
REMARK    6  A    between atoms: C_12  and  C_13 
ROOT
HETATM    1  O   UNL     1      -6.474   2.037 -34.327  1.00  0.00    -0.341 OA
ENDROOT
BRANCH   1   2
HETATM    2  C   UNL     1      -7.689   1.600 -33.857  1.00  0.00     0.080 A 
HETATM    3  C   UNL     1      -7.847   0.227 -33.582  1.00  0.00     0.007 A 
HETATM    4  C   UNL     1      -9.112  -0.216 -33.155  1.00  0.00     0.015 A 
HETATM    5  C   UNL     1     -10.183   0.672 -33.020  1.00  0.00     0.001 A 
HETATM    6  C   UNL     1     -10.011   2.021 -33.318  1.00  0.00     0.003 A 
HETATM    7  C   UNL     1      -8.767   2.485 -33.743  1.00  0.00     0.037 A 
BRANCH   3   8
HETATM    8  C   UNL     1      -6.742  -0.740 -33.713  1.00  0.00    -0.023 A 
HETATM    9  C   UNL     1      -6.753  -1.724 -34.716  1.00  0.00     0.012 A 
HETATM   10  C   UNL     1      -5.699  -2.630 -34.845  1.00  0.00     0.001 A 
HETATM   11  C   UNL     1      -4.612  -2.564 -33.978  1.00  0.00     0.000 A 
HETATM   12  C   UNL     1      -4.579  -1.594 -32.980  1.00  0.00     0.001 A 
HETATM   13  C   UNL     1      -5.638  -0.689 -32.848  1.00  0.00     0.012 A 
ENDBRANCH   3   8
ENDBRANCH   1   2
BRANCH   1  14
HETATM   14  C   UNL     1      -6.182   3.379 -33.928  1.00  0.00     0.280 C 
BRANCH  14  15
HETATM   15  C   UNL     1      -4.970   3.421 -33.000  1.00  0.00     0.261 C 
HETATM   16  N   UNL     1      -3.926   4.184 -33.499  1.00  0.00    -0.246 N 
HETATM   17  H   UNL     1      -4.023   4.596 -34.426  1.00  0.00     0.192 HD
HETATM   18  O   UNL     1      -4.973   2.838 -31.918  1.00  0.00    -0.269 OA
BRANCH  16  19
HETATM   19  N   UNL     1      -2.784   4.346 -32.776  1.00  0.00    -0.182 NA
HETATM   20  C   UNL     1      -2.556   5.548 -32.356  1.00  0.00     0.168 C 
BRANCH  20  21
HETATM   21  C   UNL     1      -1.370   5.808 -31.586  1.00  0.00     0.051 A 
HETATM   22  N   UNL     1      -0.976   5.031 -30.519  1.00  0.00    -0.365 N 
HETATM   23  H   UNL     1      -1.492   4.222 -30.194  1.00  0.00     0.165 HD
HETATM   24  C   UNL     1       0.190   5.518 -29.991  1.00  0.00     0.088 A 
HETATM   25  C   UNL     1       0.550   6.631 -30.717  1.00  0.00     0.019 A 
HETATM   26  C   UNL     1      -0.432   6.815 -31.723  1.00  0.00     0.032 A 
ENDBRANCH  20  21
ENDBRANCH  16  19
ENDBRANCH  14  15
ENDBRANCH   1  14
TORSDOF 6
ENDMDL
MODEL 7
REMARK VINA RESULT:      -7.7      1.946      3.984
REMARK  6 active torsions:
REMARK  status: ('A' for Active; 'I' for Inactive)
REMARK    1  A    between atoms: C_4  and  C_5 
REMARK    2  A    between atoms: C_6  and  O_7 
REMARK    3  A    between atoms: O_7  and  C_8 
REMARK    4  A    between atoms: C_8  and  C_9 
REMARK       I    between atoms: C_9  and  N_10 
REMARK    5  A    between atoms: N_10  and  N_11 
REMARK    6  A    between atoms: C_12  and  C_13 
ROOT
HETATM    1  O   UNL     1      -6.179   0.073 -31.143  1.00  0.00    -0.341 OA
ENDROOT
BRANCH   1   2
HETATM    2  C   UNL     1      -7.317   0.358 -31.860  1.00  0.00     0.080 A 
HETATM    3  C   UNL     1      -7.489  -0.257 -33.116  1.00  0.00     0.007 A 
HETATM    4  C   UNL     1      -8.630   0.085 -33.863  1.00  0.00     0.015 A 
HETATM    5  C   UNL     1      -9.558   1.015 -33.385  1.00  0.00     0.001 A 
HETATM    6  C   UNL     1      -9.357   1.628 -32.151  1.00  0.00     0.003 A 
HETATM    7  C   UNL     1      -8.233   1.305 -31.391  1.00  0.00     0.037 A 
BRANCH   3   8
HETATM    8  C   UNL     1      -6.533  -1.242 -33.654  1.00  0.00    -0.023 A 
HETATM    9  C   UNL     1      -6.978  -2.408 -34.300  1.00  0.00     0.012 A 
HETATM   10  C   UNL     1      -6.071  -3.333 -34.819  1.00  0.00     0.001 A 
HETATM   11  C   UNL     1      -4.701  -3.104 -34.709  1.00  0.00     0.000 A 
HETATM   12  C   UNL     1      -4.240  -1.953 -34.076  1.00  0.00     0.001 A 
HETATM   13  C   UNL     1      -5.149  -1.029 -33.552  1.00  0.00     0.012 A 
ENDBRANCH   3   8
ENDBRANCH   1   2
BRANCH   1  14
HETATM   14  C   UNL     1      -6.037   0.904 -29.987  1.00  0.00     0.280 C 
BRANCH  14  15
HETATM   15  C   UNL     1      -5.120   2.089 -30.278  1.00  0.00     0.261 C 
HETATM   16  N   UNL     1      -4.035   1.757 -31.075  1.00  0.00    -0.246 N 
HETATM   17  H   UNL     1      -3.911   0.784 -31.348  1.00  0.00     0.192 HD
HETATM   18  O   UNL     1      -5.369   3.213 -29.846  1.00  0.00    -0.269 OA
BRANCH  16  19
HETATM   19  N   UNL     1      -3.138   2.710 -31.451  1.00  0.00    -0.182 NA
HETATM   20  C   UNL     1      -3.357   3.260 -32.601  1.00  0.00     0.168 C 
BRANCH  20  21
HETATM   21  C   UNL     1      -2.457   4.275 -33.075  1.00  0.00     0.051 A 
HETATM   22  N   UNL     1      -1.579   4.950 -32.256  1.00  0.00    -0.365 N 
HETATM   23  H   UNL     1      -1.503   4.785 -31.259  1.00  0.00     0.165 HD
HETATM   24  C   UNL     1      -0.851   5.847 -32.990  1.00  0.00     0.088 A 
HETATM   25  C   UNL     1      -1.270   5.762 -34.299  1.00  0.00     0.019 A 
HETATM   26  C   UNL     1      -2.281   4.771 -34.354  1.00  0.00     0.032 A 
ENDBRANCH  20  21
ENDBRANCH  16  19
ENDBRANCH  14  15
ENDBRANCH   1  14
TORSDOF 6
ENDMDL
MODEL 8
REMARK VINA RESULT:      -7.6      1.484      2.092
REMARK  6 active torsions:
REMARK  status: ('A' for Active; 'I' for Inactive)
REMARK    1  A    between atoms: C_4  and  C_5 
REMARK    2  A    between atoms: C_6  and  O_7 
REMARK    3  A    between atoms: O_7  and  C_8 
REMARK    4  A    between atoms: C_8  and  C_9 
REMARK       I    between atoms: C_9  and  N_10 
REMARK    5  A    between atoms: N_10  and  N_11 
REMARK    6  A    between atoms: C_12  and  C_13 
ROOT
HETATM    1  O   UNL     1      -5.208  -0.193 -32.394  1.00  0.00    -0.341 OA
ENDROOT
BRANCH   1   2
HETATM    2  C   UNL     1      -5.338  -1.223 -33.294  1.00  0.00     0.080 A 
HETATM    3  C   UNL     1      -6.559  -1.361 -33.983  1.00  0.00     0.007 A 
HETATM    4  C   UNL     1      -6.698  -2.452 -34.860  1.00  0.00     0.015 A 
HETATM    5  C   UNL     1      -5.666  -3.379 -35.034  1.00  0.00     0.001 A 
HETATM    6  C   UNL     1      -4.476  -3.236 -34.326  1.00  0.00     0.003 A 
HETATM    7  C   UNL     1      -4.313  -2.163 -33.450  1.00  0.00     0.037 A 
BRANCH   3   8
HETATM    8  C   UNL     1      -7.670  -0.405 -33.827  1.00  0.00    -0.023 A 
HETATM    9  C   UNL     1      -7.772   0.731 -34.648  1.00  0.00     0.012 A 
HETATM   10  C   UNL     1      -8.831   1.629 -34.505  1.00  0.00     0.001 A 
HETATM   11  C   UNL     1      -9.813   1.402 -33.544  1.00  0.00     0.000 A 
HETATM   12  C   UNL     1      -9.733   0.279 -32.723  1.00  0.00     0.001 A 
HETATM   13  C   UNL     1      -8.669  -0.616 -32.864  1.00  0.00     0.012 A 
ENDBRANCH   3   8
ENDBRANCH   1   2
BRANCH   1  14
HETATM   14  C   UNL     1      -3.944   0.469 -32.496  1.00  0.00     0.280 C 
BRANCH  14  15
HETATM   15  C   UNL     1      -4.110   1.982 -32.377  1.00  0.00     0.261 C 
HETATM   16  N   UNL     1      -3.133   2.579 -31.596  1.00  0.00    -0.246 N 
HETATM   17  H   UNL     1      -2.443   1.984 -31.140  1.00  0.00     0.192 HD
HETATM   18  O   UNL     1      -5.021   2.573 -32.953  1.00  0.00    -0.269 OA
BRANCH  16  19
HETATM   19  N   UNL     1      -3.123   3.929 -31.417  1.00  0.00    -0.182 NA
HETATM   20  C   UNL     1      -2.164   4.563 -32.009  1.00  0.00     0.168 C 
BRANCH  20  21
HETATM   21  C   UNL     1      -2.078   5.991 -31.871  1.00  0.00     0.051 A 
HETATM   22  N   UNL     1      -2.444   6.663 -30.726  1.00  0.00    -0.365 N 
HETATM   23  H   UNL     1      -2.803   6.205 -29.897  1.00  0.00     0.165 HD
HETATM   24  C   UNL     1      -2.244   8.008 -30.890  1.00  0.00     0.088 A 
HETATM   25  C   UNL     1      -1.754   8.211 -32.160  1.00  0.00     0.019 A 
HETATM   26  C   UNL     1      -1.648   6.941 -32.779  1.00  0.00     0.032 A 
ENDBRANCH  20  21
ENDBRANCH  16  19
ENDBRANCH  14  15
ENDBRANCH   1  14
TORSDOF 6
ENDMDL
MODEL 9
REMARK VINA RESULT:      -7.5      2.832      3.304
REMARK  6 active torsions:
REMARK  status: ('A' for Active; 'I' for Inactive)
REMARK    1  A    between atoms: C_4  and  C_5 
REMARK    2  A    between atoms: C_6  and  O_7 
REMARK    3  A    between atoms: O_7  and  C_8 
REMARK    4  A    between atoms: C_8  and  C_9 
REMARK       I    between atoms: C_9  and  N_10 
REMARK    5  A    between atoms: N_10  and  N_11 
REMARK    6  A    between atoms: C_12  and  C_13 
ROOT
HETATM    1  O   UNL     1      -4.749  -0.561 -33.610  1.00  0.00    -0.341 OA
ENDROOT
BRANCH   1   2
HETATM    2  C   UNL     1      -5.182  -1.791 -34.043  1.00  0.00     0.080 A 
HETATM    3  C   UNL     1      -6.563  -1.983 -34.244  1.00  0.00     0.007 A 
HETATM    4  C   UNL     1      -6.999  -3.263 -34.633  1.00  0.00     0.015 A 
HETATM    5  C   UNL     1      -6.095  -4.315 -34.803  1.00  0.00     0.001 A 
HETATM    6  C   UNL     1      -4.737  -4.110 -34.578  1.00  0.00     0.003 A 
HETATM    7  C   UNL     1      -4.280  -2.850 -34.191  1.00  0.00     0.037 A 
BRANCH   3   8
HETATM    8  C   UNL     1      -7.547  -0.898 -34.075  1.00  0.00    -0.023 A 
HETATM    9  C   UNL     1      -8.354  -0.821 -32.927  1.00  0.00     0.012 A 
HETATM   10  C   UNL     1      -9.276   0.213 -32.764  1.00  0.00     0.001 A 
HETATM   11  C   UNL     1      -9.402   1.196 -33.743  1.00  0.00     0.000 A 
HETATM   12  C   UNL     1      -8.609   1.141 -34.886  1.00  0.00     0.001 A 
HETATM   13  C   UNL     1      -7.689   0.101 -35.051  1.00  0.00     0.012 A 
ENDBRANCH   3   8
ENDBRANCH   1   2
BRANCH   1  14
HETATM   14  C   UNL     1      -4.451  -0.545 -32.211  1.00  0.00     0.280 C 
BRANCH  14  15
HETATM   15  C   UNL     1      -4.652   0.851 -31.627  1.00  0.00     0.261 C 
HETATM   16  N   UNL     1      -5.923   1.359 -31.851  1.00  0.00    -0.246 N 
HETATM   17  H   UNL     1      -6.575   0.809 -32.408  1.00  0.00     0.192 HD
HETATM   18  O   UNL     1      -3.757   1.421 -31.007  1.00  0.00    -0.269 OA
BRANCH  16  19
HETATM   19  N   UNL     1      -6.271   2.582 -31.366  1.00  0.00    -0.182 NA
HETATM   20  C   UNL     1      -6.996   2.572 -30.295  1.00  0.00     0.168 C 
BRANCH  20  21
HETATM   21  C   UNL     1      -7.411   3.821 -29.717  1.00  0.00     0.051 A 
HETATM   22  N   UNL     1      -6.768   4.410 -28.651  1.00  0.00    -0.365 N 
HETATM   23  H   UNL     1      -5.959   4.009 -28.192  1.00  0.00     0.165 HD
HETATM   24  C   UNL     1      -7.383   5.591 -28.329  1.00  0.00     0.088 A 
HETATM   25  C   UNL     1      -8.445   5.762 -29.188  1.00  0.00     0.019 A 
HETATM   26  C   UNL     1      -8.463   4.648 -30.064  1.00  0.00     0.032 A 
ENDBRANCH  20  21
ENDBRANCH  16  19
ENDBRANCH  14  15
ENDBRANCH   1  14
TORSDOF 6
ENDMDL
MODEL 10
REMARK VINA RESULT:      -7.3      6.366     10.710
REMARK  6 active torsions:
REMARK  status: ('A' for Active; 'I' for Inactive)
REMARK    1  A    between atoms: C_4  and  C_5 
REMARK    2  A    between atoms: C_6  and  O_7 
REMARK    3  A    between atoms: O_7  and  C_8 
REMARK    4  A    between atoms: C_8  and  C_9 
REMARK       I    between atoms: C_9  and  N_10 
REMARK    5  A    between atoms: N_10  and  N_11 
REMARK    6  A    between atoms: C_12  and  C_13 
ROOT
HETATM    1  O   UNL     1      -1.735   7.007 -27.160  1.00  0.00    -0.341 OA
ENDROOT
BRANCH   1   2
HETATM    2  C   UNL     1      -0.663   7.799 -26.826  1.00  0.00     0.080 A 
HETATM    3  C   UNL     1       0.497   7.729 -27.624  1.00  0.00     0.007 A 
HETATM    4  C   UNL     1       1.606   8.502 -27.239  1.00  0.00     0.015 A 
HETATM    5  C   UNL     1       1.568   9.306 -26.095  1.00  0.00     0.001 A 
HETATM    6  C   UNL     1       0.421   9.343 -25.308  1.00  0.00     0.003 A 
HETATM    7  C   UNL     1      -0.693   8.585 -25.669  1.00  0.00     0.037 A 
BRANCH   3   8
HETATM    8  C   UNL     1       0.575   6.894 -28.836  1.00  0.00    -0.023 A 
HETATM    9  C   UNL     1       0.783   5.507 -28.751  1.00  0.00     0.012 A 
HETATM   10  C   UNL     1       0.845   4.717 -29.900  1.00  0.00     0.001 A 
HETATM   11  C   UNL     1       0.691   5.299 -31.156  1.00  0.00     0.000 A 
HETATM   12  C   UNL     1       0.479   6.671 -31.262  1.00  0.00     0.001 A 
HETATM   13  C   UNL     1       0.422   7.462 -30.110  1.00  0.00     0.012 A 
ENDBRANCH   3   8
ENDBRANCH   1   2
BRANCH   1  14
HETATM   14  C   UNL     1      -2.961   7.742 -27.226  1.00  0.00     0.280 C 
BRANCH  14  15
HETATM   15  C   UNL     1      -3.485   7.797 -28.659  1.00  0.00     0.261 C 
HETATM   16  N   UNL     1      -3.052   6.736 -29.440  1.00  0.00    -0.246 N 
HETATM   17  H   UNL     1      -2.405   6.063 -29.032  1.00  0.00     0.192 HD
HETATM   18  O   UNL     1      -4.233   8.698 -29.033  1.00  0.00    -0.269 OA
BRANCH  16  19
HETATM   19  N   UNL     1      -3.458   6.623 -30.734  1.00  0.00    -0.182 NA
HETATM   20  C   UNL     1      -2.947   5.634 -31.394  1.00  0.00     0.168 C 
BRANCH  20  21
HETATM   21  C   UNL     1      -3.320   5.442 -32.769  1.00  0.00     0.051 A 
HETATM   22  N   UNL     1      -4.588   5.077 -33.164  1.00  0.00    -0.365 N 
HETATM   23  H   UNL     1      -5.352   4.915 -32.518  1.00  0.00     0.165 HD
HETATM   24  C   UNL     1      -4.642   4.979 -34.529  1.00  0.00     0.088 A 
HETATM   25  C   UNL     1      -3.391   5.270 -35.024  1.00  0.00     0.019 A 
HETATM   26  C   UNL     1      -2.557   5.563 -33.916  1.00  0.00     0.032 A 
ENDBRANCH  20  21
ENDBRANCH  16  19
ENDBRANCH  14  15
ENDBRANCH   1  14
TORSDOF 6
ENDMDL
