MODEL 1
REMARK VINA RESULT:      -9.4      0.000      0.000
REMARK  8 active torsions:
REMARK  status: ('A' for Active; 'I' for Inactive)
REMARK    1  A    between atoms: C_5  and  C_6 
REMARK       I    between atoms: C_6  and  N_7 
REMARK    2  A    between atoms: N_7  and  N_8 
REMARK       I    between atoms: N_8  and  C_9 
REMARK    3  A    between atoms: C_9  and  C_10 
REMARK    4  A    between atoms: C_10  and  S_11 
REMARK    5  A    between atoms: S_11  and  C_12 
REMARK    6  A    between atoms: N_13  and  C_14 
REMARK    7  A    between atoms: C_21  and  C_22 
REMARK    8  A    between atoms: C_22  and  N_23 
ROOT
HETATM    1  C   UNL     1      -3.956   3.958 -33.119  1.00  0.00     0.196 A 
HETATM    2  N   UNL     1      -4.983   3.238 -32.537  1.00  0.00    -0.274 N 
HETATM    3  C   UNL     1      -4.337   2.126 -32.007  1.00  0.00     0.166 A 
HETATM    4  N   UNL     1      -3.030   2.264 -32.128  1.00  0.00    -0.131 NA
HETATM    5  N   UNL     1      -2.795   3.406 -32.842  1.00  0.00    -0.122 NA
ENDROOT
BRANCH   1   6
HETATM    6  S   UNL     1      -4.161   5.373 -34.090  1.00  0.00    -0.080 SA
BRANCH   6   7
HETATM    7  C   UNL     1      -2.443   5.772 -34.513  1.00  0.00     0.187 C 
BRANCH   7   8
HETATM    8  C   UNL     1      -1.701   6.612 -33.474  1.00  0.00     0.245 C 
HETATM    9  N   UNL     1      -1.273   5.843 -32.399  1.00  0.00    -0.267 N 
HETATM   10  H   UNL     1      -1.819   5.023 -32.126  1.00  0.00     0.190 HD
HETATM   11  O   UNL     1      -1.458   7.817 -33.559  1.00  0.00    -0.271 OA
BRANCH   9  12
HETATM   12  N   UNL     1      -0.651   6.503 -31.330  1.00  0.00    -0.263 N 
HETATM   13  C   UNL     1      -0.189   5.734 -30.277  1.00  0.00     0.270 C 
HETATM   14  O   UNL     1      -0.211   4.509 -30.288  1.00  0.00    -0.266 OA
HETATM   15  H   UNL     1      -0.915   7.471 -31.186  1.00  0.00     0.190 HD
BRANCH  13  16
HETATM   16  C   UNL     1       0.310   6.498 -29.101  1.00  0.00     0.033 A 
HETATM   17  C   UNL     1       0.193   5.994 -27.798  1.00  0.00     0.017 A 
HETATM   18  C   UNL     1       0.664   6.739 -26.715  1.00  0.00     0.007 A 
HETATM   19  C   UNL     1       1.260   7.989 -26.921  1.00  0.00    -0.062 A 
HETATM   20  C   UNL     1       1.711   8.815 -25.750  1.00  0.00     0.048 C 
HETATM   21  C   UNL     1       1.350   8.499 -28.222  1.00  0.00     0.007 A 
HETATM   22  C   UNL     1       0.878   7.758 -29.309  1.00  0.00     0.017 A 
ENDBRANCH  13  16
ENDBRANCH   9  12
ENDBRANCH   7   8
ENDBRANCH   6   7
ENDBRANCH   1   6
BRANCH   2  23
HETATM   23  C   UNL     1      -6.382   3.479 -32.538  1.00  0.00     0.043 A 
HETATM   24  C   UNL     1      -7.141   3.300 -33.703  1.00  0.00     0.033 A 
HETATM   25  C   UNL     1      -8.516   3.549 -33.686  1.00  0.00     0.044 A 
HETATM   26  C   UNL     1      -9.123   3.970 -32.511  1.00  0.00     0.116 A 
HETATM   27  F   UNL     1     -10.440   4.208 -32.497  1.00  0.00    -0.206 F 
HETATM   28  C   UNL     1      -8.384   4.147 -31.348  1.00  0.00     0.044 A 
HETATM   29  C   UNL     1      -7.009   3.901 -31.355  1.00  0.00     0.033 A 
ENDBRANCH   2  23
BRANCH   3  30
HETATM   30  C   UNL     1      -5.004   0.840 -31.614  1.00  0.00     0.255 C 
HETATM   31  C   UNL     1      -3.996  -0.028 -30.851  1.00  0.00     0.049 C 
BRANCH  30  32
HETATM   32  N   UNL     1      -5.512   0.056 -32.858  1.00  0.00    -0.060 N 
HETATM   33  H   UNL     1      -5.354   0.696 -33.652  1.00  0.00     0.280 HD
HETATM   34  C   UNL     1      -4.764  -1.235 -33.096  1.00  0.00     0.236 C 
HETATM   35  C   UNL     1      -5.248  -1.907 -34.374  1.00  0.00     0.028 C 
HETATM   36  C   UNL     1      -6.750  -2.145 -34.358  1.00  0.00     0.003 C 
HETATM   37  C   UNL     1      -7.491  -0.845 -34.089  1.00  0.00     0.028 C 
HETATM   38  C   UNL     1      -7.016  -0.181 -32.804  1.00  0.00     0.236 C 
ENDBRANCH  30  32
ENDBRANCH   3  30
TORSDOF 8
ENDMDL
MODEL 2
REMARK VINA RESULT:      -9.1      2.139      3.635
REMARK  8 active torsions:
REMARK  status: ('A' for Active; 'I' for Inactive)
REMARK    1  A    between atoms: C_5  and  C_6 
REMARK       I    between atoms: C_6  and  N_7 
REMARK    2  A    between atoms: N_7  and  N_8 
REMARK       I    between atoms: N_8  and  C_9 
REMARK    3  A    between atoms: C_9  and  C_10 
REMARK    4  A    between atoms: C_10  and  S_11 
REMARK    5  A    between atoms: S_11  and  C_12 
REMARK    6  A    between atoms: N_13  and  C_14 
REMARK    7  A    between atoms: C_21  and  C_22 
REMARK    8  A    between atoms: C_22  and  N_23 
ROOT
HETATM    1  C   UNL     1      -4.951   3.599 -32.130  1.00  0.00     0.196 A 
HETATM    2  N   UNL     1      -6.171   3.062 -32.498  1.00  0.00    -0.274 N 
HETATM    3  C   UNL     1      -7.090   3.982 -32.004  1.00  0.00     0.166 A 
HETATM    4  N   UNL     1      -6.459   5.040 -31.531  1.00  0.00    -0.131 NA
HETATM    5  N   UNL     1      -5.116   4.789 -31.596  1.00  0.00    -0.122 NA
ENDROOT
BRANCH   1   6
HETATM    6  S   UNL     1      -3.422   2.817 -32.324  1.00  0.00    -0.080 SA
BRANCH   6   7
HETATM    7  C   UNL     1      -2.494   4.064 -33.259  1.00  0.00     0.187 C 
BRANCH   7   8
HETATM    8  C   UNL     1      -1.785   5.114 -32.406  1.00  0.00     0.245 C 
HETATM    9  N   UNL     1      -1.901   4.841 -31.049  1.00  0.00    -0.267 N 
HETATM   10  H   UNL     1      -2.736   4.358 -30.709  1.00  0.00     0.190 HD
HETATM   11  O   UNL     1      -1.145   6.078 -32.831  1.00  0.00    -0.271 OA
BRANCH   9  12
HETATM   12  N   UNL     1      -1.368   5.773 -30.147  1.00  0.00    -0.263 N 
HETATM   13  C   UNL     1      -0.079   5.563 -29.688  1.00  0.00     0.270 C 
HETATM   14  O   UNL     1       0.639   4.663 -30.110  1.00  0.00    -0.266 OA
HETATM   15  H   UNL     1      -2.036   6.290 -29.589  1.00  0.00     0.190 HD
BRANCH  13  16
HETATM   16  C   UNL     1       0.372   6.486 -28.612  1.00  0.00     0.033 A 
HETATM   17  C   UNL     1       0.161   6.189 -27.258  1.00  0.00     0.017 A 
HETATM   18  C   UNL     1       0.590   7.080 -26.272  1.00  0.00     0.007 A 
HETATM   19  C   UNL     1       1.236   8.272 -26.625  1.00  0.00    -0.062 A 
HETATM   20  C   UNL     1       1.642   9.256 -25.567  1.00  0.00     0.048 C 
HETATM   21  C   UNL     1       1.420   8.574 -27.980  1.00  0.00     0.007 A 
HETATM   22  C   UNL     1       0.991   7.687 -28.971  1.00  0.00     0.017 A 
ENDBRANCH  13  16
ENDBRANCH   9  12
ENDBRANCH   7   8
ENDBRANCH   6   7
ENDBRANCH   1   6
BRANCH   2  23
HETATM   23  C   UNL     1      -6.471   1.830 -33.135  1.00  0.00     0.043 A 
HETATM   24  C   UNL     1      -6.713   1.774 -34.515  1.00  0.00     0.033 A 
HETATM   25  C   UNL     1      -7.013   0.552 -35.122  1.00  0.00     0.044 A 
HETATM   26  C   UNL     1      -7.067  -0.602 -34.354  1.00  0.00     0.116 A 
HETATM   27  F   UNL     1      -7.355  -1.772 -34.937  1.00  0.00    -0.206 F 
HETATM   28  C   UNL     1      -6.824  -0.563 -32.986  1.00  0.00     0.044 A 
HETATM   29  C   UNL     1      -6.524   0.654 -32.369  1.00  0.00     0.033 A 
ENDBRANCH   2  23
BRANCH   3  30
HETATM   30  C   UNL     1      -8.549   3.713 -31.774  1.00  0.00     0.255 C 
HETATM   31  C   UNL     1      -8.694   2.721 -30.614  1.00  0.00     0.049 C 
BRANCH  30  32
HETATM   32  N   UNL     1      -9.227   3.119 -33.042  1.00  0.00    -0.060 N 
HETATM   33  H   UNL     1      -8.445   2.901 -33.679  1.00  0.00     0.280 HD
HETATM   34  C   UNL     1     -10.013   1.858 -32.762  1.00  0.00     0.236 C 
HETATM   35  C   UNL     1     -10.576   1.280 -34.053  1.00  0.00     0.028 C 
HETATM   36  C   UNL     1     -11.424   2.291 -34.807  1.00  0.00     0.003 C 
HETATM   37  C   UNL     1     -10.634   3.566 -35.057  1.00  0.00     0.028 C 
HETATM   38  C   UNL     1     -10.083   4.151 -33.765  1.00  0.00     0.236 C 
ENDBRANCH  30  32
ENDBRANCH   3  30
TORSDOF 8
ENDMDL
MODEL 3
REMARK VINA RESULT:      -9.1      3.092      9.483
REMARK  8 active torsions:
REMARK  status: ('A' for Active; 'I' for Inactive)
REMARK    1  A    between atoms: C_5  and  C_6 
REMARK       I    between atoms: C_6  and  N_7 
REMARK    2  A    between atoms: N_7  and  N_8 
REMARK       I    between atoms: N_8  and  C_9 
REMARK    3  A    between atoms: C_9  and  C_10 
REMARK    4  A    between atoms: C_10  and  S_11 
REMARK    5  A    between atoms: S_11  and  C_12 
REMARK    6  A    between atoms: N_13  and  C_14 
REMARK    7  A    between atoms: C_21  and  C_22 
REMARK    8  A    between atoms: C_22  and  N_23 
ROOT
HETATM    1  C   UNL     1      -3.201   5.282 -31.586  1.00  0.00     0.196 A 
HETATM    2  N   UNL     1      -2.308   6.253 -31.172  1.00  0.00    -0.274 N 
HETATM    3  C   UNL     1      -1.067   5.651 -31.357  1.00  0.00     0.166 A 
HETATM    4  N   UNL     1      -1.217   4.493 -31.974  1.00  0.00    -0.131 NA
HETATM    5  N   UNL     1      -2.557   4.257 -32.100  1.00  0.00    -0.122 NA
ENDROOT
BRANCH   1   6
HETATM    6  S   UNL     1      -4.920   5.383 -31.436  1.00  0.00    -0.080 SA
BRANCH   6   7
HETATM    7  C   UNL     1      -5.229   4.250 -30.054  1.00  0.00     0.187 C 
BRANCH   7   8
HETATM    8  C   UNL     1      -5.530   2.808 -30.458  1.00  0.00     0.245 C 
HETATM    9  N   UNL     1      -5.493   2.639 -31.837  1.00  0.00    -0.267 N 
HETATM   10  H   UNL     1      -5.750   3.423 -32.440  1.00  0.00     0.190 HD
HETATM   11  O   UNL     1      -5.748   1.871 -29.686  1.00  0.00    -0.271 OA
BRANCH   9  12
HETATM   12  N   UNL     1      -5.836   1.381 -32.351  1.00  0.00    -0.263 N 
HETATM   13  C   UNL     1      -4.808   0.548 -32.757  1.00  0.00     0.270 C 
HETATM   14  O   UNL     1      -3.625   0.823 -32.595  1.00  0.00    -0.266 OA
HETATM   15  H   UNL     1      -6.759   1.299 -32.760  1.00  0.00     0.190 HD
BRANCH  13  16
HETATM   16  C   UNL     1      -5.235  -0.701 -33.444  1.00  0.00     0.033 A 
HETATM   17  C   UNL     1      -6.564  -0.898 -33.845  1.00  0.00     0.017 A 
HETATM   18  C   UNL     1      -6.935  -2.085 -34.481  1.00  0.00     0.007 A 
HETATM   19  C   UNL     1      -5.984  -3.083 -34.727  1.00  0.00    -0.062 A 
HETATM   20  C   UNL     1      -6.397  -4.382 -35.357  1.00  0.00     0.048 C 
HETATM   21  C   UNL     1      -4.664  -2.892 -34.302  1.00  0.00     0.007 A 
HETATM   22  C   UNL     1      -4.289  -1.707 -33.663  1.00  0.00     0.017 A 
ENDBRANCH  13  16
ENDBRANCH   9  12
ENDBRANCH   7   8
ENDBRANCH   6   7
ENDBRANCH   1   6
BRANCH   2  23
HETATM   23  C   UNL     1      -2.548   7.528 -30.598  1.00  0.00     0.043 A 
HETATM   24  C   UNL     1      -2.263   8.703 -31.309  1.00  0.00     0.033 A 
HETATM   25  C   UNL     1      -2.500   9.949 -30.724  1.00  0.00     0.044 A 
HETATM   26  C   UNL     1      -3.020  10.016 -29.439  1.00  0.00     0.116 A 
HETATM   27  F   UNL     1      -3.247  11.211 -28.880  1.00  0.00    -0.206 F 
HETATM   28  C   UNL     1      -3.313   8.861 -28.724  1.00  0.00     0.044 A 
HETATM   29  C   UNL     1      -3.078   7.610 -29.300  1.00  0.00     0.033 A 
ENDBRANCH   2  23
BRANCH   3  30
HETATM   30  C   UNL     1       0.216   6.091 -30.716  1.00  0.00     0.255 C 
HETATM   31  C   UNL     1       1.162   4.888 -30.624  1.00  0.00     0.049 C 
BRANCH  30  32
HETATM   32  N   UNL     1      -0.024   6.661 -29.289  1.00  0.00    -0.060 N 
HETATM   33  H   UNL     1      -1.026   6.910 -29.272  1.00  0.00     0.280 HD
HETATM   34  C   UNL     1       0.264   5.661 -28.191  1.00  0.00     0.236 C 
HETATM   35  C   UNL     1      -0.075   6.250 -26.829  1.00  0.00     0.028 C 
HETATM   36  C   UNL     1       0.657   7.559 -26.577  1.00  0.00     0.003 C 
HETATM   37  C   UNL     1       0.384   8.545 -27.700  1.00  0.00     0.028 C 
HETATM   38  C   UNL     1       0.735   7.962 -29.061  1.00  0.00     0.236 C 
ENDBRANCH  30  32
ENDBRANCH   3  30
TORSDOF 8
ENDMDL
MODEL 4
REMARK VINA RESULT:      -8.9      3.045      9.784
REMARK  8 active torsions:
REMARK  status: ('A' for Active; 'I' for Inactive)
REMARK    1  A    between atoms: C_5  and  C_6 
REMARK       I    between atoms: C_6  and  N_7 
REMARK    2  A    between atoms: N_7  and  N_8 
REMARK       I    between atoms: N_8  and  C_9 
REMARK    3  A    between atoms: C_9  and  C_10 
REMARK    4  A    between atoms: C_10  and  S_11 
REMARK    5  A    between atoms: S_11  and  C_12 
REMARK    6  A    between atoms: N_13  and  C_14 
REMARK    7  A    between atoms: C_21  and  C_22 
REMARK    8  A    between atoms: C_22  and  N_23 
ROOT
HETATM    1  C   UNL     1      -4.193   6.775 -29.811  1.00  0.00     0.196 A 
HETATM    2  N   UNL     1      -2.905   6.614 -30.288  1.00  0.00    -0.274 N 
HETATM    3  C   UNL     1      -2.111   6.975 -29.205  1.00  0.00     0.166 A 
HETATM    4  N   UNL     1      -2.865   7.174 -28.140  1.00  0.00    -0.131 NA
HETATM    5  N   UNL     1      -4.172   7.065 -28.528  1.00  0.00    -0.122 NA
ENDROOT
BRANCH   1   6
HETATM    6  S   UNL     1      -5.630   6.635 -30.760  1.00  0.00    -0.080 SA
BRANCH   6   7
HETATM    7  C   UNL     1      -6.440   5.212 -29.981  1.00  0.00     0.187 C 
BRANCH   7   8
HETATM    8  C   UNL     1      -5.982   3.848 -30.493  1.00  0.00     0.245 C 
HETATM    9  N   UNL     1      -6.888   3.303 -31.394  1.00  0.00    -0.267 N 
HETATM   10  H   UNL     1      -7.881   3.526 -31.297  1.00  0.00     0.190 HD
HETATM   11  O   UNL     1      -4.927   3.282 -30.197  1.00  0.00    -0.271 OA
BRANCH   9  12
HETATM   12  N   UNL     1      -6.633   2.013 -31.879  1.00  0.00    -0.263 N 
HETATM   13  C   UNL     1      -6.226   1.886 -33.196  1.00  0.00     0.270 C 
HETATM   14  O   UNL     1      -5.987   2.850 -33.914  1.00  0.00    -0.266 OA
HETATM   15  H   UNL     1      -7.118   1.255 -31.414  1.00  0.00     0.190 HD
BRANCH  13  16
HETATM   16  C   UNL     1      -6.131   0.490 -33.701  1.00  0.00     0.033 A 
HETATM   17  C   UNL     1      -7.085  -0.034 -34.584  1.00  0.00     0.017 A 
HETATM   18  C   UNL     1      -6.972  -1.351 -35.035  1.00  0.00     0.007 A 
HETATM   19  C   UNL     1      -5.906  -2.155 -34.613  1.00  0.00    -0.062 A 
HETATM   20  C   UNL     1      -5.819  -3.589 -35.052  1.00  0.00     0.048 C 
HETATM   21  C   UNL     1      -4.970  -1.634 -33.711  1.00  0.00     0.007 A 
HETATM   22  C   UNL     1      -5.080  -0.317 -33.255  1.00  0.00     0.017 A 
ENDBRANCH  13  16
ENDBRANCH   9  12
ENDBRANCH   7   8
ENDBRANCH   6   7
ENDBRANCH   1   6
BRANCH   2  23
HETATM   23  C   UNL     1      -2.450   6.265 -31.587  1.00  0.00     0.043 A 
HETATM   24  C   UNL     1      -2.294   4.922 -31.958  1.00  0.00     0.033 A 
HETATM   25  C   UNL     1      -1.838   4.599 -33.238  1.00  0.00     0.044 A 
HETATM   26  C   UNL     1      -1.546   5.614 -34.140  1.00  0.00     0.116 A 
HETATM   27  F   UNL     1      -1.111   5.303 -35.366  1.00  0.00    -0.206 F 
HETATM   28  C   UNL     1      -1.702   6.949 -33.789  1.00  0.00     0.044 A 
HETATM   29  C   UNL     1      -2.156   7.282 -32.510  1.00  0.00     0.033 A 
ENDBRANCH   2  23
BRANCH   3  30
HETATM   30  C   UNL     1      -0.662   7.359 -29.280  1.00  0.00     0.255 C 
HETATM   31  C   UNL     1       0.188   6.083 -29.322  1.00  0.00     0.049 C 
BRANCH  30  32
HETATM   32  N   UNL     1      -0.234   8.217 -28.055  1.00  0.00    -0.060 N 
HETATM   33  H   UNL     1      -0.678   7.757 -27.245  1.00  0.00     0.280 HD
HETATM   34  C   UNL     1       1.263   8.259 -27.850  1.00  0.00     0.236 C 
HETATM   35  C   UNL     1       1.610   9.038 -26.589  1.00  0.00     0.028 C 
HETATM   36  C   UNL     1       1.025  10.441 -26.608  1.00  0.00     0.003 C 
HETATM   37  C   UNL     1      -0.475  10.389 -26.844  1.00  0.00     0.028 C 
HETATM   38  C   UNL     1      -0.821   9.622 -28.112  1.00  0.00     0.236 C 
ENDBRANCH  30  32
ENDBRANCH   3  30
TORSDOF 8
ENDMDL
MODEL 5
REMARK VINA RESULT:      -8.9      2.000      2.415
REMARK  8 active torsions:
REMARK  status: ('A' for Active; 'I' for Inactive)
REMARK    1  A    between atoms: C_5  and  C_6 
REMARK       I    between atoms: C_6  and  N_7 
REMARK    2  A    between atoms: N_7  and  N_8 
REMARK       I    between atoms: N_8  and  C_9 
REMARK    3  A    between atoms: C_9  and  C_10 
REMARK    4  A    between atoms: C_10  and  S_11 
REMARK    5  A    between atoms: S_11  and  C_12 
REMARK    6  A    between atoms: N_13  and  C_14 
REMARK    7  A    between atoms: C_21  and  C_22 
REMARK    8  A    between atoms: C_22  and  N_23 
ROOT
HETATM    1  C   UNL     1      -4.898   3.471 -33.171  1.00  0.00     0.196 A 
HETATM    2  N   UNL     1      -5.635   2.402 -32.695  1.00  0.00    -0.274 N 
HETATM    3  C   UNL     1      -4.672   1.563 -32.145  1.00  0.00     0.166 A 
HETATM    4  N   UNL     1      -3.495   2.162 -32.155  1.00  0.00    -0.131 NA
HETATM    5  N   UNL     1      -3.637   3.351 -32.816  1.00  0.00    -0.122 NA
ENDROOT
BRANCH   1   6
HETATM    6  S   UNL     1      -5.530   4.773 -34.115  1.00  0.00    -0.080 SA
BRANCH   6   7
HETATM    7  C   UNL     1      -6.288   5.811 -32.836  1.00  0.00     0.187 C 
BRANCH   7   8
HETATM    8  C   UNL     1      -5.413   6.067 -31.610  1.00  0.00     0.245 C 
HETATM    9  N   UNL     1      -4.217   6.687 -31.950  1.00  0.00    -0.267 N 
HETATM   10  H   UNL     1      -3.804   6.503 -32.866  1.00  0.00     0.190 HD
HETATM   11  O   UNL     1      -5.710   5.803 -30.443  1.00  0.00    -0.271 OA
BRANCH   9  12
HETATM   12  N   UNL     1      -3.280   6.904 -30.929  1.00  0.00    -0.263 N 
HETATM   13  C   UNL     1      -2.445   8.001 -31.041  1.00  0.00     0.270 C 
HETATM   14  O   UNL     1      -2.558   8.835 -31.933  1.00  0.00    -0.266 OA
HETATM   15  H   UNL     1      -2.991   6.087 -30.405  1.00  0.00     0.190 HD
BRANCH  13  16
HETATM   16  C   UNL     1      -1.367   8.087 -30.020  1.00  0.00     0.033 A 
HETATM   17  C   UNL     1      -0.221   7.283 -30.097  1.00  0.00     0.017 A 
HETATM   18  C   UNL     1       0.770   7.382 -29.118  1.00  0.00     0.007 A 
HETATM   19  C   UNL     1       0.631   8.286 -28.058  1.00  0.00    -0.062 A 
HETATM   20  C   UNL     1       1.670   8.348 -26.975  1.00  0.00     0.048 C 
HETATM   21  C   UNL     1      -0.527   9.068 -27.972  1.00  0.00     0.007 A 
HETATM   22  C   UNL     1      -1.523   8.971 -28.948  1.00  0.00     0.017 A 
ENDBRANCH  13  16
ENDBRANCH   9  12
ENDBRANCH   7   8
ENDBRANCH   6   7
ENDBRANCH   1   6
BRANCH   2  23
HETATM   23  C   UNL     1      -7.025   2.132 -32.803  1.00  0.00     0.043 A 
HETATM   24  C   UNL     1      -7.622   1.927 -34.055  1.00  0.00     0.033 A 
HETATM   25  C   UNL     1      -8.992   1.669 -34.142  1.00  0.00     0.044 A 
HETATM   26  C   UNL     1      -9.755   1.614 -32.984  1.00  0.00     0.116 A 
HETATM   27  F   UNL     1     -11.068   1.366 -33.068  1.00  0.00    -0.206 F 
HETATM   28  C   UNL     1      -9.176   1.809 -31.735  1.00  0.00     0.044 A 
HETATM   29  C   UNL     1      -7.807   2.069 -31.639  1.00  0.00     0.033 A 
ENDBRANCH   2  23
BRANCH   3  30
HETATM   30  C   UNL     1      -4.859   0.105 -31.844  1.00  0.00     0.255 C 
HETATM   31  C   UNL     1      -3.593  -0.427 -31.163  1.00  0.00     0.049 C 
BRANCH  30  32
HETATM   32  N   UNL     1      -5.126  -0.716 -33.138  1.00  0.00    -0.060 N 
HETATM   33  H   UNL     1      -4.993  -0.042 -33.908  1.00  0.00     0.280 HD
HETATM   34  C   UNL     1      -4.173  -1.876 -33.315  1.00  0.00     0.236 C 
HETATM   35  C   UNL     1      -4.430  -2.582 -34.639  1.00  0.00     0.028 C 
HETATM   36  C   UNL     1      -5.873  -3.041 -34.769  1.00  0.00     0.003 C 
HETATM   37  C   UNL     1      -6.823  -1.873 -34.560  1.00  0.00     0.028 C 
HETATM   38  C   UNL     1      -6.576  -1.176 -33.230  1.00  0.00     0.236 C 
ENDBRANCH  30  32
ENDBRANCH   3  30
TORSDOF 8
ENDMDL
MODEL 6
REMARK VINA RESULT:      -8.8      3.442      8.578
REMARK  8 active torsions:
REMARK  status: ('A' for Active; 'I' for Inactive)
REMARK    1  A    between atoms: C_5  and  C_6 
REMARK       I    between atoms: C_6  and  N_7 
REMARK    2  A    between atoms: N_7  and  N_8 
REMARK       I    between atoms: N_8  and  C_9 
REMARK    3  A    between atoms: C_9  and  C_10 
REMARK    4  A    between atoms: C_10  and  S_11 
REMARK    5  A    between atoms: S_11  and  C_12 
REMARK    6  A    between atoms: N_13  and  C_14 
REMARK    7  A    between atoms: C_21  and  C_22 
REMARK    8  A    between atoms: C_22  and  N_23 
ROOT
HETATM    1  C   UNL     1      -6.975   5.241 -32.998  1.00  0.00     0.196 A 
HETATM    2  N   UNL     1      -5.701   5.446 -32.501  1.00  0.00    -0.274 N 
HETATM    3  C   UNL     1      -4.883   4.840 -33.450  1.00  0.00     0.166 A 
HETATM    4  N   UNL     1      -5.604   4.456 -34.487  1.00  0.00    -0.131 NA
HETATM    5  N   UNL     1      -6.918   4.694 -34.192  1.00  0.00    -0.122 NA
ENDROOT
BRANCH   1   6
HETATM    6  S   UNL     1      -8.440   5.628 -32.167  1.00  0.00    -0.080 SA
BRANCH   6   7
HETATM    7  C   UNL     1      -9.146   3.979 -31.893  1.00  0.00     0.187 C 
BRANCH   7   8
HETATM    8  C   UNL     1      -8.122   2.852 -31.769  1.00  0.00     0.245 C 
HETATM    9  N   UNL     1      -8.050   2.091 -32.929  1.00  0.00    -0.267 N 
HETATM   10  H   UNL     1      -8.885   1.987 -33.508  1.00  0.00     0.190 HD
HETATM   11  O   UNL     1      -7.403   2.633 -30.792  1.00  0.00    -0.271 OA
BRANCH   9  12
HETATM   12  N   UNL     1      -7.210   0.968 -32.922  1.00  0.00    -0.263 N 
HETATM   13  C   UNL     1      -6.691   0.543 -34.133  1.00  0.00     0.270 C 
HETATM   14  O   UNL     1      -6.854   1.159 -35.179  1.00  0.00    -0.266 OA
HETATM   15  H   UNL     1      -7.339   0.316 -32.158  1.00  0.00     0.190 HD
BRANCH  13  16
HETATM   16  C   UNL     1      -5.945  -0.743 -34.089  1.00  0.00     0.033 A 
HETATM   17  C   UNL     1      -6.403  -1.878 -34.773  1.00  0.00     0.017 A 
HETATM   18  C   UNL     1      -5.684  -3.073 -34.705  1.00  0.00     0.007 A 
HETATM   19  C   UNL     1      -4.501  -3.148 -33.960  1.00  0.00    -0.062 A 
HETATM   20  C   UNL     1      -3.761  -4.449 -33.840  1.00  0.00     0.048 C 
HETATM   21  C   UNL     1      -4.062  -2.018 -33.258  1.00  0.00     0.007 A 
HETATM   22  C   UNL     1      -4.779  -0.820 -33.320  1.00  0.00     0.017 A 
ENDBRANCH  13  16
ENDBRANCH   9  12
ENDBRANCH   7   8
ENDBRANCH   6   7
ENDBRANCH   1   6
BRANCH   2  23
HETATM   23  C   UNL     1      -5.282   6.035 -31.280  1.00  0.00     0.043 A 
HETATM   24  C   UNL     1      -5.305   5.305 -30.083  1.00  0.00     0.033 A 
HETATM   25  C   UNL     1      -4.895   5.905 -28.891  1.00  0.00     0.044 A 
HETATM   26  C   UNL     1      -4.462   7.224 -28.898  1.00  0.00     0.116 A 
HETATM   27  F   UNL     1      -4.069   7.797 -27.755  1.00  0.00    -0.206 F 
HETATM   28  C   UNL     1      -4.428   7.959 -30.078  1.00  0.00     0.044 A 
HETATM   29  C   UNL     1      -4.837   7.367 -31.275  1.00  0.00     0.033 A 
ENDBRANCH   2  23
BRANCH   3  30
HETATM   30  C   UNL     1      -3.458   4.423 -33.228  1.00  0.00     0.255 C 
HETATM   31  C   UNL     1      -3.443   3.128 -32.408  1.00  0.00     0.049 C 
BRANCH  30  32
HETATM   32  N   UNL     1      -2.654   5.517 -32.469  1.00  0.00    -0.060 N 
HETATM   33  H   UNL     1      -3.373   6.122 -32.042  1.00  0.00     0.280 HD
HETATM   34  C   UNL     1      -1.761   4.957 -31.385  1.00  0.00     0.236 C 
HETATM   35  C   UNL     1      -1.072   6.081 -30.625  1.00  0.00     0.028 C 
HETATM   36  C   UNL     1      -0.291   7.000 -31.551  1.00  0.00     0.003 C 
HETATM   37  C   UNL     1      -1.191   7.534 -32.653  1.00  0.00     0.028 C 
HETATM   38  C   UNL     1      -1.869   6.409 -33.422  1.00  0.00     0.236 C 
ENDBRANCH  30  32
ENDBRANCH   3  30
TORSDOF 8
ENDMDL
MODEL 7
REMARK VINA RESULT:      -8.4      3.524      9.943
REMARK  8 active torsions:
REMARK  status: ('A' for Active; 'I' for Inactive)
REMARK    1  A    between atoms: C_5  and  C_6 
REMARK       I    between atoms: C_6  and  N_7 
REMARK    2  A    between atoms: N_7  and  N_8 
REMARK       I    between atoms: N_8  and  C_9 
REMARK    3  A    between atoms: C_9  and  C_10 
REMARK    4  A    between atoms: C_10  and  S_11 
REMARK    5  A    between atoms: S_11  and  C_12 
REMARK    6  A    between atoms: N_13  and  C_14 
REMARK    7  A    between atoms: C_21  and  C_22 
REMARK    8  A    between atoms: C_22  and  N_23 
ROOT
HETATM    1  C   UNL     1      -5.014   6.465 -29.222  1.00  0.00     0.196 A 
HETATM    2  N   UNL     1      -3.758   7.037 -29.319  1.00  0.00    -0.274 N 
HETATM    3  C   UNL     1      -3.592   7.665 -28.089  1.00  0.00     0.166 A 
HETATM    4  N   UNL     1      -4.593   7.353 -27.286  1.00  0.00    -0.131 NA
HETATM    5  N   UNL     1      -5.491   6.615 -28.006  1.00  0.00    -0.122 NA
ENDROOT
BRANCH   1   6
HETATM    6  S   UNL     1      -5.852   5.680 -30.513  1.00  0.00    -0.080 SA
BRANCH   6   7
HETATM    7  C   UNL     1      -4.795   4.235 -30.803  1.00  0.00     0.187 C 
BRANCH   7   8
HETATM    8  C   UNL     1      -5.509   3.023 -31.400  1.00  0.00     0.245 C 
HETATM    9  N   UNL     1      -4.610   2.083 -31.889  1.00  0.00    -0.267 N 
HETATM   10  H   UNL     1      -3.709   2.400 -32.253  1.00  0.00     0.190 HD
HETATM   11  O   UNL     1      -6.729   2.846 -31.430  1.00  0.00    -0.271 OA
BRANCH   9  12
HETATM   12  N   UNL     1      -5.131   0.958 -32.542  1.00  0.00    -0.263 N 
HETATM   13  C   UNL     1      -4.509  -0.259 -32.328  1.00  0.00     0.270 C 
HETATM   14  O   UNL     1      -3.596  -0.407 -31.524  1.00  0.00    -0.266 OA
HETATM   15  H   UNL     1      -5.641   1.133 -33.400  1.00  0.00     0.190 HD
BRANCH  13  16
HETATM   16  C   UNL     1      -5.000  -1.382 -33.172  1.00  0.00     0.033 A 
HETATM   17  C   UNL     1      -4.168  -2.456 -33.516  1.00  0.00     0.017 A 
HETATM   18  C   UNL     1      -4.656  -3.492 -34.316  1.00  0.00     0.007 A 
HETATM   19  C   UNL     1      -5.978  -3.468 -34.776  1.00  0.00    -0.062 A 
HETATM   20  C   UNL     1      -6.484  -4.551 -35.685  1.00  0.00     0.048 C 
HETATM   21  C   UNL     1      -6.797  -2.379 -34.451  1.00  0.00     0.007 A 
HETATM   22  C   UNL     1      -6.312  -1.340 -33.652  1.00  0.00     0.017 A 
ENDBRANCH  13  16
ENDBRANCH   9  12
ENDBRANCH   7   8
ENDBRANCH   6   7
ENDBRANCH   1   6
BRANCH   2  23
HETATM   23  C   UNL     1      -2.861   7.085 -30.418  1.00  0.00     0.043 A 
HETATM   24  C   UNL     1      -3.090   7.951 -31.497  1.00  0.00     0.033 A 
HETATM   25  C   UNL     1      -2.198   7.979 -32.572  1.00  0.00     0.044 A 
HETATM   26  C   UNL     1      -1.086   7.149 -32.564  1.00  0.00     0.116 A 
HETATM   27  F   UNL     1      -0.233   7.177 -33.594  1.00  0.00    -0.206 F 
HETATM   28  C   UNL     1      -0.843   6.289 -31.499  1.00  0.00     0.044 A 
HETATM   29  C   UNL     1      -1.730   6.253 -30.420  1.00  0.00     0.033 A 
ENDBRANCH   2  23
BRANCH   3  30
HETATM   30  C   UNL     1      -2.598   8.750 -27.796  1.00  0.00     0.255 C 
HETATM   31  C   UNL     1      -2.754   9.861 -28.841  1.00  0.00     0.049 C 
BRANCH  30  32
HETATM   32  N   UNL     1      -1.138   8.214 -27.836  1.00  0.00    -0.060 N 
HETATM   33  H   UNL     1      -1.011   7.875 -28.802  1.00  0.00     0.280 HD
HETATM   34  C   UNL     1      -0.105   9.275 -27.534  1.00  0.00     0.236 C 
HETATM   35  C   UNL     1       1.301   8.709 -27.676  1.00  0.00     0.028 C 
HETATM   36  C   UNL     1       1.512   7.483 -26.802  1.00  0.00     0.003 C 
HETATM   37  C   UNL     1       0.450   6.435 -27.092  1.00  0.00     0.028 C 
HETATM   38  C   UNL     1      -0.955   6.997 -26.937  1.00  0.00     0.236 C 
ENDBRANCH  30  32
ENDBRANCH   3  30
TORSDOF 8
ENDMDL
MODEL 8
REMARK VINA RESULT:      -8.4      2.974      5.487
REMARK  8 active torsions:
REMARK  status: ('A' for Active; 'I' for Inactive)
REMARK    1  A    between atoms: C_5  and  C_6 
REMARK       I    between atoms: C_6  and  N_7 
REMARK    2  A    between atoms: N_7  and  N_8 
REMARK       I    between atoms: N_8  and  C_9 
REMARK    3  A    between atoms: C_9  and  C_10 
REMARK    4  A    between atoms: C_10  and  S_11 
REMARK    5  A    between atoms: S_11  and  C_12 
REMARK    6  A    between atoms: N_13  and  C_14 
REMARK    7  A    between atoms: C_21  and  C_22 
REMARK    8  A    between atoms: C_22  and  N_23 
ROOT
HETATM    1  C   UNL     1      -4.871   5.503 -32.548  1.00  0.00     0.196 A 
HETATM    2  N   UNL     1      -5.490   4.889 -31.474  1.00  0.00    -0.274 N 
HETATM    3  C   UNL     1      -5.708   5.937 -30.585  1.00  0.00     0.166 A 
HETATM    4  N   UNL     1      -5.392   7.085 -31.156  1.00  0.00    -0.131 NA
HETATM    5  N   UNL     1      -4.851   6.807 -32.381  1.00  0.00    -0.122 NA
ENDROOT
BRANCH   1   6
HETATM    6  S   UNL     1      -4.201   4.680 -33.912  1.00  0.00    -0.080 SA
BRANCH   6   7
HETATM    7  C   UNL     1      -2.590   4.159 -33.263  1.00  0.00     0.187 C 
BRANCH   7   8
HETATM    8  C   UNL     1      -1.863   5.208 -32.424  1.00  0.00     0.245 C 
HETATM    9  N   UNL     1      -1.917   4.912 -31.067  1.00  0.00    -0.267 N 
HETATM   10  H   UNL     1      -2.728   4.409 -30.701  1.00  0.00     0.190 HD
HETATM   11  O   UNL     1      -1.258   6.190 -32.860  1.00  0.00    -0.271 OA
BRANCH   9  12
HETATM   12  N   UNL     1      -1.362   5.839 -30.173  1.00  0.00    -0.263 N 
HETATM   13  C   UNL     1      -0.137   5.535 -29.606  1.00  0.00     0.270 C 
HETATM   14  O   UNL     1       0.518   4.550 -29.925  1.00  0.00    -0.266 OA
HETATM   15  H   UNL     1      -2.015   6.448 -29.696  1.00  0.00     0.190 HD
BRANCH  13  16
HETATM   16  C   UNL     1       0.322   6.471 -28.545  1.00  0.00     0.033 A 
HETATM   17  C   UNL     1       0.069   6.221 -27.189  1.00  0.00     0.017 A 
HETATM   18  C   UNL     1       0.507   7.123 -26.217  1.00  0.00     0.007 A 
HETATM   19  C   UNL     1       1.205   8.279 -26.587  1.00  0.00    -0.062 A 
HETATM   20  C   UNL     1       1.622   9.278 -25.545  1.00  0.00     0.048 C 
HETATM   21  C   UNL     1       1.432   8.537 -27.944  1.00  0.00     0.007 A 
HETATM   22  C   UNL     1       0.994   7.638 -28.921  1.00  0.00     0.017 A 
ENDBRANCH  13  16
ENDBRANCH   9  12
ENDBRANCH   7   8
ENDBRANCH   6   7
ENDBRANCH   1   6
BRANCH   2  23
HETATM   23  C   UNL     1      -5.766   3.517 -31.242  1.00  0.00     0.043 A 
HETATM   24  C   UNL     1      -4.783   2.663 -30.721  1.00  0.00     0.033 A 
HETATM   25  C   UNL     1      -5.072   1.313 -30.507  1.00  0.00     0.044 A 
HETATM   26  C   UNL     1      -6.336   0.825 -30.808  1.00  0.00     0.116 A 
HETATM   27  F   UNL     1      -6.612  -0.468 -30.602  1.00  0.00    -0.206 F 
HETATM   28  C   UNL     1      -7.323   1.660 -31.320  1.00  0.00     0.044 A 
HETATM   29  C   UNL     1      -7.042   3.011 -31.539  1.00  0.00     0.033 A 
ENDBRANCH   2  23
BRANCH   3  30
HETATM   30  C   UNL     1      -5.986   5.788 -29.118  1.00  0.00     0.255 C 
HETATM   31  C   UNL     1      -7.497   5.908 -28.885  1.00  0.00     0.049 C 
BRANCH  30  32
HETATM   32  N   UNL     1      -5.254   6.877 -28.284  1.00  0.00    -0.060 N 
HETATM   33  H   UNL     1      -4.512   7.231 -28.908  1.00  0.00     0.280 HD
HETATM   34  C   UNL     1      -6.154   8.021 -27.875  1.00  0.00     0.236 C 
HETATM   35  C   UNL     1      -5.359   9.091 -27.140  1.00  0.00     0.028 C 
HETATM   36  C   UNL     1      -4.619   8.527 -25.938  1.00  0.00     0.003 C 
HETATM   37  C   UNL     1      -3.740   7.359 -26.355  1.00  0.00     0.028 C 
HETATM   38  C   UNL     1      -4.537   6.283 -27.078  1.00  0.00     0.236 C 
ENDBRANCH  30  32
ENDBRANCH   3  30
TORSDOF 8
ENDMDL
MODEL 9
REMARK VINA RESULT:      -8.4      4.874      8.441
REMARK  8 active torsions:
REMARK  status: ('A' for Active; 'I' for Inactive)
REMARK    1  A    between atoms: C_5  and  C_6 
REMARK       I    between atoms: C_6  and  N_7 
REMARK    2  A    between atoms: N_7  and  N_8 
REMARK       I    between atoms: N_8  and  C_9 
REMARK    3  A    between atoms: C_9  and  C_10 
REMARK    4  A    between atoms: C_10  and  S_11 
REMARK    5  A    between atoms: S_11  and  C_12 
REMARK    6  A    between atoms: N_13  and  C_14 
REMARK    7  A    between atoms: C_21  and  C_22 
REMARK    8  A    between atoms: C_22  and  N_23 
ROOT
HETATM    1  C   UNL     1      -8.591   4.139 -32.893  1.00  0.00     0.196 A 
HETATM    2  N   UNL     1      -7.648   4.773 -32.106  1.00  0.00    -0.274 N 
HETATM    3  C   UNL     1      -6.438   4.353 -32.648  1.00  0.00     0.166 A 
HETATM    4  N   UNL     1      -6.655   3.663 -33.752  1.00  0.00    -0.131 NA
HETATM    5  N   UNL     1      -8.008   3.516 -33.894  1.00  0.00    -0.122 NA
ENDROOT
BRANCH   1   6
HETATM    6  S   UNL     1     -10.295   4.143 -32.602  1.00  0.00    -0.080 SA
BRANCH   6   7
HETATM    7  C   UNL     1     -10.725   2.416 -32.955  1.00  0.00     0.187 C 
BRANCH   7   8
HETATM    8  C   UNL     1      -9.631   1.400 -32.633  1.00  0.00     0.245 C 
HETATM    9  N   UNL     1      -9.136   0.794 -33.781  1.00  0.00    -0.267 N 
HETATM   10  H   UNL     1      -9.756   0.668 -34.584  1.00  0.00     0.190 HD
HETATM   11  O   UNL     1      -9.187   1.147 -31.511  1.00  0.00    -0.271 OA
BRANCH   9  12
HETATM   12  N   UNL     1      -8.184  -0.224 -33.624  1.00  0.00    -0.263 N 
HETATM   13  C   UNL     1      -7.215  -0.359 -34.603  1.00  0.00     0.270 C 
HETATM   14  O   UNL     1      -7.098   0.428 -35.535  1.00  0.00    -0.266 OA
HETATM   15  H   UNL     1      -8.466  -1.020 -33.064  1.00  0.00     0.190 HD
BRANCH  13  16
HETATM   16  C   UNL     1      -6.338  -1.553 -34.469  1.00  0.00     0.033 A 
HETATM   17  C   UNL     1      -6.774  -2.828 -34.856  1.00  0.00     0.017 A 
HETATM   18  C   UNL     1      -5.929  -3.930 -34.711  1.00  0.00     0.007 A 
HETATM   19  C   UNL     1      -4.641  -3.771 -34.185  1.00  0.00    -0.062 A 
HETATM   20  C   UNL     1      -3.756  -4.966 -33.974  1.00  0.00     0.048 C 
HETATM   21  C   UNL     1      -4.220  -2.500 -33.776  1.00  0.00     0.007 A 
HETATM   22  C   UNL     1      -5.063  -1.394 -33.917  1.00  0.00     0.017 A 
ENDBRANCH  13  16
ENDBRANCH   9  12
ENDBRANCH   7   8
ENDBRANCH   6   7
ENDBRANCH   1   6
BRANCH   2  23
HETATM   23  C   UNL     1      -7.818   5.584 -30.953  1.00  0.00     0.043 A 
HETATM   24  C   UNL     1      -8.028   5.008 -29.692  1.00  0.00     0.033 A 
HETATM   25  C   UNL     1      -8.200   5.824 -28.571  1.00  0.00     0.044 A 
HETATM   26  C   UNL     1      -8.159   7.204 -28.713  1.00  0.00     0.116 A 
HETATM   27  F   UNL     1      -8.324   7.984 -27.638  1.00  0.00    -0.206 F 
HETATM   28  C   UNL     1      -7.946   7.790 -29.955  1.00  0.00     0.044 A 
HETATM   29  C   UNL     1      -7.774   6.982 -31.082  1.00  0.00     0.033 A 
ENDBRANCH   2  23
BRANCH   3  30
HETATM   30  C   UNL     1      -5.108   4.416 -31.956  1.00  0.00     0.255 C 
HETATM   31  C   UNL     1      -4.023   4.723 -32.996  1.00  0.00     0.049 C 
BRANCH  30  32
HETATM   32  N   UNL     1      -4.768   3.074 -31.246  1.00  0.00    -0.060 N 
HETATM   33  H   UNL     1      -4.223   3.349 -30.414  1.00  0.00     0.280 HD
HETATM   34  C   UNL     1      -5.993   2.302 -30.812  1.00  0.00     0.236 C 
HETATM   35  C   UNL     1      -5.593   1.048 -30.049  1.00  0.00     0.028 C 
HETATM   36  C   UNL     1      -4.653   0.166 -30.855  1.00  0.00     0.003 C 
HETATM   37  C   UNL     1      -3.440   0.959 -31.311  1.00  0.00     0.028 C 
HETATM   38  C   UNL     1      -3.840   2.206 -32.086  1.00  0.00     0.236 C 
ENDBRANCH  30  32
ENDBRANCH   3  30
TORSDOF 8
ENDMDL
MODEL 10
REMARK VINA RESULT:      -8.3      3.877      9.292
REMARK  8 active torsions:
REMARK  status: ('A' for Active; 'I' for Inactive)
REMARK    1  A    between atoms: C_5  and  C_6 
REMARK       I    between atoms: C_6  and  N_7 
REMARK    2  A    between atoms: N_7  and  N_8 
REMARK       I    between atoms: N_8  and  C_9 
REMARK    3  A    between atoms: C_9  and  C_10 
REMARK    4  A    between atoms: C_10  and  S_11 
REMARK    5  A    between atoms: S_11  and  C_12 
REMARK    6  A    between atoms: N_13  and  C_14 
REMARK    7  A    between atoms: C_21  and  C_22 
REMARK    8  A    between atoms: C_22  and  N_23 
ROOT
HETATM    1  C   UNL     1      -7.206   5.538 -31.544  1.00  0.00     0.196 A 
HETATM    2  N   UNL     1      -5.856   5.480 -31.251  1.00  0.00    -0.274 N 
HETATM    3  C   UNL     1      -5.802   5.831 -29.906  1.00  0.00     0.166 A 
HETATM    4  N   UNL     1      -7.024   5.930 -29.417  1.00  0.00    -0.131 NA
HETATM    5  N   UNL     1      -7.902   5.762 -30.451  1.00  0.00    -0.122 NA
ENDROOT
BRANCH   1   6
HETATM    6  S   UNL     1      -7.889   5.361 -33.121  1.00  0.00    -0.080 SA
BRANCH   6   7
HETATM    7  C   UNL     1      -8.713   3.752 -32.980  1.00  0.00     0.187 C 
BRANCH   7   8
HETATM    8  C   UNL     1      -7.775   2.562 -32.785  1.00  0.00     0.245 C 
HETATM    9  N   UNL     1      -7.171   2.180 -33.977  1.00  0.00    -0.267 N 
HETATM   10  H   UNL     1      -7.674   2.320 -34.856  1.00  0.00     0.190 HD
HETATM   11  O   UNL     1      -7.528   2.004 -31.713  1.00  0.00    -0.271 OA
BRANCH   9  12
HETATM   12  N   UNL     1      -6.350   1.044 -33.958  1.00  0.00    -0.263 N 
HETATM   13  C   UNL     1      -6.819  -0.103 -34.574  1.00  0.00     0.270 C 
HETATM   14  O   UNL     1      -7.865  -0.135 -35.212  1.00  0.00    -0.266 OA
HETATM   15  H   UNL     1      -5.682   0.986 -33.198  1.00  0.00     0.190 HD
BRANCH  13  16
HETATM   16  C   UNL     1      -5.982  -1.317 -34.381  1.00  0.00     0.033 A 
HETATM   17  C   UNL     1      -6.353  -2.555 -34.923  1.00  0.00     0.017 A 
HETATM   18  C   UNL     1      -5.549  -3.679 -34.717  1.00  0.00     0.007 A 
HETATM   19  C   UNL     1      -4.367  -3.578 -33.973  1.00  0.00    -0.062 A 
HETATM   20  C   UNL     1      -3.536  -4.799 -33.702  1.00  0.00     0.048 C 
HETATM   21  C   UNL     1      -4.015  -2.344 -33.412  1.00  0.00     0.007 A 
HETATM   22  C   UNL     1      -4.817  -1.217 -33.614  1.00  0.00     0.017 A 
ENDBRANCH  13  16
ENDBRANCH   9  12
ENDBRANCH   7   8
ENDBRANCH   6   7
ENDBRANCH   1   6
BRANCH   2  23
HETATM   23  C   UNL     1      -4.747   5.226 -32.101  1.00  0.00     0.043 A 
HETATM   24  C   UNL     1      -4.089   3.989 -32.075  1.00  0.00     0.033 A 
HETATM   25  C   UNL     1      -2.996   3.761 -32.914  1.00  0.00     0.044 A 
HETATM   26  C   UNL     1      -2.569   4.765 -33.773  1.00  0.00     0.116 A 
HETATM   27  F   UNL     1      -1.522   4.545 -34.577  1.00  0.00    -0.206 F 
HETATM   28  C   UNL     1      -3.215   5.995 -33.814  1.00  0.00     0.044 A 
HETATM   29  C   UNL     1      -4.309   6.231 -32.978  1.00  0.00     0.033 A 
ENDBRANCH   2  23
BRANCH   3  30
HETATM   30  C   UNL     1      -4.576   6.306 -29.181  1.00  0.00     0.255 C 
HETATM   31  C   UNL     1      -4.912   6.469 -27.694  1.00  0.00     0.049 C 
BRANCH  30  32
HETATM   32  N   UNL     1      -4.071   7.666 -29.742  1.00  0.00    -0.060 N 
HETATM   33  H   UNL     1      -4.544   7.765 -30.653  1.00  0.00     0.280 HD
HETATM   34  C   UNL     1      -4.425   8.842 -28.861  1.00  0.00     0.236 C 
HETATM   35  C   UNL     1      -3.981  10.147 -29.507  1.00  0.00     0.028 C 
HETATM   36  C   UNL     1      -2.497  10.144 -29.837  1.00  0.00     0.003 C 
HETATM   37  C   UNL     1      -2.147   8.941 -30.698  1.00  0.00     0.028 C 
HETATM   38  C   UNL     1      -2.578   7.636 -30.046  1.00  0.00     0.236 C 
ENDBRANCH  30  32
ENDBRANCH   3  30
TORSDOF 8
ENDMDL
