MODEL 1
REMARK VINA RESULT:      -8.6      0.000      0.000
REMARK  6 active torsions:
REMARK  status: ('A' for Active; 'I' for Inactive)
REMARK    1  A    between atoms: C_3  and  N_4 
REMARK       I    between atoms: N_4  and  C_5 
REMARK    2  A    between atoms: C_5  and  C_6 
REMARK    3  A    between atoms: C_6  and  C_7 
REMARK    4  A    between atoms: C_7  and  N_8 
REMARK    5  A    between atoms: C_13  and  C_14 
REMARK    6  A    between atoms: C_17  and  O_18 
ROOT
HETATM    1  N   UNL     1      -5.983   1.844 -31.414  1.00  0.00    -0.305 N 
HETATM    2  C   UNL     1      -6.255   2.363 -30.170  1.00  0.00     0.196 A 
HETATM    3  S   UNL     1      -6.340   3.938 -29.666  1.00  0.00    -0.039 SA
HETATM    4  N   UNL     1      -6.494   1.284 -29.339  1.00  0.00    -0.251 N 
HETATM    5  N   UNL     1      -6.374   0.118 -30.026  1.00  0.00    -0.153 NA
HETATM    6  C   UNL     1      -6.056   0.483 -31.237  1.00  0.00     0.162 A 
HETATM    7  H   UNL     1      -6.733   1.308 -28.354  1.00  0.00     0.191 HD
ENDROOT
BRANCH   1   8
HETATM    8  C   UNL     1      -5.746   2.605 -32.651  1.00  0.00     0.142 C 
BRANCH   8   9
HETATM    9  C   UNL     1      -4.269   2.709 -33.008  1.00  0.00     0.123 C 
BRANCH   9  10
HETATM   10  C   UNL     1      -3.656   4.055 -32.686  1.00  0.00     0.223 C 
HETATM   11  N   UNL     1      -2.275   4.059 -32.678  1.00  0.00    -0.327 N 
HETATM   12  H   UNL     1      -1.827   3.439 -33.343  1.00  0.00     0.169 HD
HETATM   13  O   UNL     1      -4.378   5.018 -32.441  1.00  0.00    -0.273 OA
BRANCH  11  14
HETATM   14  C   UNL     1      -1.465   5.112 -32.191  1.00  0.00     0.042 A 
HETATM   15  C   UNL     1      -1.187   6.299 -32.899  1.00  0.00    -0.035 A 
HETATM   16  C   UNL     1      -1.777   6.644 -34.240  1.00  0.00     0.050 C 
HETATM   17  C   UNL     1      -0.341   7.261 -32.310  1.00  0.00     0.010 A 
HETATM   18  C   UNL     1       0.174   7.083 -31.028  1.00  0.00     0.020 A 
HETATM   19  C   UNL     1      -0.158   5.940 -30.314  1.00  0.00     0.013 A 
HETATM   20  C   UNL     1      -0.978   4.966 -30.882  1.00  0.00     0.049 A 
HETATM   21 BR   UNL     1       0.517   5.695 -28.566  1.00  0.00    -0.051 Br
ENDBRANCH  11  14
ENDBRANCH   9  10
ENDBRANCH   8   9
ENDBRANCH   1   8
BRANCH   6  22
HETATM   22  C   UNL     1      -5.844  -0.499 -32.314  1.00  0.00     0.012 A 
HETATM   23  C   UNL     1      -6.934  -0.831 -33.124  1.00  0.00     0.018 A 
HETATM   24  C   UNL     1      -6.782  -1.772 -34.143  1.00  0.00     0.037 A 
HETATM   25  C   UNL     1      -5.550  -2.394 -34.361  1.00  0.00     0.068 A 
HETATM   26  C   UNL     1      -4.471  -2.081 -33.533  1.00  0.00     0.037 A 
HETATM   27  C   UNL     1      -4.620  -1.145 -32.501  1.00  0.00     0.018 A 
BRANCH  25  28
HETATM   28  O   UNL     1      -5.540  -3.292 -35.391  1.00  0.00    -0.356 OA
HETATM   29  C   UNL     1      -6.394  -4.424 -35.272  1.00  0.00     0.210 C 
ENDBRANCH  25  28
ENDBRANCH   6  22
TORSDOF 6
ENDMDL
MODEL 2
REMARK VINA RESULT:      -8.5      3.450      8.028
REMARK  6 active torsions:
REMARK  status: ('A' for Active; 'I' for Inactive)
REMARK    1  A    between atoms: C_3  and  N_4 
REMARK       I    between atoms: N_4  and  C_5 
REMARK    2  A    between atoms: C_5  and  C_6 
REMARK    3  A    between atoms: C_6  and  C_7 
REMARK    4  A    between atoms: C_7  and  N_8 
REMARK    5  A    between atoms: C_13  and  C_14 
REMARK    6  A    between atoms: C_17  and  O_18 
ROOT
HETATM    1  N   UNL     1      -6.721   3.611 -32.510  1.00  0.00    -0.305 N 
HETATM    2  C   UNL     1      -8.060   3.339 -32.664  1.00  0.00     0.196 A 
HETATM    3  S   UNL     1      -9.042   2.303 -31.825  1.00  0.00    -0.039 SA
HETATM    4  N   UNL     1      -8.508   4.147 -33.692  1.00  0.00    -0.251 N 
HETATM    5  N   UNL     1      -7.491   4.905 -34.181  1.00  0.00    -0.153 NA
HETATM    6  C   UNL     1      -6.452   4.551 -33.475  1.00  0.00     0.162 A 
HETATM    7  H   UNL     1      -9.450   4.207 -34.061  1.00  0.00     0.191 HD
ENDROOT
BRANCH   1   8
HETATM    8  C   UNL     1      -5.824   3.058 -31.483  1.00  0.00     0.142 C 
BRANCH   8   9
HETATM    9  C   UNL     1      -4.738   2.163 -32.065  1.00  0.00     0.123 C 
BRANCH   9  10
HETATM   10  C   UNL     1      -5.153   0.714 -32.212  1.00  0.00     0.223 C 
HETATM   11  N   UNL     1      -4.796   0.143 -33.417  1.00  0.00    -0.327 N 
HETATM   12  H   UNL     1      -3.923   0.469 -33.819  1.00  0.00     0.169 HD
HETATM   13  O   UNL     1      -5.772   0.156 -31.309  1.00  0.00    -0.273 OA
BRANCH  11  14
HETATM   14  C   UNL     1      -5.254  -1.107 -33.896  1.00  0.00     0.042 A 
HETATM   15  C   UNL     1      -6.465  -1.301 -34.591  1.00  0.00    -0.035 A 
HETATM   16  C   UNL     1      -7.402  -0.192 -34.985  1.00  0.00     0.050 C 
HETATM   17  C   UNL     1      -6.818  -2.606 -34.992  1.00  0.00     0.010 A 
HETATM   18  C   UNL     1      -5.970  -3.686 -34.765  1.00  0.00     0.020 A 
HETATM   19  C   UNL     1      -4.750  -3.474 -34.138  1.00  0.00     0.013 A 
HETATM   20  C   UNL     1      -4.386  -2.196 -33.715  1.00  0.00     0.049 A 
HETATM   21 BR   UNL     1      -3.579  -4.928 -33.842  1.00  0.00    -0.051 Br
ENDBRANCH  11  14
ENDBRANCH   9  10
ENDBRANCH   8   9
ENDBRANCH   1   8
BRANCH   6  22
HETATM   22  C   UNL     1      -5.127   5.158 -33.687  1.00  0.00     0.012 A 
HETATM   23  C   UNL     1      -4.667   6.077 -32.739  1.00  0.00     0.018 A 
HETATM   24  C   UNL     1      -3.425   6.691 -32.911  1.00  0.00     0.037 A 
HETATM   25  C   UNL     1      -2.636   6.402 -34.027  1.00  0.00     0.068 A 
HETATM   26  C   UNL     1      -3.111   5.505 -34.986  1.00  0.00     0.037 A 
HETATM   27  C   UNL     1      -4.361   4.894 -34.824  1.00  0.00     0.018 A 
BRANCH  25  28
HETATM   28  O   UNL     1      -1.444   7.071 -34.070  1.00  0.00    -0.356 OA
HETATM   29  C   UNL     1      -0.724   7.189 -32.850  1.00  0.00     0.210 C 
ENDBRANCH  25  28
ENDBRANCH   6  22
TORSDOF 6
ENDMDL
MODEL 3
REMARK VINA RESULT:      -8.5      1.831      2.114
REMARK  6 active torsions:
REMARK  status: ('A' for Active; 'I' for Inactive)
REMARK    1  A    between atoms: C_3  and  N_4 
REMARK       I    between atoms: N_4  and  C_5 
REMARK    2  A    between atoms: C_5  and  C_6 
REMARK    3  A    between atoms: C_6  and  C_7 
REMARK    4  A    between atoms: C_7  and  N_8 
REMARK    5  A    between atoms: C_13  and  C_14 
REMARK    6  A    between atoms: C_17  and  O_18 
ROOT
HETATM    1  N   UNL     1      -7.549   1.921 -31.714  1.00  0.00    -0.305 N 
HETATM    2  C   UNL     1      -8.674   2.397 -31.083  1.00  0.00     0.196 A 
HETATM    3  S   UNL     1      -8.999   3.899 -30.469  1.00  0.00    -0.039 SA
HETATM    4  N   UNL     1      -9.582   1.354 -31.062  1.00  0.00    -0.251 N 
HETATM    5  N   UNL     1      -9.053   0.250 -31.653  1.00  0.00    -0.153 NA
HETATM    6  C   UNL     1      -7.852   0.614 -32.007  1.00  0.00     0.162 A 
HETATM    7  H   UNL     1     -10.520   1.363 -30.678  1.00  0.00     0.191 HD
ENDROOT
BRANCH   1   8
HETATM    8  C   UNL     1      -6.339   2.688 -32.048  1.00  0.00     0.142 C 
BRANCH   8   9
HETATM    9  C   UNL     1      -5.276   2.623 -30.960  1.00  0.00     0.123 C 
BRANCH   9  10
HETATM   10  C   UNL     1      -3.940   3.204 -31.374  1.00  0.00     0.223 C 
HETATM   11  N   UNL     1      -3.999   4.523 -31.779  1.00  0.00    -0.327 N 
HETATM   12  H   UNL     1      -4.683   5.101 -31.304  1.00  0.00     0.169 HD
HETATM   13  O   UNL     1      -2.930   2.505 -31.349  1.00  0.00    -0.273 OA
BRANCH  11  14
HETATM   14  C   UNL     1      -2.953   5.226 -32.422  1.00  0.00     0.042 A 
HETATM   15  C   UNL     1      -2.923   5.529 -33.798  1.00  0.00    -0.035 A 
HETATM   16  C   UNL     1      -4.035   5.211 -34.761  1.00  0.00     0.050 C 
HETATM   17  C   UNL     1      -1.806   6.215 -34.320  1.00  0.00     0.010 A 
HETATM   18  C   UNL     1      -0.771   6.644 -33.494  1.00  0.00     0.020 A 
HETATM   19  C   UNL     1      -0.842   6.398 -32.130  1.00  0.00     0.013 A 
HETATM   20  C   UNL     1      -1.927   5.705 -31.593  1.00  0.00     0.049 A 
HETATM   21 BR   UNL     1       0.547   6.993 -30.994  1.00  0.00    -0.051 Br
ENDBRANCH  11  14
ENDBRANCH   9  10
ENDBRANCH   8   9
ENDBRANCH   1   8
BRANCH   6  22
HETATM   22  C   UNL     1      -6.936  -0.307 -32.704  1.00  0.00     0.012 A 
HETATM   23  C   UNL     1      -7.355  -0.852 -33.922  1.00  0.00     0.018 A 
HETATM   24  C   UNL     1      -6.526  -1.744 -34.605  1.00  0.00     0.037 A 
HETATM   25  C   UNL     1      -5.283  -2.105 -34.082  1.00  0.00     0.068 A 
HETATM   26  C   UNL     1      -4.880  -1.581 -32.853  1.00  0.00     0.037 A 
HETATM   27  C   UNL     1      -5.711  -0.693 -32.157  1.00  0.00     0.018 A 
BRANCH  25  28
HETATM   28  O   UNL     1      -4.574  -2.984 -34.853  1.00  0.00    -0.356 OA
HETATM   29  C   UNL     1      -4.009  -4.111 -34.196  1.00  0.00     0.210 C 
ENDBRANCH  25  28
ENDBRANCH   6  22
TORSDOF 6
ENDMDL
MODEL 4
REMARK VINA RESULT:      -8.1      3.695      9.289
REMARK  6 active torsions:
REMARK  status: ('A' for Active; 'I' for Inactive)
REMARK    1  A    between atoms: C_3  and  N_4 
REMARK       I    between atoms: N_4  and  C_5 
REMARK    2  A    between atoms: C_5  and  C_6 
REMARK    3  A    between atoms: C_6  and  C_7 
REMARK    4  A    between atoms: C_7  and  N_8 
REMARK    5  A    between atoms: C_13  and  C_14 
REMARK    6  A    between atoms: C_17  and  O_18 
ROOT
HETATM    1  N   UNL     1      -2.123   5.997 -32.555  1.00  0.00    -0.305 N 
HETATM    2  C   UNL     1      -2.485   6.162 -33.871  1.00  0.00     0.196 A 
HETATM    3  S   UNL     1      -3.244   5.120 -34.910  1.00  0.00    -0.039 SA
HETATM    4  N   UNL     1      -2.115   7.449 -34.220  1.00  0.00    -0.251 N 
HETATM    5  N   UNL     1      -1.534   8.079 -33.166  1.00  0.00    -0.153 NA
HETATM    6  C   UNL     1      -1.539   7.191 -32.211  1.00  0.00     0.162 A 
HETATM    7  H   UNL     1      -2.243   7.903 -35.117  1.00  0.00     0.191 HD
ENDROOT
BRANCH   1   8
HETATM    8  C   UNL     1      -2.386   4.818 -31.714  1.00  0.00     0.142 C 
BRANCH   8   9
HETATM    9  C   UNL     1      -3.822   4.759 -31.210  1.00  0.00     0.123 C 
BRANCH   9  10
HETATM   10  C   UNL     1      -4.404   3.361 -31.184  1.00  0.00     0.223 C 
HETATM   11  N   UNL     1      -4.057   2.585 -32.273  1.00  0.00    -0.327 N 
HETATM   12  H   UNL     1      -3.132   2.747 -32.655  1.00  0.00     0.169 HD
HETATM   13  O   UNL     1      -5.131   3.014 -30.257  1.00  0.00    -0.273 OA
BRANCH  11  14
HETATM   14  C   UNL     1      -4.640   1.339 -32.605  1.00  0.00     0.042 A 
HETATM   15  C   UNL     1      -4.189   0.093 -32.125  1.00  0.00    -0.035 A 
HETATM   16  C   UNL     1      -3.073  -0.078 -31.131  1.00  0.00     0.050 C 
HETATM   17  C   UNL     1      -4.843  -1.079 -32.556  1.00  0.00     0.010 A 
HETATM   18  C   UNL     1      -5.953  -1.021 -33.396  1.00  0.00     0.020 A 
HETATM   19  C   UNL     1      -6.428   0.215 -33.811  1.00  0.00     0.013 A 
HETATM   20  C   UNL     1      -5.787   1.388 -33.413  1.00  0.00     0.049 A 
HETATM   21 BR   UNL     1      -7.945   0.310 -34.934  1.00  0.00    -0.051 Br
ENDBRANCH  11  14
ENDBRANCH   9  10
ENDBRANCH   8   9
ENDBRANCH   1   8
BRANCH   6  22
HETATM   22  C   UNL     1      -0.998   7.487 -30.873  1.00  0.00     0.012 A 
HETATM   23  C   UNL     1      -1.753   8.305 -30.026  1.00  0.00     0.018 A 
HETATM   24  C   UNL     1      -1.268   8.627 -28.757  1.00  0.00     0.037 A 
HETATM   25  C   UNL     1      -0.032   8.146 -28.323  1.00  0.00     0.068 A 
HETATM   26  C   UNL     1       0.732   7.353 -29.182  1.00  0.00     0.037 A 
HETATM   27  C   UNL     1       0.256   7.034 -30.461  1.00  0.00     0.018 A 
BRANCH  25  28
HETATM   28  O   UNL     1       0.321   8.536 -27.061  1.00  0.00    -0.356 OA
HETATM   29  C   UNL     1       1.701   8.469 -26.725  1.00  0.00     0.210 C 
ENDBRANCH  25  28
ENDBRANCH   6  22
TORSDOF 6
ENDMDL
MODEL 5
REMARK VINA RESULT:      -8.0      3.638      9.232
REMARK  6 active torsions:
REMARK  status: ('A' for Active; 'I' for Inactive)
REMARK    1  A    between atoms: C_3  and  N_4 
REMARK       I    between atoms: N_4  and  C_5 
REMARK    2  A    between atoms: C_5  and  C_6 
REMARK    3  A    between atoms: C_6  and  C_7 
REMARK    4  A    between atoms: C_7  and  N_8 
REMARK    5  A    between atoms: C_13  and  C_14 
REMARK    6  A    between atoms: C_17  and  O_18 
ROOT
HETATM    1  N   UNL     1      -2.610   6.105 -32.655  1.00  0.00    -0.305 N 
HETATM    2  C   UNL     1      -2.827   6.118 -34.014  1.00  0.00     0.196 A 
HETATM    3  S   UNL     1      -3.792   5.151 -34.949  1.00  0.00    -0.039 SA
HETATM    4  N   UNL     1      -2.080   7.165 -34.520  1.00  0.00    -0.251 N 
HETATM    5  N   UNL     1      -1.405   7.795 -33.522  1.00  0.00    -0.153 NA
HETATM    6  C   UNL     1      -1.726   7.135 -32.444  1.00  0.00     0.162 A 
HETATM    7  H   UNL     1      -2.015   7.463 -35.486  1.00  0.00     0.191 HD
ENDROOT
BRANCH   1   8
HETATM    8  C   UNL     1      -3.255   5.222 -31.671  1.00  0.00     0.142 C 
BRANCH   8   9
HETATM    9  C   UNL     1      -2.506   3.910 -31.473  1.00  0.00     0.123 C 
BRANCH   9  10
HETATM   10  C   UNL     1      -3.382   2.681 -31.599  1.00  0.00     0.223 C 
HETATM   11  N   UNL     1      -4.623   2.926 -32.153  1.00  0.00    -0.327 N 
HETATM   12  H   UNL     1      -4.656   3.653 -32.860  1.00  0.00     0.169 HD
HETATM   13  O   UNL     1      -2.974   1.592 -31.204  1.00  0.00    -0.273 OA
BRANCH  11  14
HETATM   14  C   UNL     1      -5.702   2.012 -32.173  1.00  0.00     0.042 A 
HETATM   15  C   UNL     1      -6.724   1.961 -31.204  1.00  0.00    -0.035 A 
HETATM   16  C   UNL     1      -6.849   2.923 -30.054  1.00  0.00     0.050 C 
HETATM   17  C   UNL     1      -7.731   0.982 -31.327  1.00  0.00     0.010 A 
HETATM   18  C   UNL     1      -7.763   0.109 -32.412  1.00  0.00     0.020 A 
HETATM   19  C   UNL     1      -6.788   0.211 -33.395  1.00  0.00     0.013 A 
HETATM   20  C   UNL     1      -5.771   1.159 -33.286  1.00  0.00     0.049 A 
HETATM   21 BR   UNL     1      -6.830  -0.953 -34.884  1.00  0.00    -0.051 Br
ENDBRANCH  11  14
ENDBRANCH   9  10
ENDBRANCH   8   9
ENDBRANCH   1   8
BRANCH   6  22
HETATM   22  C   UNL     1      -1.205   7.513 -31.119  1.00  0.00     0.012 A 
HETATM   23  C   UNL     1      -0.022   6.909 -30.682  1.00  0.00     0.018 A 
HETATM   24  C   UNL     1       0.495   7.224 -29.424  1.00  0.00     0.037 A 
HETATM   25  C   UNL     1      -0.160   8.134 -28.591  1.00  0.00     0.068 A 
HETATM   26  C   UNL     1      -1.355   8.714 -29.019  1.00  0.00     0.037 A 
HETATM   27  C   UNL     1      -1.886   8.394 -30.276  1.00  0.00     0.018 A 
BRANCH  25  28
HETATM   28  O   UNL     1       0.455   8.352 -27.390  1.00  0.00    -0.356 OA
HETATM   29  C   UNL     1      -0.324   8.150 -26.218  1.00  0.00     0.210 C 
ENDBRANCH  25  28
ENDBRANCH   6  22
TORSDOF 6
ENDMDL
MODEL 6
REMARK VINA RESULT:      -8.0      3.106      3.985
REMARK  6 active torsions:
REMARK  status: ('A' for Active; 'I' for Inactive)
REMARK    1  A    between atoms: C_3  and  N_4 
REMARK       I    between atoms: N_4  and  C_5 
REMARK    2  A    between atoms: C_5  and  C_6 
REMARK    3  A    between atoms: C_6  and  C_7 
REMARK    4  A    between atoms: C_7  and  N_8 
REMARK    5  A    between atoms: C_13  and  C_14 
REMARK    6  A    between atoms: C_17  and  O_18 
ROOT
HETATM    1  N   UNL     1      -9.669   1.710 -33.735  1.00  0.00    -0.305 N 
HETATM    2  C   UNL     1     -11.012   1.823 -33.462  1.00  0.00     0.196 A 
HETATM    3  S   UNL     1     -12.047   3.093 -33.704  1.00  0.00    -0.039 SA
HETATM    4  N   UNL     1     -11.409   0.607 -32.938  1.00  0.00    -0.251 N 
HETATM    5  N   UNL     1     -10.356  -0.250 -32.874  1.00  0.00    -0.153 NA
HETATM    6  C   UNL     1      -9.347   0.436 -33.333  1.00  0.00     0.162 A 
HETATM    7  H   UNL     1     -12.340   0.343 -32.636  1.00  0.00     0.191 HD
ENDROOT
BRANCH   1   8
HETATM    8  C   UNL     1      -8.816   2.719 -34.382  1.00  0.00     0.142 C 
BRANCH   8   9
HETATM    9  C   UNL     1      -8.112   3.628 -33.383  1.00  0.00     0.123 C 
BRANCH   9  10
HETATM   10  C   UNL     1      -6.612   3.429 -33.327  1.00  0.00     0.223 C 
HETATM   11  N   UNL     1      -5.981   4.161 -32.340  1.00  0.00    -0.327 N 
HETATM   12  H   UNL     1      -6.511   4.301 -31.486  1.00  0.00     0.169 HD
HETATM   13  O   UNL     1      -6.059   2.683 -34.131  1.00  0.00    -0.273 OA
BRANCH  11  14
HETATM   14  C   UNL     1      -4.582   4.333 -32.219  1.00  0.00     0.042 A 
HETATM   15  C   UNL     1      -3.723   3.436 -31.553  1.00  0.00    -0.035 A 
HETATM   16  C   UNL     1      -4.164   2.133 -30.944  1.00  0.00     0.050 C 
HETATM   17  C   UNL     1      -2.347   3.738 -31.481  1.00  0.00     0.010 A 
HETATM   18  C   UNL     1      -1.822   4.869 -32.102  1.00  0.00     0.020 A 
HETATM   19  C   UNL     1      -2.668   5.711 -32.810  1.00  0.00     0.013 A 
HETATM   20  C   UNL     1      -4.034   5.443 -32.880  1.00  0.00     0.049 A 
HETATM   21 BR   UNL     1      -1.965   7.238 -33.674  1.00  0.00    -0.051 Br
ENDBRANCH  11  14
ENDBRANCH   9  10
ENDBRANCH   8   9
ENDBRANCH   1   8
BRANCH   6  22
HETATM   22  C   UNL     1      -7.999  -0.145 -33.443  1.00  0.00     0.012 A 
HETATM   23  C   UNL     1      -7.642  -0.753 -34.651  1.00  0.00     0.018 A 
HETATM   24  C   UNL     1      -6.380  -1.335 -34.791  1.00  0.00     0.037 A 
HETATM   25  C   UNL     1      -5.469  -1.322 -33.733  1.00  0.00     0.068 A 
HETATM   26  C   UNL     1      -5.838  -0.740 -32.519  1.00  0.00     0.037 A 
HETATM   27  C   UNL     1      -7.107  -0.164 -32.369  1.00  0.00     0.018 A 
BRANCH  25  28
HETATM   28  O   UNL     1      -4.272  -1.924 -34.005  1.00  0.00    -0.356 OA
HETATM   29  C   UNL     1      -4.286  -3.332 -34.202  1.00  0.00     0.210 C 
ENDBRANCH  25  28
ENDBRANCH   6  22
TORSDOF 6
ENDMDL
MODEL 7
REMARK VINA RESULT:      -7.9      3.505      5.210
REMARK  6 active torsions:
REMARK  status: ('A' for Active; 'I' for Inactive)
REMARK    1  A    between atoms: C_3  and  N_4 
REMARK       I    between atoms: N_4  and  C_5 
REMARK    2  A    between atoms: C_5  and  C_6 
REMARK    3  A    between atoms: C_6  and  C_7 
REMARK    4  A    between atoms: C_7  and  N_8 
REMARK    5  A    between atoms: C_13  and  C_14 
REMARK    6  A    between atoms: C_17  and  O_18 
ROOT
HETATM    1  N   UNL     1      -4.916  -2.474 -33.603  1.00  0.00    -0.305 N 
HETATM    2  C   UNL     1      -4.670  -3.732 -34.101  1.00  0.00     0.196 A 
HETATM    3  S   UNL     1      -3.436  -4.787 -33.776  1.00  0.00    -0.039 SA
HETATM    4  N   UNL     1      -5.710  -4.021 -34.966  1.00  0.00    -0.251 N 
HETATM    5  N   UNL     1      -6.585  -2.982 -35.021  1.00  0.00    -0.153 NA
HETATM    6  C   UNL     1      -6.078  -2.085 -34.223  1.00  0.00     0.162 A 
HETATM    7  H   UNL     1      -5.847  -4.871 -35.499  1.00  0.00     0.191 HD
ENDROOT
BRANCH   1   8
HETATM    8  C   UNL     1      -4.130  -1.765 -32.580  1.00  0.00     0.142 C 
BRANCH   8   9
HETATM    9  C   UNL     1      -3.406  -0.544 -33.131  1.00  0.00     0.123 C 
BRANCH   9  10
HETATM   10  C   UNL     1      -3.360   0.625 -32.168  1.00  0.00     0.223 C 
HETATM   11  N   UNL     1      -4.035   1.746 -32.608  1.00  0.00    -0.327 N 
HETATM   12  H   UNL     1      -4.867   1.573 -33.163  1.00  0.00     0.169 HD
HETATM   13  O   UNL     1      -2.740   0.528 -31.112  1.00  0.00    -0.273 OA
BRANCH  11  14
HETATM   14  C   UNL     1      -3.959   3.029 -32.017  1.00  0.00     0.042 A 
HETATM   15  C   UNL     1      -4.832   3.500 -31.016  1.00  0.00    -0.035 A 
HETATM   16  C   UNL     1      -5.920   2.675 -30.384  1.00  0.00     0.050 C 
HETATM   17  C   UNL     1      -4.664   4.813 -30.528  1.00  0.00     0.010 A 
HETATM   18  C   UNL     1      -3.622   5.622 -30.975  1.00  0.00     0.020 A 
HETATM   19  C   UNL     1      -2.729   5.125 -31.913  1.00  0.00     0.013 A 
HETATM   20  C   UNL     1      -2.886   3.837 -32.425  1.00  0.00     0.049 A 
HETATM   21 BR   UNL     1      -1.298   6.205 -32.513  1.00  0.00    -0.051 Br
ENDBRANCH  11  14
ENDBRANCH   9  10
ENDBRANCH   8   9
ENDBRANCH   1   8
BRANCH   6  22
HETATM   22  C   UNL     1      -6.741  -0.790 -33.990  1.00  0.00     0.012 A 
HETATM   23  C   UNL     1      -6.695   0.164 -35.010  1.00  0.00     0.018 A 
HETATM   24  C   UNL     1      -7.294   1.412 -34.823  1.00  0.00     0.037 A 
HETATM   25  C   UNL     1      -7.935   1.721 -33.621  1.00  0.00     0.068 A 
HETATM   26  C   UNL     1      -7.955   0.776 -32.594  1.00  0.00     0.037 A 
HETATM   27  C   UNL     1      -7.347  -0.474 -32.772  1.00  0.00     0.018 A 
BRANCH  25  28
HETATM   28  O   UNL     1      -8.480   2.974 -33.572  1.00  0.00    -0.356 OA
HETATM   29  C   UNL     1      -7.576   4.073 -33.570  1.00  0.00     0.210 C 
ENDBRANCH  25  28
ENDBRANCH   6  22
TORSDOF 6
ENDMDL
MODEL 8
REMARK VINA RESULT:      -7.9      3.420      9.076
REMARK  6 active torsions:
REMARK  status: ('A' for Active; 'I' for Inactive)
REMARK    1  A    between atoms: C_3  and  N_4 
REMARK       I    between atoms: N_4  and  C_5 
REMARK    2  A    between atoms: C_5  and  C_6 
REMARK    3  A    between atoms: C_6  and  C_7 
REMARK    4  A    between atoms: C_7  and  N_8 
REMARK    5  A    between atoms: C_13  and  C_14 
REMARK    6  A    between atoms: C_17  and  O_18 
ROOT
HETATM    1  N   UNL     1      -2.044   5.995 -32.589  1.00  0.00    -0.305 N 
HETATM    2  C   UNL     1      -2.369   6.096 -33.922  1.00  0.00     0.196 A 
HETATM    3  S   UNL     1      -3.040   4.980 -34.944  1.00  0.00    -0.039 SA
HETATM    4  N   UNL     1      -2.052   7.386 -34.305  1.00  0.00    -0.251 N 
HETATM    5  N   UNL     1      -1.538   8.082 -33.257  1.00  0.00    -0.153 NA
HETATM    6  C   UNL     1      -1.531   7.229 -32.271  1.00  0.00     0.162 A 
HETATM    7  H   UNL     1      -2.172   7.802 -35.222  1.00  0.00     0.191 HD
ENDROOT
BRANCH   1   8
HETATM    8  C   UNL     1      -2.276   4.835 -31.714  1.00  0.00     0.142 C 
BRANCH   8   9
HETATM    9  C   UNL     1      -3.705   4.764 -31.192  1.00  0.00     0.123 C 
BRANCH   9  10
HETATM   10  C   UNL     1      -4.282   3.364 -31.179  1.00  0.00     0.223 C 
HETATM   11  N   UNL     1      -3.883   2.579 -32.243  1.00  0.00    -0.327 N 
HETATM   12  H   UNL     1      -2.942   2.741 -32.584  1.00  0.00     0.169 HD
HETATM   13  O   UNL     1      -5.050   3.023 -30.283  1.00  0.00    -0.273 OA
BRANCH  11  14
HETATM   14  C   UNL     1      -4.446   1.327 -32.589  1.00  0.00     0.042 A 
HETATM   15  C   UNL     1      -5.643   1.163 -33.313  1.00  0.00    -0.035 A 
HETATM   16  C   UNL     1      -6.451   2.298 -33.884  1.00  0.00     0.050 C 
HETATM   17  C   UNL     1      -6.110  -0.142 -33.571  1.00  0.00     0.010 A 
HETATM   18  C   UNL     1      -5.382  -1.261 -33.175  1.00  0.00     0.020 A 
HETATM   19  C   UNL     1      -4.171  -1.088 -32.519  1.00  0.00     0.013 A 
HETATM   20  C   UNL     1      -3.698   0.193 -32.237  1.00  0.00     0.049 A 
HETATM   21 BR   UNL     1      -3.162  -2.598 -31.994  1.00  0.00    -0.051 Br
ENDBRANCH  11  14
ENDBRANCH   9  10
ENDBRANCH   8   9
ENDBRANCH   1   8
BRANCH   6  22
HETATM   22  C   UNL     1      -1.051   7.599 -30.928  1.00  0.00     0.012 A 
HETATM   23  C   UNL     1       0.168   7.067 -30.498  1.00  0.00     0.018 A 
HETATM   24  C   UNL     1       0.650   7.376 -29.224  1.00  0.00     0.037 A 
HETATM   25  C   UNL     1      -0.076   8.208 -28.369  1.00  0.00     0.068 A 
HETATM   26  C   UNL     1      -1.307   8.714 -28.792  1.00  0.00     0.037 A 
HETATM   27  C   UNL     1      -1.801   8.399 -30.065  1.00  0.00     0.018 A 
BRANCH  25  28
HETATM   28  O   UNL     1       0.511   8.429 -27.155  1.00  0.00    -0.356 OA
HETATM   29  C   UNL     1       0.903   7.284 -26.408  1.00  0.00     0.210 C 
ENDBRANCH  25  28
ENDBRANCH   6  22
TORSDOF 6
ENDMDL
MODEL 9
REMARK VINA RESULT:      -7.8      3.696      4.959
REMARK  6 active torsions:
REMARK  status: ('A' for Active; 'I' for Inactive)
REMARK    1  A    between atoms: C_3  and  N_4 
REMARK       I    between atoms: N_4  and  C_5 
REMARK    2  A    between atoms: C_5  and  C_6 
REMARK    3  A    between atoms: C_6  and  C_7 
REMARK    4  A    between atoms: C_7  and  N_8 
REMARK    5  A    between atoms: C_13  and  C_14 
REMARK    6  A    between atoms: C_17  and  O_18 
ROOT
HETATM    1  N   UNL     1     -10.697   2.503 -33.160  1.00  0.00    -0.305 N 
HETATM    2  C   UNL     1     -12.070   2.480 -33.082  1.00  0.00     0.196 A 
HETATM    3  S   UNL     1     -13.145   3.708 -32.805  1.00  0.00    -0.039 SA
HETATM    4  N   UNL     1     -12.454   1.172 -33.316  1.00  0.00    -0.251 N 
HETATM    5  N   UNL     1     -11.365   0.388 -33.531  1.00  0.00    -0.153 NA
HETATM    6  C   UNL     1     -10.350   1.199 -33.414  1.00  0.00     0.162 A 
HETATM    7  H   UNL     1     -13.397   0.803 -33.340  1.00  0.00     0.191 HD
ENDROOT
BRANCH   1   8
HETATM    8  C   UNL     1      -9.832   3.689 -33.063  1.00  0.00     0.142 C 
BRANCH   8   9
HETATM    9  C   UNL     1      -9.296   3.918 -31.656  1.00  0.00     0.123 C 
BRANCH   9  10
HETATM   10  C   UNL     1      -7.838   4.326 -31.616  1.00  0.00     0.223 C 
HETATM   11  N   UNL     1      -7.005   3.520 -32.366  1.00  0.00    -0.327 N 
HETATM   12  H   UNL     1      -7.407   3.138 -33.216  1.00  0.00     0.169 HD
HETATM   13  O   UNL     1      -7.487   5.289 -30.939  1.00  0.00    -0.273 OA
BRANCH  11  14
HETATM   14  C   UNL     1      -5.591   3.541 -32.321  1.00  0.00     0.042 A 
HETATM   15  C   UNL     1      -4.812   2.852 -31.370  1.00  0.00    -0.035 A 
HETATM   16  C   UNL     1      -5.375   1.937 -30.316  1.00  0.00     0.050 C 
HETATM   17  C   UNL     1      -3.408   2.978 -31.420  1.00  0.00     0.010 A 
HETATM   18  C   UNL     1      -2.784   3.720 -32.419  1.00  0.00     0.020 A 
HETATM   19  C   UNL     1      -3.558   4.341 -33.389  1.00  0.00     0.013 A 
HETATM   20  C   UNL     1      -4.949   4.246 -33.351  1.00  0.00     0.049 A 
HETATM   21 BR   UNL     1      -2.723   5.333 -34.765  1.00  0.00    -0.051 Br
ENDBRANCH  11  14
ENDBRANCH   9  10
ENDBRANCH   8   9
ENDBRANCH   1   8
BRANCH   6  22
HETATM   22  C   UNL     1      -8.963   0.736 -33.591  1.00  0.00     0.012 A 
HETATM   23  C   UNL     1      -8.305   0.196 -32.482  1.00  0.00     0.018 A 
HETATM   24  C   UNL     1      -6.982  -0.236 -32.600  1.00  0.00     0.037 A 
HETATM   25  C   UNL     1      -6.304  -0.129 -33.816  1.00  0.00     0.068 A 
HETATM   26  C   UNL     1      -6.955   0.436 -34.914  1.00  0.00     0.037 A 
HETATM   27  C   UNL     1      -8.278   0.881 -34.799  1.00  0.00     0.018 A 
BRANCH  25  28
HETATM   28  O   UNL     1      -5.017  -0.591 -33.793  1.00  0.00    -0.356 OA
HETATM   29  C   UNL     1      -4.830  -1.993 -33.942  1.00  0.00     0.210 C 
ENDBRANCH  25  28
ENDBRANCH   6  22
TORSDOF 6
ENDMDL
MODEL 10
REMARK VINA RESULT:      -7.5      3.316      4.469
REMARK  6 active torsions:
REMARK  status: ('A' for Active; 'I' for Inactive)
REMARK    1  A    between atoms: C_3  and  N_4 
REMARK       I    between atoms: N_4  and  C_5 
REMARK    2  A    between atoms: C_5  and  C_6 
REMARK    3  A    between atoms: C_6  and  C_7 
REMARK    4  A    between atoms: C_7  and  N_8 
REMARK    5  A    between atoms: C_13  and  C_14 
REMARK    6  A    between atoms: C_17  and  O_18 
ROOT
HETATM    1  N   UNL     1      -5.673  -0.741 -32.549  1.00  0.00    -0.305 N 
HETATM    2  C   UNL     1      -4.711  -1.631 -32.965  1.00  0.00     0.196 A 
HETATM    3  S   UNL     1      -3.361  -2.186 -32.184  1.00  0.00    -0.039 SA
HETATM    4  N   UNL     1      -5.085  -2.049 -34.229  1.00  0.00    -0.251 N 
HETATM    5  N   UNL     1      -6.241  -1.444 -34.608  1.00  0.00    -0.153 NA
HETATM    6  C   UNL     1      -6.549  -0.670 -33.605  1.00  0.00     0.162 A 
HETATM    7  H   UNL     1      -4.602  -2.713 -34.824  1.00  0.00     0.191 HD
ENDROOT
BRANCH   1   8
HETATM    8  C   UNL     1      -5.756  -0.089 -31.233  1.00  0.00     0.142 C 
BRANCH   8   9
HETATM    9  C   UNL     1      -4.466   0.622 -30.842  1.00  0.00     0.123 C 
BRANCH   9  10
HETATM   10  C   UNL     1      -4.463   2.102 -31.163  1.00  0.00     0.223 C 
HETATM   11  N   UNL     1      -3.651   2.448 -32.225  1.00  0.00    -0.327 N 
HETATM   12  H   UNL     1      -3.581   1.763 -32.970  1.00  0.00     0.169 HD
HETATM   13  O   UNL     1      -5.131   2.880 -30.486  1.00  0.00    -0.273 OA
BRANCH  11  14
HETATM   14  C   UNL     1      -3.294   3.770 -32.583  1.00  0.00     0.042 A 
HETATM   15  C   UNL     1      -4.037   4.589 -33.457  1.00  0.00    -0.035 A 
HETATM   16  C   UNL     1      -5.354   4.197 -34.071  1.00  0.00     0.050 C 
HETATM   17  C   UNL     1      -3.556   5.881 -33.752  1.00  0.00     0.010 A 
HETATM   18  C   UNL     1      -2.400   6.377 -33.154  1.00  0.00     0.020 A 
HETATM   19  C   UNL     1      -1.712   5.585 -32.245  1.00  0.00     0.013 A 
HETATM   20  C   UNL     1      -2.157   4.297 -31.951  1.00  0.00     0.049 A 
HETATM   21 BR   UNL     1      -0.152   6.253 -31.411  1.00  0.00    -0.051 Br
ENDBRANCH  11  14
ENDBRANCH   9  10
ENDBRANCH   8   9
ENDBRANCH   1   8
BRANCH   6  22
HETATM   22  C   UNL     1      -7.762   0.165 -33.613  1.00  0.00     0.012 A 
HETATM   23  C   UNL     1      -8.919  -0.353 -33.021  1.00  0.00     0.018 A 
HETATM   24  C   UNL     1     -10.097   0.397 -33.025  1.00  0.00     0.037 A 
HETATM   25  C   UNL     1     -10.136   1.660 -33.619  1.00  0.00     0.068 A 
HETATM   26  C   UNL     1      -8.987   2.162 -34.232  1.00  0.00     0.037 A 
HETATM   27  C   UNL     1      -7.804   1.410 -34.242  1.00  0.00     0.018 A 
BRANCH  25  28
HETATM   28  O   UNL     1     -11.350   2.285 -33.549  1.00  0.00    -0.356 OA
HETATM   29  C   UNL     1     -12.505   1.477 -33.735  1.00  0.00     0.210 C 
ENDBRANCH  25  28
ENDBRANCH   6  22
TORSDOF 6
ENDMDL
