MODEL 1
REMARK VINA RESULT:      -8.4      0.000      0.000
REMARK  3 active torsions:
REMARK  status: ('A' for Active; 'I' for Inactive)
REMARK    1  A    between atoms: C_7  and  C_8 
REMARK       I    between atoms: C_8  and  N_9 
REMARK    2  A    between atoms: N_9  and  N_10 
REMARK    3  A    between atoms: C_11  and  C_12 
ROOT
HETATM    1  N   UNL     1      -7.551   3.575 -33.851  1.00  0.00    -0.184 NA
HETATM    2  C   UNL     1      -7.917   2.345 -33.678  1.00  0.00     0.148 C 
ENDROOT
BRANCH   1   3
HETATM    3  N   UNL     1      -6.227   3.834 -34.046  1.00  0.00    -0.243 N 
HETATM    4  C   UNL     1      -5.493   4.583 -33.131  1.00  0.00     0.280 C 
HETATM    5  O   UNL     1      -5.991   5.084 -32.126  1.00  0.00    -0.265 OA
HETATM    6  H   UNL     1      -5.757   3.469 -34.865  1.00  0.00     0.192 HD
BRANCH   4   7
HETATM    7  C   UNL     1      -4.076   4.697 -33.443  1.00  0.00     0.102 A 
HETATM    8  C   UNL     1      -2.996   4.196 -32.731  1.00  0.00     0.056 A 
HETATM    9  C   UNL     1      -3.041   3.424 -31.460  1.00  0.00     0.072 C 
HETATM   10  N   UNL     1      -1.754   4.448 -33.299  1.00  0.00    -0.228 NA
HETATM   11  C   UNL     1      -1.887   5.117 -34.414  1.00  0.00     0.165 A 
HETATM   12  N   UNL     1      -0.846   5.488 -35.173  1.00  0.00    -0.378 N 
HETATM   13  S   UNL     1      -3.496   5.509 -34.845  1.00  0.00    -0.045 SA
HETATM   14  H   UNL     1       0.060   5.432 -34.720  1.00  0.00     0.158 HD
HETATM   15  H   UNL     1      -0.955   6.286 -35.786  1.00  0.00     0.158 HD
ENDBRANCH   4   7
ENDBRANCH   1   3
BRANCH   2  16
HETATM   16  C   UNL     1      -7.095   1.114 -33.559  1.00  0.00    -0.014 C 
HETATM   17  C   UNL     1      -6.053   1.089 -32.485  1.00  0.00     0.216 C 
HETATM   18  O   UNL     1      -5.010   0.118 -32.668  1.00  0.00    -0.344 OA
HETATM   19  C   UNL     1      -5.323  -1.013 -33.376  1.00  0.00     0.101 A 
HETATM   20  C   UNL     1      -6.409  -1.058 -34.263  1.00  0.00     0.001 A 
HETATM   21  C   UNL     1      -4.495  -2.136 -33.240  1.00  0.00     0.069 A 
HETATM   22  C   UNL     1      -6.673  -2.228 -34.984  1.00  0.00     0.038 A 
HETATM   23  C   UNL     1      -7.245   0.122 -34.444  1.00  0.00     0.025 C 
HETATM   24  C   UNL     1      -5.852  -3.343 -34.819  1.00  0.00     0.036 A 
HETATM   25  C   UNL     1      -4.763  -3.304 -33.955  1.00  0.00     0.050 A 
HETATM   26 CL   UNL     1      -6.192  -4.783 -35.698  1.00  0.00    -0.084 Cl
HETATM   27 CL   UNL     1      -3.133  -2.121 -32.178  1.00  0.00    -0.081 Cl
ENDBRANCH   2  16
TORSDOF 3
ENDMDL
MODEL 2
REMARK VINA RESULT:      -8.3      3.596      6.037
REMARK  3 active torsions:
REMARK  status: ('A' for Active; 'I' for Inactive)
REMARK    1  A    between atoms: C_7  and  C_8 
REMARK       I    between atoms: C_8  and  N_9 
REMARK    2  A    between atoms: N_9  and  N_10 
REMARK    3  A    between atoms: C_11  and  C_12 
ROOT
HETATM    1  N   UNL     1      -8.414   4.110 -34.131  1.00  0.00    -0.184 NA
HETATM    2  C   UNL     1      -7.187   3.802 -33.856  1.00  0.00     0.148 C 
ENDROOT
BRANCH   1   3
HETATM    3  N   UNL     1      -9.342   3.111 -34.153  1.00  0.00    -0.243 N 
HETATM    4  C   UNL     1     -10.318   3.007 -33.167  1.00  0.00     0.280 C 
HETATM    5  O   UNL     1     -10.381   3.771 -32.206  1.00  0.00    -0.265 OA
HETATM    6  H   UNL     1      -9.335   2.433 -34.905  1.00  0.00     0.192 HD
BRANCH   4   7
HETATM    7  C   UNL     1     -11.282   1.938 -33.382  1.00  0.00     0.102 A 
HETATM    8  C   UNL     1     -11.106   0.574 -33.207  1.00  0.00     0.056 A 
HETATM    9  C   UNL     1      -9.867  -0.120 -32.760  1.00  0.00     0.072 C 
HETATM   10  N   UNL     1     -12.228  -0.200 -33.472  1.00  0.00    -0.228 NA
HETATM   11  C   UNL     1     -13.230   0.557 -33.834  1.00  0.00     0.165 A 
HETATM   12  N   UNL     1     -14.441   0.069 -34.144  1.00  0.00    -0.378 N 
HETATM   13  S   UNL     1     -12.895   2.234 -33.904  1.00  0.00    -0.045 SA
HETATM   14  H   UNL     1     -14.472  -0.930 -34.313  1.00  0.00     0.158 HD
HETATM   15  H   UNL     1     -15.039   0.612 -34.752  1.00  0.00     0.158 HD
ENDBRANCH   4   7
ENDBRANCH   1   3
BRANCH   2  16
HETATM   16  C   UNL     1      -6.564   2.471 -33.637  1.00  0.00    -0.014 C 
HETATM   17  C   UNL     1      -5.521   2.373 -32.567  1.00  0.00     0.216 C 
HETATM   18  O   UNL     1      -4.644   1.240 -32.670  1.00  0.00    -0.344 OA
HETATM   19  C   UNL     1      -5.141   0.117 -33.280  1.00  0.00     0.101 A 
HETATM   20  C   UNL     1      -6.234   0.168 -34.157  1.00  0.00     0.001 A 
HETATM   21  C   UNL     1      -4.494  -1.106 -33.052  1.00  0.00     0.069 A 
HETATM   22  C   UNL     1      -6.687  -1.001 -34.777  1.00  0.00     0.038 A 
HETATM   23  C   UNL     1      -6.880   1.445 -34.434  1.00  0.00     0.025 C 
HETATM   24  C   UNL     1      -6.047  -2.214 -34.521  1.00  0.00     0.036 A 
HETATM   25  C   UNL     1      -4.951  -2.273 -33.666  1.00  0.00     0.050 A 
HETATM   26 CL   UNL     1      -6.620  -3.651 -35.274  1.00  0.00    -0.084 Cl
HETATM   27 CL   UNL     1      -3.130  -1.216 -32.000  1.00  0.00    -0.081 Cl
ENDBRANCH   2  16
TORSDOF 3
ENDMDL
MODEL 3
REMARK VINA RESULT:      -8.2      1.000      2.203
REMARK  3 active torsions:
REMARK  status: ('A' for Active; 'I' for Inactive)
REMARK    1  A    between atoms: C_7  and  C_8 
REMARK       I    between atoms: C_8  and  N_9 
REMARK    2  A    between atoms: N_9  and  N_10 
REMARK    3  A    between atoms: C_11  and  C_12 
ROOT
HETATM    1  N   UNL     1      -7.907   3.252 -33.698  1.00  0.00    -0.184 NA
HETATM    2  C   UNL     1      -8.272   2.011 -33.754  1.00  0.00     0.148 C 
ENDROOT
BRANCH   1   3
HETATM    3  N   UNL     1      -6.593   3.550 -33.903  1.00  0.00    -0.243 N 
HETATM    4  C   UNL     1      -5.827   4.162 -32.916  1.00  0.00     0.280 C 
HETATM    5  O   UNL     1      -6.286   4.505 -31.829  1.00  0.00    -0.265 OA
HETATM    6  H   UNL     1      -6.154   3.315 -34.785  1.00  0.00     0.192 HD
BRANCH   4   7
HETATM    7  C   UNL     1      -4.423   4.334 -33.262  1.00  0.00     0.102 A 
HETATM    8  C   UNL     1      -3.318   3.702 -32.712  1.00  0.00     0.056 A 
HETATM    9  C   UNL     1      -3.316   2.692 -31.619  1.00  0.00     0.072 C 
HETATM   10  N   UNL     1      -2.100   4.059 -33.273  1.00  0.00    -0.228 NA
HETATM   11  C   UNL     1      -2.275   4.936 -34.226  1.00  0.00     0.165 A 
HETATM   12  N   UNL     1      -1.264   5.450 -34.942  1.00  0.00    -0.378 N 
HETATM   13  S   UNL     1      -3.897   5.408 -34.500  1.00  0.00    -0.045 SA
HETATM   14  H   UNL     1      -0.340   5.304 -34.551  1.00  0.00     0.158 HD
HETATM   15  H   UNL     1      -1.391   6.354 -35.380  1.00  0.00     0.158 HD
ENDBRANCH   4   7
ENDBRANCH   1   3
BRANCH   2  16
HETATM   16  C   UNL     1      -7.453   0.784 -33.922  1.00  0.00    -0.014 C 
HETATM   17  C   UNL     1      -7.752  -0.080 -35.108  1.00  0.00     0.216 C 
HETATM   18  O   UNL     1      -7.282  -1.434 -35.012  1.00  0.00    -0.344 OA
HETATM   19  C   UNL     1      -6.178  -1.661 -34.231  1.00  0.00     0.101 A 
HETATM   20  C   UNL     1      -5.784  -0.769 -33.224  1.00  0.00     0.001 A 
HETATM   21  C   UNL     1      -5.460  -2.850 -34.422  1.00  0.00     0.069 A 
HETATM   22  C   UNL     1      -4.665  -1.057 -32.435  1.00  0.00     0.038 A 
HETATM   23  C   UNL     1      -6.555   0.446 -32.991  1.00  0.00     0.025 C 
HETATM   24  C   UNL     1      -3.948  -2.233 -32.653  1.00  0.00     0.036 A 
HETATM   25  C   UNL     1      -4.341  -3.133 -33.639  1.00  0.00     0.050 A 
HETATM   26 CL   UNL     1      -2.564  -2.574 -31.689  1.00  0.00    -0.084 Cl
HETATM   27 CL   UNL     1      -5.920  -3.991 -35.634  1.00  0.00    -0.081 Cl
ENDBRANCH   2  16
TORSDOF 3
ENDMDL
MODEL 4
REMARK VINA RESULT:      -7.9      4.563      8.363
REMARK  3 active torsions:
REMARK  status: ('A' for Active; 'I' for Inactive)
REMARK    1  A    between atoms: C_7  and  C_8 
REMARK       I    between atoms: C_8  and  N_9 
REMARK    2  A    between atoms: N_9  and  N_10 
REMARK    3  A    between atoms: C_11  and  C_12 
ROOT
HETATM    1  N   UNL     1      -3.863   5.528 -34.657  1.00  0.00    -0.184 NA
HETATM    2  C   UNL     1      -2.858   6.275 -34.331  1.00  0.00     0.148 C 
ENDROOT
BRANCH   1   3
HETATM    3  N   UNL     1      -4.327   4.631 -33.742  1.00  0.00    -0.243 N 
HETATM    4  C   UNL     1      -5.688   4.378 -33.600  1.00  0.00     0.280 C 
HETATM    5  O   UNL     1      -6.548   4.966 -34.251  1.00  0.00    -0.265 OA
HETATM    6  H   UNL     1      -3.673   4.125 -33.156  1.00  0.00     0.192 HD
BRANCH   4   7
HETATM    7  C   UNL     1      -6.010   3.333 -32.639  1.00  0.00     0.102 A 
HETATM    8  C   UNL     1      -6.413   2.029 -32.890  1.00  0.00     0.056 A 
HETATM    9  C   UNL     1      -6.619   1.395 -34.220  1.00  0.00     0.072 C 
HETATM   10  N   UNL     1      -6.625   1.255 -31.757  1.00  0.00    -0.228 NA
HETATM   11  C   UNL     1      -6.385   1.949 -30.676  1.00  0.00     0.165 A 
HETATM   12  N   UNL     1      -6.505   1.443 -29.440  1.00  0.00    -0.378 N 
HETATM   13  S   UNL     1      -5.915   3.574 -30.938  1.00  0.00    -0.045 SA
HETATM   14  H   UNL     1      -7.019   0.571 -29.379  1.00  0.00     0.158 HD
HETATM   15  H   UNL     1      -6.675   2.080 -28.672  1.00  0.00     0.158 HD
ENDBRANCH   4   7
ENDBRANCH   1   3
BRANCH   2  16
HETATM   16  C   UNL     1      -2.021   6.265 -33.104  1.00  0.00    -0.014 C 
HETATM   17  C   UNL     1      -1.014   5.165 -32.973  1.00  0.00     0.216 C 
HETATM   18  O   UNL     1      -0.550   4.916 -31.636  1.00  0.00    -0.344 OA
HETATM   19  C   UNL     1      -0.563   5.972 -30.762  1.00  0.00     0.101 A 
HETATM   20  C   UNL     1      -1.379   7.094 -30.963  1.00  0.00     0.001 A 
HETATM   21  C   UNL     1       0.231   5.892 -29.609  1.00  0.00     0.069 A 
HETATM   22  C   UNL     1      -1.377   8.135 -30.028  1.00  0.00     0.038 A 
HETATM   23  C   UNL     1      -2.242   7.161 -32.136  1.00  0.00     0.025 C 
HETATM   24  C   UNL     1      -0.564   8.050 -28.898  1.00  0.00     0.036 A 
HETATM   25  C   UNL     1       0.237   6.933 -28.681  1.00  0.00     0.050 A 
HETATM   26 CL   UNL     1      -0.555   9.341 -27.761  1.00  0.00    -0.084 Cl
HETATM   27 CL   UNL     1       1.235   4.520 -29.306  1.00  0.00    -0.081 Cl
ENDBRANCH   2  16
TORSDOF 3
ENDMDL
MODEL 5
REMARK VINA RESULT:      -7.8      2.660      3.445
REMARK  3 active torsions:
REMARK  status: ('A' for Active; 'I' for Inactive)
REMARK    1  A    between atoms: C_7  and  C_8 
REMARK       I    between atoms: C_8  and  N_9 
REMARK    2  A    between atoms: N_9  and  N_10 
REMARK    3  A    between atoms: C_11  and  C_12 
ROOT
HETATM    1  N   UNL     1      -6.218   4.470 -29.360  1.00  0.00    -0.184 NA
HETATM    2  C   UNL     1      -6.979   3.579 -29.910  1.00  0.00     0.148 C 
ENDROOT
BRANCH   1   3
HETATM    3  N   UNL     1      -4.922   4.559 -29.775  1.00  0.00    -0.243 N 
HETATM    4  C   UNL     1      -4.536   5.465 -30.757  1.00  0.00     0.280 C 
HETATM    5  O   UNL     1      -5.330   6.204 -31.334  1.00  0.00    -0.265 OA
HETATM    6  H   UNL     1      -4.217   3.964 -29.356  1.00  0.00     0.192 HD
BRANCH   4   7
HETATM    7  C   UNL     1      -3.106   5.492 -31.024  1.00  0.00     0.102 A 
HETATM    8  C   UNL     1      -2.353   4.599 -31.773  1.00  0.00     0.056 A 
HETATM    9  C   UNL     1      -2.845   3.384 -32.478  1.00  0.00     0.072 C 
HETATM   10  N   UNL     1      -1.003   4.906 -31.867  1.00  0.00    -0.228 NA
HETATM   11  C   UNL     1      -0.737   6.006 -31.212  1.00  0.00     0.165 A 
HETATM   12  N   UNL     1       0.493   6.537 -31.143  1.00  0.00    -0.378 N 
HETATM   13  S   UNL     1      -2.072   6.730 -30.424  1.00  0.00    -0.045 SA
HETATM   14  H   UNL     1       1.246   5.918 -31.423  1.00  0.00     0.158 HD
HETATM   15  H   UNL     1       0.717   7.135 -30.358  1.00  0.00     0.158 HD
ENDBRANCH   4   7
ENDBRANCH   1   3
BRANCH   2  16
HETATM   16  C   UNL     1      -6.648   2.522 -30.900  1.00  0.00    -0.014 C 
HETATM   17  C   UNL     1      -7.267   2.641 -32.258  1.00  0.00     0.216 C 
HETATM   18  O   UNL     1      -7.300   1.425 -33.023  1.00  0.00    -0.344 OA
HETATM   19  C   UNL     1      -6.322   0.499 -32.769  1.00  0.00     0.101 A 
HETATM   20  C   UNL     1      -5.609   0.481 -31.562  1.00  0.00     0.001 A 
HETATM   21  C   UNL     1      -6.073  -0.488 -33.733  1.00  0.00     0.069 A 
HETATM   22  C   UNL     1      -4.639  -0.501 -31.338  1.00  0.00     0.038 A 
HETATM   23  C   UNL     1      -5.897   1.477 -30.537  1.00  0.00     0.025 C 
HETATM   24  C   UNL     1      -4.387  -1.462 -32.317  1.00  0.00     0.036 A 
HETATM   25  C   UNL     1      -5.101  -1.464 -33.512  1.00  0.00     0.050 A 
HETATM   26 CL   UNL     1      -3.181  -2.658 -32.042  1.00  0.00    -0.084 Cl
HETATM   27 CL   UNL     1      -6.941  -0.523 -35.225  1.00  0.00    -0.081 Cl
ENDBRANCH   2  16
TORSDOF 3
ENDMDL
MODEL 6
REMARK VINA RESULT:      -7.7      4.780      7.052
REMARK  3 active torsions:
REMARK  status: ('A' for Active; 'I' for Inactive)
REMARK    1  A    between atoms: C_7  and  C_8 
REMARK       I    between atoms: C_8  and  N_9 
REMARK    2  A    between atoms: N_9  and  N_10 
REMARK    3  A    between atoms: C_11  and  C_12 
ROOT
HETATM    1  N   UNL     1      -5.651   1.165 -31.494  1.00  0.00    -0.184 NA
HETATM    2  C   UNL     1      -6.682   1.947 -31.499  1.00  0.00     0.148 C 
ENDROOT
BRANCH   1   3
HETATM    3  N   UNL     1      -5.723  -0.005 -32.189  1.00  0.00    -0.243 N 
HETATM    4  C   UNL     1      -4.634  -0.490 -32.907  1.00  0.00     0.280 C 
HETATM    5  O   UNL     1      -3.568   0.114 -32.993  1.00  0.00    -0.265 OA
HETATM    6  H   UNL     1      -6.579  -0.545 -32.179  1.00  0.00     0.192 HD
BRANCH   4   7
HETATM    7  C   UNL     1      -4.848  -1.792 -33.522  1.00  0.00     0.102 A 
HETATM    8  C   UNL     1      -5.824  -2.160 -34.437  1.00  0.00     0.056 A 
HETATM    9  C   UNL     1      -6.896  -1.296 -35.000  1.00  0.00     0.072 C 
HETATM   10  N   UNL     1      -5.757  -3.480 -34.864  1.00  0.00    -0.228 NA
HETATM   11  C   UNL     1      -4.755  -4.095 -34.293  1.00  0.00     0.165 A 
HETATM   12  N   UNL     1      -4.455  -5.381 -34.531  1.00  0.00    -0.378 N 
HETATM   13  S   UNL     1      -3.844  -3.150 -33.195  1.00  0.00    -0.045 SA
HETATM   14  H   UNL     1      -5.183  -5.915 -34.992  1.00  0.00     0.158 HD
HETATM   15  H   UNL     1      -3.944  -5.896 -33.826  1.00  0.00     0.158 HD
ENDBRANCH   4   7
ENDBRANCH   1   3
BRANCH   2  16
HETATM   16  C   UNL     1      -8.032   1.741 -32.084  1.00  0.00    -0.014 C 
HETATM   17  C   UNL     1      -8.837   0.593 -31.558  1.00  0.00     0.216 C 
HETATM   18  O   UNL     1      -9.904   0.152 -32.413  1.00  0.00    -0.344 OA
HETATM   19  C   UNL     1     -10.461   1.084 -33.250  1.00  0.00     0.101 A 
HETATM   20  C   UNL     1      -9.783   2.255 -33.618  1.00  0.00     0.001 A 
HETATM   21  C   UNL     1     -11.728   0.821 -33.790  1.00  0.00     0.069 A 
HETATM   22  C   UNL     1     -10.383   3.162 -34.497  1.00  0.00     0.038 A 
HETATM   23  C   UNL     1      -8.446   2.510 -33.096  1.00  0.00     0.025 C 
HETATM   24  C   UNL     1     -11.654   2.896 -35.007  1.00  0.00     0.036 A 
HETATM   25  C   UNL     1     -12.329   1.729 -34.662  1.00  0.00     0.050 A 
HETATM   26 CL   UNL     1     -12.392   4.025 -36.075  1.00  0.00    -0.084 Cl
HETATM   27 CL   UNL     1     -12.593  -0.619 -33.387  1.00  0.00    -0.081 Cl
ENDBRANCH   2  16
TORSDOF 3
ENDMDL
MODEL 7
REMARK VINA RESULT:      -7.7      2.208      2.752
REMARK  3 active torsions:
REMARK  status: ('A' for Active; 'I' for Inactive)
REMARK    1  A    between atoms: C_7  and  C_8 
REMARK       I    between atoms: C_8  and  N_9 
REMARK    2  A    between atoms: N_9  and  N_10 
REMARK    3  A    between atoms: C_11  and  C_12 
ROOT
HETATM    1  N   UNL     1      -6.270   6.032 -33.751  1.00  0.00    -0.184 NA
HETATM    2  C   UNL     1      -7.046   5.007 -33.901  1.00  0.00     0.148 C 
ENDROOT
BRANCH   1   3
HETATM    3  N   UNL     1      -5.086   5.856 -33.096  1.00  0.00    -0.243 N 
HETATM    4  C   UNL     1      -3.895   5.669 -33.791  1.00  0.00     0.280 C 
HETATM    5  O   UNL     1      -3.838   5.611 -35.017  1.00  0.00    -0.265 OA
HETATM    6  H   UNL     1      -5.063   5.871 -32.084  1.00  0.00     0.192 HD
BRANCH   4   7
HETATM    7  C   UNL     1      -2.712   5.582 -32.947  1.00  0.00     0.102 A 
HETATM    8  C   UNL     1      -2.296   4.520 -32.158  1.00  0.00     0.056 A 
HETATM    9  C   UNL     1      -2.980   3.210 -31.985  1.00  0.00     0.072 C 
HETATM   10  N   UNL     1      -1.102   4.727 -31.480  1.00  0.00    -0.228 NA
HETATM   11  C   UNL     1      -0.622   5.912 -31.751  1.00  0.00     0.165 A 
HETATM   12  N   UNL     1       0.527   6.372 -31.235  1.00  0.00    -0.378 N 
HETATM   13  S   UNL     1      -1.572   6.863 -32.811  1.00  0.00    -0.045 SA
HETATM   14  H   UNL     1       0.883   5.850 -30.442  1.00  0.00     0.158 HD
HETATM   15  H   UNL     1       0.660   7.372 -31.167  1.00  0.00     0.158 HD
ENDBRANCH   4   7
ENDBRANCH   1   3
BRANCH   2  16
HETATM   16  C   UNL     1      -6.909   3.623 -33.381  1.00  0.00    -0.014 C 
HETATM   17  C   UNL     1      -7.168   3.412 -31.922  1.00  0.00     0.216 C 
HETATM   18  O   UNL     1      -6.614   2.207 -31.370  1.00  0.00    -0.344 OA
HETATM   19  C   UNL     1      -6.452   1.144 -32.222  1.00  0.00     0.101 A 
HETATM   20  C   UNL     1      -6.380   1.310 -33.612  1.00  0.00     0.001 A 
HETATM   21  C   UNL     1      -6.304  -0.136 -31.669  1.00  0.00     0.069 A 
HETATM   22  C   UNL     1      -6.187   0.197 -34.438  1.00  0.00     0.038 A 
HETATM   23  C   UNL     1      -6.486   2.644 -34.189  1.00  0.00     0.025 C 
HETATM   24  C   UNL     1      -6.065  -1.072 -33.874  1.00  0.00     0.036 A 
HETATM   25  C   UNL     1      -6.118  -1.245 -32.494  1.00  0.00     0.050 A 
HETATM   26 CL   UNL     1      -5.844  -2.438 -34.897  1.00  0.00    -0.084 Cl
HETATM   27 CL   UNL     1      -6.362  -0.387 -29.961  1.00  0.00    -0.081 Cl
ENDBRANCH   2  16
TORSDOF 3
ENDMDL
MODEL 8
REMARK VINA RESULT:      -7.5      5.160      9.058
REMARK  3 active torsions:
REMARK  status: ('A' for Active; 'I' for Inactive)
REMARK    1  A    between atoms: C_7  and  C_8 
REMARK       I    between atoms: C_8  and  N_9 
REMARK    2  A    between atoms: N_9  and  N_10 
REMARK    3  A    between atoms: C_11  and  C_12 
ROOT
HETATM    1  N   UNL     1      -2.127   4.787 -34.285  1.00  0.00    -0.184 NA
HETATM    2  C   UNL     1      -1.505   5.866 -33.934  1.00  0.00     0.148 C 
ENDROOT
BRANCH   1   3
HETATM    3  N   UNL     1      -3.008   4.232 -33.405  1.00  0.00    -0.243 N 
HETATM    4  C   UNL     1      -4.380   4.423 -33.536  1.00  0.00     0.280 C 
HETATM    5  O   UNL     1      -4.877   5.123 -34.416  1.00  0.00    -0.265 OA
HETATM    6  H   UNL     1      -2.667   3.660 -32.642  1.00  0.00     0.192 HD
BRANCH   4   7
HETATM    7  C   UNL     1      -5.186   3.695 -32.567  1.00  0.00     0.102 A 
HETATM    8  C   UNL     1      -6.079   2.659 -32.795  1.00  0.00     0.056 A 
HETATM    9  C   UNL     1      -6.428   2.050 -34.108  1.00  0.00     0.072 C 
HETATM   10  N   UNL     1      -6.685   2.146 -31.656  1.00  0.00    -0.228 NA
HETATM   11  C   UNL     1      -6.260   2.773 -30.591  1.00  0.00     0.165 A 
HETATM   12  N   UNL     1      -6.678   2.475 -29.352  1.00  0.00    -0.378 N 
HETATM   13  S   UNL     1      -5.132   4.027 -30.879  1.00  0.00    -0.045 SA
HETATM   14  H   UNL     1      -7.514   1.903 -29.304  1.00  0.00     0.158 HD
HETATM   15  H   UNL     1      -6.624   3.191 -28.639  1.00  0.00     0.158 HD
ENDBRANCH   4   7
ENDBRANCH   1   3
BRANCH   2  16
HETATM   16  C   UNL     1      -1.516   6.595 -32.640  1.00  0.00    -0.014 C 
HETATM   17  C   UNL     1      -2.679   7.500 -32.375  1.00  0.00     0.216 C 
HETATM   18  O   UNL     1      -2.460   8.499 -31.366  1.00  0.00    -0.344 OA
HETATM   19  C   UNL     1      -1.552   8.206 -30.382  1.00  0.00     0.101 A 
HETATM   20  C   UNL     1      -0.557   7.232 -30.552  1.00  0.00     0.001 A 
HETATM   21  C   UNL     1      -1.599   8.945 -29.191  1.00  0.00     0.069 A 
HETATM   22  C   UNL     1       0.363   6.988 -29.527  1.00  0.00     0.038 A 
HETATM   23  C   UNL     1      -0.476   6.493 -31.806  1.00  0.00     0.025 C 
HETATM   24  C   UNL     1       0.288   7.717 -28.340  1.00  0.00     0.036 A 
HETATM   25  C   UNL     1      -0.685   8.697 -28.168  1.00  0.00     0.050 A 
HETATM   26 CL   UNL     1       1.414   7.400 -27.078  1.00  0.00    -0.084 Cl
HETATM   27 CL   UNL     1      -2.790  10.171 -28.944  1.00  0.00    -0.081 Cl
ENDBRANCH   2  16
TORSDOF 3
ENDMDL
MODEL 9
REMARK VINA RESULT:      -7.5      4.016      5.639
REMARK  3 active torsions:
REMARK  status: ('A' for Active; 'I' for Inactive)
REMARK    1  A    between atoms: C_7  and  C_8 
REMARK       I    between atoms: C_8  and  N_9 
REMARK    2  A    between atoms: N_9  and  N_10 
REMARK    3  A    between atoms: C_11  and  C_12 
ROOT
HETATM    1  N   UNL     1      -2.933   5.493 -34.919  1.00  0.00    -0.184 NA
HETATM    2  C   UNL     1      -4.162   5.109 -35.051  1.00  0.00     0.148 C 
ENDROOT
BRANCH   1   3
HETATM    3  N   UNL     1      -2.414   5.577 -33.661  1.00  0.00    -0.243 N 
HETATM    4  C   UNL     1      -1.735   6.713 -33.231  1.00  0.00     0.280 C 
HETATM    5  O   UNL     1      -1.528   7.682 -33.957  1.00  0.00    -0.265 OA
HETATM    6  H   UNL     1      -2.529   4.805 -33.016  1.00  0.00     0.192 HD
BRANCH   4   7
HETATM    7  C   UNL     1      -1.318   6.675 -31.837  1.00  0.00     0.102 A 
HETATM    8  C   UNL     1      -1.548   7.618 -30.845  1.00  0.00     0.056 A 
HETATM    9  C   UNL     1      -2.277   8.907 -30.986  1.00  0.00     0.072 C 
HETATM   10  N   UNL     1      -1.042   7.287 -29.595  1.00  0.00    -0.228 NA
HETATM   11  C   UNL     1      -0.449   6.123 -29.636  1.00  0.00     0.165 A 
HETATM   12  N   UNL     1       0.125   5.556 -28.563  1.00  0.00    -0.378 N 
HETATM   13  S   UNL     1      -0.435   5.359 -31.168  1.00  0.00    -0.045 SA
HETATM   14  H   UNL     1       0.283   6.179 -27.779  1.00  0.00     0.158 HD
HETATM   15  H   UNL     1       0.862   4.879 -28.711  1.00  0.00     0.158 HD
ENDBRANCH   4   7
ENDBRANCH   1   3
BRANCH   2  16
HETATM   16  C   UNL     1      -5.185   4.813 -34.017  1.00  0.00    -0.014 C 
HETATM   17  C   UNL     1      -5.610   5.944 -33.132  1.00  0.00     0.216 C 
HETATM   18  O   UNL     1      -6.234   5.555 -31.898  1.00  0.00    -0.344 OA
HETATM   19  C   UNL     1      -6.900   4.356 -31.884  1.00  0.00     0.101 A 
HETATM   20  C   UNL     1      -6.633   3.346 -32.819  1.00  0.00     0.001 A 
HETATM   21  C   UNL     1      -7.838   4.127 -30.868  1.00  0.00     0.069 A 
HETATM   22  C   UNL     1      -7.320   2.129 -32.747  1.00  0.00     0.038 A 
HETATM   23  C   UNL     1      -5.625   3.561 -33.850  1.00  0.00     0.025 C 
HETATM   24  C   UNL     1      -8.267   1.926 -31.743  1.00  0.00     0.036 A 
HETATM   25  C   UNL     1      -8.527   2.916 -30.800  1.00  0.00     0.050 A 
HETATM   26 CL   UNL     1      -9.119   0.433 -31.670  1.00  0.00    -0.084 Cl
HETATM   27 CL   UNL     1      -8.184   5.332 -29.679  1.00  0.00    -0.081 Cl
ENDBRANCH   2  16
TORSDOF 3
ENDMDL
MODEL 10
REMARK VINA RESULT:      -7.4      4.080      6.916
REMARK  3 active torsions:
REMARK  status: ('A' for Active; 'I' for Inactive)
REMARK    1  A    between atoms: C_7  and  C_8 
REMARK       I    between atoms: C_8  and  N_9 
REMARK    2  A    between atoms: N_9  and  N_10 
REMARK    3  A    between atoms: C_11  and  C_12 
ROOT
HETATM    1  N   UNL     1      -7.740   3.041 -32.681  1.00  0.00    -0.184 NA
HETATM    2  C   UNL     1      -7.094   4.130 -32.410  1.00  0.00     0.148 C 
ENDROOT
BRANCH   1   3
HETATM    3  N   UNL     1      -7.039   1.977 -33.166  1.00  0.00    -0.243 N 
HETATM    4  C   UNL     1      -6.772   0.864 -32.374  1.00  0.00     0.280 C 
HETATM    5  O   UNL     1      -7.111   0.786 -31.195  1.00  0.00    -0.265 OA
HETATM    6  H   UNL     1      -6.710   1.983 -34.123  1.00  0.00     0.192 HD
BRANCH   4   7
HETATM    7  C   UNL     1      -6.088  -0.218 -33.065  1.00  0.00     0.102 A 
HETATM    8  C   UNL     1      -4.724  -0.458 -33.150  1.00  0.00     0.056 A 
HETATM    9  C   UNL     1      -3.632   0.357 -32.551  1.00  0.00     0.072 C 
HETATM   10  N   UNL     1      -4.373  -1.594 -33.866  1.00  0.00    -0.228 NA
HETATM   11  C   UNL     1      -5.441  -2.204 -34.309  1.00  0.00     0.165 A 
HETATM   12  N   UNL     1      -5.393  -3.335 -35.029  1.00  0.00    -0.378 N 
HETATM   13  S   UNL     1      -6.929  -1.452 -33.921  1.00  0.00    -0.045 SA
HETATM   14  H   UNL     1      -4.482  -3.563 -35.413  1.00  0.00     0.158 HD
HETATM   15  H   UNL     1      -6.168  -3.551 -35.641  1.00  0.00     0.158 HD
ENDBRANCH   4   7
ENDBRANCH   1   3
BRANCH   2  16
HETATM   16  C   UNL     1      -5.665   4.470 -32.627  1.00  0.00    -0.014 C 
HETATM   17  C   UNL     1      -5.263   4.877 -34.011  1.00  0.00     0.216 C 
HETATM   18  O   UNL     1      -3.859   4.768 -34.297  1.00  0.00    -0.344 OA
HETATM   19  C   UNL     1      -2.993   4.894 -33.241  1.00  0.00     0.101 A 
HETATM   20  C   UNL     1      -3.400   4.683 -31.916  1.00  0.00     0.001 A 
HETATM   21  C   UNL     1      -1.651   5.194 -33.513  1.00  0.00     0.069 A 
HETATM   22  C   UNL     1      -2.472   4.798 -30.875  1.00  0.00     0.038 A 
HETATM   23  C   UNL     1      -4.784   4.326 -31.632  1.00  0.00     0.025 C 
HETATM   24  C   UNL     1      -1.145   5.119 -31.161  1.00  0.00     0.036 A 
HETATM   25  C   UNL     1      -0.728   5.313 -32.474  1.00  0.00     0.050 A 
HETATM   26 CL   UNL     1      -0.014   5.273 -29.874  1.00  0.00    -0.084 Cl
HETATM   27 CL   UNL     1      -1.097   5.439 -35.131  1.00  0.00    -0.081 Cl
ENDBRANCH   2  16
TORSDOF 3
ENDMDL
