MODEL 1
REMARK VINA RESULT:      -7.9      0.000      0.000
REMARK  12 active torsions:
REMARK  status: ('A' for Active; 'I' for Inactive)
REMARK    1  A    between atoms: C_2  and  N_3 
REMARK    2  A    between atoms: N_3  and  C_5 
REMARK    3  A    between atoms: N_3  and  C_37 
REMARK    4  A    between atoms: C_5  and  C_6 
REMARK    5  A    between atoms: N_7  and  C_8 
REMARK    6  A    between atoms: C_12  and  N_13 
REMARK    7  A    between atoms: C_16  and  C_17 
REMARK       I    between atoms: C_17  and  N_18 
REMARK    8  A    between atoms: N_18  and  N_19 
REMARK    9  A    between atoms: C_20  and  C_21 
REMARK   10  A    between atoms: C_23  and  C_24 
REMARK   11  A    between atoms: C_28  and  O_29 
REMARK   12  A    between atoms: C_30  and  C_31 
ROOT
HETATM    1  C   UNL     1      -3.793   0.207 -31.265  1.00  0.00     0.293 C 
HETATM    2  N   UNL     1      -3.278   1.291 -31.949  1.00  0.00    -0.242 N 
HETATM    3  O   UNL     1      -4.160   0.206 -30.092  1.00  0.00    -0.264 OA
HETATM    4  H   UNL     1      -3.000   1.212 -32.923  1.00  0.00     0.192 HD
ENDROOT
BRANCH   1   5
HETATM    5  C   UNL     1      -3.870  -1.019 -32.047  1.00  0.00     0.170 A 
HETATM    6  C   UNL     1      -4.809  -1.312 -33.027  1.00  0.00     0.096 A 
HETATM    7  N   UNL     1      -4.526  -2.624 -33.394  1.00  0.00    -0.215 N 
HETATM    8  N   UNL     1      -3.397  -3.022 -32.749  1.00  0.00     0.012 NA
HETATM    9  N   UNL     1      -3.013  -2.070 -31.913  1.00  0.00    -0.152 NA
BRANCH   6  10
HETATM   10  C   UNL     1      -5.828  -0.435 -33.655  1.00  0.00     0.296 C 
BRANCH  10  11
HETATM   11  N   UNL     1      -7.231  -0.507 -33.080  1.00  0.00    -0.066 N 
HETATM   12  H   UNL     1      -7.439  -1.508 -32.944  1.00  0.00     0.280 HD
BRANCH  11  13
HETATM   13  C   UNL     1      -8.253   0.041 -34.069  1.00  0.00     0.231 C 
HETATM   14  C   UNL     1      -7.632   0.288 -35.431  1.00  0.00     0.034 C 
ENDBRANCH  11  13
BRANCH  11  15
HETATM   15  C   UNL     1      -7.344   0.192 -31.731  1.00  0.00     0.231 C 
HETATM   16  C   UNL     1      -7.216   1.699 -31.885  1.00  0.00     0.034 C 
ENDBRANCH  11  15
ENDBRANCH  10  11
ENDBRANCH   6  10
BRANCH   7  17
HETATM   17  C   UNL     1      -5.268  -3.482 -34.239  1.00  0.00     0.225 A 
HETATM   18  N   UNL     1      -6.361  -3.024 -34.857  1.00  0.00    -0.081 NA
HETATM   19  O   UNL     1      -6.826  -4.136 -35.566  1.00  0.00    -0.103 OA
HETATM   20  N   UNL     1      -6.027  -5.247 -35.340  1.00  0.00    -0.083 NA
HETATM   21  C   UNL     1      -5.062  -4.843 -34.515  1.00  0.00     0.201 A 
BRANCH  21  22
HETATM   22  N   UNL     1      -4.077  -5.628 -34.053  1.00  0.00    -0.379 N 
HETATM   23  H   UNL     1      -3.364  -5.983 -34.686  1.00  0.00     0.158 HD
HETATM   24  H   UNL     1      -4.079  -6.061 -33.131  1.00  0.00     0.158 HD
ENDBRANCH  21  22
ENDBRANCH   7  17
ENDBRANCH   1   5
BRANCH   2  25
HETATM   25  N   UNL     1      -3.162   2.477 -31.294  1.00  0.00    -0.184 NA
HETATM   26  C   UNL     1      -3.982   3.419 -31.636  1.00  0.00     0.150 C 
BRANCH  26  27
HETATM   27  C   UNL     1      -3.932   4.740 -30.972  1.00  0.00    -0.016 A 
HETATM   28  C   UNL     1      -2.840   5.589 -31.175  1.00  0.00     0.023 A 
HETATM   29  C   UNL     1      -2.748   6.851 -30.559  1.00  0.00    -0.016 A 
HETATM   30  C   UNL     1      -3.825   7.204 -29.703  1.00  0.00     0.079 A 
HETATM   31  C   UNL     1      -4.952   6.359 -29.471  1.00  0.00    -0.016 A 
HETATM   32  C   UNL     1      -4.978   5.122 -30.137  1.00  0.00     0.023 A 
BRANCH  29  33
HETATM   33  C   UNL     1      -1.513   7.745 -30.849  1.00  0.00    -0.021 C 
HETATM   34  C   UNL     1      -0.532   7.143 -31.899  1.00  0.00     0.019 C 
HETATM   35  C   UNL     1      -1.943   9.105 -31.444  1.00  0.00     0.019 C 
HETATM   36  C   UNL     1      -0.665   7.935 -29.570  1.00  0.00     0.019 C 
ENDBRANCH  29  33
BRANCH  30  37
HETATM   37  O   UNL     1      -3.849   8.399 -29.036  1.00  0.00    -0.360 OA
HETATM   38  H   UNL     1      -4.313   8.328 -28.195  1.00  0.00     0.217 HD
ENDBRANCH  30  37
BRANCH  31  39
HETATM   39  C   UNL     1      -6.107   6.760 -28.511  1.00  0.00    -0.021 C 
HETATM   40  C   UNL     1      -5.561   7.111 -27.109  1.00  0.00     0.019 C 
HETATM   41  C   UNL     1      -6.901   8.009 -28.982  1.00  0.00     0.019 C 
HETATM   42  C   UNL     1      -7.143   5.617 -28.408  1.00  0.00     0.019 C 
ENDBRANCH  31  39
ENDBRANCH  26  27
ENDBRANCH   2  25
TORSDOF 12
ENDMDL
MODEL 2
REMARK VINA RESULT:      -7.8      0.337      3.060
REMARK  12 active torsions:
REMARK  status: ('A' for Active; 'I' for Inactive)
REMARK    1  A    between atoms: C_2  and  N_3 
REMARK    2  A    between atoms: N_3  and  C_5 
REMARK    3  A    between atoms: N_3  and  C_37 
REMARK    4  A    between atoms: C_5  and  C_6 
REMARK    5  A    between atoms: N_7  and  C_8 
REMARK    6  A    between atoms: C_12  and  N_13 
REMARK    7  A    between atoms: C_16  and  C_17 
REMARK       I    between atoms: C_17  and  N_18 
REMARK    8  A    between atoms: N_18  and  N_19 
REMARK    9  A    between atoms: C_20  and  C_21 
REMARK   10  A    between atoms: C_23  and  C_24 
REMARK   11  A    between atoms: C_28  and  O_29 
REMARK   12  A    between atoms: C_30  and  C_31 
ROOT
HETATM    1  C   UNL     1      -3.792   0.279 -31.259  1.00  0.00     0.293 C 
HETATM    2  N   UNL     1      -3.218   1.338 -31.935  1.00  0.00    -0.242 N 
HETATM    3  O   UNL     1      -4.228   0.313 -30.110  1.00  0.00    -0.264 OA
HETATM    4  H   UNL     1      -2.884   1.230 -32.889  1.00  0.00     0.192 HD
ENDROOT
BRANCH   1   5
HETATM    5  C   UNL     1      -3.846  -0.963 -32.016  1.00  0.00     0.170 A 
HETATM    6  C   UNL     1      -4.764  -1.283 -33.007  1.00  0.00     0.096 A 
HETATM    7  N   UNL     1      -4.466  -2.600 -33.340  1.00  0.00    -0.215 N 
HETATM    8  N   UNL     1      -3.347  -2.977 -32.665  1.00  0.00     0.012 NA
HETATM    9  N   UNL     1      -2.986  -2.006 -31.842  1.00  0.00    -0.152 NA
BRANCH   6  10
HETATM   10  C   UNL     1      -5.776  -0.426 -33.673  1.00  0.00     0.296 C 
BRANCH  10  11
HETATM   11  N   UNL     1      -7.191  -0.500 -33.128  1.00  0.00    -0.066 N 
HETATM   12  H   UNL     1      -7.352  -1.485 -32.868  1.00  0.00     0.280 HD
BRANCH  11  13
HETATM   13  C   UNL     1      -8.208  -0.141 -34.205  1.00  0.00     0.231 C 
HETATM   14  C   UNL     1      -7.530   0.383 -35.457  1.00  0.00     0.034 C 
ENDBRANCH  11  13
BRANCH  11  15
HETATM   15  C   UNL     1      -7.382   0.360 -31.886  1.00  0.00     0.231 C 
HETATM   16  C   UNL     1      -8.855   0.659 -31.651  1.00  0.00     0.034 C 
ENDBRANCH  11  15
ENDBRANCH  10  11
ENDBRANCH   6  10
BRANCH   7  17
HETATM   17  C   UNL     1      -5.186  -3.481 -34.181  1.00  0.00     0.225 A 
HETATM   18  N   UNL     1      -6.275  -3.046 -34.822  1.00  0.00    -0.081 NA
HETATM   19  O   UNL     1      -6.718  -4.176 -35.519  1.00  0.00    -0.103 OA
HETATM   20  N   UNL     1      -5.910  -5.273 -35.262  1.00  0.00    -0.083 NA
HETATM   21  C   UNL     1      -4.961  -4.845 -34.431  1.00  0.00     0.201 A 
BRANCH  21  22
HETATM   22  N   UNL     1      -3.974  -5.610 -33.941  1.00  0.00    -0.379 N 
HETATM   23  H   UNL     1      -4.096  -6.102 -33.059  1.00  0.00     0.158 HD
HETATM   24  H   UNL     1      -3.019  -5.600 -34.293  1.00  0.00     0.158 HD
ENDBRANCH  21  22
ENDBRANCH   7  17
ENDBRANCH   1   5
BRANCH   2  25
HETATM   25  N   UNL     1      -3.117   2.536 -31.302  1.00  0.00    -0.184 NA
HETATM   26  C   UNL     1      -3.978   3.447 -31.629  1.00  0.00     0.150 C 
BRANCH  26  27
HETATM   27  C   UNL     1      -3.949   4.779 -30.987  1.00  0.00    -0.016 A 
HETATM   28  C   UNL     1      -5.052   5.232 -30.256  1.00  0.00     0.023 A 
HETATM   29  C   UNL     1      -5.071   6.494 -29.634  1.00  0.00    -0.016 A 
HETATM   30  C   UNL     1      -3.907   7.290 -29.809  1.00  0.00     0.079 A 
HETATM   31  C   UNL     1      -2.766   6.860 -30.552  1.00  0.00    -0.016 A 
HETATM   32  C   UNL     1      -2.819   5.578 -31.128  1.00  0.00     0.023 A 
BRANCH  29  33
HETATM   33  C   UNL     1      -6.325   6.918 -28.823  1.00  0.00    -0.021 C 
HETATM   34  C   UNL     1      -7.308   5.747 -28.527  1.00  0.00     0.019 C 
HETATM   35  C   UNL     1      -5.925   7.462 -27.433  1.00  0.00     0.019 C 
HETATM   36  C   UNL     1      -7.159   7.954 -29.612  1.00  0.00     0.019 C 
ENDBRANCH  29  33
BRANCH  30  37
HETATM   37  O   UNL     1      -3.806   8.541 -29.264  1.00  0.00    -0.360 OA
HETATM   38  H   UNL     1      -4.234   8.590 -28.403  1.00  0.00     0.217 HD
ENDBRANCH  30  37
BRANCH  31  39
HETATM   39  C   UNL     1      -1.514   7.759 -30.746  1.00  0.00    -0.021 C 
HETATM   40  C   UNL     1      -0.820   8.036 -29.394  1.00  0.00     0.019 C 
HETATM   41  C   UNL     1      -0.429   7.126 -31.659  1.00  0.00     0.019 C 
HETATM   42  C   UNL     1      -1.909   9.092 -31.424  1.00  0.00     0.019 C 
ENDBRANCH  31  39
ENDBRANCH  26  27
ENDBRANCH   2  25
TORSDOF 12
ENDMDL
MODEL 3
REMARK VINA RESULT:      -7.5      4.046      6.166
REMARK  12 active torsions:
REMARK  status: ('A' for Active; 'I' for Inactive)
REMARK    1  A    between atoms: C_2  and  N_3 
REMARK    2  A    between atoms: N_3  and  C_5 
REMARK    3  A    between atoms: N_3  and  C_37 
REMARK    4  A    between atoms: C_5  and  C_6 
REMARK    5  A    between atoms: N_7  and  C_8 
REMARK    6  A    between atoms: C_12  and  N_13 
REMARK    7  A    between atoms: C_16  and  C_17 
REMARK       I    between atoms: C_17  and  N_18 
REMARK    8  A    between atoms: N_18  and  N_19 
REMARK    9  A    between atoms: C_20  and  C_21 
REMARK   10  A    between atoms: C_23  and  C_24 
REMARK   11  A    between atoms: C_28  and  O_29 
REMARK   12  A    between atoms: C_30  and  C_31 
ROOT
HETATM    1  C   UNL     1      -7.147   5.184 -33.650  1.00  0.00     0.293 C 
HETATM    2  N   UNL     1      -7.084   5.999 -32.537  1.00  0.00    -0.242 N 
HETATM    3  O   UNL     1      -6.183   4.731 -34.264  1.00  0.00    -0.264 OA
HETATM    4  H   UNL     1      -7.931   6.330 -32.082  1.00  0.00     0.192 HD
ENDROOT
BRANCH   1   5
HETATM    5  C   UNL     1      -8.497   4.880 -34.101  1.00  0.00     0.170 A 
HETATM    6  C   UNL     1      -9.268   3.792 -33.714  1.00  0.00     0.096 A 
HETATM    7  N   UNL     1     -10.418   3.890 -34.491  1.00  0.00    -0.215 N 
HETATM    8  N   UNL     1     -10.367   5.051 -35.198  1.00  0.00     0.012 NA
HETATM    9  N   UNL     1      -9.199   5.638 -34.991  1.00  0.00    -0.152 NA
BRANCH   6  10
HETATM   10  C   UNL     1      -9.024   2.790 -32.647  1.00  0.00     0.296 C 
BRANCH  10  11
HETATM   11  N   UNL     1      -8.667   1.387 -33.103  1.00  0.00    -0.066 N 
HETATM   12  H   UNL     1      -9.469   1.049 -33.658  1.00  0.00     0.280 HD
BRANCH  11  13
HETATM   13  C   UNL     1      -8.510   0.450 -31.911  1.00  0.00     0.231 C 
HETATM   14  C   UNL     1      -7.055   0.298 -31.512  1.00  0.00     0.034 C 
ENDBRANCH  11  13
BRANCH  11  15
HETATM   15  C   UNL     1      -7.428   1.360 -33.988  1.00  0.00     0.231 C 
HETATM   16  C   UNL     1      -7.633   0.444 -35.184  1.00  0.00     0.034 C 
ENDBRANCH  11  15
ENDBRANCH  10  11
ENDBRANCH   6  10
BRANCH   7  17
HETATM   17  C   UNL     1     -11.474   2.959 -34.624  1.00  0.00     0.225 A 
HETATM   18  N   UNL     1     -11.199   1.658 -34.762  1.00  0.00    -0.081 NA
HETATM   19  O   UNL     1     -12.462   1.068 -34.886  1.00  0.00    -0.103 OA
HETATM   20  N   UNL     1     -13.467   2.022 -34.851  1.00  0.00    -0.083 NA
HETATM   21  C   UNL     1     -12.857   3.195 -34.691  1.00  0.00     0.201 A 
BRANCH  21  22
HETATM   22  N   UNL     1     -13.486   4.377 -34.607  1.00  0.00    -0.379 N 
HETATM   23  H   UNL     1     -14.477   4.447 -34.823  1.00  0.00     0.158 HD
HETATM   24  H   UNL     1     -13.007   5.271 -34.518  1.00  0.00     0.158 HD
ENDBRANCH  21  22
ENDBRANCH   7  17
ENDBRANCH   1   5
BRANCH   2  25
HETATM   25  N   UNL     1      -5.862   6.343 -32.050  1.00  0.00    -0.184 NA
HETATM   26  C   UNL     1      -5.639   6.096 -30.799  1.00  0.00     0.150 C 
BRANCH  26  27
HETATM   27  C   UNL     1      -4.335   6.429 -30.185  1.00  0.00    -0.016 A 
HETATM   28  C   UNL     1      -3.145   6.022 -30.796  1.00  0.00     0.023 A 
HETATM   29  C   UNL     1      -1.883   6.311 -30.245  1.00  0.00    -0.016 A 
HETATM   30  C   UNL     1      -1.890   7.027 -29.018  1.00  0.00     0.079 A 
HETATM   31  C   UNL     1      -3.087   7.454 -28.366  1.00  0.00    -0.016 A 
HETATM   32  C   UNL     1      -4.307   7.142 -28.990  1.00  0.00     0.023 A 
BRANCH  29  33
HETATM   33  C   UNL     1      -0.606   5.841 -30.992  1.00  0.00    -0.021 C 
HETATM   34  C   UNL     1       0.372   6.998 -31.355  1.00  0.00     0.019 C 
HETATM   35  C   UNL     1       0.226   4.880 -30.114  1.00  0.00     0.019 C 
HETATM   36  C   UNL     1      -0.975   5.188 -32.344  1.00  0.00     0.019 C 
ENDBRANCH  29  33
BRANCH  30  37
HETATM   37  O   UNL     1      -0.730   7.359 -28.375  1.00  0.00    -0.360 OA
HETATM   38  H   UNL     1      -0.332   8.154 -28.745  1.00  0.00     0.217 HD
ENDBRANCH  30  37
BRANCH  31  39
HETATM   39  C   UNL     1      -3.068   8.217 -27.013  1.00  0.00    -0.021 C 
HETATM   40  C   UNL     1      -4.505   8.484 -26.511  1.00  0.00     0.019 C 
HETATM   41  C   UNL     1      -2.357   7.441 -25.871  1.00  0.00     0.019 C 
HETATM   42  C   UNL     1      -2.299   9.551 -27.157  1.00  0.00     0.019 C 
ENDBRANCH  31  39
ENDBRANCH  26  27
ENDBRANCH   2  25
TORSDOF 12
ENDMDL
MODEL 4
REMARK VINA RESULT:      -7.5      4.143      5.955
REMARK  12 active torsions:
REMARK  status: ('A' for Active; 'I' for Inactive)
REMARK    1  A    between atoms: C_2  and  N_3 
REMARK    2  A    between atoms: N_3  and  C_5 
REMARK    3  A    between atoms: N_3  and  C_37 
REMARK    4  A    between atoms: C_5  and  C_6 
REMARK    5  A    between atoms: N_7  and  C_8 
REMARK    6  A    between atoms: C_12  and  N_13 
REMARK    7  A    between atoms: C_16  and  C_17 
REMARK       I    between atoms: C_17  and  N_18 
REMARK    8  A    between atoms: N_18  and  N_19 
REMARK    9  A    between atoms: C_20  and  C_21 
REMARK   10  A    between atoms: C_23  and  C_24 
REMARK   11  A    between atoms: C_28  and  O_29 
REMARK   12  A    between atoms: C_30  and  C_31 
ROOT
HETATM    1  C   UNL     1      -8.697   4.061 -30.554  1.00  0.00     0.293 C 
HETATM    2  N   UNL     1      -8.167   5.316 -30.779  1.00  0.00    -0.242 N 
HETATM    3  O   UNL     1      -8.200   3.188 -29.846  1.00  0.00    -0.264 OA
HETATM    4  H   UNL     1      -8.643   5.986 -31.376  1.00  0.00     0.192 HD
ENDROOT
BRANCH   1   5
HETATM    5  C   UNL     1      -9.947   3.799 -31.253  1.00  0.00     0.170 A 
HETATM    6  C   UNL     1     -10.171   2.802 -32.192  1.00  0.00     0.096 A 
HETATM    7  N   UNL     1     -11.470   3.031 -32.635  1.00  0.00    -0.215 N 
HETATM    8  N   UNL     1     -12.012   4.033 -31.893  1.00  0.00     0.012 NA
HETATM    9  N   UNL     1     -11.090   4.521 -31.078  1.00  0.00    -0.152 NA
BRANCH   6  10
HETATM   10  C   UNL     1      -9.306   1.663 -32.590  1.00  0.00     0.296 C 
BRANCH  10  11
HETATM   11  N   UNL     1      -8.487   1.843 -33.855  1.00  0.00    -0.066 N 
HETATM   12  H   UNL     1      -8.963   2.574 -34.407  1.00  0.00     0.280 HD
BRANCH  11  13
HETATM   13  C   UNL     1      -8.487   0.568 -34.690  1.00  0.00     0.231 C 
HETATM   14  C   UNL     1      -7.129   0.314 -35.316  1.00  0.00     0.034 C 
ENDBRANCH  11  13
BRANCH  11  15
HETATM   15  C   UNL     1      -7.067   2.310 -33.567  1.00  0.00     0.231 C 
HETATM   16  C   UNL     1      -6.907   3.791 -33.874  1.00  0.00     0.034 C 
ENDBRANCH  11  15
ENDBRANCH  10  11
ENDBRANCH   6  10
BRANCH   7  17
HETATM   17  C   UNL     1     -12.158   2.413 -33.705  1.00  0.00     0.225 A 
HETATM   18  N   UNL     1     -11.644   2.455 -34.939  1.00  0.00    -0.081 NA
HETATM   19  O   UNL     1     -12.592   1.777 -35.712  1.00  0.00    -0.103 OA
HETATM   20  N   UNL     1     -13.669   1.366 -34.941  1.00  0.00    -0.083 NA
HETATM   21  C   UNL     1     -13.402   1.762 -33.697  1.00  0.00     0.201 A 
BRANCH  21  22
HETATM   22  N   UNL     1     -14.205   1.553 -32.642  1.00  0.00    -0.379 N 
HETATM   23  H   UNL     1     -15.040   2.119 -32.513  1.00  0.00     0.158 HD
HETATM   24  H   UNL     1     -13.950   0.983 -31.838  1.00  0.00     0.158 HD
ENDBRANCH  21  22
ENDBRANCH   7  17
ENDBRANCH   1   5
BRANCH   2  25
HETATM   25  N   UNL     1      -6.995   5.645 -30.173  1.00  0.00    -0.184 NA
HETATM   26  C   UNL     1      -5.987   5.899 -30.945  1.00  0.00     0.150 C 
BRANCH  26  27
HETATM   27  C   UNL     1      -4.674   6.272 -30.373  1.00  0.00    -0.016 A 
HETATM   28  C   UNL     1      -3.494   5.925 -31.038  1.00  0.00     0.023 A 
HETATM   29  C   UNL     1      -2.224   6.254 -30.528  1.00  0.00    -0.016 A 
HETATM   30  C   UNL     1      -2.212   6.944 -29.287  1.00  0.00     0.079 A 
HETATM   31  C   UNL     1      -3.398   7.310 -28.581  1.00  0.00    -0.016 A 
HETATM   32  C   UNL     1      -4.629   6.961 -29.165  1.00  0.00     0.023 A 
BRANCH  29  33
HETATM   33  C   UNL     1      -0.959   5.851 -31.333  1.00  0.00    -0.021 C 
HETATM   34  C   UNL     1       0.090   5.055 -30.501  1.00  0.00     0.019 C 
HETATM   35  C   UNL     1      -1.327   4.915 -32.506  1.00  0.00     0.019 C 
HETATM   36  C   UNL     1      -0.207   7.107 -31.831  1.00  0.00     0.019 C 
ENDBRANCH  29  33
BRANCH  30  37
HETATM   37  O   UNL     1      -1.042   7.310 -28.681  1.00  0.00    -0.360 OA
HETATM   38  H   UNL     1      -0.742   8.175 -28.979  1.00  0.00     0.217 HD
ENDBRANCH  30  37
BRANCH  31  39
HETATM   39  C   UNL     1      -3.358   8.046 -27.214  1.00  0.00    -0.021 C 
HETATM   40  C   UNL     1      -2.626   9.401 -27.339  1.00  0.00     0.019 C 
HETATM   41  C   UNL     1      -4.763   8.375 -26.642  1.00  0.00     0.019 C 
HETATM   42  C   UNL     1      -2.665   7.165 -26.148  1.00  0.00     0.019 C 
ENDBRANCH  31  39
ENDBRANCH  26  27
ENDBRANCH   2  25
TORSDOF 12
ENDMDL
MODEL 5
REMARK VINA RESULT:      -7.5      4.630     10.147
REMARK  12 active torsions:
REMARK  status: ('A' for Active; 'I' for Inactive)
REMARK    1  A    between atoms: C_2  and  N_3 
REMARK    2  A    between atoms: N_3  and  C_5 
REMARK    3  A    between atoms: N_3  and  C_37 
REMARK    4  A    between atoms: C_5  and  C_6 
REMARK    5  A    between atoms: N_7  and  C_8 
REMARK    6  A    between atoms: C_12  and  N_13 
REMARK    7  A    between atoms: C_16  and  C_17 
REMARK       I    between atoms: C_17  and  N_18 
REMARK    8  A    between atoms: N_18  and  N_19 
REMARK    9  A    between atoms: C_20  and  C_21 
REMARK   10  A    between atoms: C_23  and  C_24 
REMARK   11  A    between atoms: C_28  and  O_29 
REMARK   12  A    between atoms: C_30  and  C_31 
ROOT
HETATM    1  C   UNL     1      -5.122   6.601 -29.625  1.00  0.00     0.293 C 
HETATM    2  N   UNL     1      -5.274   5.237 -29.475  1.00  0.00    -0.242 N 
HETATM    3  O   UNL     1      -5.772   7.317 -30.384  1.00  0.00    -0.264 OA
HETATM    4  H   UNL     1      -4.698   4.715 -28.820  1.00  0.00     0.192 HD
ENDROOT
BRANCH   1   5
HETATM    5  C   UNL     1      -4.076   7.187 -28.799  1.00  0.00     0.170 A 
HETATM    6  C   UNL     1      -2.715   7.188 -29.073  1.00  0.00     0.096 A 
HETATM    7  N   UNL     1      -2.137   7.765 -27.947  1.00  0.00    -0.215 N 
HETATM    8  N   UNL     1      -3.129   8.194 -27.121  1.00  0.00     0.012 NA
HETATM    9  N   UNL     1      -4.299   7.822 -27.614  1.00  0.00    -0.152 NA
BRANCH   6  10
HETATM   10  C   UNL     1      -1.997   6.783 -30.306  1.00  0.00     0.296 C 
BRANCH  10  11
HETATM   11  N   UNL     1      -1.453   5.366 -30.341  1.00  0.00    -0.066 N 
HETATM   12  H   UNL     1      -1.678   4.947 -29.425  1.00  0.00     0.280 HD
BRANCH  11  13
HETATM   13  C   UNL     1       0.064   5.368 -30.482  1.00  0.00     0.231 C 
HETATM   14  C   UNL     1       0.579   6.723 -30.932  1.00  0.00     0.034 C 
ENDBRANCH  11  13
BRANCH  11  15
HETATM   15  C   UNL     1      -2.104   4.519 -31.427  1.00  0.00     0.231 C 
HETATM   16  C   UNL     1      -2.621   5.391 -32.561  1.00  0.00     0.034 C 
ENDBRANCH  11  15
ENDBRANCH  10  11
ENDBRANCH   6  10
BRANCH   7  17
HETATM   17  C   UNL     1      -0.766   7.873 -27.616  1.00  0.00     0.225 A 
HETATM   18  N   UNL     1      -0.102   9.000 -27.892  1.00  0.00    -0.081 NA
HETATM   19  O   UNL     1       1.198   8.729 -27.454  1.00  0.00    -0.103 OA
HETATM   20  N   UNL     1       1.302   7.441 -26.952  1.00  0.00    -0.083 NA
HETATM   21  C   UNL     1       0.085   6.908 -27.054  1.00  0.00     0.201 A 
BRANCH  21  22
HETATM   22  N   UNL     1      -0.236   5.663 -26.671  1.00  0.00    -0.379 N 
HETATM   23  H   UNL     1      -1.190   5.441 -26.397  1.00  0.00     0.158 HD
HETATM   24  H   UNL     1       0.448   4.941 -26.451  1.00  0.00     0.158 HD
ENDBRANCH  21  22
ENDBRANCH   7  17
ENDBRANCH   1   5
BRANCH   2  25
HETATM   25  N   UNL     1      -6.223   4.603 -30.214  1.00  0.00    -0.184 NA
HETATM   26  C   UNL     1      -5.859   4.149 -31.371  1.00  0.00     0.150 C 
BRANCH  26  27
HETATM   27  C   UNL     1      -6.822   3.440 -32.241  1.00  0.00    -0.016 A 
HETATM   28  C   UNL     1      -8.068   4.009 -32.520  1.00  0.00     0.023 A 
HETATM   29  C   UNL     1      -9.018   3.367 -33.337  1.00  0.00    -0.016 A 
HETATM   30  C   UNL     1      -8.642   2.096 -33.847  1.00  0.00     0.079 A 
HETATM   31  C   UNL     1      -7.379   1.485 -33.577  1.00  0.00    -0.016 A 
HETATM   32  C   UNL     1      -6.479   2.199 -32.767  1.00  0.00     0.023 A 
BRANCH  29  33
HETATM   33  C   UNL     1     -10.373   4.072 -33.617  1.00  0.00    -0.021 C 
HETATM   34  C   UNL     1     -10.531   5.442 -32.894  1.00  0.00     0.019 C 
HETATM   35  C   UNL     1     -10.525   4.397 -35.120  1.00  0.00     0.019 C 
HETATM   36  C   UNL     1     -11.551   3.209 -33.108  1.00  0.00     0.019 C 
ENDBRANCH  29  33
BRANCH  30  37
HETATM   37  O   UNL     1      -9.480   1.366 -34.643  1.00  0.00    -0.360 OA
HETATM   38  H   UNL     1      -9.118   0.494 -34.837  1.00  0.00     0.217 HD
ENDBRANCH  30  37
BRANCH  31  39
HETATM   39  C   UNL     1      -7.001   0.083 -34.129  1.00  0.00    -0.021 C 
HETATM   40  C   UNL     1      -7.138   0.041 -35.668  1.00  0.00     0.019 C 
HETATM   41  C   UNL     1      -5.536  -0.331 -33.823  1.00  0.00     0.019 C 
HETATM   42  C   UNL     1      -7.889  -1.006 -33.486  1.00  0.00     0.019 C 
ENDBRANCH  31  39
ENDBRANCH  26  27
ENDBRANCH   2  25
TORSDOF 12
ENDMDL
MODEL 6
REMARK VINA RESULT:      -7.4      4.659      9.955
REMARK  12 active torsions:
REMARK  status: ('A' for Active; 'I' for Inactive)
REMARK    1  A    between atoms: C_2  and  N_3 
REMARK    2  A    between atoms: N_3  and  C_5 
REMARK    3  A    between atoms: N_3  and  C_37 
REMARK    4  A    between atoms: C_5  and  C_6 
REMARK    5  A    between atoms: N_7  and  C_8 
REMARK    6  A    between atoms: C_12  and  N_13 
REMARK    7  A    between atoms: C_16  and  C_17 
REMARK       I    between atoms: C_17  and  N_18 
REMARK    8  A    between atoms: N_18  and  N_19 
REMARK    9  A    between atoms: C_20  and  C_21 
REMARK   10  A    between atoms: C_23  and  C_24 
REMARK   11  A    between atoms: C_28  and  O_29 
REMARK   12  A    between atoms: C_30  and  C_31 
ROOT
HETATM    1  C   UNL     1      -5.137   6.627 -29.548  1.00  0.00     0.293 C 
HETATM    2  N   UNL     1      -5.271   5.254 -29.468  1.00  0.00    -0.242 N 
HETATM    3  O   UNL     1      -5.820   7.376 -30.243  1.00  0.00    -0.264 OA
HETATM    4  H   UNL     1      -4.667   4.704 -28.864  1.00  0.00     0.192 HD
ENDROOT
BRANCH   1   5
HETATM    5  C   UNL     1      -4.069   7.178 -28.726  1.00  0.00     0.170 A 
HETATM    6  C   UNL     1      -2.714   7.168 -29.023  1.00  0.00     0.096 A 
HETATM    7  N   UNL     1      -2.109   7.711 -27.894  1.00  0.00    -0.215 N 
HETATM    8  N   UNL     1      -3.081   8.132 -27.040  1.00  0.00     0.012 NA
HETATM    9  N   UNL     1      -4.264   7.787 -27.522  1.00  0.00    -0.152 NA
BRANCH   6  10
HETATM   10  C   UNL     1      -2.022   6.785 -30.279  1.00  0.00     0.296 C 
BRANCH  10  11
HETATM   11  N   UNL     1      -1.455   5.378 -30.338  1.00  0.00    -0.066 N 
HETATM   12  H   UNL     1      -1.699   4.929 -29.442  1.00  0.00     0.280 HD
BRANCH  11  13
HETATM   13  C   UNL     1       0.066   5.408 -30.435  1.00  0.00     0.231 C 
HETATM   14  C   UNL     1       0.565   6.751 -30.933  1.00  0.00     0.034 C 
ENDBRANCH  11  13
BRANCH  11  15
HETATM   15  C   UNL     1      -2.061   4.553 -31.466  1.00  0.00     0.231 C 
HETATM   16  C   UNL     1      -2.717   5.450 -32.505  1.00  0.00     0.034 C 
ENDBRANCH  11  15
ENDBRANCH  10  11
ENDBRANCH   6  10
BRANCH   7  17
HETATM   17  C   UNL     1      -0.731   7.792 -27.585  1.00  0.00     0.225 A 
HETATM   18  N   UNL     1      -0.035   8.878 -27.934  1.00  0.00    -0.081 NA
HETATM   19  O   UNL     1       1.262   8.592 -27.494  1.00  0.00    -0.103 OA
HETATM   20  N   UNL     1       1.330   7.333 -26.918  1.00  0.00    -0.083 NA
HETATM   21  C   UNL     1       0.096   6.835 -26.975  1.00  0.00     0.201 A 
BRANCH  21  22
HETATM   22  N   UNL     1      -0.261   5.626 -26.515  1.00  0.00    -0.379 N 
HETATM   23  H   UNL     1       0.211   4.789 -26.852  1.00  0.00     0.158 HD
HETATM   24  H   UNL     1      -1.108   5.448 -25.978  1.00  0.00     0.158 HD
ENDBRANCH  21  22
ENDBRANCH   7  17
ENDBRANCH   1   5
BRANCH   2  25
HETATM   25  N   UNL     1      -6.237   4.651 -30.209  1.00  0.00    -0.184 NA
HETATM   26  C   UNL     1      -5.859   4.060 -31.298  1.00  0.00     0.150 C 
BRANCH  26  27
HETATM   27  C   UNL     1      -6.842   3.372 -32.163  1.00  0.00    -0.016 A 
HETATM   28  C   UNL     1      -6.530   2.134 -32.734  1.00  0.00     0.023 A 
HETATM   29  C   UNL     1      -7.431   1.446 -33.569  1.00  0.00    -0.016 A 
HETATM   30  C   UNL     1      -8.672   2.095 -33.812  1.00  0.00     0.079 A 
HETATM   31  C   UNL     1      -9.019   3.360 -33.248  1.00  0.00    -0.016 A 
HETATM   32  C   UNL     1      -8.071   3.974 -32.411  1.00  0.00     0.023 A 
BRANCH  29  33
HETATM   33  C   UNL     1      -7.021   0.066 -34.150  1.00  0.00    -0.021 C 
HETATM   34  C   UNL     1      -5.546  -0.331 -33.845  1.00  0.00     0.019 C 
HETATM   35  C   UNL     1      -7.872  -1.067 -33.534  1.00  0.00     0.019 C 
HETATM   36  C   UNL     1      -7.125   0.072 -35.692  1.00  0.00     0.019 C 
ENDBRANCH  29  33
BRANCH  30  37
HETATM   37  O   UNL     1      -9.627   1.536 -34.615  1.00  0.00    -0.360 OA
HETATM   38  H   UNL     1      -9.319   1.440 -35.522  1.00  0.00     0.217 HD
ENDBRANCH  30  37
BRANCH  31  39
HETATM   39  C   UNL     1     -10.374   4.059 -33.548  1.00  0.00    -0.021 C 
HETATM   40  C   UNL     1     -10.511   4.370 -35.055  1.00  0.00     0.019 C 
HETATM   41  C   UNL     1     -11.612   3.198 -33.179  1.00  0.00     0.019 C 
HETATM   42  C   UNL     1     -10.503   5.359 -32.722  1.00  0.00     0.019 C 
ENDBRANCH  31  39
ENDBRANCH  26  27
ENDBRANCH   2  25
TORSDOF 12
ENDMDL
MODEL 7
REMARK VINA RESULT:      -7.4      4.231      6.603
REMARK  12 active torsions:
REMARK  status: ('A' for Active; 'I' for Inactive)
REMARK    1  A    between atoms: C_2  and  N_3 
REMARK    2  A    between atoms: N_3  and  C_5 
REMARK    3  A    between atoms: N_3  and  C_37 
REMARK    4  A    between atoms: C_5  and  C_6 
REMARK    5  A    between atoms: N_7  and  C_8 
REMARK    6  A    between atoms: C_12  and  N_13 
REMARK    7  A    between atoms: C_16  and  C_17 
REMARK       I    between atoms: C_17  and  N_18 
REMARK    8  A    between atoms: N_18  and  N_19 
REMARK    9  A    between atoms: C_20  and  C_21 
REMARK   10  A    between atoms: C_23  and  C_24 
REMARK   11  A    between atoms: C_28  and  O_29 
REMARK   12  A    between atoms: C_30  and  C_31 
ROOT
HETATM    1  C   UNL     1      -7.633   4.942 -33.711  1.00  0.00     0.293 C 
HETATM    2  N   UNL     1      -7.482   5.902 -32.729  1.00  0.00    -0.242 N 
HETATM    3  O   UNL     1      -6.722   4.320 -34.252  1.00  0.00    -0.264 OA
HETATM    4  H   UNL     1      -8.289   6.370 -32.326  1.00  0.00     0.192 HD
ENDROOT
BRANCH   1   5
HETATM    5  C   UNL     1      -9.011   4.699 -34.111  1.00  0.00     0.170 A 
HETATM    6  C   UNL     1      -9.813   3.643 -33.700  1.00  0.00     0.096 A 
HETATM    7  N   UNL     1     -10.986   3.795 -34.431  1.00  0.00    -0.215 N 
HETATM    8  N   UNL     1     -10.913   4.958 -35.133  1.00  0.00     0.012 NA
HETATM    9  N   UNL     1      -9.713   5.493 -34.968  1.00  0.00    -0.152 NA
BRANCH   6  10
HETATM   10  C   UNL     1      -9.571   2.623 -32.649  1.00  0.00     0.296 C 
BRANCH  10  11
HETATM   11  N   UNL     1      -8.347   1.743 -32.827  1.00  0.00    -0.066 N 
HETATM   12  H   UNL     1      -7.817   2.140 -33.617  1.00  0.00     0.280 HD
BRANCH  11  13
HETATM   13  C   UNL     1      -8.749   0.324 -33.213  1.00  0.00     0.231 C 
HETATM   14  C   UNL     1     -10.199   0.043 -32.864  1.00  0.00     0.034 C 
ENDBRANCH  11  13
BRANCH  11  15
HETATM   15  C   UNL     1      -7.447   1.743 -31.598  1.00  0.00     0.231 C 
HETATM   16  C   UNL     1      -7.893   2.796 -30.596  1.00  0.00     0.034 C 
ENDBRANCH  11  15
ENDBRANCH  10  11
ENDBRANCH   6  10
BRANCH   7  17
HETATM   17  C   UNL     1     -12.086   2.911 -34.529  1.00  0.00     0.225 A 
HETATM   18  N   UNL     1     -12.355   2.312 -35.693  1.00  0.00    -0.081 NA
HETATM   19  O   UNL     1     -13.497   1.552 -35.414  1.00  0.00    -0.103 OA
HETATM   20  N   UNL     1     -13.910   1.730 -34.102  1.00  0.00    -0.083 NA
HETATM   21  C   UNL     1     -13.038   2.574 -33.553  1.00  0.00     0.201 A 
BRANCH  21  22
HETATM   22  N   UNL     1     -13.088   3.003 -32.283  1.00  0.00    -0.379 N 
HETATM   23  H   UNL     1     -13.950   2.922 -31.748  1.00  0.00     0.158 HD
HETATM   24  H   UNL     1     -12.372   3.583 -31.849  1.00  0.00     0.158 HD
ENDBRANCH  21  22
ENDBRANCH   7  17
ENDBRANCH   1   5
BRANCH   2  25
HETATM   25  N   UNL     1      -6.227   6.200 -32.299  1.00  0.00    -0.184 NA
HETATM   26  C   UNL     1      -5.975   6.006 -31.044  1.00  0.00     0.150 C 
BRANCH  26  27
HETATM   27  C   UNL     1      -4.635   6.296 -30.489  1.00  0.00    -0.016 A 
HETATM   28  C   UNL     1      -4.509   6.912 -29.240  1.00  0.00     0.023 A 
HETATM   29  C   UNL     1      -3.255   7.213 -28.677  1.00  0.00    -0.016 A 
HETATM   30  C   UNL     1      -2.122   6.870 -29.462  1.00  0.00     0.079 A 
HETATM   31  C   UNL     1      -2.216   6.244 -30.743  1.00  0.00    -0.016 A 
HETATM   32  C   UNL     1      -3.505   5.961 -31.228  1.00  0.00     0.023 A 
BRANCH  29  33
HETATM   33  C   UNL     1      -3.196   7.879 -27.276  1.00  0.00    -0.021 C 
HETATM   34  C   UNL     1      -4.595   8.132 -26.640  1.00  0.00     0.019 C 
HETATM   35  C   UNL     1      -2.458   6.974 -26.265  1.00  0.00     0.019 C 
HETATM   36  C   UNL     1      -2.537   9.276 -27.364  1.00  0.00     0.019 C 
ENDBRANCH  29  33
BRANCH  30  37
HETATM   37  O   UNL     1      -0.848   7.121 -29.032  1.00  0.00    -0.360 OA
HETATM   38  H   UNL     1      -0.268   7.366 -29.761  1.00  0.00     0.217 HD
ENDBRANCH  30  37
BRANCH  31  39
HETATM   39  C   UNL     1      -0.962   5.900 -31.592  1.00  0.00    -0.021 C 
HETATM   40  C   UNL     1      -0.320   7.180 -32.172  1.00  0.00     0.019 C 
HETATM   41  C   UNL     1       0.160   5.191 -30.786  1.00  0.00     0.019 C 
HETATM   42  C   UNL     1      -1.336   4.928 -32.735  1.00  0.00     0.019 C 
ENDBRANCH  31  39
ENDBRANCH  26  27
ENDBRANCH   2  25
TORSDOF 12
ENDMDL
MODEL 8
REMARK VINA RESULT:      -7.4      3.842      6.193
REMARK  12 active torsions:
REMARK  status: ('A' for Active; 'I' for Inactive)
REMARK    1  A    between atoms: C_2  and  N_3 
REMARK    2  A    between atoms: N_3  and  C_5 
REMARK    3  A    between atoms: N_3  and  C_37 
REMARK    4  A    between atoms: C_5  and  C_6 
REMARK    5  A    between atoms: N_7  and  C_8 
REMARK    6  A    between atoms: C_12  and  N_13 
REMARK    7  A    between atoms: C_16  and  C_17 
REMARK       I    between atoms: C_17  and  N_18 
REMARK    8  A    between atoms: N_18  and  N_19 
REMARK    9  A    between atoms: C_20  and  C_21 
REMARK   10  A    between atoms: C_23  and  C_24 
REMARK   11  A    between atoms: C_28  and  O_29 
REMARK   12  A    between atoms: C_30  and  C_31 
ROOT
HETATM    1  C   UNL     1      -8.092   3.586 -30.735  1.00  0.00     0.293 C 
HETATM    2  N   UNL     1      -7.407   4.723 -31.118  1.00  0.00    -0.242 N 
HETATM    3  O   UNL     1      -7.684   2.732 -29.951  1.00  0.00    -0.264 OA
HETATM    4  H   UNL     1      -7.817   5.386 -31.770  1.00  0.00     0.192 HD
ENDROOT
BRANCH   1   5
HETATM    5  C   UNL     1      -9.400   3.431 -31.356  1.00  0.00     0.170 A 
HETATM    6  C   UNL     1      -9.751   2.484 -32.308  1.00  0.00     0.096 A 
HETATM    7  N   UNL     1     -11.057   2.813 -32.656  1.00  0.00    -0.215 N 
HETATM    8  N   UNL     1     -11.481   3.822 -31.849  1.00  0.00     0.012 NA
HETATM    9  N   UNL     1     -10.477   4.220 -31.084  1.00  0.00    -0.152 NA
BRANCH   6  10
HETATM   10  C   UNL     1      -8.992   1.305 -32.796  1.00  0.00     0.296 C 
BRANCH  10  11
HETATM   11  N   UNL     1      -8.110   1.524 -34.012  1.00  0.00    -0.066 N 
HETATM   12  H   UNL     1      -8.476   2.361 -34.491  1.00  0.00     0.280 HD
BRANCH  11  13
HETATM   13  C   UNL     1      -8.224   0.356 -34.985  1.00  0.00     0.231 C 
HETATM   14  C   UNL     1      -7.001  -0.541 -34.922  1.00  0.00     0.034 C 
ENDBRANCH  11  13
BRANCH  11  15
HETATM   15  C   UNL     1      -6.657   1.785 -33.637  1.00  0.00     0.231 C 
HETATM   16  C   UNL     1      -6.240   3.196 -34.023  1.00  0.00     0.034 C 
ENDBRANCH  11  15
ENDBRANCH  10  11
ENDBRANCH   6  10
BRANCH   7  17
HETATM   17  C   UNL     1     -11.853   2.278 -33.696  1.00  0.00     0.225 A 
HETATM   18  N   UNL     1     -11.367   2.217 -34.940  1.00  0.00    -0.081 NA
HETATM   19  O   UNL     1     -12.423   1.667 -35.676  1.00  0.00    -0.103 OA
HETATM   20  N   UNL     1     -13.529   1.437 -34.873  1.00  0.00    -0.083 NA
HETATM   21  C   UNL     1     -13.179   1.818 -33.646  1.00  0.00     0.201 A 
BRANCH  21  22
HETATM   22  N   UNL     1     -13.978   1.753 -32.570  1.00  0.00    -0.379 N 
HETATM   23  H   UNL     1     -14.369   0.861 -32.274  1.00  0.00     0.158 HD
HETATM   24  H   UNL     1     -14.386   2.567 -32.115  1.00  0.00     0.158 HD
ENDBRANCH  21  22
ENDBRANCH   7  17
ENDBRANCH   1   5
BRANCH   2  25
HETATM   25  N   UNL     1      -6.173   4.946 -30.594  1.00  0.00    -0.184 NA
HETATM   26  C   UNL     1      -5.708   6.151 -30.680  1.00  0.00     0.150 C 
BRANCH  26  27
HETATM   27  C   UNL     1      -4.376   6.487 -30.131  1.00  0.00    -0.016 A 
HETATM   28  C   UNL     1      -4.268   7.279 -28.983  1.00  0.00     0.023 A 
HETATM   29  C   UNL     1      -3.022   7.629 -28.430  1.00  0.00    -0.016 A 
HETATM   30  C   UNL     1      -1.878   7.145 -29.118  1.00  0.00     0.079 A 
HETATM   31  C   UNL     1      -1.953   6.338 -30.294  1.00  0.00    -0.016 A 
HETATM   32  C   UNL     1      -3.235   6.017 -30.774  1.00  0.00     0.023 A 
BRANCH  29  33
HETATM   33  C   UNL     1      -2.984   8.495 -27.142  1.00  0.00    -0.021 C 
HETATM   34  C   UNL     1      -2.341   9.899 -27.347  1.00  0.00     0.019 C 
HETATM   35  C   UNL     1      -4.412   8.784 -26.629  1.00  0.00     0.019 C 
HETATM   36  C   UNL     1      -2.123   7.815 -26.053  1.00  0.00     0.019 C 
ENDBRANCH  29  33
BRANCH  30  37
HETATM   37  O   UNL     1      -0.610   7.425 -28.689  1.00  0.00    -0.360 OA
HETATM   38  H   UNL     1      -0.610   8.083 -27.985  1.00  0.00     0.217 HD
ENDBRANCH  30  37
BRANCH  31  39
HETATM   39  C   UNL     1      -0.686   5.839 -31.042  1.00  0.00    -0.021 C 
HETATM   40  C   UNL     1      -1.070   5.088 -32.336  1.00  0.00     0.019 C 
HETATM   41  C   UNL     1       0.266   6.984 -31.483  1.00  0.00     0.019 C 
HETATM   42  C   UNL     1       0.155   4.922 -30.124  1.00  0.00     0.019 C 
ENDBRANCH  31  39
ENDBRANCH  26  27
ENDBRANCH   2  25
TORSDOF 12
ENDMDL
MODEL 9
REMARK VINA RESULT:      -7.3      3.751      6.197
REMARK  12 active torsions:
REMARK  status: ('A' for Active; 'I' for Inactive)
REMARK    1  A    between atoms: C_2  and  N_3 
REMARK    2  A    between atoms: N_3  and  C_5 
REMARK    3  A    between atoms: N_3  and  C_37 
REMARK    4  A    between atoms: C_5  and  C_6 
REMARK    5  A    between atoms: N_7  and  C_8 
REMARK    6  A    between atoms: C_12  and  N_13 
REMARK    7  A    between atoms: C_16  and  C_17 
REMARK       I    between atoms: C_17  and  N_18 
REMARK    8  A    between atoms: N_18  and  N_19 
REMARK    9  A    between atoms: C_20  and  C_21 
REMARK   10  A    between atoms: C_23  and  C_24 
REMARK   11  A    between atoms: C_28  and  O_29 
REMARK   12  A    between atoms: C_30  and  C_31 
ROOT
HETATM    1  C   UNL     1      -6.968   4.500 -33.248  1.00  0.00     0.293 C 
HETATM    2  N   UNL     1      -6.791   5.641 -32.490  1.00  0.00    -0.242 N 
HETATM    3  O   UNL     1      -6.091   3.691 -33.544  1.00  0.00    -0.264 OA
HETATM    4  H   UNL     1      -7.571   6.259 -32.284  1.00  0.00     0.192 HD
ENDROOT
BRANCH   1   5
HETATM    5  C   UNL     1      -8.330   4.295 -33.721  1.00  0.00     0.170 A 
HETATM    6  C   UNL     1      -9.150   3.215 -33.423  1.00  0.00     0.096 A 
HETATM    7  N   UNL     1     -10.292   3.429 -34.190  1.00  0.00    -0.215 N 
HETATM    8  N   UNL     1     -10.185   4.639 -34.800  1.00  0.00     0.012 NA
HETATM    9  N   UNL     1      -8.993   5.153 -34.546  1.00  0.00    -0.152 NA
BRANCH   6  10
HETATM   10  C   UNL     1      -8.956   2.120 -32.441  1.00  0.00     0.296 C 
BRANCH  10  11
HETATM   11  N   UNL     1      -7.879   1.101 -32.767  1.00  0.00    -0.066 N 
HETATM   12  H   UNL     1      -7.075   1.634 -33.133  1.00  0.00     0.280 HD
BRANCH  11  13
HETATM   13  C   UNL     1      -8.340   0.155 -33.870  1.00  0.00     0.231 C 
HETATM   14  C   UNL     1      -7.528   0.342 -35.138  1.00  0.00     0.034 C 
ENDBRANCH  11  13
BRANCH  11  15
HETATM   15  C   UNL     1      -7.419   0.327 -31.538  1.00  0.00     0.231 C 
HETATM   16  C   UNL     1      -5.934   0.535 -31.288  1.00  0.00     0.034 C 
ENDBRANCH  11  15
ENDBRANCH  10  11
ENDBRANCH   6  10
BRANCH   7  17
HETATM   17  C   UNL     1     -11.389   2.560 -34.398  1.00  0.00     0.225 A 
HETATM   18  N   UNL     1     -11.749   1.703 -33.437  1.00  0.00    -0.081 NA
HETATM   19  O   UNL     1     -12.828   1.014 -34.001  1.00  0.00    -0.103 OA
HETATM   20  N   UNL     1     -13.078   1.446 -35.295  1.00  0.00    -0.083 NA
HETATM   21  C   UNL     1     -12.185   2.402 -35.543  1.00  0.00     0.201 A 
BRANCH  21  22
HETATM   22  N   UNL     1     -12.095   3.080 -36.697  1.00  0.00    -0.379 N 
HETATM   23  H   UNL     1     -12.889   3.119 -37.333  1.00  0.00     0.158 HD
HETATM   24  H   UNL     1     -11.220   3.420 -37.091  1.00  0.00     0.158 HD
ENDBRANCH  21  22
ENDBRANCH   7  17
ENDBRANCH   1   5
BRANCH   2  25
HETATM   25  N   UNL     1      -5.549   5.917 -32.012  1.00  0.00    -0.184 NA
HETATM   26  C   UNL     1      -5.456   6.214 -30.755  1.00  0.00     0.150 C 
BRANCH  26  27
HETATM   27  C   UNL     1      -4.144   6.522 -30.146  1.00  0.00    -0.016 A 
HETATM   28  C   UNL     1      -4.073   7.278 -28.972  1.00  0.00     0.023 A 
HETATM   29  C   UNL     1      -2.846   7.601 -28.362  1.00  0.00    -0.016 A 
HETATM   30  C   UNL     1      -1.681   7.127 -29.022  1.00  0.00     0.079 A 
HETATM   31  C   UNL     1      -1.718   6.356 -30.223  1.00  0.00    -0.016 A 
HETATM   32  C   UNL     1      -2.983   6.061 -30.760  1.00  0.00     0.023 A 
BRANCH  29  33
HETATM   33  C   UNL     1      -2.850   8.428 -27.049  1.00  0.00    -0.021 C 
HETATM   34  C   UNL     1      -4.271   8.861 -26.582  1.00  0.00     0.019 C 
HETATM   35  C   UNL     1      -2.281   7.601 -25.874  1.00  0.00     0.019 C 
HETATM   36  C   UNL     1      -2.068   9.749 -27.235  1.00  0.00     0.019 C 
ENDBRANCH  29  33
BRANCH  30  37
HETATM   37  O   UNL     1      -0.428   7.383 -28.537  1.00  0.00    -0.360 OA
HETATM   38  H   UNL     1       0.237   6.826 -28.956  1.00  0.00     0.217 HD
ENDBRANCH  30  37
BRANCH  31  39
HETATM   39  C   UNL     1      -0.427   5.868 -30.937  1.00  0.00    -0.021 C 
HETATM   40  C   UNL     1      -0.766   5.179 -32.278  1.00  0.00     0.019 C 
HETATM   41  C   UNL     1       0.560   7.014 -31.287  1.00  0.00     0.019 C 
HETATM   42  C   UNL     1       0.359   4.899 -30.025  1.00  0.00     0.019 C 
ENDBRANCH  31  39
ENDBRANCH  26  27
ENDBRANCH   2  25
TORSDOF 12
ENDMDL
MODEL 10
REMARK VINA RESULT:      -7.2      4.318      6.376
REMARK  12 active torsions:
REMARK  status: ('A' for Active; 'I' for Inactive)
REMARK    1  A    between atoms: C_2  and  N_3 
REMARK    2  A    between atoms: N_3  and  C_5 
REMARK    3  A    between atoms: N_3  and  C_37 
REMARK    4  A    between atoms: C_5  and  C_6 
REMARK    5  A    between atoms: N_7  and  C_8 
REMARK    6  A    between atoms: C_12  and  N_13 
REMARK    7  A    between atoms: C_16  and  C_17 
REMARK       I    between atoms: C_17  and  N_18 
REMARK    8  A    between atoms: N_18  and  N_19 
REMARK    9  A    between atoms: C_20  and  C_21 
REMARK   10  A    between atoms: C_23  and  C_24 
REMARK   11  A    between atoms: C_28  and  O_29 
REMARK   12  A    between atoms: C_30  and  C_31 
ROOT
HETATM    1  C   UNL     1      -8.497   4.995 -33.443  1.00  0.00     0.293 C 
HETATM    2  N   UNL     1      -8.167   5.668 -32.282  1.00  0.00    -0.242 N 
HETATM    3  O   UNL     1      -7.713   4.669 -34.331  1.00  0.00    -0.264 OA
HETATM    4  H   UNL     1      -8.876   5.898 -31.591  1.00  0.00     0.192 HD
ENDROOT
BRANCH   1   5
HETATM    5  C   UNL     1      -9.913   4.683 -33.578  1.00  0.00     0.170 A 
HETATM    6  C   UNL     1     -10.499   3.435 -33.416  1.00  0.00     0.096 A 
HETATM    7  N   UNL     1     -11.834   3.636 -33.751  1.00  0.00    -0.215 N 
HETATM    8  N   UNL     1     -12.033   4.963 -33.970  1.00  0.00     0.012 NA
HETATM    9  N   UNL     1     -10.873   5.596 -33.897  1.00  0.00    -0.152 NA
BRANCH   6  10
HETATM   10  C   UNL     1      -9.913   2.173 -32.901  1.00  0.00     0.296 C 
BRANCH  10  11
HETATM   11  N   UNL     1      -8.572   1.761 -33.483  1.00  0.00    -0.066 N 
HETATM   12  H   UNL     1      -8.156   2.615 -33.887  1.00  0.00     0.280 HD
BRANCH  11  13
HETATM   13  C   UNL     1      -8.756   0.761 -34.619  1.00  0.00     0.231 C 
HETATM   14  C   UNL     1      -7.424   0.352 -35.219  1.00  0.00     0.034 C 
ENDBRANCH  11  13
BRANCH  11  15
HETATM   15  C   UNL     1      -7.620   1.220 -32.424  1.00  0.00     0.231 C 
HETATM   16  C   UNL     1      -6.534   2.233 -32.099  1.00  0.00     0.034 C 
ENDBRANCH  11  15
ENDBRANCH  10  11
ENDBRANCH   6  10
BRANCH   7  17
HETATM   17  C   UNL     1     -12.856   2.672 -33.914  1.00  0.00     0.225 A 
HETATM   18  N   UNL     1     -13.048   2.103 -35.109  1.00  0.00    -0.081 NA
HETATM   19  O   UNL     1     -14.131   1.244 -34.893  1.00  0.00    -0.103 OA
HETATM   20  N   UNL     1     -14.589   1.333 -33.587  1.00  0.00    -0.083 NA
HETATM   21  C   UNL     1     -13.802   2.220 -32.980  1.00  0.00     0.201 A 
BRANCH  21  22
HETATM   22  N   UNL     1     -13.918   2.588 -31.696  1.00  0.00    -0.379 N 
HETATM   23  H   UNL     1     -14.506   2.054 -31.060  1.00  0.00     0.158 HD
HETATM   24  H   UNL     1     -13.604   3.486 -31.331  1.00  0.00     0.158 HD
ENDBRANCH  21  22
ENDBRANCH   7  17
ENDBRANCH   1   5
BRANCH   2  25
HETATM   25  N   UNL     1      -6.868   6.009 -32.075  1.00  0.00    -0.184 NA
HETATM   26  C   UNL     1      -6.431   5.944 -30.858  1.00  0.00     0.150 C 
BRANCH  26  27
HETATM   27  C   UNL     1      -5.028   6.288 -30.540  1.00  0.00    -0.016 A 
HETATM   28  C   UNL     1      -4.010   6.009 -31.456  1.00  0.00     0.023 A 
HETATM   29  C   UNL     1      -2.661   6.314 -31.193  1.00  0.00    -0.016 A 
HETATM   30  C   UNL     1      -2.393   6.906 -29.930  1.00  0.00     0.079 A 
HETATM   31  C   UNL     1      -3.409   7.201 -28.970  1.00  0.00    -0.016 A 
HETATM   32  C   UNL     1      -4.734   6.882 -29.316  1.00  0.00     0.023 A 
BRANCH  29  33
HETATM   33  C   UNL     1      -1.590   5.991 -32.268  1.00  0.00    -0.021 C 
HETATM   34  C   UNL     1      -2.087   5.021 -33.381  1.00  0.00     0.019 C 
HETATM   35  C   UNL     1      -1.160   7.270 -33.020  1.00  0.00     0.019 C 
HETATM   36  C   UNL     1      -0.374   5.280 -31.630  1.00  0.00     0.019 C 
ENDBRANCH  29  33
BRANCH  30  37
HETATM   37  O   UNL     1      -1.122   7.239 -29.549  1.00  0.00    -0.360 OA
HETATM   38  H   UNL     1      -0.775   6.624 -28.894  1.00  0.00     0.217 HD
ENDBRANCH  30  37
BRANCH  31  39
HETATM   39  C   UNL     1      -3.087   7.829 -27.586  1.00  0.00    -0.021 C 
HETATM   40  C   UNL     1      -4.378   8.046 -26.766  1.00  0.00     0.019 C 
HETATM   41  C   UNL     1      -2.166   6.946 -26.702  1.00  0.00     0.019 C 
HETATM   42  C   UNL     1      -2.338   9.170 -27.765  1.00  0.00     0.019 C 
ENDBRANCH  31  39
ENDBRANCH  26  27
ENDBRANCH   2  25
TORSDOF 12
ENDMDL
