MODEL 1
REMARK VINA RESULT:     -10.7      0.000      0.000
REMARK  4 active torsions:
REMARK  status: ('A' for Active; 'I' for Inactive)
REMARK    1  A    between atoms: C_4  and  C_5 
REMARK    2  A    between atoms: C_6  and  N_7 
REMARK    3  A    between atoms: C_9  and  C_10 
REMARK       I    between atoms: C_10  and  N_11 
REMARK    4  A    between atoms: N_11  and  C_12 
ROOT
HETATM    1  C   UNL     1      -5.774  -0.542 -32.921  1.00  0.00     0.019 A 
HETATM    2  C   UNL     1      -4.978   0.177 -32.087  1.00  0.00     0.111 A 
HETATM    3  C   UNL     1      -3.645  -0.420 -31.637  1.00  0.00     0.273 A 
HETATM    4  O   UNL     1      -2.907   0.142 -30.827  1.00  0.00    -0.266 OA
HETATM    5  N   UNL     1      -3.281  -1.630 -32.151  1.00  0.00    -0.321 N 
HETATM    6  C   UNL     1      -4.072  -2.369 -33.024  1.00  0.00     0.046 A 
HETATM    7  C   UNL     1      -5.315  -1.867 -33.424  1.00  0.00     0.006 A 
HETATM    8  C   UNL     1      -3.604  -3.606 -33.476  1.00  0.00     0.032 A 
HETATM    9  C   UNL     1      -4.387  -4.365 -34.343  1.00  0.00     0.026 A 
HETATM   10  C   UNL     1      -5.627  -3.879 -34.752  1.00  0.00     0.035 A 
HETATM   11 CL   UNL     1      -6.596  -4.816 -35.821  1.00  0.00    -0.084 Cl
HETATM   12  C   UNL     1      -6.090  -2.640 -34.302  1.00  0.00     0.038 A 
HETATM   13  H   UNL     1      -2.390  -1.984 -31.834  1.00  0.00     0.169 HD
ENDROOT
BRANCH   2  14
HETATM   14  N   UNL     1      -5.324   1.449 -31.556  1.00  0.00    -0.375 N 
HETATM   15  C   UNL     1      -4.369   2.560 -31.785  1.00  0.00     0.137 C 
HETATM   16  C   UNL     1      -4.970   3.923 -31.430  1.00  0.00     0.096 C 
HETATM   17  C   UNL     1      -5.623   3.929 -30.045  1.00  0.00     0.017 C 
HETATM   18  C   UNL     1      -6.601   2.768 -29.915  1.00  0.00     0.021 C 
HETATM   19  C   UNL     1      -5.900   1.444 -30.196  1.00  0.00     0.123 C 
BRANCH  16  20
HETATM   20  C   UNL     1      -3.907   5.018 -31.544  1.00  0.00     0.229 C 
HETATM   21  N   UNL     1      -2.831   4.846 -30.691  1.00  0.00    -0.311 N 
HETATM   22  H   UNL     1      -2.813   4.032 -30.097  1.00  0.00     0.170 HD
HETATM   23  O   UNL     1      -4.067   5.933 -32.348  1.00  0.00    -0.273 OA
BRANCH  21  24
HETATM   24  C   UNL     1      -1.711   5.684 -30.597  1.00  0.00     0.129 A 
HETATM   25  N   UNL     1      -1.717   6.768 -29.804  1.00  0.00    -0.243 NA
HETATM   26  C   UNL     1      -0.603   7.529 -29.759  1.00  0.00     0.119 A 
HETATM   27  C   UNL     1       0.543   7.259 -30.487  1.00  0.00     0.019 A 
HETATM   28  C   UNL     1       0.542   6.140 -31.306  1.00  0.00     0.005 A 
HETATM   29  C   UNL     1      -0.597   5.338 -31.359  1.00  0.00     0.050 A 
ENDBRANCH  21  24
ENDBRANCH  16  20
ENDBRANCH   2  14
BRANCH   1  30
HETATM   30  C   UNL     1      -7.088   0.043 -33.293  1.00  0.00    -0.023 A 
HETATM   31  C   UNL     1      -7.219   0.825 -34.448  1.00  0.00     0.012 A 
HETATM   32  C   UNL     1      -8.468   1.331 -34.814  1.00  0.00     0.001 A 
HETATM   33  C   UNL     1      -9.590   1.060 -34.031  1.00  0.00     0.000 A 
HETATM   34  C   UNL     1      -9.466   0.286 -32.877  1.00  0.00     0.001 A 
HETATM   35  C   UNL     1      -8.219  -0.222 -32.509  1.00  0.00     0.012 A 
ENDBRANCH   1  30
TORSDOF 4
ENDMDL
MODEL 2
REMARK VINA RESULT:      -9.7      1.579      1.936
REMARK  4 active torsions:
REMARK  status: ('A' for Active; 'I' for Inactive)
REMARK    1  A    between atoms: C_4  and  C_5 
REMARK    2  A    between atoms: C_6  and  N_7 
REMARK    3  A    between atoms: C_9  and  C_10 
REMARK       I    between atoms: C_10  and  N_11 
REMARK    4  A    between atoms: N_11  and  C_12 
ROOT
HETATM    1  C   UNL     1      -6.505  -0.080 -33.020  1.00  0.00     0.019 A 
HETATM    2  C   UNL     1      -5.787   0.787 -32.258  1.00  0.00     0.111 A 
HETATM    3  C   UNL     1      -4.352   0.424 -31.876  1.00  0.00     0.273 A 
HETATM    4  O   UNL     1      -3.668   1.126 -31.131  1.00  0.00    -0.266 OA
HETATM    5  N   UNL     1      -3.831  -0.733 -32.375  1.00  0.00    -0.321 N 
HETATM    6  C   UNL     1      -4.543  -1.620 -33.175  1.00  0.00     0.046 A 
HETATM    7  C   UNL     1      -5.871  -1.335 -33.511  1.00  0.00     0.006 A 
HETATM    8  C   UNL     1      -3.912  -2.786 -33.619  1.00  0.00     0.032 A 
HETATM    9  C   UNL     1      -4.613  -3.691 -34.413  1.00  0.00     0.026 A 
HETATM   10  C   UNL     1      -5.935  -3.421 -34.757  1.00  0.00     0.035 A 
HETATM   11 CL   UNL     1      -6.803  -4.540 -35.735  1.00  0.00    -0.084 Cl
HETATM   12  C   UNL     1      -6.562  -2.253 -34.315  1.00  0.00     0.038 A 
HETATM   13  H   UNL     1      -2.879  -0.931 -32.105  1.00  0.00     0.169 HD
ENDROOT
BRANCH   2  14
HETATM   14  N   UNL     1      -6.299   2.009 -31.745  1.00  0.00    -0.375 N 
HETATM   15  C   UNL     1      -5.624   3.258 -32.172  1.00  0.00     0.137 C 
HETATM   16  C   UNL     1      -6.427   4.508 -31.798  1.00  0.00     0.096 C 
HETATM   17  C   UNL     1      -6.866   4.499 -30.331  1.00  0.00     0.017 C 
HETATM   18  C   UNL     1      -7.569   3.189 -29.995  1.00  0.00     0.021 C 
HETATM   19  C   UNL     1      -6.666   2.003 -30.315  1.00  0.00     0.123 C 
BRANCH  16  20
HETATM   20  C   UNL     1      -5.628   5.770 -32.127  1.00  0.00     0.229 C 
HETATM   21  N   UNL     1      -4.810   6.201 -31.098  1.00  0.00    -0.311 N 
HETATM   22  H   UNL     1      -4.782   5.661 -30.247  1.00  0.00     0.170 HD
HETATM   23  O   UNL     1      -5.754   6.294 -33.231  1.00  0.00    -0.273 OA
BRANCH  21  24
HETATM   24  C   UNL     1      -3.959   7.315 -31.130  1.00  0.00     0.129 A 
HETATM   25  N   UNL     1      -4.335   8.494 -30.609  1.00  0.00    -0.243 NA
HETATM   26  C   UNL     1      -3.465   9.524 -30.673  1.00  0.00     0.119 A 
HETATM   27  C   UNL     1      -2.210   9.436 -31.249  1.00  0.00     0.019 A 
HETATM   28  C   UNL     1      -1.828   8.216 -31.789  1.00  0.00     0.005 A 
HETATM   29  C   UNL     1      -2.711   7.139 -31.724  1.00  0.00     0.050 A 
ENDBRANCH  21  24
ENDBRANCH  16  20
ENDBRANCH   2  14
BRANCH   1  30
HETATM   30  C   UNL     1      -7.914   0.277 -33.326  1.00  0.00    -0.023 A 
HETATM   31  C   UNL     1      -8.961  -0.204 -32.530  1.00  0.00     0.012 A 
HETATM   32  C   UNL     1     -10.277   0.175 -32.797  1.00  0.00     0.001 A 
HETATM   33  C   UNL     1     -10.556   1.034 -33.860  1.00  0.00     0.000 A 
HETATM   34  C   UNL     1      -9.519   1.513 -34.661  1.00  0.00     0.001 A 
HETATM   35  C   UNL     1      -8.202   1.137 -34.395  1.00  0.00     0.012 A 
ENDBRANCH   1  30
TORSDOF 4
ENDMDL
MODEL 3
REMARK VINA RESULT:      -9.5      3.581      8.820
REMARK  4 active torsions:
REMARK  status: ('A' for Active; 'I' for Inactive)
REMARK    1  A    between atoms: C_4  and  C_5 
REMARK    2  A    between atoms: C_6  and  N_7 
REMARK    3  A    between atoms: C_9  and  C_10 
REMARK       I    between atoms: C_10  and  N_11 
REMARK    4  A    between atoms: N_11  and  C_12 
ROOT
HETATM    1  C   UNL     1      -3.501   5.762 -30.872  1.00  0.00     0.019 A 
HETATM    2  C   UNL     1      -3.516   4.906 -31.927  1.00  0.00     0.111 A 
HETATM    3  C   UNL     1      -2.210   4.621 -32.669  1.00  0.00     0.273 A 
HETATM    4  O   UNL     1      -2.161   3.913 -33.675  1.00  0.00    -0.266 OA
HETATM    5  N   UNL     1      -1.068   5.192 -32.193  1.00  0.00    -0.321 N 
HETATM    6  C   UNL     1      -1.029   6.053 -31.100  1.00  0.00     0.046 A 
HETATM    7  C   UNL     1      -2.214   6.363 -30.425  1.00  0.00     0.006 A 
HETATM    8  C   UNL     1       0.199   6.594 -30.709  1.00  0.00     0.032 A 
HETATM    9  C   UNL     1       0.254   7.465 -29.623  1.00  0.00     0.026 A 
HETATM   10  C   UNL     1      -0.916   7.784 -28.939  1.00  0.00     0.035 A 
HETATM   11 CL   UNL     1      -0.850   8.862 -27.599  1.00  0.00    -0.084 Cl
HETATM   12  C   UNL     1      -2.141   7.238 -29.330  1.00  0.00     0.038 A 
HETATM   13  H   UNL     1      -0.227   4.972 -32.706  1.00  0.00     0.169 HD
ENDROOT
BRANCH   2  14
HETATM   14  N   UNL     1      -4.689   4.280 -32.428  1.00  0.00    -0.375 N 
HETATM   15  C   UNL     1      -4.771   2.804 -32.311  1.00  0.00     0.137 C 
HETATM   16  C   UNL     1      -6.177   2.275 -32.610  1.00  0.00     0.096 C 
HETATM   17  C   UNL     1      -6.743   2.836 -33.918  1.00  0.00     0.017 C 
HETATM   18  C   UNL     1      -6.636   4.356 -33.935  1.00  0.00     0.021 C 
HETATM   19  C   UNL     1      -5.192   4.792 -33.719  1.00  0.00     0.123 C 
BRANCH  16  20
HETATM   20  C   UNL     1      -6.179   0.746 -32.618  1.00  0.00     0.229 C 
HETATM   21  N   UNL     1      -5.745   0.190 -33.809  1.00  0.00    -0.311 N 
HETATM   22  H   UNL     1      -5.448   0.808 -34.549  1.00  0.00     0.170 HD
HETATM   23  O   UNL     1      -6.544   0.137 -31.616  1.00  0.00    -0.273 OA
BRANCH  21  24
HETATM   24  C   UNL     1      -5.630  -1.179 -34.088  1.00  0.00     0.129 A 
HETATM   25  N   UNL     1      -4.470  -1.831 -33.907  1.00  0.00    -0.243 NA
HETATM   26  C   UNL     1      -4.431  -3.149 -34.193  1.00  0.00     0.119 A 
HETATM   27  C   UNL     1      -5.516  -3.867 -34.666  1.00  0.00     0.019 A 
HETATM   28  C   UNL     1      -6.710  -3.188 -34.853  1.00  0.00     0.005 A 
HETATM   29  C   UNL     1      -6.772  -1.827 -34.556  1.00  0.00     0.050 A 
ENDBRANCH  21  24
ENDBRANCH  16  20
ENDBRANCH   2  14
BRANCH   1  30
HETATM   30  C   UNL     1      -4.797   6.061 -30.210  1.00  0.00    -0.023 A 
HETATM   31  C   UNL     1      -5.284   5.234 -29.190  1.00  0.00     0.012 A 
HETATM   32  C   UNL     1      -6.480   5.550 -28.542  1.00  0.00     0.001 A 
HETATM   33  C   UNL     1      -7.194   6.691 -28.908  1.00  0.00     0.000 A 
HETATM   34  C   UNL     1      -6.717   7.516 -29.926  1.00  0.00     0.001 A 
HETATM   35  C   UNL     1      -5.522   7.204 -30.575  1.00  0.00     0.012 A 
ENDBRANCH   1  30
TORSDOF 4
ENDMDL
MODEL 4
REMARK VINA RESULT:      -9.4      3.099      5.072
REMARK  4 active torsions:
REMARK  status: ('A' for Active; 'I' for Inactive)
REMARK    1  A    between atoms: C_4  and  C_5 
REMARK    2  A    between atoms: C_6  and  N_7 
REMARK    3  A    between atoms: C_9  and  C_10 
REMARK       I    between atoms: C_10  and  N_11 
REMARK    4  A    between atoms: N_11  and  C_12 
ROOT
HETATM    1  C   UNL     1      -4.961   3.541 -31.867  1.00  0.00     0.019 A 
HETATM    2  C   UNL     1      -5.414   4.400 -30.917  1.00  0.00     0.111 A 
HETATM    3  C   UNL     1      -6.317   3.866 -29.805  1.00  0.00     0.273 A 
HETATM    4  O   UNL     1      -6.822   4.598 -28.953  1.00  0.00    -0.266 OA
HETATM    5  N   UNL     1      -6.576   2.528 -29.780  1.00  0.00    -0.321 N 
HETATM    6  C   UNL     1      -6.103   1.630 -30.731  1.00  0.00     0.046 A 
HETATM    7  C   UNL     1      -5.305   2.094 -31.782  1.00  0.00     0.006 A 
HETATM    8  C   UNL     1      -6.445   0.279 -30.614  1.00  0.00     0.032 A 
HETATM    9  C   UNL     1      -5.987  -0.632 -31.563  1.00  0.00     0.026 A 
HETATM   10  C   UNL     1      -5.191  -0.187 -32.616  1.00  0.00     0.035 A 
HETATM   11 CL   UNL     1      -4.628  -1.312 -33.790  1.00  0.00    -0.084 Cl
HETATM   12  C   UNL     1      -4.848   1.163 -32.727  1.00  0.00     0.038 A 
HETATM   13  H   UNL     1      -7.170   2.216 -29.025  1.00  0.00     0.169 HD
ENDROOT
BRANCH   2  14
HETATM   14  N   UNL     1      -5.140   5.794 -30.908  1.00  0.00    -0.375 N 
HETATM   15  C   UNL     1      -4.049   6.263 -30.020  1.00  0.00     0.137 C 
HETATM   16  C   UNL     1      -3.653   7.715 -30.305  1.00  0.00     0.096 C 
HETATM   17  C   UNL     1      -4.866   8.648 -30.361  1.00  0.00     0.017 C 
HETATM   18  C   UNL     1      -5.918   8.095 -31.314  1.00  0.00     0.021 C 
HETATM   19  C   UNL     1      -6.319   6.682 -30.905  1.00  0.00     0.123 C 
BRANCH  16  20
HETATM   20  C   UNL     1      -2.631   8.199 -29.274  1.00  0.00     0.229 C 
HETATM   21  N   UNL     1      -1.622   7.289 -29.015  1.00  0.00    -0.311 N 
HETATM   22  H   UNL     1      -1.618   6.417 -29.521  1.00  0.00     0.170 HD
HETATM   23  O   UNL     1      -2.763   9.310 -28.769  1.00  0.00    -0.273 OA
BRANCH  21  24
HETATM   24  C   UNL     1      -0.549   7.476 -28.132  1.00  0.00     0.129 A 
HETATM   25  N   UNL     1      -0.565   6.952 -26.896  1.00  0.00    -0.243 NA
HETATM   26  C   UNL     1       0.503   7.169 -26.099  1.00  0.00     0.119 A 
HETATM   27  C   UNL     1       1.611   7.905 -26.481  1.00  0.00     0.019 A 
HETATM   28  C   UNL     1       1.620   8.447 -27.758  1.00  0.00     0.005 A 
HETATM   29  C   UNL     1       0.530   8.226 -28.598  1.00  0.00     0.050 A 
ENDBRANCH  21  24
ENDBRANCH  16  20
ENDBRANCH   2  14
BRANCH   1  30
HETATM   30  C   UNL     1      -4.133   4.102 -32.965  1.00  0.00    -0.023 A 
HETATM   31  C   UNL     1      -4.735   4.648 -34.106  1.00  0.00     0.012 A 
HETATM   32  C   UNL     1      -3.949   5.216 -35.110  1.00  0.00     0.001 A 
HETATM   33  C   UNL     1      -2.561   5.241 -34.983  1.00  0.00     0.000 A 
HETATM   34  C   UNL     1      -1.954   4.694 -33.852  1.00  0.00     0.001 A 
HETATM   35  C   UNL     1      -2.736   4.127 -32.846  1.00  0.00     0.012 A 
ENDBRANCH   1  30
TORSDOF 4
ENDMDL
MODEL 5
REMARK VINA RESULT:      -9.2      2.846      5.189
REMARK  4 active torsions:
REMARK  status: ('A' for Active; 'I' for Inactive)
REMARK    1  A    between atoms: C_4  and  C_5 
REMARK    2  A    between atoms: C_6  and  N_7 
REMARK    3  A    between atoms: C_9  and  C_10 
REMARK       I    between atoms: C_10  and  N_11 
REMARK    4  A    between atoms: N_11  and  C_12 
ROOT
HETATM    1  C   UNL     1      -6.181   2.644 -32.590  1.00  0.00     0.019 A 
HETATM    2  C   UNL     1      -5.655   3.894 -32.682  1.00  0.00     0.111 A 
HETATM    3  C   UNL     1      -6.586   5.070 -32.974  1.00  0.00     0.273 A 
HETATM    4  O   UNL     1      -6.170   6.217 -33.141  1.00  0.00    -0.266 OA
HETATM    5  N   UNL     1      -7.923   4.820 -33.064  1.00  0.00    -0.321 N 
HETATM    6  C   UNL     1      -8.482   3.552 -32.949  1.00  0.00     0.046 A 
HETATM    7  C   UNL     1      -7.652   2.449 -32.721  1.00  0.00     0.006 A 
HETATM    8  C   UNL     1      -9.867   3.410 -33.074  1.00  0.00     0.032 A 
HETATM    9  C   UNL     1     -10.443   2.146 -32.972  1.00  0.00     0.026 A 
HETATM   10  C   UNL     1      -9.631   1.037 -32.743  1.00  0.00     0.035 A 
HETATM   11 CL   UNL     1     -10.341  -0.525 -32.620  1.00  0.00    -0.084 Cl
HETATM   12  C   UNL     1      -8.248   1.183 -32.615  1.00  0.00     0.038 A 
HETATM   13  H   UNL     1      -8.503   5.626 -33.250  1.00  0.00     0.169 HD
ENDROOT
BRANCH   2  14
HETATM   14  N   UNL     1      -4.268   4.184 -32.570  1.00  0.00    -0.375 N 
HETATM   15  C   UNL     1      -3.844   5.022 -31.423  1.00  0.00     0.137 C 
HETATM   16  C   UNL     1      -2.323   5.027 -31.239  1.00  0.00     0.096 C 
HETATM   17  C   UNL     1      -1.581   5.324 -32.546  1.00  0.00     0.017 C 
HETATM   18  C   UNL     1      -2.068   4.399 -33.655  1.00  0.00     0.021 C 
HETATM   19  C   UNL     1      -3.577   4.524 -33.829  1.00  0.00     0.123 C 
BRANCH  16  20
HETATM   20  C   UNL     1      -1.924   6.014 -30.141  1.00  0.00     0.229 C 
HETATM   21  N   UNL     1      -0.679   5.767 -29.589  1.00  0.00    -0.311 N 
HETATM   22  H   UNL     1      -0.136   4.999 -29.952  1.00  0.00     0.170 HD
HETATM   23  O   UNL     1      -2.694   6.921 -29.835  1.00  0.00    -0.273 OA
BRANCH  21  24
HETATM   24  C   UNL     1      -0.058   6.519 -28.582  1.00  0.00     0.129 A 
HETATM   25  N   UNL     1      -0.206   6.203 -27.286  1.00  0.00    -0.243 NA
HETATM   26  C   UNL     1       0.423   6.969 -26.369  1.00  0.00     0.119 A 
HETATM   27  C   UNL     1       1.206   8.065 -26.689  1.00  0.00     0.019 A 
HETATM   28  C   UNL     1       1.352   8.388 -28.030  1.00  0.00     0.005 A 
HETATM   29  C   UNL     1       0.716   7.603 -28.991  1.00  0.00     0.050 A 
ENDBRANCH  21  24
ENDBRANCH  16  20
ENDBRANCH   2  14
BRANCH   1  30
HETATM   30  C   UNL     1      -5.242   1.516 -32.363  1.00  0.00    -0.023 A 
HETATM   31  C   UNL     1      -4.900   0.651 -33.409  1.00  0.00     0.012 A 
HETATM   32  C   UNL     1      -3.980  -0.378 -33.197  1.00  0.00     0.001 A 
HETATM   33  C   UNL     1      -3.399  -0.548 -31.941  1.00  0.00     0.000 A 
HETATM   34  C   UNL     1      -3.738   0.307 -30.892  1.00  0.00     0.001 A 
HETATM   35  C   UNL     1      -4.656   1.336 -31.102  1.00  0.00     0.012 A 
ENDBRANCH   1  30
TORSDOF 4
ENDMDL
MODEL 6
REMARK VINA RESULT:      -8.9      4.216      9.772
REMARK  4 active torsions:
REMARK  status: ('A' for Active; 'I' for Inactive)
REMARK    1  A    between atoms: C_4  and  C_5 
REMARK    2  A    between atoms: C_6  and  N_7 
REMARK    3  A    between atoms: C_9  and  C_10 
REMARK       I    between atoms: C_10  and  N_11 
REMARK    4  A    between atoms: N_11  and  C_12 
ROOT
HETATM    1  C   UNL     1      -1.607   7.246 -29.454  1.00  0.00     0.019 A 
HETATM    2  C   UNL     1      -1.288   6.251 -30.323  1.00  0.00     0.111 A 
HETATM    3  C   UNL     1       0.006   5.466 -30.109  1.00  0.00     0.273 A 
HETATM    4  O   UNL     1       0.393   4.601 -30.895  1.00  0.00    -0.266 OA
HETATM    5  N   UNL     1       0.756   5.759 -29.009  1.00  0.00    -0.321 N 
HETATM    6  C   UNL     1       0.434   6.758 -28.096  1.00  0.00     0.046 A 
HETATM    7  C   UNL     1      -0.724   7.519 -28.286  1.00  0.00     0.006 A 
HETATM    8  C   UNL     1       1.286   6.981 -27.011  1.00  0.00     0.032 A 
HETATM    9  C   UNL     1       0.984   7.984 -26.092  1.00  0.00     0.026 A 
HETATM   10  C   UNL     1      -0.166   8.751 -26.265  1.00  0.00     0.035 A 
HETATM   11 CL   UNL     1      -0.538   9.992 -25.133  1.00  0.00    -0.084 Cl
HETATM   12  C   UNL     1      -1.017   8.522 -27.349  1.00  0.00     0.038 A 
HETATM   13  H   UNL     1       1.598   5.212 -28.901  1.00  0.00     0.169 HD
ENDROOT
BRANCH   2  14
HETATM   14  N   UNL     1      -2.064   5.911 -31.464  1.00  0.00    -0.375 N 
HETATM   15  C   UNL     1      -2.655   4.551 -31.500  1.00  0.00     0.137 C 
HETATM   16  C   UNL     1      -3.693   4.399 -32.616  1.00  0.00     0.096 C 
HETATM   17  C   UNL     1      -3.171   4.896 -33.967  1.00  0.00     0.017 C 
HETATM   18  C   UNL     1      -2.608   6.306 -33.833  1.00  0.00     0.021 C 
HETATM   19  C   UNL     1      -1.521   6.347 -32.765  1.00  0.00     0.123 C 
BRANCH  16  20
HETATM   20  C   UNL     1      -4.166   2.948 -32.707  1.00  0.00     0.229 C 
HETATM   21  N   UNL     1      -5.450   2.805 -33.202  1.00  0.00    -0.311 N 
HETATM   22  H   UNL     1      -5.954   3.634 -33.479  1.00  0.00     0.170 HD
HETATM   23  O   UNL     1      -3.413   2.044 -32.354  1.00  0.00    -0.273 OA
BRANCH  21  24
HETATM   24  C   UNL     1      -6.127   1.595 -33.407  1.00  0.00     0.129 A 
HETATM   25  N   UNL     1      -6.256   0.694 -32.420  1.00  0.00    -0.243 NA
HETATM   26  C   UNL     1      -6.922  -0.449 -32.686  1.00  0.00     0.119 A 
HETATM   27  C   UNL     1      -7.475  -0.749 -33.919  1.00  0.00     0.019 A 
HETATM   28  C   UNL     1      -7.335   0.184 -34.936  1.00  0.00     0.005 A 
HETATM   29  C   UNL     1      -6.657   1.374 -34.677  1.00  0.00     0.050 A 
ENDBRANCH  21  24
ENDBRANCH  16  20
ENDBRANCH   2  14
BRANCH   1  30
HETATM   30  C   UNL     1      -2.842   8.026 -29.723  1.00  0.00    -0.023 A 
HETATM   31  C   UNL     1      -2.791   9.202 -30.481  1.00  0.00     0.012 A 
HETATM   32  C   UNL     1      -3.964   9.902 -30.768  1.00  0.00     0.001 A 
HETATM   33  C   UNL     1      -5.191   9.434 -30.299  1.00  0.00     0.000 A 
HETATM   34  C   UNL     1      -5.249   8.266 -29.539  1.00  0.00     0.001 A 
HETATM   35  C   UNL     1      -4.078   7.563 -29.252  1.00  0.00     0.012 A 
ENDBRANCH   1  30
TORSDOF 4
ENDMDL
MODEL 7
REMARK VINA RESULT:      -8.8      3.955      8.413
REMARK  4 active torsions:
REMARK  status: ('A' for Active; 'I' for Inactive)
REMARK    1  A    between atoms: C_4  and  C_5 
REMARK    2  A    between atoms: C_6  and  N_7 
REMARK    3  A    between atoms: C_9  and  C_10 
REMARK       I    between atoms: C_10  and  N_11 
REMARK    4  A    between atoms: N_11  and  C_12 
ROOT
HETATM    1  C   UNL     1      -8.368   3.951 -33.361  1.00  0.00     0.019 A 
HETATM    2  C   UNL     1      -8.393   2.734 -32.758  1.00  0.00     0.111 A 
HETATM    3  C   UNL     1      -9.689   1.925 -32.774  1.00  0.00     0.273 A 
HETATM    4  O   UNL     1      -9.805   0.849 -32.187  1.00  0.00    -0.266 OA
HETATM    5  N   UNL     1     -10.753   2.436 -33.456  1.00  0.00    -0.321 N 
HETATM    6  C   UNL     1     -10.739   3.669 -34.100  1.00  0.00     0.046 A 
HETATM    7  C   UNL     1      -9.579   4.450 -34.070  1.00  0.00     0.006 A 
HETATM    8  C   UNL     1     -11.895   4.101 -34.756  1.00  0.00     0.032 A 
HETATM    9  C   UNL     1     -11.902   5.338 -35.398  1.00  0.00     0.026 A 
HETATM   10  C   UNL     1     -10.755   6.128 -35.379  1.00  0.00     0.035 A 
HETATM   11 CL   UNL     1     -10.764   7.657 -36.169  1.00  0.00    -0.084 Cl
HETATM   12  C   UNL     1      -9.600   5.691 -34.725  1.00  0.00     0.038 A 
HETATM   13  H   UNL     1     -11.587   1.867 -33.448  1.00  0.00     0.169 HD
ENDROOT
BRANCH   2  14
HETATM   14  N   UNL     1      -7.291   2.169 -32.060  1.00  0.00    -0.375 N 
HETATM   15  C   UNL     1      -6.779   0.865 -32.546  1.00  0.00     0.137 C 
HETATM   16  C   UNL     1      -5.432   0.499 -31.916  1.00  0.00     0.096 C 
HETATM   17  C   UNL     1      -5.446   0.642 -30.391  1.00  0.00     0.017 C 
HETATM   18  C   UNL     1      -5.963   2.018 -29.991  1.00  0.00     0.021 C 
HETATM   19  C   UNL     1      -7.344   2.263 -30.587  1.00  0.00     0.123 C 
BRANCH  16  20
HETATM   20  C   UNL     1      -5.016  -0.912 -32.334  1.00  0.00     0.229 C 
HETATM   21  N   UNL     1      -5.746  -1.422 -33.393  1.00  0.00    -0.311 N 
HETATM   22  H   UNL     1      -6.456  -0.842 -33.813  1.00  0.00     0.170 HD
HETATM   23  O   UNL     1      -4.103  -1.475 -31.735  1.00  0.00    -0.273 OA
BRANCH  21  24
HETATM   24  C   UNL     1      -5.567  -2.678 -33.990  1.00  0.00     0.129 A 
HETATM   25  N   UNL     1      -4.403  -3.339 -33.886  1.00  0.00    -0.243 NA
HETATM   26  C   UNL     1      -4.302  -4.546 -34.483  1.00  0.00     0.119 A 
HETATM   27  C   UNL     1      -5.327  -5.138 -35.200  1.00  0.00     0.019 A 
HETATM   28  C   UNL     1      -6.526  -4.449 -35.307  1.00  0.00     0.005 A 
HETATM   29  C   UNL     1      -6.652  -3.205 -34.689  1.00  0.00     0.050 A 
ENDBRANCH  21  24
ENDBRANCH  16  20
ENDBRANCH   2  14
BRANCH   1  30
HETATM   30  C   UNL     1      -7.109   4.736 -33.278  1.00  0.00    -0.023 A 
HETATM   31  C   UNL     1      -6.955   5.735 -32.309  1.00  0.00     0.012 A 
HETATM   32  C   UNL     1      -5.751   6.435 -32.209  1.00  0.00     0.001 A 
HETATM   33  C   UNL     1      -4.697   6.142 -33.075  1.00  0.00     0.000 A 
HETATM   34  C   UNL     1      -4.846   5.152 -34.046  1.00  0.00     0.001 A 
HETATM   35  C   UNL     1      -6.047   4.450 -34.148  1.00  0.00     0.012 A 
ENDBRANCH   1  30
TORSDOF 4
ENDMDL
MODEL 8
REMARK VINA RESULT:      -8.8      3.572      6.573
REMARK  4 active torsions:
REMARK  status: ('A' for Active; 'I' for Inactive)
REMARK    1  A    between atoms: C_4  and  C_5 
REMARK    2  A    between atoms: C_6  and  N_7 
REMARK    3  A    between atoms: C_9  and  C_10 
REMARK       I    between atoms: C_10  and  N_11 
REMARK    4  A    between atoms: N_11  and  C_12 
ROOT
HETATM    1  C   UNL     1      -6.393   4.748 -31.609  1.00  0.00     0.019 A 
HETATM    2  C   UNL     1      -5.355   5.619 -31.711  1.00  0.00     0.111 A 
HETATM    3  C   UNL     1      -5.614   7.110 -31.497  1.00  0.00     0.273 A 
HETATM    4  O   UNL     1      -4.737   7.962 -31.644  1.00  0.00    -0.266 OA
HETATM    5  N   UNL     1      -6.873   7.495 -31.146  1.00  0.00    -0.321 N 
HETATM    6  C   UNL     1      -7.943   6.617 -31.014  1.00  0.00     0.046 A 
HETATM    7  C   UNL     1      -7.746   5.250 -31.241  1.00  0.00     0.006 A 
HETATM    8  C   UNL     1      -9.197   7.126 -30.664  1.00  0.00     0.032 A 
HETATM    9  C   UNL     1     -10.282   6.261 -30.537  1.00  0.00     0.026 A 
HETATM   10  C   UNL     1     -10.103   4.898 -30.758  1.00  0.00     0.035 A 
HETATM   11 CL   UNL     1     -11.443   3.829 -30.605  1.00  0.00    -0.084 Cl
HETATM   12  C   UNL     1      -8.848   4.391 -31.104  1.00  0.00     0.038 A 
HETATM   13  H   UNL     1      -6.999   8.488 -31.006  1.00  0.00     0.169 HD
ENDROOT
BRANCH   2  14
HETATM   14  N   UNL     1      -4.029   5.239 -32.053  1.00  0.00    -0.375 N 
HETATM   15  C   UNL     1      -2.967   5.519 -31.057  1.00  0.00     0.137 C 
HETATM   16  C   UNL     1      -1.650   4.817 -31.400  1.00  0.00     0.096 C 
HETATM   17  C   UNL     1      -1.228   5.051 -32.854  1.00  0.00     0.017 C 
HETATM   18  C   UNL     1      -2.374   4.715 -33.800  1.00  0.00     0.021 C 
HETATM   19  C   UNL     1      -3.616   5.523 -33.442  1.00  0.00     0.123 C 
BRANCH  16  20
HETATM   20  C   UNL     1      -0.549   5.248 -30.430  1.00  0.00     0.229 C 
HETATM   21  N   UNL     1      -0.947   6.213 -29.522  1.00  0.00    -0.311 N 
HETATM   22  H   UNL     1      -1.903   6.533 -29.548  1.00  0.00     0.170 HD
HETATM   23  O   UNL     1       0.563   4.733 -30.511  1.00  0.00    -0.273 OA
BRANCH  21  24
HETATM   24  C   UNL     1      -0.152   6.775 -28.513  1.00  0.00     0.129 A 
HETATM   25  N   UNL     1      -0.223   6.336 -27.246  1.00  0.00    -0.243 NA
HETATM   26  C   UNL     1       0.573   6.921 -26.326  1.00  0.00     0.119 A 
HETATM   27  C   UNL     1       1.453   7.949 -26.612  1.00  0.00     0.019 A 
HETATM   28  C   UNL     1       1.519   8.401 -27.922  1.00  0.00     0.005 A 
HETATM   29  C   UNL     1       0.710   7.803 -28.887  1.00  0.00     0.050 A 
ENDBRANCH  21  24
ENDBRANCH  16  20
ENDBRANCH   2  14
BRANCH   1  30
HETATM   30  C   UNL     1      -6.119   3.314 -31.879  1.00  0.00    -0.023 A 
HETATM   31  C   UNL     1      -5.736   2.453 -30.842  1.00  0.00     0.012 A 
HETATM   32  C   UNL     1      -5.526   1.097 -31.097  1.00  0.00     0.001 A 
HETATM   33  C   UNL     1      -5.695   0.593 -32.386  1.00  0.00     0.000 A 
HETATM   34  C   UNL     1      -6.070   1.445 -33.425  1.00  0.00     0.001 A 
HETATM   35  C   UNL     1      -6.282   2.801 -33.173  1.00  0.00     0.012 A 
ENDBRANCH   1  30
TORSDOF 4
ENDMDL
MODEL 9
REMARK VINA RESULT:      -8.6     16.229     19.400
REMARK  4 active torsions:
REMARK  status: ('A' for Active; 'I' for Inactive)
REMARK    1  A    between atoms: C_4  and  C_5 
REMARK    2  A    between atoms: C_6  and  N_7 
REMARK    3  A    between atoms: C_9  and  C_10 
REMARK       I    between atoms: C_10  and  N_11 
REMARK    4  A    between atoms: N_11  and  C_12 
ROOT
HETATM    1  C   UNL     1      -3.867 -14.234 -38.625  1.00  0.00     0.019 A 
HETATM    2  C   UNL     1      -4.851 -13.923 -39.509  1.00  0.00     0.111 A 
HETATM    3  C   UNL     1      -4.484 -13.688 -40.974  1.00  0.00     0.273 A 
HETATM    4  O   UNL     1      -5.311 -13.334 -41.815  1.00  0.00    -0.266 OA
HETATM    5  N   UNL     1      -3.185 -13.868 -41.343  1.00  0.00    -0.321 N 
HETATM    6  C   UNL     1      -2.168 -14.209 -40.457  1.00  0.00     0.046 A 
HETATM    7  C   UNL     1      -2.466 -14.392 -39.103  1.00  0.00     0.006 A 
HETATM    8  C   UNL     1      -0.866 -14.352 -40.946  1.00  0.00     0.032 A 
HETATM    9  C   UNL     1       0.166 -14.683 -40.070  1.00  0.00     0.026 A 
HETATM   10  C   UNL     1      -0.113 -14.871 -38.719  1.00  0.00     0.035 A 
HETATM   11 CL   UNL     1       1.162 -15.277 -37.636  1.00  0.00    -0.084 Cl
HETATM   12  C   UNL     1      -1.416 -14.731 -38.235  1.00  0.00     0.038 A 
HETATM   13  H   UNL     1      -2.987 -13.710 -42.321  1.00  0.00     0.169 HD
ENDROOT
BRANCH   2  14
HETATM   14  N   UNL     1      -6.216 -13.752 -39.153  1.00  0.00    -0.375 N 
HETATM   15  C   UNL     1      -7.196 -14.682 -39.765  1.00  0.00     0.137 C 
HETATM   16  C   UNL     1      -8.572 -14.596 -39.098  1.00  0.00     0.096 C 
HETATM   17  C   UNL     1      -9.068 -13.153 -38.970  1.00  0.00     0.017 C 
HETATM   18  C   UNL     1      -8.004 -12.283 -38.310  1.00  0.00     0.021 C 
HETATM   19  C   UNL     1      -6.696 -12.357 -39.088  1.00  0.00     0.123 C 
BRANCH  16  20
HETATM   20  C   UNL     1      -9.583 -15.462 -39.852  1.00  0.00     0.229 C 
HETATM   21  N   UNL     1     -10.190 -14.819 -40.916  1.00  0.00    -0.311 N 
HETATM   22  H   UNL     1      -9.916 -13.871 -41.125  1.00  0.00     0.170 HD
HETATM   23  O   UNL     1      -9.780 -16.617 -39.485  1.00  0.00    -0.273 OA
BRANCH  21  24
HETATM   24  C   UNL     1     -11.138 -15.376 -41.786  1.00  0.00     0.129 A 
HETATM   25  N   UNL     1     -12.452 -15.162 -41.612  1.00  0.00    -0.243 NA
HETATM   26  C   UNL     1     -13.309 -15.727 -42.489  1.00  0.00     0.119 A 
HETATM   27  C   UNL     1     -12.911 -16.518 -43.553  1.00  0.00     0.019 A 
HETATM   28  C   UNL     1     -11.553 -16.738 -43.725  1.00  0.00     0.005 A 
HETATM   29  C   UNL     1     -10.652 -16.156 -42.834  1.00  0.00     0.050 A 
ENDBRANCH  21  24
ENDBRANCH  16  20
ENDBRANCH   2  14
BRANCH   1  30
HETATM   30  C   UNL     1      -4.249 -14.399 -37.199  1.00  0.00    -0.023 A 
HETATM   31  C   UNL     1      -4.285 -13.295 -36.337  1.00  0.00     0.012 A 
HETATM   32  C   UNL     1      -4.691 -13.454 -35.011  1.00  0.00     0.001 A 
HETATM   33  C   UNL     1      -5.061 -14.712 -34.538  1.00  0.00     0.000 A 
HETATM   34  C   UNL     1      -5.023 -15.817 -35.388  1.00  0.00     0.001 A 
HETATM   35  C   UNL     1      -4.619 -15.662 -36.715  1.00  0.00     0.012 A 
ENDBRANCH   1  30
TORSDOF 4
ENDMDL
MODEL 10
REMARK VINA RESULT:      -8.5      7.747     10.412
REMARK  4 active torsions:
REMARK  status: ('A' for Active; 'I' for Inactive)
REMARK    1  A    between atoms: C_4  and  C_5 
REMARK    2  A    between atoms: C_6  and  N_7 
REMARK    3  A    between atoms: C_9  and  C_10 
REMARK       I    between atoms: C_10  and  N_11 
REMARK    4  A    between atoms: N_11  and  C_12 
ROOT
HETATM    1  C   UNL     1      -1.640   7.964 -28.718  1.00  0.00     0.019 A 
HETATM    2  C   UNL     1      -1.271   7.573 -27.471  1.00  0.00     0.111 A 
HETATM    3  C   UNL     1      -0.451   6.293 -27.307  1.00  0.00     0.273 A 
HETATM    4  O   UNL     1      -0.143   5.841 -26.205  1.00  0.00    -0.266 OA
HETATM    5  N   UNL     1      -0.068   5.632 -28.436  1.00  0.00    -0.321 N 
HETATM    6  C   UNL     1      -0.417   6.029 -29.723  1.00  0.00     0.046 A 
HETATM    7  C   UNL     1      -1.200   7.175 -29.902  1.00  0.00     0.006 A 
HETATM    8  C   UNL     1       0.019   5.265 -30.808  1.00  0.00     0.032 A 
HETATM    9  C   UNL     1      -0.330   5.643 -32.103  1.00  0.00     0.026 A 
HETATM   10  C   UNL     1      -1.107   6.782 -32.300  1.00  0.00     0.035 A 
HETATM   11 CL   UNL     1      -1.541   7.248 -33.898  1.00  0.00    -0.084 Cl
HETATM   12  C   UNL     1      -1.538   7.546 -31.213  1.00  0.00     0.038 A 
HETATM   13  H   UNL     1       0.478   4.796 -28.284  1.00  0.00     0.169 HD
ENDROOT
BRANCH   2  14
HETATM   14  N   UNL     1      -1.637   8.257 -26.281  1.00  0.00    -0.375 N 
HETATM   15  C   UNL     1      -0.537   8.764 -25.425  1.00  0.00     0.137 C 
HETATM   16  C   UNL     1      -1.039   9.722 -24.341  1.00  0.00     0.096 C 
HETATM   17  C   UNL     1      -2.228   9.149 -23.564  1.00  0.00     0.017 C 
HETATM   18  C   UNL     1      -3.313   8.678 -24.526  1.00  0.00     0.021 C 
HETATM   19  C   UNL     1      -2.748   7.662 -25.511  1.00  0.00     0.123 C 
BRANCH  16  20
HETATM   20  C   UNL     1       0.104  10.104 -23.399  1.00  0.00     0.229 C 
HETATM   21  N   UNL     1       1.336   9.603 -23.778  1.00  0.00    -0.311 N 
HETATM   22  H   UNL     1       1.395   9.063 -24.629  1.00  0.00     0.170 HD
HETATM   23  O   UNL     1      -0.133  10.799 -22.414  1.00  0.00    -0.273 OA
BRANCH  21  24
HETATM   24  C   UNL     1       2.552   9.809 -23.112  1.00  0.00     0.129 A 
HETATM   25  N   UNL     1       3.184  10.992 -23.168  1.00  0.00    -0.243 NA
HETATM   26  C   UNL     1       4.350  11.122 -22.500  1.00  0.00     0.119 A 
HETATM   27  C   UNL     1       4.934  10.104 -21.766  1.00  0.00     0.019 A 
HETATM   28  C   UNL     1       4.277   8.883 -21.714  1.00  0.00     0.005 A 
HETATM   29  C   UNL     1       3.068   8.734 -22.391  1.00  0.00     0.050 A 
ENDBRANCH  21  24
ENDBRANCH  16  20
ENDBRANCH   2  14
BRANCH   1  30
HETATM   30  C   UNL     1      -2.484   9.181 -28.837  1.00  0.00    -0.023 A 
HETATM   31  C   UNL     1      -1.898  10.447 -28.952  1.00  0.00     0.012 A 
HETATM   32  C   UNL     1      -2.699  11.579 -29.111  1.00  0.00     0.001 A 
HETATM   33  C   UNL     1      -4.087  11.454 -29.154  1.00  0.00     0.000 A 
HETATM   34  C   UNL     1      -4.678  10.197 -29.034  1.00  0.00     0.001 A 
HETATM   35  C   UNL     1      -3.881   9.063 -28.877  1.00  0.00     0.012 A 
ENDBRANCH   1  30
TORSDOF 4
ENDMDL
