MODEL 1
REMARK VINA RESULT:      -7.8      0.000      0.000
REMARK  5 active torsions:
REMARK  status: ('A' for Active; 'I' for Inactive)
REMARK    1  A    between atoms: C_2  and  C_3 
REMARK    2  A    between atoms: C_3  and  N_4 
REMARK    3  A    between atoms: C_7  and  C_8 
REMARK    4  A    between atoms: C_8  and  O_9 
REMARK    5  A    between atoms: N_13  and  C_15 
ROOT
HETATM    1  N   UNL     1      -8.885   3.123 -33.168  1.00  0.00    -0.067 N 
HETATM    2  H   UNL     1      -9.817   3.546 -33.055  1.00  0.00     0.280 HD
HETATM    3  C   UNL     1      -8.431   2.802 -31.768  1.00  0.00     0.242 C 
HETATM    4  C   UNL     1      -6.941   2.383 -31.732  1.00  0.00     0.044 C 
HETATM    5  C   UNL     1      -5.977   3.458 -32.373  1.00  0.00    -0.029 C 
HETATM    6  C   UNL     1      -5.892   4.795 -31.573  1.00  0.00     0.037 C 
HETATM    7  C   UNL     1      -4.829   4.860 -30.472  1.00  0.00     0.236 C 
HETATM    8  N   UNL     1      -3.468   4.488 -31.008  1.00  0.00    -0.067 N 
HETATM    9  H   UNL     1      -2.849   4.470 -30.184  1.00  0.00     0.280 HD
HETATM   10  C   UNL     1      -3.519   3.054 -31.486  1.00  0.00     0.236 C 
HETATM   11  C   UNL     1      -4.538   2.888 -32.613  1.00  0.00     0.037 C 
HETATM   12  C   UNL     1      -6.566   3.756 -33.800  1.00  0.00     0.037 C 
HETATM   13  C   UNL     1      -8.036   4.165 -33.826  1.00  0.00     0.236 C 
ENDROOT
BRANCH   4  14
HETATM   14  C   UNL     1      -6.615   1.928 -30.303  1.00  0.00     0.171 C 
BRANCH  14  15
HETATM   15  O   UNL     1      -7.455   2.646 -29.416  1.00  0.00    -0.400 OA
HETATM   16  H   UNL     1      -7.135   2.524 -28.500  1.00  0.00     0.209 HD
ENDBRANCH  14  15
ENDBRANCH   4  14
BRANCH   1  17
HETATM   17  C   UNL     1      -9.173   1.909 -34.044  1.00  0.00     0.273 C 
BRANCH  17  18
HETATM   18  C   UNL     1     -10.644   1.605 -34.165  1.00  0.00    -0.033 A 
HETATM   19  C   UNL     1     -11.490   2.449 -34.905  1.00  0.00     0.010 A 
HETATM   20  C   UNL     1     -12.863   2.195 -34.966  1.00  0.00     0.024 A 
HETATM   21  C   UNL     1     -13.400   1.100 -34.295  1.00  0.00     0.034 A 
HETATM   22  C   UNL     1     -12.572   0.247 -33.569  1.00  0.00     0.024 A 
HETATM   23 CL   UNL     1     -15.090   0.801 -34.358  1.00  0.00    -0.084 Cl
HETATM   24  C   UNL     1     -11.199   0.497 -33.503  1.00  0.00     0.010 A 
ENDBRANCH  17  18
ENDBRANCH   1  17
BRANCH   8  25
HETATM   25  C   UNL     1      -2.811   5.506 -31.982  1.00  0.00     0.192 C 
HETATM   26  C   UNL     1      -2.747   6.915 -31.372  1.00  0.00     0.059 C 
HETATM   27  C   UNL     1      -1.725   6.996 -30.249  1.00  0.00     0.169 C 
HETATM   28  O   UNL     1      -0.453   6.571 -30.714  1.00  0.00    -0.391 OA
HETATM   29  C   UNL     1      -0.415   5.240 -31.209  1.00  0.00     0.169 C 
HETATM   30  C   UNL     1      -1.386   5.084 -32.370  1.00  0.00     0.059 C 
ENDBRANCH   8  25
TORSDOF 5
ENDMDL
MODEL 2
REMARK VINA RESULT:      -7.7      4.745      8.313
REMARK  5 active torsions:
REMARK  status: ('A' for Active; 'I' for Inactive)
REMARK    1  A    between atoms: C_2  and  C_3 
REMARK    2  A    between atoms: C_3  and  N_4 
REMARK    3  A    between atoms: C_7  and  C_8 
REMARK    4  A    between atoms: C_8  and  O_9 
REMARK    5  A    between atoms: N_13  and  C_15 
ROOT
HETATM    1  N   UNL     1      -7.111   0.842 -33.064  1.00  0.00    -0.067 N 
HETATM    2  H   UNL     1      -6.355   0.512 -32.447  1.00  0.00     0.280 HD
HETATM    3  C   UNL     1      -6.981   2.343 -33.070  1.00  0.00     0.242 C 
HETATM    4  C   UNL     1      -8.193   3.020 -33.755  1.00  0.00     0.044 C 
HETATM    5  C   UNL     1      -9.579   2.605 -33.119  1.00  0.00    -0.029 C 
HETATM    6  C   UNL     1      -9.787   3.114 -31.659  1.00  0.00     0.037 C 
HETATM    7  C   UNL     1     -10.413   4.503 -31.508  1.00  0.00     0.236 C 
HETATM    8  N   UNL     1     -11.705   4.603 -32.282  1.00  0.00    -0.067 N 
HETATM    9  H   UNL     1     -11.996   5.589 -32.195  1.00  0.00     0.280 HD
HETATM   10  C   UNL     1     -11.397   4.418 -33.751  1.00  0.00     0.236 C 
HETATM   11  C   UNL     1     -10.789   3.040 -34.013  1.00  0.00     0.037 C 
HETATM   12  C   UNL     1      -9.588   1.033 -33.116  1.00  0.00     0.037 C 
HETATM   13  C   UNL     1      -8.388   0.375 -32.441  1.00  0.00     0.236 C 
ENDROOT
BRANCH   4  14
HETATM   14  C   UNL     1      -7.900   4.523 -33.853  1.00  0.00     0.171 C 
BRANCH  14  15
HETATM   15  O   UNL     1      -6.552   4.677 -34.264  1.00  0.00    -0.400 OA
HETATM   16  H   UNL     1      -6.014   3.958 -33.877  1.00  0.00     0.209 HD
ENDBRANCH  14  15
ENDBRANCH   4  14
BRANCH   1  17
HETATM   17  C   UNL     1      -6.779   0.165 -34.390  1.00  0.00     0.273 C 
BRANCH  17  18
HETATM   18  C   UNL     1      -5.960  -1.089 -34.222  1.00  0.00    -0.033 A 
HETATM   19  C   UNL     1      -4.781  -1.076 -33.458  1.00  0.00     0.010 A 
HETATM   20  C   UNL     1      -3.994  -2.227 -33.355  1.00  0.00     0.024 A 
HETATM   21  C   UNL     1      -4.378  -3.395 -34.007  1.00  0.00     0.034 A 
HETATM   22  C   UNL     1      -5.551  -3.426 -34.757  1.00  0.00     0.024 A 
HETATM   23 CL   UNL     1      -3.399  -4.802 -33.892  1.00  0.00    -0.084 Cl
HETATM   24  C   UNL     1      -6.340  -2.279 -34.865  1.00  0.00     0.010 A 
ENDBRANCH  17  18
ENDBRANCH   1  17
BRANCH   8  25
HETATM   25  C   UNL     1     -12.903   3.781 -31.730  1.00  0.00     0.192 C 
HETATM   26  C   UNL     1     -13.199   4.125 -30.262  1.00  0.00     0.059 C 
HETATM   27  C   UNL     1     -13.802   5.514 -30.119  1.00  0.00     0.169 C 
HETATM   28  O   UNL     1     -14.966   5.626 -30.925  1.00  0.00    -0.391 OA
HETATM   29  C   UNL     1     -14.751   5.411 -32.313  1.00  0.00     0.169 C 
HETATM   30  C   UNL     1     -14.182   4.020 -32.547  1.00  0.00     0.059 C 
ENDBRANCH   8  25
TORSDOF 5
ENDMDL
MODEL 3
REMARK VINA RESULT:      -7.6      4.306      5.705
REMARK  5 active torsions:
REMARK  status: ('A' for Active; 'I' for Inactive)
REMARK    1  A    between atoms: C_2  and  C_3 
REMARK    2  A    between atoms: C_3  and  N_4 
REMARK    3  A    between atoms: C_7  and  C_8 
REMARK    4  A    between atoms: C_8  and  O_9 
REMARK    5  A    between atoms: N_13  and  C_15 
ROOT
HETATM    1  N   UNL     1      -7.865   0.291 -33.836  1.00  0.00    -0.067 N 
HETATM    2  H   UNL     1      -8.652  -0.355 -33.994  1.00  0.00     0.280 HD
HETATM    3  C   UNL     1      -7.412   0.015 -32.426  1.00  0.00     0.242 C 
HETATM    4  C   UNL     1      -6.391   1.070 -31.936  1.00  0.00     0.044 C 
HETATM    5  C   UNL     1      -6.927   2.552 -32.045  1.00  0.00    -0.029 C 
HETATM    6  C   UNL     1      -8.114   2.872 -31.084  1.00  0.00     0.037 C 
HETATM    7  C   UNL     1      -7.739   3.373 -29.687  1.00  0.00     0.236 C 
HETATM    8  N   UNL     1      -6.802   4.553 -29.766  1.00  0.00    -0.067 N 
HETATM    9  H   UNL     1      -6.538   4.754 -28.790  1.00  0.00     0.280 HD
HETATM   10  C   UNL     1      -5.520   4.102 -30.429  1.00  0.00     0.236 C 
HETATM   11  C   UNL     1      -5.785   3.606 -31.851  1.00  0.00     0.037 C 
HETATM   12  C   UNL     1      -7.416   2.716 -33.530  1.00  0.00     0.037 C 
HETATM   13  C   UNL     1      -8.420   1.669 -34.005  1.00  0.00     0.236 C 
ENDROOT
BRANCH   4  14
HETATM   14  C   UNL     1      -5.873   0.622 -30.563  1.00  0.00     0.171 C 
BRANCH  14  15
HETATM   15  O   UNL     1      -6.877  -0.176 -29.959  1.00  0.00    -0.400 OA
HETATM   16  H   UNL     1      -7.673   0.370 -29.806  1.00  0.00     0.209 HD
ENDBRANCH  14  15
ENDBRANCH   4  14
BRANCH   1  17
HETATM   17  C   UNL     1      -6.874  -0.120 -34.919  1.00  0.00     0.273 C 
BRANCH  17  18
HETATM   18  C   UNL     1      -6.203  -1.440 -34.636  1.00  0.00    -0.033 A 
HETATM   19  C   UNL     1      -4.909  -1.482 -34.090  1.00  0.00     0.010 A 
HETATM   20  C   UNL     1      -4.269  -2.708 -33.884  1.00  0.00     0.024 A 
HETATM   21  C   UNL     1      -4.915  -3.895 -34.216  1.00  0.00     0.034 A 
HETATM   22  C   UNL     1      -6.203  -3.870 -34.745  1.00  0.00     0.024 A 
HETATM   23 CL   UNL     1      -4.119  -5.399 -33.977  1.00  0.00    -0.084 Cl
HETATM   24  C   UNL     1      -6.846  -2.647 -34.955  1.00  0.00     0.010 A 
ENDBRANCH  17  18
ENDBRANCH   1  17
BRANCH   8  25
HETATM   25  C   UNL     1      -7.412   5.881 -30.298  1.00  0.00     0.192 C 
HETATM   26  C   UNL     1      -8.716   6.238 -29.568  1.00  0.00     0.059 C 
HETATM   27  C   UNL     1      -8.458   6.675 -28.135  1.00  0.00     0.169 C 
HETATM   28  O   UNL     1      -7.535   7.754 -28.111  1.00  0.00    -0.391 OA
HETATM   29  C   UNL     1      -6.269   7.466 -28.688  1.00  0.00     0.169 C 
HETATM   30  C   UNL     1      -6.436   7.057 -30.144  1.00  0.00     0.059 C 
ENDBRANCH   8  25
TORSDOF 5
ENDMDL
MODEL 4
REMARK VINA RESULT:      -7.6      4.160      5.008
REMARK  5 active torsions:
REMARK  status: ('A' for Active; 'I' for Inactive)
REMARK    1  A    between atoms: C_2  and  C_3 
REMARK    2  A    between atoms: C_3  and  N_4 
REMARK    3  A    between atoms: C_7  and  C_8 
REMARK    4  A    between atoms: C_8  and  O_9 
REMARK    5  A    between atoms: N_13  and  C_15 
ROOT
HETATM    1  N   UNL     1      -7.444   0.402 -33.683  1.00  0.00    -0.067 N 
HETATM    2  H   UNL     1      -8.376  -0.020 -33.562  1.00  0.00     0.280 HD
HETATM    3  C   UNL     1      -6.685   0.032 -32.435  1.00  0.00     0.242 C 
HETATM    4  C   UNL     1      -5.340   0.792 -32.336  1.00  0.00     0.044 C 
HETATM    5  C   UNL     1      -5.506   2.361 -32.415  1.00  0.00    -0.029 C 
HETATM    6  C   UNL     1      -6.249   2.986 -31.194  1.00  0.00     0.037 C 
HETATM    7  C   UNL     1      -5.377   3.386 -30.001  1.00  0.00     0.236 C 
HETATM    8  N   UNL     1      -4.243   4.284 -30.434  1.00  0.00    -0.067 N 
HETATM    9  H   UNL     1      -3.668   4.418 -29.589  1.00  0.00     0.280 HD
HETATM   10  C   UNL     1      -3.359   3.510 -31.387  1.00  0.00     0.236 C 
HETATM   11  C   UNL     1      -4.135   3.087 -32.633  1.00  0.00     0.037 C 
HETATM   12  C   UNL     1      -6.347   2.632 -33.716  1.00  0.00     0.037 C 
HETATM   13  C   UNL     1      -7.670   1.875 -33.805  1.00  0.00     0.236 C 
ENDROOT
BRANCH   4  14
HETATM   14  C   UNL     1      -4.574   0.238 -31.127  1.00  0.00     0.171 C 
BRANCH  14  15
HETATM   15  O   UNL     1      -3.289  -0.160 -31.572  1.00  0.00    -0.400 OA
HETATM   16  H   UNL     1      -3.060  -1.019 -31.165  1.00  0.00     0.209 HD
ENDBRANCH  14  15
ENDBRANCH   4  14
BRANCH   1  17
HETATM   17  C   UNL     1      -6.940  -0.261 -34.960  1.00  0.00     0.273 C 
BRANCH  17  18
HETATM   18  C   UNL     1      -6.279  -1.593 -34.712  1.00  0.00    -0.033 A 
HETATM   19  C   UNL     1      -4.896  -1.672 -34.478  1.00  0.00     0.010 A 
HETATM   20  C   UNL     1      -4.279  -2.915 -34.308  1.00  0.00     0.024 A 
HETATM   21  C   UNL     1      -5.035  -4.082 -34.364  1.00  0.00     0.034 A 
HETATM   22  C   UNL     1      -6.409  -4.018 -34.582  1.00  0.00     0.024 A 
HETATM   23 CL   UNL     1      -4.270  -5.608 -34.171  1.00  0.00    -0.084 Cl
HETATM   24  C   UNL     1      -7.030  -2.779 -34.755  1.00  0.00     0.010 A 
ENDBRANCH  17  18
ENDBRANCH   1  17
BRANCH   8  25
HETATM   25  C   UNL     1      -4.637   5.718 -30.886  1.00  0.00     0.192 C 
HETATM   26  C   UNL     1      -5.429   6.458 -29.797  1.00  0.00     0.059 C 
HETATM   27  C   UNL     1      -4.547   6.834 -28.616  1.00  0.00     0.169 C 
HETATM   28  O   UNL     1      -3.435   7.597 -29.060  1.00  0.00    -0.391 OA
HETATM   29  C   UNL     1      -2.601   6.938 -30.003  1.00  0.00     0.169 C 
HETATM   30  C   UNL     1      -3.402   6.562 -31.240  1.00  0.00     0.059 C 
ENDBRANCH   8  25
TORSDOF 5
ENDMDL
MODEL 5
REMARK VINA RESULT:      -7.5      1.786      2.471
REMARK  5 active torsions:
REMARK  status: ('A' for Active; 'I' for Inactive)
REMARK    1  A    between atoms: C_2  and  C_3 
REMARK    2  A    between atoms: C_3  and  N_4 
REMARK    3  A    between atoms: C_7  and  C_8 
REMARK    4  A    between atoms: C_8  and  O_9 
REMARK    5  A    between atoms: N_13  and  C_15 
ROOT
HETATM    1  N   UNL     1      -8.692   1.620 -34.291  1.00  0.00    -0.067 N 
HETATM    2  H   UNL     1      -9.136   1.340 -35.177  1.00  0.00     0.280 HD
HETATM    3  C   UNL     1      -8.796   3.122 -34.262  1.00  0.00     0.242 C 
HETATM    4  C   UNL     1      -7.959   3.732 -33.111  1.00  0.00     0.044 C 
HETATM    5  C   UNL     1      -6.439   3.302 -33.153  1.00  0.00    -0.029 C 
HETATM    6  C   UNL     1      -5.652   3.866 -34.377  1.00  0.00     0.037 C 
HETATM    7  C   UNL     1      -5.002   5.240 -34.190  1.00  0.00     0.236 C 
HETATM    8  N   UNL     1      -4.134   5.268 -32.956  1.00  0.00    -0.067 N 
HETATM    9  H   UNL     1      -3.822   6.247 -32.867  1.00  0.00     0.280 HD
HETATM   10  C   UNL     1      -5.013   5.029 -31.748  1.00  0.00     0.236 C 
HETATM   11  C   UNL     1      -5.690   3.661 -31.825  1.00  0.00     0.037 C 
HETATM   12  C   UNL     1      -6.446   1.732 -33.233  1.00  0.00     0.037 C 
HETATM   13  C   UNL     1      -7.277   1.141 -34.368  1.00  0.00     0.236 C 
ENDROOT
BRANCH   4  14
HETATM   14  C   UNL     1      -8.250   5.238 -33.064  1.00  0.00     0.171 C 
BRANCH  14  15
HETATM   15  O   UNL     1      -8.542   5.666 -34.383  1.00  0.00    -0.400 OA
HETATM   16  H   UNL     1      -8.184   6.566 -34.516  1.00  0.00     0.209 HD
ENDBRANCH  14  15
ENDBRANCH   4  14
BRANCH   1  17
HETATM   17  C   UNL     1      -9.540   0.898 -33.250  1.00  0.00     0.273 C 
BRANCH  17  18
HETATM   18  C   UNL     1     -10.992   0.795 -33.640  1.00  0.00    -0.033 A 
HETATM   19  C   UNL     1     -11.605   1.812 -34.391  1.00  0.00     0.010 A 
HETATM   20  C   UNL     1     -12.966   1.739 -34.700  1.00  0.00     0.024 A 
HETATM   21  C   UNL     1     -13.722   0.653 -34.267  1.00  0.00     0.034 A 
HETATM   22  C   UNL     1     -13.125  -0.369 -33.533  1.00  0.00     0.024 A 
HETATM   23 CL   UNL     1     -15.398   0.577 -34.634  1.00  0.00    -0.084 Cl
HETATM   24  C   UNL     1     -11.766  -0.300 -33.220  1.00  0.00     0.010 A 
ENDBRANCH  17  18
ENDBRANCH   1  17
BRANCH   8  25
HETATM   25  C   UNL     1      -2.824   4.433 -33.018  1.00  0.00     0.192 C 
HETATM   26  C   UNL     1      -1.929   4.869 -34.188  1.00  0.00     0.059 C 
HETATM   27  C   UNL     1      -1.307   6.235 -33.943  1.00  0.00     0.169 C 
HETATM   28  O   UNL     1      -0.595   6.234 -32.714  1.00  0.00    -0.391 OA
HETATM   29  C   UNL     1      -1.382   5.929 -31.571  1.00  0.00     0.169 C 
HETATM   30  C   UNL     1      -2.011   4.552 -31.719  1.00  0.00     0.059 C 
ENDBRANCH   8  25
TORSDOF 5
ENDMDL
MODEL 6
REMARK VINA RESULT:      -7.5      4.001      5.034
REMARK  5 active torsions:
REMARK  status: ('A' for Active; 'I' for Inactive)
REMARK    1  A    between atoms: C_2  and  C_3 
REMARK    2  A    between atoms: C_3  and  N_4 
REMARK    3  A    between atoms: C_7  and  C_8 
REMARK    4  A    between atoms: C_8  and  O_9 
REMARK    5  A    between atoms: N_13  and  C_15 
ROOT
HETATM    1  N   UNL     1      -5.001   1.609 -33.044  1.00  0.00    -0.067 N 
HETATM    2  H   UNL     1      -4.691   1.178 -33.926  1.00  0.00     0.280 HD
HETATM    3  C   UNL     1      -5.825   2.799 -33.461  1.00  0.00     0.242 C 
HETATM    4  C   UNL     1      -6.169   3.708 -32.256  1.00  0.00     0.044 C 
HETATM    5  C   UNL     1      -4.894   4.194 -31.460  1.00  0.00    -0.029 C 
HETATM    6  C   UNL     1      -3.972   5.164 -32.264  1.00  0.00     0.037 C 
HETATM    7  C   UNL     1      -4.301   6.655 -32.159  1.00  0.00     0.236 C 
HETATM    8  N   UNL     1      -4.384   7.093 -30.716  1.00  0.00    -0.067 N 
HETATM    9  H   UNL     1      -4.699   8.074 -30.750  1.00  0.00     0.280 HD
HETATM   10  C   UNL     1      -5.520   6.344 -30.055  1.00  0.00     0.236 C 
HETATM   11  C   UNL     1      -5.271   4.837 -30.082  1.00  0.00     0.037 C 
HETATM   12  C   UNL     1      -4.086   2.889 -31.120  1.00  0.00     0.037 C 
HETATM   13  C   UNL     1      -3.755   1.998 -32.314  1.00  0.00     0.236 C 
ENDROOT
BRANCH   4  14
HETATM   14  C   UNL     1      -7.133   4.797 -32.748  1.00  0.00     0.171 C 
BRANCH  14  15
HETATM   15  O   UNL     1      -6.941   4.949 -34.144  1.00  0.00    -0.400 OA
HETATM   16  H   UNL     1      -6.612   4.107 -34.518  1.00  0.00     0.209 HD
ENDBRANCH  14  15
ENDBRANCH   4  14
BRANCH   1  17
HETATM   17  C   UNL     1      -5.788   0.485 -32.381  1.00  0.00     0.273 C 
BRANCH  17  18
HETATM   18  C   UNL     1      -5.868  -0.759 -33.228  1.00  0.00    -0.033 A 
HETATM   19  C   UNL     1      -7.104  -1.215 -33.715  1.00  0.00     0.010 A 
HETATM   20  C   UNL     1      -7.180  -2.401 -34.451  1.00  0.00     0.024 A 
HETATM   21  C   UNL     1      -6.025  -3.135 -34.709  1.00  0.00     0.034 A 
HETATM   22  C   UNL     1      -4.791  -2.689 -34.244  1.00  0.00     0.024 A 
HETATM   23 CL   UNL     1      -6.125  -4.602 -35.598  1.00  0.00    -0.084 Cl
HETATM   24  C   UNL     1      -4.711  -1.505 -33.506  1.00  0.00     0.010 A 
ENDBRANCH  17  18
ENDBRANCH   1  17
BRANCH   8  25
HETATM   25  C   UNL     1      -3.044   7.127 -29.930  1.00  0.00     0.192 C 
HETATM   26  C   UNL     1      -2.019   8.058 -30.597  1.00  0.00     0.059 C 
HETATM   27  C   UNL     1      -2.402   9.521 -30.440  1.00  0.00     0.169 C 
HETATM   28  O   UNL     1      -2.576   9.837 -29.067  1.00  0.00    -0.391 OA
HETATM   29  C   UNL     1      -3.577   9.076 -28.405  1.00  0.00     0.169 C 
HETATM   30  C   UNL     1      -3.246   7.593 -28.480  1.00  0.00     0.059 C 
ENDBRANCH   8  25
TORSDOF 5
ENDMDL
MODEL 7
REMARK VINA RESULT:      -7.4      3.992      5.452
REMARK  5 active torsions:
REMARK  status: ('A' for Active; 'I' for Inactive)
REMARK    1  A    between atoms: C_2  and  C_3 
REMARK    2  A    between atoms: C_3  and  N_4 
REMARK    3  A    between atoms: C_7  and  C_8 
REMARK    4  A    between atoms: C_8  and  O_9 
REMARK    5  A    between atoms: N_13  and  C_15 
ROOT
HETATM    1  N   UNL     1      -8.113   3.963 -32.981  1.00  0.00    -0.067 N 
HETATM    2  H   UNL     1      -8.014   4.778 -32.360  1.00  0.00     0.280 HD
HETATM    3  C   UNL     1      -8.635   2.861 -32.098  1.00  0.00     0.242 C 
HETATM    4  C   UNL     1      -8.611   1.490 -32.817  1.00  0.00     0.044 C 
HETATM    5  C   UNL     1      -7.181   1.102 -33.366  1.00  0.00    -0.029 C 
HETATM    6  C   UNL     1      -6.123   0.831 -32.252  1.00  0.00     0.037 C 
HETATM    7  C   UNL     1      -6.040  -0.605 -31.730  1.00  0.00     0.236 C 
HETATM    8  N   UNL     1      -5.864  -1.587 -32.863  1.00  0.00    -0.067 N 
HETATM    9  H   UNL     1      -5.914  -2.518 -32.424  1.00  0.00     0.280 HD
HETATM   10  C   UNL     1      -7.085  -1.512 -33.754  1.00  0.00     0.236 C 
HETATM   11  C   UNL     1      -7.241  -0.114 -34.352  1.00  0.00     0.037 C 
HETATM   12  C   UNL     1      -6.712   2.331 -34.227  1.00  0.00     0.037 C 
HETATM   13  C   UNL     1      -6.743   3.678 -33.510  1.00  0.00     0.236 C 
ENDROOT
BRANCH   4  14
HETATM   14  C   UNL     1      -9.302   0.467 -31.904  1.00  0.00     0.171 C 
BRANCH  14  15
HETATM   15  O   UNL     1     -10.439  -0.028 -32.590  1.00  0.00    -0.400 OA
HETATM   16  H   UNL     1     -10.985  -0.553 -31.971  1.00  0.00     0.209 HD
ENDBRANCH  14  15
ENDBRANCH   4  14
BRANCH   1  17
HETATM   17  C   UNL     1      -9.097   4.462 -34.034  1.00  0.00     0.273 C 
BRANCH  17  18
HETATM   18  C   UNL     1     -10.474   3.870 -33.881  1.00  0.00    -0.033 A 
HETATM   19  C   UNL     1     -11.290   4.228 -32.794  1.00  0.00     0.010 A 
HETATM   20  C   UNL     1     -12.543   3.631 -32.625  1.00  0.00     0.024 A 
HETATM   21  C   UNL     1     -12.991   2.681 -33.538  1.00  0.00     0.034 A 
HETATM   22  C   UNL     1     -12.199   2.327 -34.627  1.00  0.00     0.024 A 
HETATM   23 CL   UNL     1     -14.524   1.938 -33.317  1.00  0.00    -0.084 Cl
HETATM   24  C   UNL     1     -10.946   2.918 -34.800  1.00  0.00     0.010 A 
ENDBRANCH  17  18
ENDBRANCH   1  17
BRANCH   8  25
HETATM   25  C   UNL     1      -4.490  -1.558 -33.590  1.00  0.00     0.192 C 
HETATM   26  C   UNL     1      -3.322  -1.687 -32.600  1.00  0.00     0.059 C 
HETATM   27  C   UNL     1      -3.232  -3.089 -32.017  1.00  0.00     0.169 C 
HETATM   28  O   UNL     1      -3.140  -4.048 -33.060  1.00  0.00    -0.391 OA
HETATM   29  C   UNL     1      -4.235  -4.049 -33.965  1.00  0.00     0.169 C 
HETATM   30  C   UNL     1      -4.371  -2.686 -34.626  1.00  0.00     0.059 C 
ENDBRANCH   8  25
TORSDOF 5
ENDMDL
MODEL 8
REMARK VINA RESULT:      -7.2      4.298      5.726
REMARK  5 active torsions:
REMARK  status: ('A' for Active; 'I' for Inactive)
REMARK    1  A    between atoms: C_2  and  C_3 
REMARK    2  A    between atoms: C_3  and  N_4 
REMARK    3  A    between atoms: C_7  and  C_8 
REMARK    4  A    between atoms: C_8  and  O_9 
REMARK    5  A    between atoms: N_13  and  C_15 
ROOT
HETATM    1  N   UNL     1      -5.888   1.046 -32.240  1.00  0.00    -0.067 N 
HETATM    2  H   UNL     1      -5.802   0.130 -31.777  1.00  0.00     0.280 HD
HETATM    3  C   UNL     1      -4.619   1.779 -31.892  1.00  0.00     0.242 C 
HETATM    4  C   UNL     1      -4.687   3.269 -32.305  1.00  0.00     0.044 C 
HETATM    5  C   UNL     1      -5.929   4.029 -31.690  1.00  0.00    -0.029 C 
HETATM    6  C   UNL     1      -5.872   4.189 -30.139  1.00  0.00     0.037 C 
HETATM    7  C   UNL     1      -5.160   5.438 -29.612  1.00  0.00     0.236 C 
HETATM    8  N   UNL     1      -5.720   6.690 -30.245  1.00  0.00    -0.067 N 
HETATM    9  H   UNL     1      -5.121   7.456 -29.902  1.00  0.00     0.280 HD
HETATM   10  C   UNL     1      -5.460   6.630 -31.733  1.00  0.00     0.236 C 
HETATM   11  C   UNL     1      -6.156   5.425 -32.363  1.00  0.00     0.037 C 
HETATM   12  C   UNL     1      -7.184   3.159 -32.066  1.00  0.00     0.037 C 
HETATM   13  C   UNL     1      -7.105   1.691 -31.658  1.00  0.00     0.236 C 
ENDROOT
BRANCH   4  14
HETATM   14  C   UNL     1      -3.306   3.890 -32.058  1.00  0.00     0.171 C 
BRANCH  14  15
HETATM   15  O   UNL     1      -2.612   3.057 -31.144  1.00  0.00    -0.400 OA
HETATM   16  H   UNL     1      -2.780   3.370 -30.233  1.00  0.00     0.209 HD
ENDBRANCH  14  15
ENDBRANCH   4  14
BRANCH   1  17
HETATM   17  C   UNL     1      -6.026   0.665 -33.710  1.00  0.00     0.273 C 
BRANCH  17  18
HETATM   18  C   UNL     1      -5.843  -0.811 -33.956  1.00  0.00    -0.033 A 
HETATM   19  C   UNL     1      -4.579  -1.409 -33.811  1.00  0.00     0.010 A 
HETATM   20  C   UNL     1      -4.403  -2.766 -34.098  1.00  0.00     0.024 A 
HETATM   21  C   UNL     1      -5.482  -3.534 -34.525  1.00  0.00     0.034 A 
HETATM   22  C   UNL     1      -6.743  -2.958 -34.661  1.00  0.00     0.024 A 
HETATM   23 CL   UNL     1      -5.258  -5.197 -34.893  1.00  0.00    -0.084 Cl
HETATM   24  C   UNL     1      -6.924  -1.602 -34.378  1.00  0.00     0.010 A 
ENDBRANCH  17  18
ENDBRANCH   1  17
BRANCH   8  25
HETATM   25  C   UNL     1      -7.162   7.087 -29.823  1.00  0.00     0.192 C 
HETATM   26  C   UNL     1      -7.299   7.188 -28.296  1.00  0.00     0.059 C 
HETATM   27  C   UNL     1      -6.567   8.402 -27.744  1.00  0.00     0.169 C 
HETATM   28  O   UNL     1      -7.024   9.582 -28.387  1.00  0.00    -0.391 OA
HETATM   29  C   UNL     1      -6.844   9.599 -29.796  1.00  0.00     0.169 C 
HETATM   30  C   UNL     1      -7.584   8.432 -30.434  1.00  0.00     0.059 C 
ENDBRANCH   8  25
TORSDOF 5
ENDMDL
MODEL 9
REMARK VINA RESULT:      -7.2      4.088      9.289
REMARK  5 active torsions:
REMARK  status: ('A' for Active; 'I' for Inactive)
REMARK    1  A    between atoms: C_2  and  C_3 
REMARK    2  A    between atoms: C_3  and  N_4 
REMARK    3  A    between atoms: C_7  and  C_8 
REMARK    4  A    between atoms: C_8  and  O_9 
REMARK    5  A    between atoms: N_13  and  C_15 
ROOT
HETATM    1  N   UNL     1      -2.745   5.173 -33.061  1.00  0.00    -0.067 N 
HETATM    2  H   UNL     1      -1.812   4.787 -33.265  1.00  0.00     0.280 HD
HETATM    3  C   UNL     1      -3.201   4.453 -31.820  1.00  0.00     0.242 C 
HETATM    4  C   UNL     1      -4.692   4.734 -31.510  1.00  0.00     0.044 C 
HETATM    5  C   UNL     1      -5.654   4.385 -32.714  1.00  0.00    -0.029 C 
HETATM    6  C   UNL     1      -5.738   2.862 -33.041  1.00  0.00     0.037 C 
HETATM    7  C   UNL     1      -6.802   2.063 -32.283  1.00  0.00     0.236 C 
HETATM    8  N   UNL     1      -8.163   2.701 -32.423  1.00  0.00    -0.067 N 
HETATM    9  H   UNL     1      -8.783   2.151 -31.810  1.00  0.00     0.280 HD
HETATM   10  C   UNL     1      -8.113   4.075 -31.794  1.00  0.00     0.236 C 
HETATM   11  C   UNL     1      -7.093   4.966 -32.503  1.00  0.00     0.037 C 
HETATM   12  C   UNL     1      -5.063   5.142 -33.959  1.00  0.00     0.037 C 
HETATM   13  C   UNL     1      -3.592   4.861 -34.254  1.00  0.00     0.236 C 
ENDROOT
BRANCH   4  14
HETATM   14  C   UNL     1      -5.020   4.092 -30.155  1.00  0.00     0.171 C 
BRANCH  14  15
HETATM   15  O   UNL     1      -5.133   5.131 -29.198  1.00  0.00    -0.400 OA
HETATM   16  H   UNL     1      -4.821   5.969 -29.594  1.00  0.00     0.209 HD
ENDBRANCH  14  15
ENDBRANCH   4  14
BRANCH   1  17
HETATM   17  C   UNL     1      -2.458   6.658 -32.872  1.00  0.00     0.273 C 
BRANCH  17  18
HETATM   18  C   UNL     1      -1.575   6.941 -31.683  1.00  0.00    -0.033 A 
HETATM   19  C   UNL     1      -2.076   7.636 -30.570  1.00  0.00     0.010 A 
HETATM   20  C   UNL     1      -1.237   7.948 -29.496  1.00  0.00     0.024 A 
HETATM   21  C   UNL     1       0.101   7.565 -29.523  1.00  0.00     0.034 A 
HETATM   22  C   UNL     1       0.608   6.864 -30.615  1.00  0.00     0.024 A 
HETATM   23 CL   UNL     1       1.133   7.965 -28.209  1.00  0.00    -0.084 Cl
HETATM   24  C   UNL     1      -0.225   6.553 -31.691  1.00  0.00     0.010 A 
ENDBRANCH  17  18
ENDBRANCH   1  17
BRANCH   8  25
HETATM   25  C   UNL     1      -8.817   2.622 -33.831  1.00  0.00     0.192 C 
HETATM   26  C   UNL     1      -9.126   1.171 -34.232  1.00  0.00     0.059 C 
HETATM   27  C   UNL     1     -10.278   0.596 -33.423  1.00  0.00     0.169 C 
HETATM   28  O   UNL     1     -11.424   1.426 -33.545  1.00  0.00    -0.391 OA
HETATM   29  C   UNL     1     -11.238   2.764 -33.105  1.00  0.00     0.169 C 
HETATM   30  C   UNL     1     -10.123   3.428 -33.898  1.00  0.00     0.059 C 
ENDBRANCH   8  25
TORSDOF 5
ENDMDL
MODEL 10
REMARK VINA RESULT:      -7.2      4.201      5.528
REMARK  5 active torsions:
REMARK  status: ('A' for Active; 'I' for Inactive)
REMARK    1  A    between atoms: C_2  and  C_3 
REMARK    2  A    between atoms: C_3  and  N_4 
REMARK    3  A    between atoms: C_7  and  C_8 
REMARK    4  A    between atoms: C_8  and  O_9 
REMARK    5  A    between atoms: N_13  and  C_15 
ROOT
HETATM    1  N   UNL     1      -5.623   1.580 -32.832  1.00  0.00    -0.067 N 
HETATM    2  H   UNL     1      -5.461   1.364 -33.826  1.00  0.00     0.280 HD
HETATM    3  C   UNL     1      -7.044   2.075 -32.768  1.00  0.00     0.242 C 
HETATM    4  C   UNL     1      -7.378   2.678 -31.382  1.00  0.00     0.044 C 
HETATM    5  C   UNL     1      -6.391   3.834 -30.952  1.00  0.00    -0.029 C 
HETATM    6  C   UNL     1      -6.496   5.120 -31.830  1.00  0.00     0.037 C 
HETATM    7  C   UNL     1      -7.521   6.165 -31.381  1.00  0.00     0.236 C 
HETATM    8  N   UNL     1      -7.317   6.539 -29.932  1.00  0.00    -0.067 N 
HETATM    9  H   UNL     1      -8.102   7.167 -29.703  1.00  0.00     0.280 HD
HETATM   10  C   UNL     1      -7.544   5.308 -29.085  1.00  0.00     0.236 C 
HETATM   11  C   UNL     1      -6.545   4.207 -29.439  1.00  0.00     0.037 C 
HETATM   12  C   UNL     1      -4.946   3.232 -31.103  1.00  0.00     0.037 C 
HETATM   13  C   UNL     1      -4.627   2.637 -32.471  1.00  0.00     0.236 C 
ENDROOT
BRANCH   4  14
HETATM   14  C   UNL     1      -8.877   3.007 -31.361  1.00  0.00     0.171 C 
BRANCH  14  15
HETATM   15  O   UNL     1      -9.508   2.103 -30.469  1.00  0.00    -0.400 OA
HETATM   16  H   UNL     1      -8.865   1.823 -29.788  1.00  0.00     0.209 HD
ENDBRANCH  14  15
ENDBRANCH   4  14
BRANCH   1  17
HETATM   17  C   UNL     1      -5.380   0.237 -32.153  1.00  0.00     0.273 C 
BRANCH  17  18
HETATM   18  C   UNL     1      -5.571  -0.936 -33.082  1.00  0.00    -0.033 A 
HETATM   19  C   UNL     1      -6.850  -1.269 -33.557  1.00  0.00     0.010 A 
HETATM   20  C   UNL     1      -7.031  -2.392 -34.370  1.00  0.00     0.024 A 
HETATM   21  C   UNL     1      -5.939  -3.184 -34.716  1.00  0.00     0.034 A 
HETATM   22  C   UNL     1      -4.664  -2.858 -34.263  1.00  0.00     0.024 A 
HETATM   23 CL   UNL     1      -6.167  -4.573 -35.701  1.00  0.00    -0.084 Cl
HETATM   24  C   UNL     1      -4.478  -1.738 -33.449  1.00  0.00     0.010 A 
ENDBRANCH  17  18
ENDBRANCH   1  17
BRANCH   8  25
HETATM   25  C   UNL     1      -6.037   7.360 -29.608  1.00  0.00     0.192 C 
HETATM   26  C   UNL     1      -5.960   8.645 -30.447  1.00  0.00     0.059 C 
HETATM   27  C   UNL     1      -6.995   9.669 -30.005  1.00  0.00     0.169 C 
HETATM   28  O   UNL     1      -6.851   9.942 -28.619  1.00  0.00    -0.391 OA
HETATM   29  C   UNL     1      -7.003   8.811 -27.772  1.00  0.00     0.169 C 
HETATM   30  C   UNL     1      -5.972   7.750 -28.124  1.00  0.00     0.059 C 
ENDBRANCH   8  25
TORSDOF 5
ENDMDL
