MODEL 1
REMARK VINA RESULT:      -9.4      0.000      0.000
REMARK  6 active torsions:
REMARK  status: ('A' for Active; 'I' for Inactive)
REMARK    1  A    between atoms: O_2  and  C_3 
REMARK    2  A    between atoms: C_5  and  C_6 
REMARK    3  A    between atoms: C_12  and  C_13 
REMARK       I    between atoms: C_13  and  N_14 
REMARK    4  A    between atoms: N_14  and  C_15 
REMARK    5  A    between atoms: C_15  and  C_16 
REMARK    6  A    between atoms: C_23  and  C_24 
ROOT
HETATM    1  C   UNL     1      -6.387   0.699 -32.762  1.00  0.00     0.118 C 
HETATM    2  N   UNL     1      -5.812   1.836 -33.472  1.00  0.00    -0.365 N 
HETATM    3  C   UNL     1      -6.472   3.021 -33.481  1.00  0.00     0.138 A 
HETATM    4  N   UNL     1      -7.814   3.057 -33.161  1.00  0.00    -0.240 N 
HETATM    5  N   UNL     1      -8.329   4.293 -33.132  1.00  0.00    -0.181 NA
HETATM    6  C   UNL     1      -7.324   5.053 -33.571  1.00  0.00     0.160 A 
HETATM    7  C   UNL     1      -6.126   4.326 -33.790  1.00  0.00     0.096 A 
HETATM    8  C   UNL     1      -8.602   1.901 -32.765  1.00  0.00     0.221 C 
HETATM    9  C   UNL     1      -7.872   0.592 -33.125  1.00  0.00     0.066 C 
HETATM   10  H   UNL     1      -4.876   1.704 -33.854  1.00  0.00     0.161 HD
ENDROOT
BRANCH   7  11
HETATM   11  C   UNL     1      -4.869   4.914 -34.215  1.00  0.00     0.257 C 
HETATM   12  N   UNL     1      -4.145   5.550 -33.235  1.00  0.00    -0.352 N 
HETATM   13  H   UNL     1      -4.622   5.764 -32.372  1.00  0.00     0.163 HD
HETATM   14  O   UNL     1      -4.512   4.888 -35.389  1.00  0.00    -0.267 OA
BRANCH  12  15
HETATM   15  C   UNL     1      -2.983   6.329 -33.585  1.00  0.00     0.161 C 
BRANCH  15  16
HETATM   16  C   UNL     1      -1.870   6.125 -32.595  1.00  0.00    -0.041 A 
HETATM   17  C   UNL     1      -0.847   7.077 -32.479  1.00  0.00     0.009 A 
HETATM   18  C   UNL     1       0.185   6.900 -31.556  1.00  0.00     0.001 A 
HETATM   19  C   UNL     1       0.210   5.764 -30.750  1.00  0.00     0.000 A 
HETATM   20  C   UNL     1      -0.791   4.802 -30.868  1.00  0.00     0.001 A 
HETATM   21  C   UNL     1      -1.827   4.979 -31.788  1.00  0.00     0.009 A 
ENDBRANCH  15  16
ENDBRANCH  12  15
ENDBRANCH   7  11
BRANCH   1  22
HETATM   22  C   UNL     1      -5.599  -0.558 -33.066  1.00  0.00    -0.033 A 
HETATM   23  C   UNL     1      -5.989  -1.377 -34.145  1.00  0.00     0.046 A 
HETATM   24  C   UNL     1      -5.277  -2.538 -34.458  1.00  0.00     0.068 A 
HETATM   25  C   UNL     1      -4.169  -2.887 -33.687  1.00  0.00     0.037 A 
HETATM   26  C   UNL     1      -3.780  -2.099 -32.605  1.00  0.00     0.003 A 
HETATM   27  C   UNL     1      -4.495  -0.944 -32.291  1.00  0.00     0.009 A 
BRANCH  24  28
HETATM   28  O   UNL     1      -5.557  -3.401 -35.481  1.00  0.00    -0.356 OA
HETATM   29  C   UNL     1      -6.448  -4.473 -35.199  1.00  0.00     0.210 C 
ENDBRANCH  24  28
ENDBRANCH   1  22
BRANCH   8  30
HETATM   30  C   UNL     1      -9.975   1.903 -33.407  1.00  0.00     0.409 C 
HETATM   31  F   UNL     1      -9.944   2.308 -34.695  1.00  0.00    -0.169 F 
HETATM   32  F   UNL     1     -10.472   0.635 -33.413  1.00  0.00    -0.169 F 
HETATM   33  F   UNL     1     -10.881   2.651 -32.745  1.00  0.00    -0.169 F 
ENDBRANCH   8  30
TORSDOF 6
ENDMDL
MODEL 2
REMARK VINA RESULT:      -9.0      2.111      2.712
REMARK  6 active torsions:
REMARK  status: ('A' for Active; 'I' for Inactive)
REMARK    1  A    between atoms: O_2  and  C_3 
REMARK    2  A    between atoms: C_5  and  C_6 
REMARK    3  A    between atoms: C_12  and  C_13 
REMARK       I    between atoms: C_13  and  N_14 
REMARK    4  A    between atoms: N_14  and  C_15 
REMARK    5  A    between atoms: C_15  and  C_16 
REMARK    6  A    between atoms: C_23  and  C_24 
ROOT
HETATM    1  C   UNL     1      -6.384   0.110 -32.026  1.00  0.00     0.118 C 
HETATM    2  N   UNL     1      -5.404   1.176 -32.206  1.00  0.00    -0.365 N 
HETATM    3  C   UNL     1      -5.547   2.337 -31.519  1.00  0.00     0.138 A 
HETATM    4  N   UNL     1      -6.770   2.656 -30.964  1.00  0.00    -0.240 N 
HETATM    5  N   UNL     1      -6.759   3.788 -30.249  1.00  0.00    -0.181 NA
HETATM    6  C   UNL     1      -5.534   4.271 -30.461  1.00  0.00     0.160 A 
HETATM    7  C   UNL     1      -4.715   3.406 -31.230  1.00  0.00     0.096 A 
HETATM    8  C   UNL     1      -7.951   1.809 -31.021  1.00  0.00     0.221 C 
HETATM    9  C   UNL     1      -7.790   0.717 -32.097  1.00  0.00     0.066 C 
HETATM   10  H   UNL     1      -4.593   0.951 -32.780  1.00  0.00     0.161 HD
ENDROOT
BRANCH   7  11
HETATM   11  C   UNL     1      -3.325   3.661 -31.562  1.00  0.00     0.257 C 
HETATM   12  N   UNL     1      -2.822   4.869 -31.138  1.00  0.00    -0.352 N 
HETATM   13  H   UNL     1      -3.485   5.569 -30.844  1.00  0.00     0.163 HD
HETATM   14  O   UNL     1      -2.667   2.867 -32.226  1.00  0.00    -0.267 OA
BRANCH  12  15
HETATM   15  C   UNL     1      -1.518   5.302 -31.578  1.00  0.00     0.161 C 
BRANCH  15  16
HETATM   16  C   UNL     1      -0.745   5.934 -30.453  1.00  0.00    -0.041 A 
HETATM   17  C   UNL     1       0.141   5.163 -29.688  1.00  0.00     0.009 A 
HETATM   18  C   UNL     1       0.869   5.743 -28.648  1.00  0.00     0.001 A 
HETATM   19  C   UNL     1       0.709   7.096 -28.357  1.00  0.00     0.000 A 
HETATM   20  C   UNL     1      -0.182   7.869 -29.099  1.00  0.00     0.001 A 
HETATM   21  C   UNL     1      -0.910   7.291 -30.142  1.00  0.00     0.009 A 
ENDBRANCH  15  16
ENDBRANCH  12  15
ENDBRANCH   7  11
BRANCH   1  22
HETATM   22  C   UNL     1      -6.150  -0.990 -33.041  1.00  0.00    -0.033 A 
HETATM   23  C   UNL     1      -4.930  -1.693 -33.032  1.00  0.00     0.046 A 
HETATM   24  C   UNL     1      -4.686  -2.720 -33.949  1.00  0.00     0.068 A 
HETATM   25  C   UNL     1      -5.669  -3.046 -34.883  1.00  0.00     0.037 A 
HETATM   26  C   UNL     1      -6.875  -2.349 -34.918  1.00  0.00     0.003 A 
HETATM   27  C   UNL     1      -7.112  -1.321 -34.007  1.00  0.00     0.009 A 
BRANCH  24  28
HETATM   28  O   UNL     1      -3.547  -3.472 -34.029  1.00  0.00    -0.356 OA
HETATM   29  C   UNL     1      -3.675  -4.868 -33.792  1.00  0.00     0.210 C 
ENDBRANCH  24  28
ENDBRANCH   1  22
BRANCH   8  30
HETATM   30  C   UNL     1      -9.208   2.608 -31.300  1.00  0.00     0.409 C 
HETATM   31  F   UNL     1      -8.979   3.675 -32.095  1.00  0.00    -0.169 F 
HETATM   32  F   UNL     1     -10.104   1.822 -31.960  1.00  0.00    -0.169 F 
HETATM   33  F   UNL     1      -9.839   3.032 -30.186  1.00  0.00    -0.169 F 
ENDBRANCH   8  30
TORSDOF 6
ENDMDL
MODEL 3
REMARK VINA RESULT:      -9.0      2.029      2.779
REMARK  6 active torsions:
REMARK  status: ('A' for Active; 'I' for Inactive)
REMARK    1  A    between atoms: O_2  and  C_3 
REMARK    2  A    between atoms: C_5  and  C_6 
REMARK    3  A    between atoms: C_12  and  C_13 
REMARK       I    between atoms: C_13  and  N_14 
REMARK    4  A    between atoms: N_14  and  C_15 
REMARK    5  A    between atoms: C_15  and  C_16 
REMARK    6  A    between atoms: C_23  and  C_24 
ROOT
HETATM    1  C   UNL     1      -7.553   0.142 -32.516  1.00  0.00     0.118 C 
HETATM    2  N   UNL     1      -6.908   1.417 -32.224  1.00  0.00    -0.365 N 
HETATM    3  C   UNL     1      -7.664   2.477 -31.842  1.00  0.00     0.138 A 
HETATM    4  N   UNL     1      -9.022   2.468 -32.086  1.00  0.00    -0.240 N 
HETATM    5  N   UNL     1      -9.666   3.535 -31.594  1.00  0.00    -0.181 NA
HETATM    6  C   UNL     1      -8.676   4.305 -31.138  1.00  0.00     0.160 A 
HETATM    7  C   UNL     1      -7.399   3.697 -31.244  1.00  0.00     0.096 A 
HETATM    8  C   UNL     1      -9.746   1.369 -32.706  1.00  0.00     0.221 C 
HETATM    9  C   UNL     1      -8.773   0.400 -33.407  1.00  0.00     0.066 C 
HETATM   10  H   UNL     1      -5.889   1.420 -32.232  1.00  0.00     0.161 HD
ENDROOT
BRANCH   7  11
HETATM   11  C   UNL     1      -6.160   4.291 -30.776  1.00  0.00     0.257 C 
HETATM   12  N   UNL     1      -5.556   5.173 -31.641  1.00  0.00    -0.352 N 
HETATM   13  H   UNL     1      -5.872   5.172 -32.599  1.00  0.00     0.163 HD
HETATM   14  O   UNL     1      -5.664   3.977 -29.699  1.00  0.00    -0.267 OA
BRANCH  12  15
HETATM   15  C   UNL     1      -4.231   5.669 -31.358  1.00  0.00     0.161 C 
BRANCH  15  16
HETATM   16  C   UNL     1      -3.336   5.553 -32.561  1.00  0.00    -0.041 A 
HETATM   17  C   UNL     1      -3.890   5.348 -33.833  1.00  0.00     0.009 A 
HETATM   18  C   UNL     1      -3.067   5.248 -34.956  1.00  0.00     0.001 A 
HETATM   19  C   UNL     1      -1.684   5.341 -34.816  1.00  0.00     0.000 A 
HETATM   20  C   UNL     1      -1.122   5.527 -33.555  1.00  0.00     0.001 A 
HETATM   21  C   UNL     1      -1.943   5.630 -32.430  1.00  0.00     0.009 A 
ENDBRANCH  15  16
ENDBRANCH  12  15
ENDBRANCH   7  11
BRANCH   1  22
HETATM   22  C   UNL     1      -6.554  -0.820 -33.125  1.00  0.00    -0.033 A 
HETATM   23  C   UNL     1      -5.317  -1.034 -32.485  1.00  0.00     0.046 A 
HETATM   24  C   UNL     1      -4.378  -1.922 -33.016  1.00  0.00     0.068 A 
HETATM   25  C   UNL     1      -4.675  -2.602 -34.198  1.00  0.00     0.037 A 
HETATM   26  C   UNL     1      -5.886  -2.390 -34.854  1.00  0.00     0.003 A 
HETATM   27  C   UNL     1      -6.818  -1.498 -34.325  1.00  0.00     0.009 A 
BRANCH  24  28
HETATM   28  O   UNL     1      -3.154  -2.212 -32.481  1.00  0.00    -0.356 OA
HETATM   29  C   UNL     1      -2.997  -3.490 -31.878  1.00  0.00     0.210 C 
ENDBRANCH  24  28
ENDBRANCH   1  22
BRANCH   8  30
HETATM   30  C   UNL     1     -10.775   1.859 -33.705  1.00  0.00     0.409 C 
HETATM   31  F   UNL     1     -10.381   2.981 -34.346  1.00  0.00    -0.169 F 
HETATM   32  F   UNL     1     -10.957   0.910 -34.665  1.00  0.00    -0.169 F 
HETATM   33  F   UNL     1     -11.992   2.078 -33.167  1.00  0.00    -0.169 F 
ENDBRANCH   8  30
TORSDOF 6
ENDMDL
MODEL 4
REMARK VINA RESULT:      -8.9      3.328      8.609
REMARK  6 active torsions:
REMARK  status: ('A' for Active; 'I' for Inactive)
REMARK    1  A    between atoms: O_2  and  C_3 
REMARK    2  A    between atoms: C_5  and  C_6 
REMARK    3  A    between atoms: C_12  and  C_13 
REMARK       I    between atoms: C_13  and  N_14 
REMARK    4  A    between atoms: N_14  and  C_15 
REMARK    5  A    between atoms: C_15  and  C_16 
REMARK    6  A    between atoms: C_23  and  C_24 
ROOT
HETATM    1  C   UNL     1      -3.299   5.363 -31.304  1.00  0.00     0.118 C 
HETATM    2  N   UNL     1      -3.255   3.907 -31.236  1.00  0.00    -0.365 N 
HETATM    3  C   UNL     1      -4.405   3.197 -31.357  1.00  0.00     0.138 A 
HETATM    4  N   UNL     1      -5.618   3.828 -31.168  1.00  0.00    -0.240 N 
HETATM    5  N   UNL     1      -6.677   3.038 -31.390  1.00  0.00    -0.181 NA
HETATM    6  C   UNL     1      -6.126   1.841 -31.598  1.00  0.00     0.160 A 
HETATM    7  C   UNL     1      -4.709   1.870 -31.610  1.00  0.00     0.096 A 
HETATM    8  C   UNL     1      -5.780   5.244 -30.878  1.00  0.00     0.221 C 
HETATM    9  C   UNL     1      -4.445   5.864 -30.419  1.00  0.00     0.066 C 
HETATM   10  H   UNL     1      -2.328   3.484 -31.193  1.00  0.00     0.161 HD
ENDROOT
BRANCH   7  11
HETATM   11  C   UNL     1      -3.860   0.721 -31.867  1.00  0.00     0.257 C 
HETATM   12  N   UNL     1      -4.313  -0.153 -32.827  1.00  0.00    -0.352 N 
HETATM   13  H   UNL     1      -5.277  -0.069 -33.112  1.00  0.00     0.163 HD
HETATM   14  O   UNL     1      -2.835   0.522 -31.223  1.00  0.00    -0.267 OA
BRANCH  12  15
HETATM   15  C   UNL     1      -3.649  -1.418 -33.023  1.00  0.00     0.161 C 
BRANCH  15  16
HETATM   16  C   UNL     1      -4.558  -2.414 -33.690  1.00  0.00    -0.041 A 
HETATM   17  C   UNL     1      -4.133  -3.737 -33.881  1.00  0.00     0.009 A 
HETATM   18  C   UNL     1      -4.973  -4.670 -34.491  1.00  0.00     0.001 A 
HETATM   19  C   UNL     1      -6.239  -4.287 -34.925  1.00  0.00     0.000 A 
HETATM   20  C   UNL     1      -6.666  -2.971 -34.756  1.00  0.00     0.001 A 
HETATM   21  C   UNL     1      -5.829  -2.036 -34.143  1.00  0.00     0.009 A 
ENDBRANCH  15  16
ENDBRANCH  12  15
ENDBRANCH   7  11
BRANCH   1  22
HETATM   22  C   UNL     1      -1.950   5.943 -30.931  1.00  0.00    -0.033 A 
HETATM   23  C   UNL     1      -1.864   6.877 -29.879  1.00  0.00     0.046 A 
HETATM   24  C   UNL     1      -0.634   7.424 -29.504  1.00  0.00     0.068 A 
HETATM   25  C   UNL     1       0.520   7.037 -30.185  1.00  0.00     0.037 A 
HETATM   26  C   UNL     1       0.451   6.129 -31.240  1.00  0.00     0.003 A 
HETATM   27  C   UNL     1      -0.778   5.590 -31.616  1.00  0.00     0.009 A 
BRANCH  24  28
HETATM   28  O   UNL     1      -0.429   8.328 -28.499  1.00  0.00    -0.356 OA
HETATM   29  C   UNL     1       0.880   8.401 -27.949  1.00  0.00     0.210 C 
ENDBRANCH  24  28
ENDBRANCH   1  22
BRANCH   8  30
HETATM   30  C   UNL     1      -6.838   5.489 -29.821  1.00  0.00     0.409 C 
HETATM   31  F   UNL     1      -6.809   4.567 -28.835  1.00  0.00    -0.169 F 
HETATM   32  F   UNL     1      -6.610   6.695 -29.228  1.00  0.00    -0.169 F 
HETATM   33  F   UNL     1      -8.091   5.551 -30.313  1.00  0.00    -0.169 F 
ENDBRANCH   8  30
TORSDOF 6
ENDMDL
MODEL 5
REMARK VINA RESULT:      -8.8      1.948      2.456
REMARK  6 active torsions:
REMARK  status: ('A' for Active; 'I' for Inactive)
REMARK    1  A    between atoms: O_2  and  C_3 
REMARK    2  A    between atoms: C_5  and  C_6 
REMARK    3  A    between atoms: C_12  and  C_13 
REMARK       I    between atoms: C_13  and  N_14 
REMARK    4  A    between atoms: N_14  and  C_15 
REMARK    5  A    between atoms: C_15  and  C_16 
REMARK    6  A    between atoms: C_23  and  C_24 
ROOT
HETATM    1  C   UNL     1      -7.705   0.246 -32.513  1.00  0.00     0.118 C 
HETATM    2  N   UNL     1      -7.086   1.532 -32.210  1.00  0.00    -0.365 N 
HETATM    3  C   UNL     1      -7.861   2.567 -31.800  1.00  0.00     0.138 A 
HETATM    4  N   UNL     1      -9.222   2.530 -32.026  1.00  0.00    -0.240 N 
HETATM    5  N   UNL     1      -9.884   3.573 -31.507  1.00  0.00    -0.181 NA
HETATM    6  C   UNL     1      -8.906   4.359 -31.053  1.00  0.00     0.160 A 
HETATM    7  C   UNL     1      -7.617   3.784 -31.186  1.00  0.00     0.096 A 
HETATM    8  C   UNL     1      -9.928   1.424 -32.653  1.00  0.00     0.221 C 
HETATM    9  C   UNL     1      -8.943   0.490 -33.383  1.00  0.00     0.066 C 
HETATM   10  H   UNL     1      -6.067   1.559 -32.232  1.00  0.00     0.161 HD
ENDROOT
BRANCH   7  11
HETATM   11  C   UNL     1      -6.386   4.399 -30.726  1.00  0.00     0.257 C 
HETATM   12  N   UNL     1      -5.628   5.018 -31.693  1.00  0.00    -0.352 N 
HETATM   13  H   UNL     1      -5.848   4.810 -32.655  1.00  0.00     0.163 HD
HETATM   14  O   UNL     1      -6.026   4.319 -29.555  1.00  0.00    -0.267 OA
BRANCH  12  15
HETATM   15  C   UNL     1      -4.302   5.490 -31.379  1.00  0.00     0.161 C 
BRANCH  15  16
HETATM   16  C   UNL     1      -3.402   5.427 -32.582  1.00  0.00    -0.041 A 
HETATM   17  C   UNL     1      -2.009   5.429 -32.420  1.00  0.00     0.009 A 
HETATM   18  C   UNL     1      -1.166   5.362 -33.530  1.00  0.00     0.001 A 
HETATM   19  C   UNL     1      -1.707   5.305 -34.812  1.00  0.00     0.000 A 
HETATM   20  C   UNL     1      -3.089   5.320 -34.987  1.00  0.00     0.001 A 
HETATM   21  C   UNL     1      -3.935   5.384 -33.878  1.00  0.00     0.009 A 
ENDBRANCH  15  16
ENDBRANCH  12  15
ENDBRANCH   7  11
BRANCH   1  22
HETATM   22  C   UNL     1      -6.692  -0.682 -33.152  1.00  0.00    -0.033 A 
HETATM   23  C   UNL     1      -7.141  -1.773 -33.923  1.00  0.00     0.046 A 
HETATM   24  C   UNL     1      -6.232  -2.642 -34.533  1.00  0.00     0.068 A 
HETATM   25  C   UNL     1      -4.865  -2.422 -34.371  1.00  0.00     0.037 A 
HETATM   26  C   UNL     1      -4.403  -1.359 -33.597  1.00  0.00     0.003 A 
HETATM   27  C   UNL     1      -5.312  -0.497 -32.984  1.00  0.00     0.009 A 
BRANCH  24  28
HETATM   28  O   UNL     1      -6.551  -3.724 -35.306  1.00  0.00    -0.356 OA
HETATM   29  C   UNL     1      -5.839  -4.930 -35.057  1.00  0.00     0.210 C 
ENDBRANCH  24  28
ENDBRANCH   1  22
BRANCH   8  30
HETATM   30  C   UNL     1     -10.983   1.904 -33.630  1.00  0.00     0.409 C 
HETATM   31  F   UNL     1     -10.539   2.908 -34.419  1.00  0.00    -0.169 F 
HETATM   32  F   UNL     1     -11.325   0.882 -34.462  1.00  0.00    -0.169 F 
HETATM   33  F   UNL     1     -12.129   2.299 -33.040  1.00  0.00    -0.169 F 
ENDBRANCH   8  30
TORSDOF 6
ENDMDL
MODEL 6
REMARK VINA RESULT:      -8.8      3.165      5.519
REMARK  6 active torsions:
REMARK  status: ('A' for Active; 'I' for Inactive)
REMARK    1  A    between atoms: O_2  and  C_3 
REMARK    2  A    between atoms: C_5  and  C_6 
REMARK    3  A    between atoms: C_12  and  C_13 
REMARK       I    between atoms: C_13  and  N_14 
REMARK    4  A    between atoms: N_14  and  C_15 
REMARK    5  A    between atoms: C_15  and  C_16 
REMARK    6  A    between atoms: C_23  and  C_24 
ROOT
HETATM    1  C   UNL     1      -7.335   0.541 -34.415  1.00  0.00     0.118 C 
HETATM    2  N   UNL     1      -6.333   0.735 -33.373  1.00  0.00    -0.365 N 
HETATM    3  C   UNL     1      -5.236  -0.064 -33.344  1.00  0.00     0.138 A 
HETATM    4  N   UNL     1      -5.245  -1.259 -34.034  1.00  0.00    -0.240 N 
HETATM    5  N   UNL     1      -4.078  -1.916 -33.989  1.00  0.00    -0.181 NA
HETATM    6  C   UNL     1      -3.350  -1.187 -33.142  1.00  0.00     0.160 A 
HETATM    7  C   UNL     1      -4.004  -0.004 -32.714  1.00  0.00     0.096 A 
HETATM    8  C   UNL     1      -6.350  -1.738 -34.848  1.00  0.00     0.221 C 
HETATM    9  C   UNL     1      -7.641  -0.956 -34.532  1.00  0.00     0.066 C 
HETATM   10  H   UNL     1      -6.466   1.539 -32.762  1.00  0.00     0.161 HD
ENDROOT
BRANCH   7  11
HETATM   11  C   UNL     1      -3.419   0.994 -31.838  1.00  0.00     0.257 C 
HETATM   12  N   UNL     1      -3.632   2.304 -32.197  1.00  0.00    -0.352 N 
HETATM   13  H   UNL     1      -3.965   2.479 -33.133  1.00  0.00     0.163 HD
HETATM   14  O   UNL     1      -2.732   0.677 -30.872  1.00  0.00    -0.267 OA
BRANCH  12  15
HETATM   15  C   UNL     1      -2.938   3.364 -31.508  1.00  0.00     0.161 C 
BRANCH  15  16
HETATM   16  C   UNL     1      -2.332   4.341 -32.478  1.00  0.00    -0.041 A 
HETATM   17  C   UNL     1      -1.477   5.352 -32.018  1.00  0.00     0.009 A 
HETATM   18  C   UNL     1      -0.904   6.258 -32.912  1.00  0.00     0.001 A 
HETATM   19  C   UNL     1      -1.190   6.167 -34.273  1.00  0.00     0.000 A 
HETATM   20  C   UNL     1      -2.052   5.177 -34.740  1.00  0.00     0.001 A 
HETATM   21  C   UNL     1      -2.624   4.268 -33.847  1.00  0.00     0.009 A 
ENDBRANCH  15  16
ENDBRANCH  12  15
ENDBRANCH   7  11
BRANCH   1  22
HETATM   22  C   UNL     1      -8.558   1.386 -34.126  1.00  0.00    -0.033 A 
HETATM   23  C   UNL     1      -9.832   0.783 -34.119  1.00  0.00     0.046 A 
HETATM   24  C   UNL     1     -10.979   1.533 -33.846  1.00  0.00     0.068 A 
HETATM   25  C   UNL     1     -10.855   2.896 -33.580  1.00  0.00     0.037 A 
HETATM   26  C   UNL     1      -9.605   3.513 -33.600  1.00  0.00     0.003 A 
HETATM   27  C   UNL     1      -8.463   2.764 -33.879  1.00  0.00     0.009 A 
BRANCH  24  28
HETATM   28  O   UNL     1     -12.260   1.056 -33.806  1.00  0.00    -0.356 OA
HETATM   29  C   UNL     1     -13.230   1.736 -34.594  1.00  0.00     0.210 C 
ENDBRANCH  24  28
ENDBRANCH   1  22
BRANCH   8  30
HETATM   30  C   UNL     1      -6.600  -3.220 -34.651  1.00  0.00     0.409 C 
HETATM   31  F   UNL     1      -7.670  -3.465 -33.864  1.00  0.00    -0.169 F 
HETATM   32  F   UNL     1      -6.869  -3.795 -35.856  1.00  0.00    -0.169 F 
HETATM   33  F   UNL     1      -5.540  -3.887 -34.152  1.00  0.00    -0.169 F 
ENDBRANCH   8  30
TORSDOF 6
ENDMDL
MODEL 7
REMARK VINA RESULT:      -8.6      4.882      7.421
REMARK  6 active torsions:
REMARK  status: ('A' for Active; 'I' for Inactive)
REMARK    1  A    between atoms: O_2  and  C_3 
REMARK    2  A    between atoms: C_5  and  C_6 
REMARK    3  A    between atoms: C_12  and  C_13 
REMARK       I    between atoms: C_13  and  N_14 
REMARK    4  A    between atoms: N_14  and  C_15 
REMARK    5  A    between atoms: C_15  and  C_16 
REMARK    6  A    between atoms: C_23  and  C_24 
ROOT
HETATM    1  C   UNL     1      -9.873   1.518 -33.344  1.00  0.00     0.118 C 
HETATM    2  N   UNL     1      -9.991   2.725 -34.154  1.00  0.00    -0.365 N 
HETATM    3  C   UNL     1     -11.161   3.411 -34.165  1.00  0.00     0.138 A 
HETATM    4  N   UNL     1     -12.318   2.792 -33.734  1.00  0.00    -0.240 N 
HETATM    5  N   UNL     1     -13.388   3.598 -33.722  1.00  0.00    -0.181 NA
HETATM    6  C   UNL     1     -12.931   4.720 -34.281  1.00  0.00     0.160 A 
HETATM    7  C   UNL     1     -11.543   4.680 -34.565  1.00  0.00     0.096 A 
HETATM    8  C   UNL     1     -12.388   1.435 -33.218  1.00  0.00     0.221 C 
HETATM    9  C   UNL     1     -11.112   0.647 -33.574  1.00  0.00     0.066 C 
HETATM   10  H   UNL     1      -9.138   3.050 -34.607  1.00  0.00     0.161 HD
ENDROOT
BRANCH   7  11
HETATM   11  C   UNL     1     -10.782   5.783 -35.123  1.00  0.00     0.257 C 
HETATM   12  N   UNL     1     -11.391   7.015 -35.075  1.00  0.00    -0.352 N 
HETATM   13  H   UNL     1     -12.380   7.035 -34.878  1.00  0.00     0.163 HD
HETATM   14  O   UNL     1      -9.689   5.606 -35.653  1.00  0.00    -0.267 OA
BRANCH  12  15
HETATM   15  C   UNL     1     -10.808   8.137 -35.769  1.00  0.00     0.161 C 
BRANCH  15  16
HETATM   16  C   UNL     1     -11.547   8.431 -37.046  1.00  0.00    -0.041 A 
HETATM   17  C   UNL     1     -12.869   7.994 -37.211  1.00  0.00     0.009 A 
HETATM   18  C   UNL     1     -13.565   8.271 -38.389  1.00  0.00     0.001 A 
HETATM   19  C   UNL     1     -12.942   8.976 -39.416  1.00  0.00     0.000 A 
HETATM   20  C   UNL     1     -11.623   9.401 -39.270  1.00  0.00     0.001 A 
HETATM   21  C   UNL     1     -10.926   9.128 -38.091  1.00  0.00     0.009 A 
ENDBRANCH  15  16
ENDBRANCH  12  15
ENDBRANCH   7  11
BRANCH   1  22
HETATM   22  C   UNL     1      -8.571   0.808 -33.652  1.00  0.00    -0.033 A 
HETATM   23  C   UNL     1      -7.765   0.345 -32.593  1.00  0.00     0.046 A 
HETATM   24  C   UNL     1      -6.563  -0.322 -32.844  1.00  0.00     0.068 A 
HETATM   25  C   UNL     1      -6.160  -0.526 -34.164  1.00  0.00     0.037 A 
HETATM   26  C   UNL     1      -6.935  -0.059 -35.224  1.00  0.00     0.003 A 
HETATM   27  C   UNL     1      -8.131   0.612 -34.970  1.00  0.00     0.009 A 
BRANCH  24  28
HETATM   28  O   UNL     1      -5.707  -0.819 -31.901  1.00  0.00    -0.356 OA
HETATM   29  C   UNL     1      -4.458  -1.321 -32.359  1.00  0.00     0.210 C 
ENDBRANCH  24  28
ENDBRANCH   1  22
BRANCH   8  30
HETATM   30  C   UNL     1     -13.601   0.691 -33.740  1.00  0.00     0.409 C 
HETATM   31  F   UNL     1     -13.427  -0.649 -33.738  1.00  0.00    -0.169 F 
HETATM   32  F   UNL     1     -14.667   0.943 -32.930  1.00  0.00    -0.169 F 
HETATM   33  F   UNL     1     -13.979   1.071 -34.977  1.00  0.00    -0.169 F 
ENDBRANCH   8  30
TORSDOF 6
ENDMDL
MODEL 8
REMARK VINA RESULT:      -8.6      2.497      7.914
REMARK  6 active torsions:
REMARK  status: ('A' for Active; 'I' for Inactive)
REMARK    1  A    between atoms: O_2  and  C_3 
REMARK    2  A    between atoms: C_5  and  C_6 
REMARK    3  A    between atoms: C_12  and  C_13 
REMARK       I    between atoms: C_13  and  N_14 
REMARK    4  A    between atoms: N_14  and  C_15 
REMARK    5  A    between atoms: C_15  and  C_16 
REMARK    6  A    between atoms: C_23  and  C_24 
ROOT
HETATM    1  C   UNL     1      -3.651   5.083 -33.016  1.00  0.00     0.118 C 
HETATM    2  N   UNL     1      -3.872   3.721 -32.542  1.00  0.00    -0.365 N 
HETATM    3  C   UNL     1      -5.021   3.077 -32.871  1.00  0.00     0.138 A 
HETATM    4  N   UNL     1      -6.108   3.805 -33.311  1.00  0.00    -0.240 N 
HETATM    5  N   UNL     1      -7.152   3.048 -33.675  1.00  0.00    -0.181 NA
HETATM    6  C   UNL     1      -6.768   1.816 -33.336  1.00  0.00     0.160 A 
HETATM    7  C   UNL     1      -5.440   1.758 -32.844  1.00  0.00     0.096 A 
HETATM    8  C   UNL     1      -6.120   5.247 -33.495  1.00  0.00     0.221 C 
HETATM    9  C   UNL     1      -4.924   5.901 -32.775  1.00  0.00     0.066 C 
HETATM   10  H   UNL     1      -3.093   3.279 -32.056  1.00  0.00     0.161 HD
ENDROOT
BRANCH   7  11
HETATM   11  C   UNL     1      -4.755   0.538 -32.456  1.00  0.00     0.257 C 
HETATM   12  N   UNL     1      -4.385  -0.294 -33.486  1.00  0.00    -0.352 N 
HETATM   13  H   UNL     1      -4.802  -0.126 -34.389  1.00  0.00     0.163 HD
HETATM   14  O   UNL     1      -4.574   0.251 -31.277  1.00  0.00    -0.267 OA
BRANCH  12  15
HETATM   15  C   UNL     1      -3.874  -1.612 -33.202  1.00  0.00     0.161 C 
BRANCH  15  16
HETATM   16  C   UNL     1      -4.722  -2.676 -33.844  1.00  0.00    -0.041 A 
HETATM   17  C   UNL     1      -4.234  -3.984 -33.971  1.00  0.00     0.009 A 
HETATM   18  C   UNL     1      -5.017  -4.979 -34.557  1.00  0.00     0.001 A 
HETATM   19  C   UNL     1      -6.291  -4.673 -35.031  1.00  0.00     0.000 A 
HETATM   20  C   UNL     1      -6.781  -3.373 -34.925  1.00  0.00     0.001 A 
HETATM   21  C   UNL     1      -6.000  -2.376 -34.337  1.00  0.00     0.009 A 
ENDBRANCH  15  16
ENDBRANCH  12  15
ENDBRANCH   7  11
BRANCH   1  22
HETATM   22  C   UNL     1      -2.421   5.671 -32.356  1.00  0.00    -0.033 A 
HETATM   23  C   UNL     1      -1.621   4.857 -31.530  1.00  0.00     0.046 A 
HETATM   24  C   UNL     1      -0.475   5.367 -30.914  1.00  0.00     0.068 A 
HETATM   25  C   UNL     1      -0.125   6.701 -31.123  1.00  0.00     0.037 A 
HETATM   26  C   UNL     1      -0.915   7.526 -31.922  1.00  0.00     0.003 A 
HETATM   27  C   UNL     1      -2.062   7.016 -32.530  1.00  0.00     0.009 A 
BRANCH  24  28
HETATM   28  O   UNL     1       0.378   4.672 -30.102  1.00  0.00    -0.356 OA
HETATM   29  C   UNL     1       1.713   4.501 -30.558  1.00  0.00     0.210 C 
ENDBRANCH  24  28
ENDBRANCH   1  22
BRANCH   8  30
HETATM   30  C   UNL     1      -7.408   5.872 -33.000  1.00  0.00     0.409 C 
HETATM   31  F   UNL     1      -8.444   5.661 -33.842  1.00  0.00    -0.169 F 
HETATM   32  F   UNL     1      -7.756   5.305 -31.811  1.00  0.00    -0.169 F 
HETATM   33  F   UNL     1      -7.313   7.196 -32.764  1.00  0.00    -0.169 F 
ENDBRANCH   8  30
TORSDOF 6
ENDMDL
MODEL 9
REMARK VINA RESULT:      -8.5     16.635     17.434
REMARK  6 active torsions:
REMARK  status: ('A' for Active; 'I' for Inactive)
REMARK    1  A    between atoms: O_2  and  C_3 
REMARK    2  A    between atoms: C_5  and  C_6 
REMARK    3  A    between atoms: C_12  and  C_13 
REMARK       I    between atoms: C_13  and  N_14 
REMARK    4  A    between atoms: N_14  and  C_15 
REMARK    5  A    between atoms: C_15  and  C_16 
REMARK    6  A    between atoms: C_23  and  C_24 
ROOT
HETATM    1  C   UNL     1      -6.947 -13.496 -36.808  1.00  0.00     0.118 C 
HETATM    2  N   UNL     1      -5.851 -13.840 -37.708  1.00  0.00    -0.365 N 
HETATM    3  C   UNL     1      -5.793 -13.268 -38.937  1.00  0.00     0.138 A 
HETATM    4  N   UNL     1      -6.922 -12.680 -39.470  1.00  0.00    -0.240 N 
HETATM    5  N   UNL     1      -6.714 -12.086 -40.653  1.00  0.00    -0.181 NA
HETATM    6  C   UNL     1      -5.454 -12.416 -40.943  1.00  0.00     0.160 A 
HETATM    7  C   UNL     1      -4.811 -13.139 -39.906  1.00  0.00     0.096 A 
HETATM    8  C   UNL     1      -8.204 -12.582 -38.792  1.00  0.00     0.221 C 
HETATM    9  C   UNL     1      -8.263 -13.548 -37.592  1.00  0.00     0.066 C 
HETATM   10  H   UNL     1      -5.119 -14.434 -37.323  1.00  0.00     0.161 HD
ENDROOT
BRANCH   7  11
HETATM   11  C   UNL     1      -3.427 -13.573 -39.937  1.00  0.00     0.257 C 
HETATM   12  N   UNL     1      -2.581 -12.939 -39.057  1.00  0.00    -0.352 N 
HETATM   13  H   UNL     1      -2.911 -12.086 -38.632  1.00  0.00     0.163 HD
HETATM   14  O   UNL     1      -3.035 -14.415 -40.740  1.00  0.00    -0.267 OA
BRANCH  12  15
HETATM   15  C   UNL     1      -1.158 -13.157 -39.139  1.00  0.00     0.161 C 
BRANCH  15  16
HETATM   16  C   UNL     1      -0.687 -14.099 -38.065  1.00  0.00    -0.041 A 
HETATM   17  C   UNL     1       0.446 -14.896 -38.276  1.00  0.00     0.009 A 
HETATM   18  C   UNL     1       0.895 -15.767 -37.282  1.00  0.00     0.001 A 
HETATM   19  C   UNL     1       0.208 -15.857 -36.073  1.00  0.00     0.000 A 
HETATM   20  C   UNL     1      -0.930 -15.082 -35.859  1.00  0.00     0.001 A 
HETATM   21  C   UNL     1      -1.379 -14.208 -36.851  1.00  0.00     0.009 A 
ENDBRANCH  15  16
ENDBRANCH  12  15
ENDBRANCH   7  11
BRANCH   1  22
HETATM   22  C   UNL     1      -6.930 -14.405 -35.597  1.00  0.00    -0.033 A 
HETATM   23  C   UNL     1      -6.459 -13.909 -34.364  1.00  0.00     0.046 A 
HETATM   24  C   UNL     1      -6.440 -14.719 -33.226  1.00  0.00     0.068 A 
HETATM   25  C   UNL     1      -6.892 -16.035 -33.317  1.00  0.00     0.037 A 
HETATM   26  C   UNL     1      -7.344 -16.548 -34.532  1.00  0.00     0.003 A 
HETATM   27  C   UNL     1      -7.356 -15.740 -35.668  1.00  0.00     0.009 A 
BRANCH  24  28
HETATM   28  O   UNL     1      -6.013 -14.346 -31.981  1.00  0.00    -0.356 OA
HETATM   29  C   UNL     1      -5.251 -15.295 -31.246  1.00  0.00     0.210 C 
ENDBRANCH  24  28
ENDBRANCH   1  22
BRANCH   8  30
HETATM   30  C   UNL     1      -9.364 -12.869 -39.725  1.00  0.00     0.409 C 
HETATM   31  F   UNL     1      -9.126 -13.921 -40.538  1.00  0.00    -0.169 F 
HETATM   32  F   UNL     1     -10.464 -13.190 -38.989  1.00  0.00    -0.169 F 
HETATM   33  F   UNL     1      -9.722 -11.814 -40.484  1.00  0.00    -0.169 F 
ENDBRANCH   8  30
TORSDOF 6
ENDMDL
MODEL 10
REMARK VINA RESULT:      -8.5      3.342      8.569
REMARK  6 active torsions:
REMARK  status: ('A' for Active; 'I' for Inactive)
REMARK    1  A    between atoms: O_2  and  C_3 
REMARK    2  A    between atoms: C_5  and  C_6 
REMARK    3  A    between atoms: C_12  and  C_13 
REMARK       I    between atoms: C_13  and  N_14 
REMARK    4  A    between atoms: N_14  and  C_15 
REMARK    5  A    between atoms: C_15  and  C_16 
REMARK    6  A    between atoms: C_23  and  C_24 
ROOT
HETATM    1  C   UNL     1      -4.099   2.907 -32.263  1.00  0.00     0.118 C 
HETATM    2  N   UNL     1      -5.374   2.923 -32.970  1.00  0.00    -0.365 N 
HETATM    3  C   UNL     1      -6.211   1.860 -32.862  1.00  0.00     0.138 A 
HETATM    4  N   UNL     1      -5.721   0.649 -32.416  1.00  0.00    -0.240 N 
HETATM    5  N   UNL     1      -6.661  -0.296 -32.282  1.00  0.00    -0.181 NA
HETATM    6  C   UNL     1      -7.754   0.287 -32.778  1.00  0.00     0.160 A 
HETATM    7  C   UNL     1      -7.549   1.642 -33.142  1.00  0.00     0.096 A 
HETATM    8  C   UNL     1      -4.347   0.413 -32.002  1.00  0.00     0.221 C 
HETATM    9  C   UNL     1      -3.426   1.548 -32.490  1.00  0.00     0.066 C 
HETATM   10  H   UNL     1      -5.617   3.791 -33.445  1.00  0.00     0.161 HD
ENDROOT
BRANCH   7  11
HETATM   11  C   UNL     1      -8.581   2.524 -33.656  1.00  0.00     0.257 C 
HETATM   12  N   UNL     1      -9.809   1.945 -33.873  1.00  0.00    -0.352 N 
HETATM   13  H   UNL     1      -9.850   0.937 -33.884  1.00  0.00     0.163 HD
HETATM   14  O   UNL     1      -8.346   3.697 -33.930  1.00  0.00    -0.267 OA
BRANCH  12  15
HETATM   15  C   UNL     1     -10.844   2.680 -34.558  1.00  0.00     0.161 C 
BRANCH  15  16
HETATM   16  C   UNL     1     -12.212   2.238 -34.115  1.00  0.00    -0.041 A 
HETATM   17  C   UNL     1     -12.840   2.871 -33.033  1.00  0.00     0.009 A 
HETATM   18  C   UNL     1     -14.112   2.474 -32.620  1.00  0.00     0.001 A 
HETATM   19  C   UNL     1     -14.764   1.433 -33.278  1.00  0.00     0.000 A 
HETATM   20  C   UNL     1     -14.143   0.785 -34.344  1.00  0.00     0.001 A 
HETATM   21  C   UNL     1     -12.870   1.182 -34.760  1.00  0.00     0.009 A 
ENDBRANCH  15  16
ENDBRANCH  12  15
ENDBRANCH   7  11
BRANCH   1  22
HETATM   22  C   UNL     1      -3.247   4.082 -32.697  1.00  0.00    -0.033 A 
HETATM   23  C   UNL     1      -2.106   4.427 -31.946  1.00  0.00     0.046 A 
HETATM   24  C   UNL     1      -1.294   5.499 -32.326  1.00  0.00     0.068 A 
HETATM   25  C   UNL     1      -1.625   6.234 -33.464  1.00  0.00     0.037 A 
HETATM   26  C   UNL     1      -2.759   5.919 -34.209  1.00  0.00     0.003 A 
HETATM   27  C   UNL     1      -3.571   4.852 -33.824  1.00  0.00     0.009 A 
BRANCH  24  28
HETATM   28  O   UNL     1      -0.164   5.920 -31.681  1.00  0.00    -0.356 OA
HETATM   29  C   UNL     1       0.095   5.364 -30.398  1.00  0.00     0.210 C 
ENDBRANCH  24  28
ENDBRANCH   1  22
BRANCH   8  30
HETATM   30  C   UNL     1      -3.822  -0.914 -32.511  1.00  0.00     0.409 C 
HETATM   31  F   UNL     1      -4.112  -1.121 -33.814  1.00  0.00    -0.169 F 
HETATM   32  F   UNL     1      -2.463  -0.928 -32.412  1.00  0.00    -0.169 F 
HETATM   33  F   UNL     1      -4.254  -1.977 -31.803  1.00  0.00    -0.169 F 
ENDBRANCH   8  30
TORSDOF 6
ENDMDL
