MODEL 1
REMARK VINA RESULT:      -8.7      0.000      0.000
REMARK  4 active torsions:
REMARK  status: ('A' for Active; 'I' for Inactive)
REMARK    1  A    between atoms: N_4  and  C_5 
REMARK    2  A    between atoms: C_13  and  C_14 
REMARK    3  A    between atoms: N_15  and  C_17 
REMARK    4  A    between atoms: C_17  and  C_18 
ROOT
HETATM    1  C   UNL     1      -5.789   4.765 -33.993  1.00  0.00     0.095 C 
HETATM    2  C   UNL     1      -6.335   3.603 -33.260  1.00  0.00     0.144 A 
HETATM    3  N   UNL     1      -7.507   3.620 -32.621  1.00  0.00    -0.156 NA
HETATM    4  N   UNL     1      -7.596   2.365 -32.148  1.00  0.00    -0.247 N 
HETATM    5  C   UNL     1      -6.451   1.652 -32.430  1.00  0.00     0.156 A 
HETATM    6  N   UNL     1      -5.654   2.426 -33.139  1.00  0.00    -0.215 NA
ENDROOT
BRANCH   5   7
HETATM    7  C   UNL     1      -6.110   0.272 -31.933  1.00  0.00     0.259 C 
HETATM    8  N   UNL     1      -5.073  -0.518 -32.732  1.00  0.00    -0.056 N 
HETATM    9  H   UNL     1      -4.938  -1.389 -32.205  1.00  0.00     0.281 HD
HETATM   10  C   UNL     1      -3.699   0.114 -32.737  1.00  0.00     0.236 C 
HETATM   11  C   UNL     1      -3.195   0.216 -31.303  1.00  0.00     0.028 C 
HETATM   12  C   UNL     1      -4.175   0.934 -30.383  1.00  0.00     0.004 C 
HETATM   13  C   UNL     1      -5.587   0.348 -30.483  1.00  0.00     0.041 C 
BRANCH   8  14
HETATM   14  C   UNL     1      -5.527  -1.024 -34.085  1.00  0.00     0.274 C 
BRANCH  14  15
HETATM   15  C   UNL     1      -5.462  -2.502 -34.340  1.00  0.00    -0.033 A 
HETATM   16  C   UNL     1      -4.325  -3.241 -33.974  1.00  0.00     0.009 A 
HETATM   17  C   UNL     1      -4.271  -4.617 -34.192  1.00  0.00     0.001 A 
HETATM   18  C   UNL     1      -5.352  -5.276 -34.769  1.00  0.00     0.000 A 
HETATM   19  C   UNL     1      -6.495  -4.562 -35.120  1.00  0.00     0.001 A 
HETATM   20  C   UNL     1      -6.553  -3.184 -34.902  1.00  0.00     0.009 A 
ENDBRANCH  14  15
ENDBRANCH   8  14
ENDBRANCH   5   7
BRANCH   4  21
HETATM   21  C   UNL     1      -8.805   1.986 -31.424  1.00  0.00     0.115 C 
HETATM   22  C   UNL     1      -9.291   0.562 -31.762  1.00  0.00     0.055 C 
HETATM   23  C   UNL     1     -10.057   0.454 -33.080  1.00  0.00     0.236 C 
HETATM   24  N   UNL     1     -11.164   1.480 -33.114  1.00  0.00    -0.075 N 
HETATM   25  H   UNL     1     -11.821   1.276 -32.348  1.00  0.00     0.279 HD
HETATM   26  C   UNL     1     -11.981   1.350 -34.381  1.00  0.00     0.269 C 
HETATM   27  C   UNL     1     -10.645   2.884 -32.951  1.00  0.00     0.236 C 
HETATM   28  C   UNL     1      -9.930   3.011 -31.610  1.00  0.00     0.055 C 
ENDBRANCH   4  21
TORSDOF 4
ENDMDL
MODEL 2
REMARK VINA RESULT:      -8.2      1.389      2.024
REMARK  4 active torsions:
REMARK  status: ('A' for Active; 'I' for Inactive)
REMARK    1  A    between atoms: N_4  and  C_5 
REMARK    2  A    between atoms: C_13  and  C_14 
REMARK    3  A    between atoms: N_15  and  C_17 
REMARK    4  A    between atoms: C_17  and  C_18 
ROOT
HETATM    1  C   UNL     1      -5.241   4.912 -34.200  1.00  0.00     0.095 C 
HETATM    2  C   UNL     1      -6.203   3.849 -33.840  1.00  0.00     0.144 A 
HETATM    3  N   UNL     1      -7.529   4.013 -33.871  1.00  0.00    -0.156 NA
HETATM    4  N   UNL     1      -7.978   2.800 -33.509  1.00  0.00    -0.247 N 
HETATM    5  C   UNL     1      -6.932   1.966 -33.182  1.00  0.00     0.156 A 
HETATM    6  N   UNL     1      -5.807   2.620 -33.397  1.00  0.00    -0.215 NA
ENDROOT
BRANCH   5   7
HETATM    7  C   UNL     1      -7.037   0.588 -32.584  1.00  0.00     0.259 C 
HETATM    8  N   UNL     1      -5.847  -0.351 -32.787  1.00  0.00    -0.056 N 
HETATM    9  H   UNL     1      -6.085  -1.200 -32.262  1.00  0.00     0.281 HD
HETATM   10  C   UNL     1      -4.573   0.131 -32.131  1.00  0.00     0.236 C 
HETATM   11  C   UNL     1      -4.806   0.260 -30.631  1.00  0.00     0.028 C 
HETATM   12  C   UNL     1      -6.013   1.129 -30.295  1.00  0.00     0.004 C 
HETATM   13  C   UNL     1      -7.264   0.690 -31.061  1.00  0.00     0.041 C 
BRANCH   8  14
HETATM   14  C   UNL     1      -5.657  -0.882 -34.193  1.00  0.00     0.274 C 
BRANCH  14  15
HETATM   15  C   UNL     1      -5.522  -2.367 -34.370  1.00  0.00    -0.033 A 
HETATM   16  C   UNL     1      -4.329  -3.022 -34.026  1.00  0.00     0.009 A 
HETATM   17  C   UNL     1      -4.209  -4.404 -34.171  1.00  0.00     0.001 A 
HETATM   18  C   UNL     1      -5.279  -5.151 -34.653  1.00  0.00     0.000 A 
HETATM   19  C   UNL     1      -6.476  -4.520 -34.981  1.00  0.00     0.001 A 
HETATM   20  C   UNL     1      -6.601  -3.136 -34.835  1.00  0.00     0.009 A 
ENDBRANCH  14  15
ENDBRANCH   8  14
ENDBRANCH   5   7
BRANCH   4  21
HETATM   21  C   UNL     1      -9.420   2.578 -33.486  1.00  0.00     0.115 C 
HETATM   22  C   UNL     1     -10.173   3.375 -34.571  1.00  0.00     0.055 C 
HETATM   23  C   UNL     1     -10.403   4.846 -34.227  1.00  0.00     0.236 C 
HETATM   24  N   UNL     1     -11.039   4.959 -32.863  1.00  0.00    -0.075 N 
HETATM   25  H   UNL     1     -11.957   4.493 -32.892  1.00  0.00     0.279 HD
HETATM   26  C   UNL     1     -11.339   6.403 -32.526  1.00  0.00     0.269 C 
HETATM   27  C   UNL     1     -10.201   4.319 -31.788  1.00  0.00     0.236 C 
HETATM   28  C   UNL     1     -10.018   2.838 -32.098  1.00  0.00     0.055 C 
ENDBRANCH   4  21
TORSDOF 4
ENDMDL
MODEL 3
REMARK VINA RESULT:      -7.9      2.003      5.095
REMARK  4 active torsions:
REMARK  status: ('A' for Active; 'I' for Inactive)
REMARK    1  A    between atoms: N_4  and  C_5 
REMARK    2  A    between atoms: C_13  and  C_14 
REMARK    3  A    between atoms: N_15  and  C_17 
REMARK    4  A    between atoms: C_17  and  C_18 
ROOT
HETATM    1  C   UNL     1      -3.032   0.690 -31.168  1.00  0.00     0.095 C 
HETATM    2  C   UNL     1      -4.034   1.534 -31.852  1.00  0.00     0.144 A 
HETATM    3  N   UNL     1      -3.980   2.869 -31.878  1.00  0.00    -0.156 NA
HETATM    4  N   UNL     1      -5.050   3.187 -32.624  1.00  0.00    -0.247 N 
HETATM    5  C   UNL     1      -5.772   2.060 -32.955  1.00  0.00     0.156 A 
HETATM    6  N   UNL     1      -5.130   1.012 -32.476  1.00  0.00    -0.215 NA
ENDROOT
BRANCH   5   7
HETATM    7  C   UNL     1      -7.109   2.023 -33.645  1.00  0.00     0.259 C 
HETATM    8  N   UNL     1      -7.667   0.645 -34.005  1.00  0.00    -0.056 N 
HETATM    9  H   UNL     1      -8.595   0.830 -34.403  1.00  0.00     0.281 HD
HETATM   10  C   UNL     1      -7.959  -0.227 -32.804  1.00  0.00     0.236 C 
HETATM   11  C   UNL     1      -8.988   0.471 -31.924  1.00  0.00     0.028 C 
HETATM   12  C   UNL     1      -8.575   1.888 -31.543  1.00  0.00     0.004 C 
HETATM   13  C   UNL     1      -8.175   2.715 -32.768  1.00  0.00     0.041 C 
BRANCH   8  14
HETATM   14  C   UNL     1      -6.967  -0.075 -35.138  1.00  0.00     0.274 C 
BRANCH  14  15
HETATM   15  C   UNL     1      -6.372  -1.424 -34.852  1.00  0.00    -0.033 A 
HETATM   16  C   UNL     1      -7.122  -2.593 -35.057  1.00  0.00     0.009 A 
HETATM   17  C   UNL     1      -6.565  -3.848 -34.812  1.00  0.00     0.001 A 
HETATM   18  C   UNL     1      -5.251  -3.954 -34.368  1.00  0.00     0.000 A 
HETATM   19  C   UNL     1      -4.486  -2.806 -34.179  1.00  0.00     0.001 A 
HETATM   20  C   UNL     1      -5.040  -1.547 -34.424  1.00  0.00     0.009 A 
ENDBRANCH  14  15
ENDBRANCH   8  14
ENDBRANCH   5   7
BRANCH   4  21
HETATM   21  C   UNL     1      -5.288   4.595 -32.923  1.00  0.00     0.115 C 
HETATM   22  C   UNL     1      -4.999   4.959 -34.394  1.00  0.00     0.055 C 
HETATM   23  C   UNL     1      -3.518   5.149 -34.716  1.00  0.00     0.236 C 
HETATM   24  N   UNL     1      -2.901   6.117 -33.736  1.00  0.00    -0.075 N 
HETATM   25  H   UNL     1      -3.367   7.029 -33.841  1.00  0.00     0.279 HD
HETATM   26  C   UNL     1      -1.448   6.376 -34.074  1.00  0.00     0.269 C 
HETATM   27  C   UNL     1      -3.047   5.656 -32.310  1.00  0.00     0.236 C 
HETATM   28  C   UNL     1      -4.526   5.521 -31.967  1.00  0.00     0.055 C 
ENDBRANCH   4  21
TORSDOF 4
ENDMDL
MODEL 4
REMARK VINA RESULT:      -7.9      2.548      5.318
REMARK  4 active torsions:
REMARK  status: ('A' for Active; 'I' for Inactive)
REMARK    1  A    between atoms: N_4  and  C_5 
REMARK    2  A    between atoms: C_13  and  C_14 
REMARK    3  A    between atoms: N_15  and  C_17 
REMARK    4  A    between atoms: C_17  and  C_18 
ROOT
HETATM    1  C   UNL     1      -6.629   5.201 -28.829  1.00  0.00     0.095 C 
HETATM    2  C   UNL     1      -6.248   4.529 -30.090  1.00  0.00     0.144 A 
HETATM    3  N   UNL     1      -5.041   4.643 -30.650  1.00  0.00    -0.156 NA
HETATM    4  N   UNL     1      -5.147   3.852 -31.730  1.00  0.00    -0.247 N 
HETATM    5  C   UNL     1      -6.427   3.354 -31.850  1.00  0.00     0.156 A 
HETATM    6  N   UNL     1      -7.125   3.773 -30.813  1.00  0.00    -0.215 NA
ENDROOT
BRANCH   5   7
HETATM    7  C   UNL     1      -6.976   2.562 -33.008  1.00  0.00     0.259 C 
HETATM    8  N   UNL     1      -7.029   1.042 -32.846  1.00  0.00    -0.056 N 
HETATM    9  H   UNL     1      -7.482   0.700 -33.702  1.00  0.00     0.281 HD
HETATM   10  C   UNL     1      -7.951   0.579 -31.741  1.00  0.00     0.236 C 
HETATM   11  C   UNL     1      -9.365   1.060 -32.042  1.00  0.00     0.028 C 
HETATM   12  C   UNL     1      -9.438   2.563 -32.286  1.00  0.00     0.004 C 
HETATM   13  C   UNL     1      -8.414   3.023 -33.327  1.00  0.00     0.041 C 
BRANCH   8  14
HETATM   14  C   UNL     1      -5.694   0.328 -32.880  1.00  0.00     0.274 C 
BRANCH  14  15
HETATM   15  C   UNL     1      -5.628  -1.006 -33.565  1.00  0.00    -0.033 A 
HETATM   16  C   UNL     1      -4.418  -1.714 -33.634  1.00  0.00     0.009 A 
HETATM   17  C   UNL     1      -4.358  -2.963 -34.252  1.00  0.00     0.001 A 
HETATM   18  C   UNL     1      -5.506  -3.525 -34.801  1.00  0.00     0.000 A 
HETATM   19  C   UNL     1      -6.719  -2.845 -34.724  1.00  0.00     0.001 A 
HETATM   20  C   UNL     1      -6.782  -1.595 -34.105  1.00  0.00     0.009 A 
ENDBRANCH  14  15
ENDBRANCH   8  14
ENDBRANCH   5   7
BRANCH   4  21
HETATM   21  C   UNL     1      -3.972   3.679 -32.576  1.00  0.00     0.115 C 
HETATM   22  C   UNL     1      -2.644   3.860 -31.813  1.00  0.00     0.055 C 
HETATM   23  C   UNL     1      -2.248   5.317 -31.576  1.00  0.00     0.236 C 
HETATM   24  N   UNL     1      -2.289   6.077 -32.879  1.00  0.00    -0.075 N 
HETATM   25  H   UNL     1      -1.599   5.662 -33.521  1.00  0.00     0.279 HD
HETATM   26  C   UNL     1      -1.836   7.508 -32.684  1.00  0.00     0.269 C 
HETATM   27  C   UNL     1      -3.647   6.028 -33.526  1.00  0.00     0.236 C 
HETATM   28  C   UNL     1      -4.021   4.579 -33.817  1.00  0.00     0.055 C 
ENDBRANCH   4  21
TORSDOF 4
ENDMDL
MODEL 5
REMARK VINA RESULT:      -7.6      1.593      1.945
REMARK  4 active torsions:
REMARK  status: ('A' for Active; 'I' for Inactive)
REMARK    1  A    between atoms: N_4  and  C_5 
REMARK    2  A    between atoms: C_13  and  C_14 
REMARK    3  A    between atoms: N_15  and  C_17 
REMARK    4  A    between atoms: C_17  and  C_18 
ROOT
HETATM    1  C   UNL     1      -8.823   4.601 -30.659  1.00  0.00     0.095 C 
HETATM    2  C   UNL     1      -8.520   3.268 -31.220  1.00  0.00     0.144 A 
HETATM    3  N   UNL     1      -9.287   2.657 -32.127  1.00  0.00    -0.156 NA
HETATM    4  N   UNL     1      -8.613   1.518 -32.356  1.00  0.00    -0.247 N 
HETATM    5  C   UNL     1      -7.515   1.422 -31.529  1.00  0.00     0.156 A 
HETATM    6  N   UNL     1      -7.447   2.528 -30.814  1.00  0.00    -0.215 NA
ENDROOT
BRANCH   5   7
HETATM    7  C   UNL     1      -6.608   0.230 -31.379  1.00  0.00     0.259 C 
HETATM    8  N   UNL     1      -5.529   0.038 -32.446  1.00  0.00    -0.056 N 
HETATM    9  H   UNL     1      -4.989  -0.778 -32.135  1.00  0.00     0.281 HD
HETATM   10  C   UNL     1      -4.507   1.151 -32.485  1.00  0.00     0.236 C 
HETATM   11  C   UNL     1      -3.808   1.230 -31.134  1.00  0.00     0.028 C 
HETATM   12  C   UNL     1      -4.785   1.362 -29.971  1.00  0.00     0.004 C 
HETATM   13  C   UNL     1      -5.878   0.290 -30.020  1.00  0.00     0.041 C 
BRANCH   8  14
HETATM   14  C   UNL     1      -6.021  -0.400 -33.809  1.00  0.00     0.274 C 
BRANCH  14  15
HETATM   15  C   UNL     1      -5.882  -1.851 -34.174  1.00  0.00    -0.033 A 
HETATM   16  C   UNL     1      -4.633  -2.487 -34.107  1.00  0.00     0.009 A 
HETATM   17  C   UNL     1      -4.505  -3.839 -34.426  1.00  0.00     0.001 A 
HETATM   18  C   UNL     1      -5.623  -4.575 -34.806  1.00  0.00     0.000 A 
HETATM   19  C   UNL     1      -6.873  -3.964 -34.858  1.00  0.00     0.001 A 
HETATM   20  C   UNL     1      -7.005  -2.611 -34.538  1.00  0.00     0.009 A 
ENDBRANCH  14  15
ENDBRANCH   8  14
ENDBRANCH   5   7
BRANCH   4  21
HETATM   21  C   UNL     1      -9.135   0.599 -33.362  1.00  0.00     0.115 C 
HETATM   22  C   UNL     1      -9.177   1.210 -34.777  1.00  0.00     0.055 C 
HETATM   23  C   UNL     1     -10.363   2.141 -35.026  1.00  0.00     0.236 C 
HETATM   24  N   UNL     1     -11.647   1.448 -34.643  1.00  0.00    -0.075 N 
HETATM   25  H   UNL     1     -11.763   0.620 -35.245  1.00  0.00     0.279 HD
HETATM   26  C   UNL     1     -12.844   2.324 -34.943  1.00  0.00     0.269 C 
HETATM   27  C   UNL     1     -11.651   1.008 -33.203  1.00  0.00     0.236 C 
HETATM   28  C   UNL     1     -10.504   0.032 -32.965  1.00  0.00     0.055 C 
ENDBRANCH   4  21
TORSDOF 4
ENDMDL
MODEL 6
REMARK VINA RESULT:      -7.6      5.182      8.081
REMARK  4 active torsions:
REMARK  status: ('A' for Active; 'I' for Inactive)
REMARK    1  A    between atoms: N_4  and  C_5 
REMARK    2  A    between atoms: C_13  and  C_14 
REMARK    3  A    between atoms: N_15  and  C_17 
REMARK    4  A    between atoms: C_17  and  C_18 
ROOT
HETATM    1  C   UNL     1      -4.657   7.529 -29.296  1.00  0.00     0.095 C 
HETATM    2  C   UNL     1      -3.538   6.823 -29.954  1.00  0.00     0.144 A 
HETATM    3  N   UNL     1      -2.253   7.127 -29.750  1.00  0.00    -0.156 NA
HETATM    4  N   UNL     1      -1.618   6.221 -30.512  1.00  0.00    -0.247 N 
HETATM    5  C   UNL     1      -2.519   5.458 -31.222  1.00  0.00     0.156 A 
HETATM    6  N   UNL     1      -3.734   5.828 -30.868  1.00  0.00    -0.215 NA
ENDROOT
BRANCH   5   7
HETATM    7  C   UNL     1      -2.192   4.451 -32.293  1.00  0.00     0.259 C 
HETATM    8  N   UNL     1      -3.363   3.671 -32.894  1.00  0.00    -0.056 N 
HETATM    9  H   UNL     1      -2.946   3.094 -33.634  1.00  0.00     0.281 HD
HETATM   10  C   UNL     1      -4.357   4.538 -33.632  1.00  0.00     0.236 C 
HETATM   11  C   UNL     1      -3.643   5.247 -34.776  1.00  0.00     0.028 C 
HETATM   12  C   UNL     1      -2.412   6.018 -34.314  1.00  0.00     0.004 C 
HETATM   13  C   UNL     1      -1.476   5.147 -33.470  1.00  0.00     0.041 C 
BRANCH   8  14
HETATM   14  C   UNL     1      -3.996   2.633 -31.991  1.00  0.00     0.274 C 
BRANCH  14  15
HETATM   15  C   UNL     1      -4.368   1.309 -32.595  1.00  0.00    -0.033 A 
HETATM   16  C   UNL     1      -3.463   0.235 -32.573  1.00  0.00     0.009 A 
HETATM   17  C   UNL     1      -3.814  -1.001 -33.116  1.00  0.00     0.001 A 
HETATM   18  C   UNL     1      -5.074  -1.185 -33.678  1.00  0.00     0.000 A 
HETATM   19  C   UNL     1      -5.990  -0.136 -33.690  1.00  0.00     0.001 A 
HETATM   20  C   UNL     1      -5.642   1.103 -33.146  1.00  0.00     0.009 A 
ENDBRANCH  14  15
ENDBRANCH   8  14
ENDBRANCH   5   7
BRANCH   4  21
HETATM   21  C   UNL     1      -0.159   6.209 -30.496  1.00  0.00     0.115 C 
HETATM   22  C   UNL     1       0.427   5.174 -29.515  1.00  0.00     0.055 C 
HETATM   23  C   UNL     1       0.424   5.619 -28.054  1.00  0.00     0.236 C 
HETATM   24  N   UNL     1       1.067   6.978 -27.931  1.00  0.00    -0.075 N 
HETATM   25  H   UNL     1       2.047   6.905 -28.237  1.00  0.00     0.279 HD
HETATM   26  C   UNL     1       1.137   7.413 -26.483  1.00  0.00     0.269 C 
HETATM   27  C   UNL     1       0.371   8.016 -28.770  1.00  0.00     0.236 C 
HETATM   28  C   UNL     1       0.423   7.604 -30.238  1.00  0.00     0.055 C 
ENDBRANCH   4  21
TORSDOF 4
ENDMDL
MODEL 7
REMARK VINA RESULT:      -7.6     14.099     16.072
REMARK  4 active torsions:
REMARK  status: ('A' for Active; 'I' for Inactive)
REMARK    1  A    between atoms: N_4  and  C_5 
REMARK    2  A    between atoms: C_13  and  C_14 
REMARK    3  A    between atoms: N_15  and  C_17 
REMARK    4  A    between atoms: C_17  and  C_18 
ROOT
HETATM    1  C   UNL     1      -1.557 -16.483 -34.778  1.00  0.00     0.095 C 
HETATM    2  C   UNL     1      -2.393 -15.411 -35.355  1.00  0.00     0.144 A 
HETATM    3  N   UNL     1      -1.931 -14.495 -36.212  1.00  0.00    -0.156 NA
HETATM    4  N   UNL     1      -3.029 -13.772 -36.482  1.00  0.00    -0.247 N 
HETATM    5  C   UNL     1      -4.099 -14.200 -35.726  1.00  0.00     0.156 A 
HETATM    6  N   UNL     1      -3.705 -15.240 -35.018  1.00  0.00    -0.215 NA
ENDROOT
BRANCH   5   7
HETATM    7  C   UNL     1      -5.451 -13.544 -35.633  1.00  0.00     0.259 C 
HETATM    8  N   UNL     1      -6.673 -14.432 -35.875  1.00  0.00    -0.056 N 
HETATM    9  H   UNL     1      -7.482 -13.822 -35.708  1.00  0.00     0.281 HD
HETATM   10  C   UNL     1      -6.837 -15.534 -34.853  1.00  0.00     0.236 C 
HETATM   11  C   UNL     1      -6.988 -14.910 -33.472  1.00  0.00     0.028 C 
HETATM   12  C   UNL     1      -5.856 -13.948 -33.131  1.00  0.00     0.004 C 
HETATM   13  C   UNL     1      -5.635 -12.912 -34.237  1.00  0.00     0.041 C 
BRANCH   8  14
HETATM   14  C   UNL     1      -6.892 -14.876 -37.306  1.00  0.00     0.274 C 
BRANCH  14  15
HETATM   15  C   UNL     1      -7.890 -14.116 -38.132  1.00  0.00    -0.033 A 
HETATM   16  C   UNL     1      -7.712 -12.748 -38.388  1.00  0.00     0.009 A 
HETATM   17  C   UNL     1      -8.627 -12.045 -39.173  1.00  0.00     0.001 A 
HETATM   18  C   UNL     1      -9.726 -12.701 -39.718  1.00  0.00     0.000 A 
HETATM   19  C   UNL     1      -9.907 -14.063 -39.491  1.00  0.00     0.001 A 
HETATM   20  C   UNL     1      -8.992 -14.770 -38.707  1.00  0.00     0.009 A 
ENDBRANCH  14  15
ENDBRANCH   8  14
ENDBRANCH   5   7
BRANCH   4  21
HETATM   21  C   UNL     1      -2.919 -12.687 -37.452  1.00  0.00     0.115 C 
HETATM   22  C   UNL     1      -4.092 -12.647 -38.452  1.00  0.00     0.055 C 
HETATM   23  C   UNL     1      -3.985 -13.662 -39.589  1.00  0.00     0.236 C 
HETATM   24  N   UNL     1      -2.637 -13.545 -40.256  1.00  0.00    -0.075 N 
HETATM   25  H   UNL     1      -2.555 -12.604 -40.664  1.00  0.00     0.279 HD
HETATM   26  C   UNL     1      -2.530 -14.495 -41.429  1.00  0.00     0.269 C 
HETATM   27  C   UNL     1      -1.502 -13.757 -39.289  1.00  0.00     0.236 C 
HETATM   28  C   UNL     1      -1.571 -12.708 -38.184  1.00  0.00     0.055 C 
ENDBRANCH   4  21
TORSDOF 4
ENDMDL
MODEL 8
REMARK VINA RESULT:      -7.4      2.408      5.615
REMARK  4 active torsions:
REMARK  status: ('A' for Active; 'I' for Inactive)
REMARK    1  A    between atoms: N_4  and  C_5 
REMARK    2  A    between atoms: C_13  and  C_14 
REMARK    3  A    between atoms: N_15  and  C_17 
REMARK    4  A    between atoms: C_17  and  C_18 
ROOT
HETATM    1  C   UNL     1     -12.014   0.627 -33.510  1.00  0.00     0.095 C 
HETATM    2  C   UNL     1     -10.742   1.348 -33.728  1.00  0.00     0.144 A 
HETATM    3  N   UNL     1     -10.642   2.680 -33.730  1.00  0.00    -0.156 NA
HETATM    4  N   UNL     1      -9.326   2.870 -33.927  1.00  0.00    -0.247 N 
HETATM    5  C   UNL     1      -8.681   1.669 -34.128  1.00  0.00     0.156 A 
HETATM    6  N   UNL     1      -9.569   0.704 -33.996  1.00  0.00    -0.215 NA
ENDROOT
BRANCH   5   7
HETATM    7  C   UNL     1      -7.243   1.481 -34.532  1.00  0.00     0.259 C 
HETATM    8  N   UNL     1      -6.217   1.339 -33.407  1.00  0.00    -0.056 N 
HETATM    9  H   UNL     1      -5.324   1.161 -33.882  1.00  0.00     0.281 HD
HETATM   10  C   UNL     1      -6.419   0.109 -32.551  1.00  0.00     0.236 C 
HETATM   11  C   UNL     1      -6.312  -1.130 -33.430  1.00  0.00     0.028 C 
HETATM   12  C   UNL     1      -7.248  -1.083 -34.632  1.00  0.00     0.004 C 
HETATM   13  C   UNL     1      -7.104   0.224 -35.417  1.00  0.00     0.041 C 
BRANCH   8  14
HETATM   14  C   UNL     1      -5.921   2.599 -32.621  1.00  0.00     0.274 C 
BRANCH  14  15
HETATM   15  C   UNL     1      -4.818   3.492 -33.114  1.00  0.00    -0.033 A 
HETATM   16  C   UNL     1      -3.515   3.363 -32.608  1.00  0.00     0.009 A 
HETATM   17  C   UNL     1      -2.485   4.177 -33.079  1.00  0.00     0.001 A 
HETATM   18  C   UNL     1      -2.740   5.123 -34.067  1.00  0.00     0.000 A 
HETATM   19  C   UNL     1      -4.022   5.250 -34.595  1.00  0.00     0.001 A 
HETATM   20  C   UNL     1      -5.056   4.436 -34.126  1.00  0.00     0.009 A 
ENDBRANCH  14  15
ENDBRANCH   8  14
ENDBRANCH   5   7
BRANCH   4  21
HETATM   21  C   UNL     1      -8.821   4.239 -33.930  1.00  0.00     0.115 C 
HETATM   22  C   UNL     1      -8.656   4.827 -32.514  1.00  0.00     0.055 C 
HETATM   23  C   UNL     1      -9.956   5.319 -31.881  1.00  0.00     0.236 C 
HETATM   24  N   UNL     1     -10.666   6.253 -32.830  1.00  0.00    -0.075 N 
HETATM   25  H   UNL     1     -10.064   7.072 -32.992  1.00  0.00     0.279 HD
HETATM   26  C   UNL     1     -11.925   6.808 -32.199  1.00  0.00     0.269 C 
HETATM   27  C   UNL     1     -10.970   5.601 -34.152  1.00  0.00     0.236 C 
HETATM   28  C   UNL     1      -9.669   5.161 -34.814  1.00  0.00     0.055 C 
ENDBRANCH   4  21
TORSDOF 4
ENDMDL
MODEL 9
REMARK VINA RESULT:      -7.3      3.496      6.514
REMARK  4 active torsions:
REMARK  status: ('A' for Active; 'I' for Inactive)
REMARK    1  A    between atoms: N_4  and  C_5 
REMARK    2  A    between atoms: C_13  and  C_14 
REMARK    3  A    between atoms: N_15  and  C_17 
REMARK    4  A    between atoms: C_17  and  C_18 
ROOT
HETATM    1  C   UNL     1      -5.274   5.840 -28.568  1.00  0.00     0.095 C 
HETATM    2  C   UNL     1      -4.968   5.529 -29.980  1.00  0.00     0.144 A 
HETATM    3  N   UNL     1      -4.018   6.152 -30.683  1.00  0.00    -0.156 NA
HETATM    4  N   UNL     1      -4.081   5.526 -31.871  1.00  0.00    -0.247 N 
HETATM    5  C   UNL     1      -5.113   4.613 -31.891  1.00  0.00     0.156 A 
HETATM    6  N   UNL     1      -5.672   4.605 -30.697  1.00  0.00    -0.215 NA
ENDROOT
BRANCH   5   7
HETATM    7  C   UNL     1      -5.597   3.835 -33.086  1.00  0.00     0.259 C 
HETATM    8  N   UNL     1      -6.229   2.468 -32.815  1.00  0.00    -0.056 N 
HETATM    9  H   UNL     1      -6.543   2.134 -33.734  1.00  0.00     0.281 HD
HETATM   10  C   UNL     1      -7.503   2.537 -32.003  1.00  0.00     0.236 C 
HETATM   11  C   UNL     1      -8.527   3.376 -32.757  1.00  0.00     0.028 C 
HETATM   12  C   UNL     1      -7.993   4.751 -33.143  1.00  0.00     0.004 C 
HETATM   13  C   UNL     1      -6.645   4.660 -33.863  1.00  0.00     0.041 C 
BRANCH   8  14
HETATM   14  C   UNL     1      -5.276   1.375 -32.381  1.00  0.00     0.274 C 
BRANCH  14  15
HETATM   15  C   UNL     1      -5.330   0.064 -33.112  1.00  0.00    -0.033 A 
HETATM   16  C   UNL     1      -6.382  -0.216 -33.999  1.00  0.00     0.009 A 
HETATM   17  C   UNL     1      -6.424  -1.424 -34.694  1.00  0.00     0.001 A 
HETATM   18  C   UNL     1      -5.412  -2.364 -34.522  1.00  0.00     0.000 A 
HETATM   19  C   UNL     1      -4.351  -2.094 -33.662  1.00  0.00     0.001 A 
HETATM   20  C   UNL     1      -4.305  -0.884 -32.964  1.00  0.00     0.009 A 
ENDBRANCH  14  15
ENDBRANCH   8  14
ENDBRANCH   5   7
BRANCH   4  21
HETATM   21  C   UNL     1      -3.125   5.911 -32.903  1.00  0.00     0.115 C 
HETATM   22  C   UNL     1      -1.943   4.929 -33.031  1.00  0.00     0.055 C 
HETATM   23  C   UNL     1      -0.857   5.111 -31.972  1.00  0.00     0.236 C 
HETATM   24  N   UNL     1      -0.423   6.555 -31.925  1.00  0.00    -0.075 N 
HETATM   25  H   UNL     1      -0.018   6.803 -32.839  1.00  0.00     0.279 HD
HETATM   26  C   UNL     1       0.701   6.749 -30.930  1.00  0.00     0.269 C 
HETATM   27  C   UNL     1      -1.569   7.486 -31.630  1.00  0.00     0.236 C 
HETATM   28  C   UNL     1      -2.629   7.350 -32.717  1.00  0.00     0.055 C 
ENDBRANCH   4  21
TORSDOF 4
ENDMDL
MODEL 10
REMARK VINA RESULT:      -7.2     14.222     17.108
REMARK  4 active torsions:
REMARK  status: ('A' for Active; 'I' for Inactive)
REMARK    1  A    between atoms: N_4  and  C_5 
REMARK    2  A    between atoms: C_13  and  C_14 
REMARK    3  A    between atoms: N_15  and  C_17 
REMARK    4  A    between atoms: C_17  and  C_18 
ROOT
HETATM    1  C   UNL     1      -4.501 -17.426 -40.120  1.00  0.00     0.095 C 
HETATM    2  C   UNL     1      -4.098 -16.062 -39.718  1.00  0.00     0.144 A 
HETATM    3  N   UNL     1      -2.842 -15.612 -39.796  1.00  0.00    -0.156 NA
HETATM    4  N   UNL     1      -2.963 -14.344 -39.367  1.00  0.00    -0.247 N 
HETATM    5  C   UNL     1      -4.253 -14.085 -38.958  1.00  0.00     0.156 A 
HETATM    6  N   UNL     1      -4.976 -15.164 -39.184  1.00  0.00    -0.215 NA
ENDROOT
BRANCH   5   7
HETATM    7  C   UNL     1      -4.742 -12.836 -38.273  1.00  0.00     0.259 C 
HETATM    8  N   UNL     1      -6.253 -12.597 -38.259  1.00  0.00    -0.056 N 
HETATM    9  H   UNL     1      -6.382 -11.744 -37.703  1.00  0.00     0.281 HD
HETATM   10  C   UNL     1      -7.028 -13.645 -37.493  1.00  0.00     0.236 C 
HETATM   11  C   UNL     1      -6.550 -13.656 -36.047  1.00  0.00     0.028 C 
HETATM   12  C   UNL     1      -5.041 -13.827 -35.925  1.00  0.00     0.004 C 
HETATM   13  C   UNL     1      -4.280 -12.827 -36.800  1.00  0.00     0.041 C 
BRANCH   8  14
HETATM   14  C   UNL     1      -6.872 -12.215 -39.587  1.00  0.00     0.274 C 
BRANCH  14  15
HETATM   15  C   UNL     1      -8.208 -12.806 -39.935  1.00  0.00    -0.033 A 
HETATM   16  C   UNL     1      -8.306 -14.133 -40.384  1.00  0.00     0.009 A 
HETATM   17  C   UNL     1      -9.548 -14.691 -40.689  1.00  0.00     0.001 A 
HETATM   18  C   UNL     1     -10.707 -13.936 -40.541  1.00  0.00     0.000 A 
HETATM   19  C   UNL     1     -10.629 -12.625 -40.078  1.00  0.00     0.001 A 
HETATM   20  C   UNL     1      -9.388 -12.063 -39.771  1.00  0.00     0.009 A 
ENDBRANCH  14  15
ENDBRANCH   8  14
ENDBRANCH   5   7
BRANCH   4  21
HETATM   21  C   UNL     1      -1.773 -13.500 -39.369  1.00  0.00     0.115 C 
HETATM   22  C   UNL     1      -0.807 -13.817 -40.529  1.00  0.00     0.055 C 
HETATM   23  C   UNL     1       0.074 -15.043 -40.296  1.00  0.00     0.236 C 
HETATM   24  N   UNL     1       0.771 -14.927 -38.963  1.00  0.00    -0.075 N 
HETATM   25  H   UNL     1       1.381 -14.099 -38.984  1.00  0.00     0.279 HD
HETATM   26  C   UNL     1       1.703 -16.098 -38.737  1.00  0.00     0.269 C 
HETATM   27  C   UNL     1      -0.202 -14.788 -37.822  1.00  0.00     0.236 C 
HETATM   28  C   UNL     1      -1.044 -13.533 -38.020  1.00  0.00     0.055 C 
ENDBRANCH   4  21
TORSDOF 4
ENDMDL
