MODEL 1
REMARK VINA RESULT:      -8.3      0.000      0.000
REMARK  9 active torsions:
REMARK  status: ('A' for Active; 'I' for Inactive)
REMARK    1  A    between atoms: C_2  and  N_3 
REMARK    2  A    between atoms: C_4  and  S_5 
REMARK    3  A    between atoms: S_5  and  C_6 
REMARK    4  A    between atoms: C_6  and  C_7 
REMARK       I    between atoms: C_7  and  N_8 
REMARK    5  A    between atoms: N_8  and  C_9 
REMARK    6  A    between atoms: C_9  and  C_10 
REMARK    7  A    between atoms: C_10  and  O_11 
REMARK    8  A    between atoms: O_11  and  C_12 
REMARK    9  A    between atoms: C_22  and  C_23 
ROOT
HETATM    1  C   UNL     1      -3.152   3.573 -32.835  1.00  0.00     0.185 C 
ENDROOT
BRANCH   1   2
HETATM    2  S   UNL     1      -3.004   5.365 -32.583  1.00  0.00    -0.081 SA
BRANCH   2   3
HETATM    3  C   UNL     1      -1.746   5.377 -31.395  1.00  0.00     0.192 A 
HETATM    4  N   UNL     1      -1.622   6.312 -30.400  1.00  0.00    -0.308 N 
HETATM    5  C   UNL     1      -0.456   5.983 -29.731  1.00  0.00     0.164 A 
HETATM    6  N   UNL     1       0.056   4.904 -30.299  1.00  0.00    -0.128 NA
HETATM    7  N   UNL     1      -0.760   4.517 -31.328  1.00  0.00    -0.122 NA
BRANCH   4   8
HETATM    8  C   UNL     1      -2.457   7.476 -30.187  1.00  0.00     0.128 C 
HETATM    9  C   UNL     1      -3.514   7.259 -29.115  1.00  0.00     0.027 C 
ENDBRANCH   4   8
BRANCH   5  10
HETATM   10  C   UNL     1       0.177   6.727 -28.644  1.00  0.00     0.012 A 
HETATM   11  C   UNL     1      -0.067   6.337 -27.320  1.00  0.00     0.015 A 
HETATM   12  C   UNL     1       0.514   7.028 -26.254  1.00  0.00     0.001 A 
HETATM   13  C   UNL     1       1.336   8.125 -26.501  1.00  0.00     0.000 A 
HETATM   14  C   UNL     1       1.568   8.536 -27.812  1.00  0.00     0.001 A 
HETATM   15  C   UNL     1       0.986   7.845 -28.879  1.00  0.00     0.015 A 
ENDBRANCH   5  10
ENDBRANCH   2   3
ENDBRANCH   1   2
BRANCH   1  16
HETATM   16  C   UNL     1      -4.342   3.035 -32.062  1.00  0.00     0.227 C 
HETATM   17  N   UNL     1      -5.358   2.530 -32.847  1.00  0.00    -0.358 N 
HETATM   18  H   UNL     1      -5.281   2.588 -33.855  1.00  0.00     0.162 HD
HETATM   19  O   UNL     1      -4.399   3.055 -30.834  1.00  0.00    -0.273 OA
BRANCH  17  20
HETATM   20  C   UNL     1      -6.641   2.150 -32.284  1.00  0.00     0.149 C 
BRANCH  20  21
HETATM   21  C   UNL     1      -6.905   0.644 -32.253  1.00  0.00     0.195 C 
BRANCH  21  22
HETATM   22  O   UNL     1      -6.943   0.187 -33.608  1.00  0.00    -0.350 OA
BRANCH  22  23
HETATM   23  C   UNL     1      -6.297  -0.983 -33.895  1.00  0.00     0.069 A 
HETATM   24  C   UNL     1      -6.860  -2.105 -34.507  1.00  0.00     0.043 A 
HETATM   25  C   UNL     1      -6.082  -3.248 -34.752  1.00  0.00    -0.059 A 
HETATM   26  C   UNL     1      -6.680  -4.461 -35.402  1.00  0.00     0.048 C 
HETATM   27  C   UNL     1      -4.737  -3.260 -34.364  1.00  0.00     0.007 A 
HETATM   28  C   UNL     1      -4.174  -2.145 -33.748  1.00  0.00     0.003 A 
HETATM   29  C   UNL     1      -4.953  -1.013 -33.514  1.00  0.00     0.037 A 
ENDBRANCH  22  23
ENDBRANCH  21  22
ENDBRANCH  20  21
ENDBRANCH  17  20
ENDBRANCH   1  16
TORSDOF 9
ENDMDL
MODEL 2
REMARK VINA RESULT:      -8.3      3.147     10.041
REMARK  9 active torsions:
REMARK  status: ('A' for Active; 'I' for Inactive)
REMARK    1  A    between atoms: C_2  and  N_3 
REMARK    2  A    between atoms: C_4  and  S_5 
REMARK    3  A    between atoms: S_5  and  C_6 
REMARK    4  A    between atoms: C_6  and  C_7 
REMARK       I    between atoms: C_7  and  N_8 
REMARK    5  A    between atoms: N_8  and  C_9 
REMARK    6  A    between atoms: C_9  and  C_10 
REMARK    7  A    between atoms: C_10  and  O_11 
REMARK    8  A    between atoms: O_11  and  C_12 
REMARK    9  A    between atoms: C_22  and  C_23 
ROOT
HETATM    1  C   UNL     1      -7.003   3.975 -33.804  1.00  0.00     0.185 C 
ENDROOT
BRANCH   1   2
HETATM    2  S   UNL     1      -6.791   2.694 -32.534  1.00  0.00    -0.081 SA
BRANCH   2   3
HETATM    3  C   UNL     1      -6.706   1.300 -33.555  1.00  0.00     0.192 A 
HETATM    4  N   UNL     1      -6.382   0.039 -33.127  1.00  0.00    -0.308 N 
HETATM    5  C   UNL     1      -6.368  -0.744 -34.268  1.00  0.00     0.164 A 
HETATM    6  N   UNL     1      -6.687   0.021 -35.298  1.00  0.00    -0.128 NA
HETATM    7  N   UNL     1      -6.914   1.295 -34.848  1.00  0.00    -0.122 NA
BRANCH   4   8
HETATM    8  C   UNL     1      -5.996  -0.357 -31.788  1.00  0.00     0.128 C 
HETATM    9  C   UNL     1      -4.520  -0.129 -31.504  1.00  0.00     0.027 C 
ENDBRANCH   4   8
BRANCH   5  10
HETATM   10  C   UNL     1      -5.984  -2.151 -34.368  1.00  0.00     0.012 A 
HETATM   11  C   UNL     1      -4.637  -2.503 -34.202  1.00  0.00     0.015 A 
HETATM   12  C   UNL     1      -4.231  -3.835 -34.299  1.00  0.00     0.001 A 
HETATM   13  C   UNL     1      -5.167  -4.830 -34.573  1.00  0.00     0.000 A 
HETATM   14  C   UNL     1      -6.505  -4.490 -34.762  1.00  0.00     0.001 A 
HETATM   15  C   UNL     1      -6.911  -3.156 -34.667  1.00  0.00     0.015 A 
ENDBRANCH   5  10
ENDBRANCH   2   3
ENDBRANCH   1   2
BRANCH   1  16
HETATM   16  C   UNL     1      -5.815   4.919 -33.795  1.00  0.00     0.227 C 
HETATM   17  N   UNL     1      -4.869   4.664 -34.767  1.00  0.00    -0.358 N 
HETATM   18  H   UNL     1      -4.988   3.865 -35.377  1.00  0.00     0.162 HD
HETATM   19  O   UNL     1      -5.701   5.832 -32.981  1.00  0.00    -0.273 OA
BRANCH  17  20
HETATM   20  C   UNL     1      -3.588   5.346 -34.783  1.00  0.00     0.149 C 
BRANCH  20  21
HETATM   21  C   UNL     1      -2.484   4.650 -33.986  1.00  0.00     0.195 C 
BRANCH  21  22
HETATM   22  O   UNL     1      -1.377   5.553 -33.907  1.00  0.00    -0.350 OA
BRANCH  22  23
HETATM   23  C   UNL     1      -1.002   5.979 -32.663  1.00  0.00     0.069 A 
HETATM   24  C   UNL     1      -0.282   5.238 -31.722  1.00  0.00     0.043 A 
HETATM   25  C   UNL     1       0.047   5.798 -30.476  1.00  0.00    -0.059 A 
HETATM   26  C   UNL     1       0.813   5.008 -29.456  1.00  0.00     0.048 C 
HETATM   27  C   UNL     1      -0.366   7.101 -30.178  1.00  0.00     0.007 A 
HETATM   28  C   UNL     1      -1.090   7.840 -31.111  1.00  0.00     0.003 A 
HETATM   29  C   UNL     1      -1.406   7.278 -32.347  1.00  0.00     0.037 A 
ENDBRANCH  22  23
ENDBRANCH  21  22
ENDBRANCH  20  21
ENDBRANCH  17  20
ENDBRANCH   1  16
TORSDOF 9
ENDMDL
MODEL 3
REMARK VINA RESULT:      -8.2      2.540     10.243
REMARK  9 active torsions:
REMARK  status: ('A' for Active; 'I' for Inactive)
REMARK    1  A    between atoms: C_2  and  N_3 
REMARK    2  A    between atoms: C_4  and  S_5 
REMARK    3  A    between atoms: S_5  and  C_6 
REMARK    4  A    between atoms: C_6  and  C_7 
REMARK       I    between atoms: C_7  and  N_8 
REMARK    5  A    between atoms: N_8  and  C_9 
REMARK    6  A    between atoms: C_9  and  C_10 
REMARK    7  A    between atoms: C_10  and  O_11 
REMARK    8  A    between atoms: O_11  and  C_12 
REMARK    9  A    between atoms: C_22  and  C_23 
ROOT
HETATM    1  C   UNL     1      -5.986   4.269 -33.840  1.00  0.00     0.185 C 
ENDROOT
BRANCH   1   2
HETATM    2  S   UNL     1      -5.922   3.010 -32.534  1.00  0.00    -0.081 SA
BRANCH   2   3
HETATM    3  C   UNL     1      -6.180   1.595 -33.496  1.00  0.00     0.192 A 
HETATM    4  N   UNL     1      -5.811   0.327 -33.132  1.00  0.00    -0.308 N 
HETATM    5  C   UNL     1      -6.142  -0.476 -34.210  1.00  0.00     0.164 A 
HETATM    6  N   UNL     1      -6.691   0.287 -35.140  1.00  0.00    -0.128 NA
HETATM    7  N   UNL     1      -6.729   1.579 -34.685  1.00  0.00    -0.122 NA
BRANCH   4   8
HETATM    8  C   UNL     1      -5.098  -0.066 -31.934  1.00  0.00     0.128 C 
HETATM    9  C   UNL     1      -3.605   0.212 -32.015  1.00  0.00     0.027 C 
ENDBRANCH   4   8
BRANCH   5  10
HETATM   10  C   UNL     1      -5.865  -1.902 -34.366  1.00  0.00     0.012 A 
HETATM   11  C   UNL     1      -6.933  -2.782 -34.591  1.00  0.00     0.015 A 
HETATM   12  C   UNL     1      -6.710  -4.153 -34.737  1.00  0.00     0.001 A 
HETATM   13  C   UNL     1      -5.415  -4.660 -34.649  1.00  0.00     0.000 A 
HETATM   14  C   UNL     1      -4.348  -3.798 -34.404  1.00  0.00     0.001 A 
HETATM   15  C   UNL     1      -4.572  -2.426 -34.256  1.00  0.00     0.015 A 
ENDBRANCH   5  10
ENDBRANCH   2   3
ENDBRANCH   1   2
BRANCH   1  16
HETATM   16  C   UNL     1      -4.582   4.604 -34.309  1.00  0.00     0.227 C 
HETATM   17  N   UNL     1      -3.576   4.187 -33.460  1.00  0.00    -0.358 N 
HETATM   18  H   UNL     1      -3.820   3.743 -32.584  1.00  0.00     0.162 HD
HETATM   19  O   UNL     1      -4.359   5.205 -35.358  1.00  0.00    -0.273 OA
BRANCH  17  20
HETATM   20  C   UNL     1      -2.195   4.587 -33.659  1.00  0.00     0.149 C 
BRANCH  20  21
HETATM   21  C   UNL     1      -1.712   5.698 -32.726  1.00  0.00     0.195 C 
BRANCH  21  22
HETATM   22  O   UNL     1      -0.643   5.164 -31.939  1.00  0.00    -0.350 OA
BRANCH  22  23
HETATM   23  C   UNL     1      -0.378   5.772 -30.744  1.00  0.00     0.069 A 
HETATM   24  C   UNL     1      -0.857   7.018 -30.332  1.00  0.00     0.043 A 
HETATM   25  C   UNL     1      -0.513   7.531 -29.070  1.00  0.00    -0.059 A 
HETATM   26  C   UNL     1      -1.015   8.872 -28.621  1.00  0.00     0.048 C 
HETATM   27  C   UNL     1       0.326   6.787 -28.231  1.00  0.00     0.007 A 
HETATM   28  C   UNL     1       0.810   5.547 -28.642  1.00  0.00     0.003 A 
HETATM   29  C   UNL     1       0.458   5.045 -29.894  1.00  0.00     0.037 A 
ENDBRANCH  22  23
ENDBRANCH  21  22
ENDBRANCH  20  21
ENDBRANCH  17  20
ENDBRANCH   1  16
TORSDOF 9
ENDMDL
MODEL 4
REMARK VINA RESULT:      -8.0      2.260     10.271
REMARK  9 active torsions:
REMARK  status: ('A' for Active; 'I' for Inactive)
REMARK    1  A    between atoms: C_2  and  N_3 
REMARK    2  A    between atoms: C_4  and  S_5 
REMARK    3  A    between atoms: S_5  and  C_6 
REMARK    4  A    between atoms: C_6  and  C_7 
REMARK       I    between atoms: C_7  and  N_8 
REMARK    5  A    between atoms: N_8  and  C_9 
REMARK    6  A    between atoms: C_9  and  C_10 
REMARK    7  A    between atoms: C_10  and  O_11 
REMARK    8  A    between atoms: O_11  and  C_12 
REMARK    9  A    between atoms: C_22  and  C_23 
ROOT
HETATM    1  C   UNL     1      -4.017   3.281 -31.434  1.00  0.00     0.185 C 
ENDROOT
BRANCH   1   2
HETATM    2  S   UNL     1      -5.457   2.662 -32.352  1.00  0.00    -0.081 SA
BRANCH   2   3
HETATM    3  C   UNL     1      -4.856   1.101 -32.795  1.00  0.00     0.192 A 
HETATM    4  N   UNL     1      -5.607   0.111 -33.373  1.00  0.00    -0.308 N 
HETATM    5  C   UNL     1      -4.756  -0.973 -33.492  1.00  0.00     0.164 A 
HETATM    6  N   UNL     1      -3.570  -0.621 -33.026  1.00  0.00    -0.128 NA
HETATM    7  N   UNL     1      -3.629   0.681 -32.605  1.00  0.00    -0.122 NA
BRANCH   4   8
HETATM    8  C   UNL     1      -7.025   0.148 -33.663  1.00  0.00     0.128 C 
HETATM    9  C   UNL     1      -7.337   0.739 -35.029  1.00  0.00     0.027 C 
ENDBRANCH   4   8
BRANCH   5  10
HETATM   10  C   UNL     1      -5.097  -2.314 -33.962  1.00  0.00     0.012 A 
HETATM   11  C   UNL     1      -4.158  -3.346 -33.817  1.00  0.00     0.015 A 
HETATM   12  C   UNL     1      -4.444  -4.639 -34.261  1.00  0.00     0.001 A 
HETATM   13  C   UNL     1      -5.670  -4.912 -34.865  1.00  0.00     0.000 A 
HETATM   14  C   UNL     1      -6.602  -3.891 -35.034  1.00  0.00     0.001 A 
HETATM   15  C   UNL     1      -6.315  -2.596 -34.591  1.00  0.00     0.015 A 
ENDBRANCH   5  10
ENDBRANCH   2   3
ENDBRANCH   1   2
BRANCH   1  16
HETATM   16  C   UNL     1      -3.223   4.242 -32.298  1.00  0.00     0.227 C 
HETATM   17  N   UNL     1      -3.538   5.574 -32.117  1.00  0.00    -0.358 N 
HETATM   18  H   UNL     1      -4.285   5.824 -31.481  1.00  0.00     0.162 HD
HETATM   19  O   UNL     1      -2.372   3.865 -33.100  1.00  0.00    -0.273 OA
BRANCH  17  20
HETATM   20  C   UNL     1      -3.013   6.608 -32.990  1.00  0.00     0.149 C 
BRANCH  20  21
HETATM   21  C   UNL     1      -2.079   7.608 -32.306  1.00  0.00     0.195 C 
BRANCH  21  22
HETATM   22  O   UNL     1      -0.770   7.032 -32.293  1.00  0.00    -0.350 OA
BRANCH  22  23
HETATM   23  C   UNL     1      -0.253   6.675 -31.078  1.00  0.00     0.069 A 
HETATM   24  C   UNL     1      -0.049   7.527 -29.990  1.00  0.00     0.043 A 
HETATM   25  C   UNL     1       0.487   7.031 -28.789  1.00  0.00    -0.059 A 
HETATM   26  C   UNL     1       0.718   7.939 -27.617  1.00  0.00     0.048 C 
HETATM   27  C   UNL     1       0.828   5.677 -28.696  1.00  0.00     0.007 A 
HETATM   28  C   UNL     1       0.632   4.827 -29.782  1.00  0.00     0.003 A 
HETATM   29  C   UNL     1       0.094   5.327 -30.967  1.00  0.00     0.037 A 
ENDBRANCH  22  23
ENDBRANCH  21  22
ENDBRANCH  20  21
ENDBRANCH  17  20
ENDBRANCH   1  16
TORSDOF 9
ENDMDL
MODEL 5
REMARK VINA RESULT:      -7.9      2.677      9.453
REMARK  9 active torsions:
REMARK  status: ('A' for Active; 'I' for Inactive)
REMARK    1  A    between atoms: C_2  and  N_3 
REMARK    2  A    between atoms: C_4  and  S_5 
REMARK    3  A    between atoms: S_5  and  C_6 
REMARK    4  A    between atoms: C_6  and  C_7 
REMARK       I    between atoms: C_7  and  N_8 
REMARK    5  A    between atoms: N_8  and  C_9 
REMARK    6  A    between atoms: C_9  and  C_10 
REMARK    7  A    between atoms: C_10  and  O_11 
REMARK    8  A    between atoms: O_11  and  C_12 
REMARK    9  A    between atoms: C_22  and  C_23 
ROOT
HETATM    1  C   UNL     1      -5.279   4.204 -30.647  1.00  0.00     0.185 C 
ENDROOT
BRANCH   1   2
HETATM    2  S   UNL     1      -6.894   3.540 -31.145  1.00  0.00    -0.081 SA
BRANCH   2   3
HETATM    3  C   UNL     1      -6.461   1.878 -31.351  1.00  0.00     0.192 A 
HETATM    4  N   UNL     1      -6.271   1.266 -32.562  1.00  0.00    -0.308 N 
HETATM    5  C   UNL     1      -6.009  -0.060 -32.266  1.00  0.00     0.164 A 
HETATM    6  N   UNL     1      -6.028  -0.202 -30.952  1.00  0.00    -0.128 NA
HETATM    7  N   UNL     1      -6.294   1.013 -30.380  1.00  0.00    -0.122 NA
BRANCH   4   8
HETATM    8  C   UNL     1      -6.449   1.852 -33.874  1.00  0.00     0.128 C 
HETATM    9  C   UNL     1      -7.876   1.737 -34.388  1.00  0.00     0.027 C 
ENDBRANCH   4   8
BRANCH   5  10
HETATM   10  C   UNL     1      -5.829  -1.157 -33.215  1.00  0.00     0.012 A 
HETATM   11  C   UNL     1      -6.960  -1.743 -33.802  1.00  0.00     0.015 A 
HETATM   12  C   UNL     1      -6.829  -2.798 -34.707  1.00  0.00     0.001 A 
HETATM   13  C   UNL     1      -5.564  -3.286 -35.028  1.00  0.00     0.000 A 
HETATM   14  C   UNL     1      -4.433  -2.727 -34.435  1.00  0.00     0.001 A 
HETATM   15  C   UNL     1      -4.565  -1.671 -33.528  1.00  0.00     0.015 A 
ENDBRANCH   5  10
ENDBRANCH   2   3
ENDBRANCH   1   2
BRANCH   1  16
HETATM   16  C   UNL     1      -4.307   4.136 -31.810  1.00  0.00     0.227 C 
HETATM   17  N   UNL     1      -4.578   5.017 -32.839  1.00  0.00    -0.358 N 
HETATM   18  H   UNL     1      -5.403   5.600 -32.787  1.00  0.00     0.162 HD
HETATM   19  O   UNL     1      -3.359   3.355 -31.837  1.00  0.00    -0.273 OA
BRANCH  17  20
HETATM   20  C   UNL     1      -3.867   4.955 -34.103  1.00  0.00     0.149 C 
BRANCH  20  21
HETATM   21  C   UNL     1      -2.831   6.063 -34.307  1.00  0.00     0.195 C 
BRANCH  21  22
HETATM   22  O   UNL     1      -1.565   5.550 -33.884  1.00  0.00    -0.350 OA
BRANCH  22  23
HETATM   23  C   UNL     1      -1.106   5.945 -32.657  1.00  0.00     0.069 A 
HETATM   24  C   UNL     1      -0.342   5.173 -31.778  1.00  0.00     0.043 A 
HETATM   25  C   UNL     1       0.073   5.702 -30.545  1.00  0.00    -0.059 A 
HETATM   26  C   UNL     1       0.888   4.879 -29.590  1.00  0.00     0.048 C 
HETATM   27  C   UNL     1      -0.297   7.006 -30.196  1.00  0.00     0.007 A 
HETATM   28  C   UNL     1      -1.065   7.775 -31.068  1.00  0.00     0.003 A 
HETATM   29  C   UNL     1      -1.467   7.243 -32.292  1.00  0.00     0.037 A 
ENDBRANCH  22  23
ENDBRANCH  21  22
ENDBRANCH  20  21
ENDBRANCH  17  20
ENDBRANCH   1  16
TORSDOF 9
ENDMDL
MODEL 6
REMARK VINA RESULT:      -7.9      4.670      8.449
REMARK  9 active torsions:
REMARK  status: ('A' for Active; 'I' for Inactive)
REMARK    1  A    between atoms: C_2  and  N_3 
REMARK    2  A    between atoms: C_4  and  S_5 
REMARK    3  A    between atoms: S_5  and  C_6 
REMARK    4  A    between atoms: C_6  and  C_7 
REMARK       I    between atoms: C_7  and  N_8 
REMARK    5  A    between atoms: N_8  and  C_9 
REMARK    6  A    between atoms: C_9  and  C_10 
REMARK    7  A    between atoms: C_10  and  O_11 
REMARK    8  A    between atoms: O_11  and  C_12 
REMARK    9  A    between atoms: C_22  and  C_23 
ROOT
HETATM    1  C   UNL     1      -4.905   3.500 -31.254  1.00  0.00     0.185 C 
ENDROOT
BRANCH   1   2
HETATM    2  S   UNL     1      -6.459   2.989 -30.468  1.00  0.00    -0.081 SA
BRANCH   2   3
HETATM    3  C   UNL     1      -7.390   2.646 -31.885  1.00  0.00     0.192 A 
HETATM    4  N   UNL     1      -8.755   2.733 -31.962  1.00  0.00    -0.308 N 
HETATM    5  C   UNL     1      -9.079   2.311 -33.239  1.00  0.00     0.164 A 
HETATM    6  N   UNL     1      -7.958   2.014 -33.874  1.00  0.00    -0.128 NA
HETATM    7  N   UNL     1      -6.902   2.240 -33.031  1.00  0.00    -0.122 NA
BRANCH   4   8
HETATM    8  C   UNL     1      -9.671   3.060 -30.888  1.00  0.00     0.128 C 
HETATM    9  C   UNL     1     -10.160   4.499 -30.942  1.00  0.00     0.027 C 
ENDBRANCH   4   8
BRANCH   5  10
HETATM   10  C   UNL     1     -10.419   2.126 -33.794  1.00  0.00     0.012 A 
HETATM   11  C   UNL     1     -10.971   3.138 -34.593  1.00  0.00     0.015 A 
HETATM   12  C   UNL     1     -12.250   3.002 -35.135  1.00  0.00     0.001 A 
HETATM   13  C   UNL     1     -12.997   1.855 -34.874  1.00  0.00     0.000 A 
HETATM   14  C   UNL     1     -12.469   0.852 -34.064  1.00  0.00     0.001 A 
HETATM   15  C   UNL     1     -11.188   0.989 -33.521  1.00  0.00     0.015 A 
ENDBRANCH   5  10
ENDBRANCH   2   3
ENDBRANCH   1   2
BRANCH   1  16
HETATM   16  C   UNL     1      -3.913   2.351 -31.242  1.00  0.00     0.227 C 
HETATM   17  N   UNL     1      -4.487   1.095 -31.279  1.00  0.00    -0.358 N 
HETATM   18  H   UNL     1      -5.495   1.011 -31.261  1.00  0.00     0.162 HD
HETATM   19  O   UNL     1      -2.698   2.525 -31.196  1.00  0.00    -0.273 OA
BRANCH  17  20
HETATM   20  C   UNL     1      -3.700  -0.109 -31.085  1.00  0.00     0.149 C 
BRANCH  20  21
HETATM   21  C   UNL     1      -3.031  -0.646 -32.351  1.00  0.00     0.195 C 
BRANCH  21  22
HETATM   22  O   UNL     1      -3.919  -0.394 -33.445  1.00  0.00    -0.350 OA
BRANCH  22  23
HETATM   23  C   UNL     1      -4.715  -1.426 -33.857  1.00  0.00     0.069 A 
HETATM   24  C   UNL     1      -4.348  -2.772 -33.926  1.00  0.00     0.043 A 
HETATM   25  C   UNL     1      -5.268  -3.739 -34.364  1.00  0.00    -0.059 A 
HETATM   26  C   UNL     1      -4.881  -5.186 -34.448  1.00  0.00     0.048 C 
HETATM   27  C   UNL     1      -6.554  -3.341 -34.745  1.00  0.00     0.007 A 
HETATM   28  C   UNL     1      -6.922  -1.999 -34.684  1.00  0.00     0.003 A 
HETATM   29  C   UNL     1      -6.003  -1.047 -34.243  1.00  0.00     0.037 A 
ENDBRANCH  22  23
ENDBRANCH  21  22
ENDBRANCH  20  21
ENDBRANCH  17  20
ENDBRANCH   1  16
TORSDOF 9
ENDMDL
MODEL 7
REMARK VINA RESULT:      -7.9      6.037      9.614
REMARK  9 active torsions:
REMARK  status: ('A' for Active; 'I' for Inactive)
REMARK    1  A    between atoms: C_2  and  N_3 
REMARK    2  A    between atoms: C_4  and  S_5 
REMARK    3  A    between atoms: S_5  and  C_6 
REMARK    4  A    between atoms: C_6  and  C_7 
REMARK       I    between atoms: C_7  and  N_8 
REMARK    5  A    between atoms: N_8  and  C_9 
REMARK    6  A    between atoms: C_9  and  C_10 
REMARK    7  A    between atoms: C_10  and  O_11 
REMARK    8  A    between atoms: O_11  and  C_12 
REMARK    9  A    between atoms: C_22  and  C_23 
ROOT
HETATM    1  C   UNL     1      -7.657   3.314 -32.483  1.00  0.00     0.185 C 
ENDROOT
BRANCH   1   2
HETATM    2  S   UNL     1      -5.928   2.807 -32.710  1.00  0.00    -0.081 SA
BRANCH   2   3
HETATM    3  C   UNL     1      -6.180   1.353 -33.613  1.00  0.00     0.192 A 
HETATM    4  N   UNL     1      -5.758   0.109 -33.223  1.00  0.00    -0.308 N 
HETATM    5  C   UNL     1      -6.105  -0.739 -34.260  1.00  0.00     0.164 A 
HETATM    6  N   UNL     1      -6.713  -0.025 -35.192  1.00  0.00    -0.128 NA
HETATM    7  N   UNL     1      -6.773   1.279 -34.779  1.00  0.00    -0.122 NA
BRANCH   4   8
HETATM    8  C   UNL     1      -4.986  -0.220 -32.042  1.00  0.00     0.128 C 
HETATM    9  C   UNL     1      -3.510   0.116 -32.185  1.00  0.00     0.027 C 
ENDBRANCH   4   8
BRANCH   5  10
HETATM   10  C   UNL     1      -5.790  -2.161 -34.379  1.00  0.00     0.012 A 
HETATM   11  C   UNL     1      -6.819  -3.063 -34.688  1.00  0.00     0.015 A 
HETATM   12  C   UNL     1      -6.560  -4.430 -34.802  1.00  0.00     0.001 A 
HETATM   13  C   UNL     1      -5.269  -4.912 -34.598  1.00  0.00     0.000 A 
HETATM   14  C   UNL     1      -4.242  -4.029 -34.269  1.00  0.00     0.001 A 
HETATM   15  C   UNL     1      -4.503  -2.661 -34.153  1.00  0.00     0.015 A 
ENDBRANCH   5  10
ENDBRANCH   2   3
ENDBRANCH   1   2
BRANCH   1  16
HETATM   16  C   UNL     1      -8.053   4.308 -33.559  1.00  0.00     0.227 C 
HETATM   17  N   UNL     1      -9.414   4.422 -33.765  1.00  0.00    -0.358 N 
HETATM   18  H   UNL     1     -10.045   3.825 -33.246  1.00  0.00     0.162 HD
HETATM   19  O   UNL     1      -7.229   4.955 -34.201  1.00  0.00    -0.273 OA
BRANCH  17  20
HETATM   20  C   UNL     1      -9.957   5.180 -34.877  1.00  0.00     0.149 C 
BRANCH  20  21
HETATM   21  C   UNL     1     -11.476   5.092 -35.029  1.00  0.00     0.195 C 
BRANCH  21  22
HETATM   22  O   UNL     1     -11.779   3.805 -35.574  1.00  0.00    -0.350 OA
BRANCH  22  23
HETATM   23  C   UNL     1     -12.541   2.964 -34.811  1.00  0.00     0.069 A 
HETATM   24  C   UNL     1     -13.288   3.324 -33.686  1.00  0.00     0.043 A 
HETATM   25  C   UNL     1     -14.037   2.360 -32.991  1.00  0.00    -0.059 A 
HETATM   26  C   UNL     1     -14.836   2.735 -31.778  1.00  0.00     0.048 C 
HETATM   27  C   UNL     1     -14.019   1.030 -33.427  1.00  0.00     0.007 A 
HETATM   28  C   UNL     1     -13.270   0.667 -34.544  1.00  0.00     0.003 A 
HETATM   29  C   UNL     1     -12.535   1.632 -35.231  1.00  0.00     0.037 A 
ENDBRANCH  22  23
ENDBRANCH  21  22
ENDBRANCH  20  21
ENDBRANCH  17  20
ENDBRANCH   1  16
TORSDOF 9
ENDMDL
MODEL 8
REMARK VINA RESULT:      -7.8      2.506     10.150
REMARK  9 active torsions:
REMARK  status: ('A' for Active; 'I' for Inactive)
REMARK    1  A    between atoms: C_2  and  N_3 
REMARK    2  A    between atoms: C_4  and  S_5 
REMARK    3  A    between atoms: S_5  and  C_6 
REMARK    4  A    between atoms: C_6  and  C_7 
REMARK       I    between atoms: C_7  and  N_8 
REMARK    5  A    between atoms: N_8  and  C_9 
REMARK    6  A    between atoms: C_9  and  C_10 
REMARK    7  A    between atoms: C_10  and  O_11 
REMARK    8  A    between atoms: O_11  and  C_12 
REMARK    9  A    between atoms: C_22  and  C_23 
ROOT
HETATM    1  C   UNL     1      -7.024   3.838 -32.950  1.00  0.00     0.185 C 
ENDROOT
BRANCH   1   2
HETATM    2  S   UNL     1      -8.070   2.513 -32.283  1.00  0.00    -0.081 SA
BRANCH   2   3
HETATM    3  C   UNL     1      -7.644   1.243 -33.377  1.00  0.00     0.192 A 
HETATM    4  N   UNL     1      -7.112   0.036 -33.002  1.00  0.00    -0.308 N 
HETATM    5  C   UNL     1      -6.866  -0.640 -34.184  1.00  0.00     0.164 A 
HETATM    6  N   UNL     1      -7.253   0.129 -35.188  1.00  0.00    -0.128 NA
HETATM    7  N   UNL     1      -7.754   1.298 -34.681  1.00  0.00    -0.122 NA
BRANCH   4   8
HETATM    8  C   UNL     1      -6.753  -0.381 -31.662  1.00  0.00     0.128 C 
HETATM    9  C   UNL     1      -5.333   0.004 -31.281  1.00  0.00     0.027 C 
ENDBRANCH   4   8
BRANCH   5  10
HETATM   10  C   UNL     1      -6.210  -1.937 -34.338  1.00  0.00     0.012 A 
HETATM   11  C   UNL     1      -6.986  -3.056 -34.673  1.00  0.00     0.015 A 
HETATM   12  C   UNL     1      -6.397  -4.314 -34.822  1.00  0.00     0.001 A 
HETATM   13  C   UNL     1      -5.027  -4.467 -34.625  1.00  0.00     0.000 A 
HETATM   14  C   UNL     1      -4.248  -3.367 -34.270  1.00  0.00     0.001 A 
HETATM   15  C   UNL     1      -4.838  -2.109 -34.121  1.00  0.00     0.015 A 
ENDBRANCH   5  10
ENDBRANCH   2   3
ENDBRANCH   1   2
BRANCH   1  16
HETATM   16  C   UNL     1      -5.671   3.829 -32.264  1.00  0.00     0.227 C 
HETATM   17  N   UNL     1      -4.644   3.299 -33.021  1.00  0.00    -0.358 N 
HETATM   18  H   UNL     1      -4.850   2.916 -33.935  1.00  0.00     0.162 HD
HETATM   19  O   UNL     1      -5.503   4.252 -31.123  1.00  0.00    -0.273 OA
BRANCH  17  20
HETATM   20  C   UNL     1      -3.333   3.041 -32.455  1.00  0.00     0.149 C 
BRANCH  20  21
HETATM   21  C   UNL     1      -2.297   4.135 -32.717  1.00  0.00     0.195 C 
BRANCH  21  22
HETATM   22  O   UNL     1      -1.486   4.248 -31.544  1.00  0.00    -0.350 OA
BRANCH  22  23
HETATM   23  C   UNL     1      -1.365   5.487 -30.980  1.00  0.00     0.069 A 
HETATM   24  C   UNL     1      -0.315   5.922 -30.168  1.00  0.00     0.043 A 
HETATM   25  C   UNL     1      -0.308   7.230 -29.654  1.00  0.00    -0.059 A 
HETATM   26  C   UNL     1       0.811   7.704 -28.774  1.00  0.00     0.048 C 
HETATM   27  C   UNL     1      -1.370   8.091 -29.952  1.00  0.00     0.007 A 
HETATM   28  C   UNL     1      -2.421   7.659 -30.756  1.00  0.00     0.003 A 
HETATM   29  C   UNL     1      -2.417   6.361 -31.266  1.00  0.00     0.037 A 
ENDBRANCH  22  23
ENDBRANCH  21  22
ENDBRANCH  20  21
ENDBRANCH  17  20
ENDBRANCH   1  16
TORSDOF 9
ENDMDL
MODEL 9
REMARK VINA RESULT:      -7.6      1.903      2.924
REMARK  9 active torsions:
REMARK  status: ('A' for Active; 'I' for Inactive)
REMARK    1  A    between atoms: C_2  and  N_3 
REMARK    2  A    between atoms: C_4  and  S_5 
REMARK    3  A    between atoms: S_5  and  C_6 
REMARK    4  A    between atoms: C_6  and  C_7 
REMARK       I    between atoms: C_7  and  N_8 
REMARK    5  A    between atoms: N_8  and  C_9 
REMARK    6  A    between atoms: C_9  and  C_10 
REMARK    7  A    between atoms: C_10  and  O_11 
REMARK    8  A    between atoms: O_11  and  C_12 
REMARK    9  A    between atoms: C_22  and  C_23 
ROOT
HETATM    1  C   UNL     1      -6.043   5.402 -33.713  1.00  0.00     0.185 C 
ENDROOT
BRANCH   1   2
HETATM    2  S   UNL     1      -4.482   4.947 -34.521  1.00  0.00    -0.081 SA
BRANCH   2   3
HETATM    3  C   UNL     1      -3.512   4.664 -33.117  1.00  0.00     0.192 A 
HETATM    4  N   UNL     1      -2.864   5.641 -32.407  1.00  0.00    -0.308 N 
HETATM    5  C   UNL     1      -2.163   4.973 -31.418  1.00  0.00     0.164 A 
HETATM    6  N   UNL     1      -2.408   3.680 -31.539  1.00  0.00    -0.128 NA
HETATM    7  N   UNL     1      -3.264   3.490 -32.591  1.00  0.00    -0.122 NA
BRANCH   4   8
HETATM    8  C   UNL     1      -2.812   7.055 -32.715  1.00  0.00     0.128 C 
HETATM    9  C   UNL     1      -1.603   7.436 -33.554  1.00  0.00     0.027 C 
ENDBRANCH   4   8
BRANCH   5  10
HETATM   10  C   UNL     1      -1.234   5.553 -30.451  1.00  0.00     0.012 A 
HETATM   11  C   UNL     1      -0.011   4.910 -30.211  1.00  0.00     0.015 A 
HETATM   12  C   UNL     1       0.900   5.429 -29.288  1.00  0.00     0.001 A 
HETATM   13  C   UNL     1       0.592   6.593 -28.587  1.00  0.00     0.000 A 
HETATM   14  C   UNL     1      -0.629   7.229 -28.799  1.00  0.00     0.001 A 
HETATM   15  C   UNL     1      -1.541   6.708 -29.722  1.00  0.00     0.015 A 
ENDBRANCH   5  10
ENDBRANCH   2   3
ENDBRANCH   1   2
BRANCH   1  16
HETATM   16  C   UNL     1      -7.031   4.255 -33.805  1.00  0.00     0.227 C 
HETATM   17  N   UNL     1      -6.454   3.003 -33.887  1.00  0.00    -0.358 N 
HETATM   18  H   UNL     1      -5.446   2.924 -33.930  1.00  0.00     0.162 HD
HETATM   19  O   UNL     1      -8.247   4.426 -33.814  1.00  0.00    -0.273 OA
BRANCH  17  20
HETATM   20  C   UNL     1      -7.241   1.817 -34.169  1.00  0.00     0.149 C 
BRANCH  20  21
HETATM   21  C   UNL     1      -7.701   1.046 -32.931  1.00  0.00     0.195 C 
BRANCH  21  22
HETATM   22  O   UNL     1      -7.833  -0.328 -33.305  1.00  0.00    -0.350 OA
BRANCH  22  23
HETATM   23  C   UNL     1      -6.681  -1.045 -33.478  1.00  0.00     0.069 A 
HETATM   24  C   UNL     1      -5.530  -0.953 -32.692  1.00  0.00     0.043 A 
HETATM   25  C   UNL     1      -4.411  -1.754 -32.974  1.00  0.00    -0.059 A 
HETATM   26  C   UNL     1      -3.166  -1.657 -32.141  1.00  0.00     0.048 C 
HETATM   27  C   UNL     1      -4.453  -2.638 -34.058  1.00  0.00     0.007 A 
HETATM   28  C   UNL     1      -5.598  -2.728 -34.847  1.00  0.00     0.003 A 
HETATM   29  C   UNL     1      -6.705  -1.932 -34.556  1.00  0.00     0.037 A 
ENDBRANCH  22  23
ENDBRANCH  21  22
ENDBRANCH  20  21
ENDBRANCH  17  20
ENDBRANCH   1  16
TORSDOF 9
ENDMDL
MODEL 10
REMARK VINA RESULT:      -7.6      4.508      8.119
REMARK  9 active torsions:
REMARK  status: ('A' for Active; 'I' for Inactive)
REMARK    1  A    between atoms: C_2  and  N_3 
REMARK    2  A    between atoms: C_4  and  S_5 
REMARK    3  A    between atoms: S_5  and  C_6 
REMARK    4  A    between atoms: C_6  and  C_7 
REMARK       I    between atoms: C_7  and  N_8 
REMARK    5  A    between atoms: N_8  and  C_9 
REMARK    6  A    between atoms: C_9  and  C_10 
REMARK    7  A    between atoms: C_10  and  O_11 
REMARK    8  A    between atoms: O_11  and  C_12 
REMARK    9  A    between atoms: C_22  and  C_23 
ROOT
HETATM    1  C   UNL     1      -5.036   4.075 -31.047  1.00  0.00     0.185 C 
ENDROOT
BRANCH   1   2
HETATM    2  S   UNL     1      -5.419   2.594 -30.068  1.00  0.00    -0.081 SA
BRANCH   2   3
HETATM    3  C   UNL     1      -4.487   1.431 -30.946  1.00  0.00     0.192 A 
HETATM    4  N   UNL     1      -4.979   0.252 -31.442  1.00  0.00    -0.308 N 
HETATM    5  C   UNL     1      -3.891  -0.392 -32.006  1.00  0.00     0.164 A 
HETATM    6  N   UNL     1      -2.830   0.383 -31.859  1.00  0.00    -0.128 NA
HETATM    7  N   UNL     1      -3.208   1.529 -31.211  1.00  0.00    -0.122 NA
BRANCH   4   8
HETATM    8  C   UNL     1      -6.320  -0.270 -31.284  1.00  0.00     0.128 C 
HETATM    9  C   UNL     1      -7.210   0.003 -32.486  1.00  0.00     0.027 C 
ENDBRANCH   4   8
BRANCH   5  10
HETATM   10  C   UNL     1      -3.863  -1.733 -32.587  1.00  0.00     0.012 A 
HETATM   11  C   UNL     1      -3.173  -2.752 -31.916  1.00  0.00     0.015 A 
HETATM   12  C   UNL     1      -3.117  -4.044 -32.444  1.00  0.00     0.001 A 
HETATM   13  C   UNL     1      -3.743  -4.327 -33.655  1.00  0.00     0.000 A 
HETATM   14  C   UNL     1      -4.414  -3.318 -34.343  1.00  0.00     0.001 A 
HETATM   15  C   UNL     1      -4.469  -2.025 -33.815  1.00  0.00     0.015 A 
ENDBRANCH   5  10
ENDBRANCH   2   3
ENDBRANCH   1   2
BRANCH   1  16
HETATM   16  C   UNL     1      -5.472   3.875 -32.486  1.00  0.00     0.227 C 
HETATM   17  N   UNL     1      -6.832   3.709 -32.658  1.00  0.00    -0.358 N 
HETATM   18  H   UNL     1      -7.435   3.680 -31.845  1.00  0.00     0.162 HD
HETATM   19  O   UNL     1      -4.678   3.854 -33.423  1.00  0.00    -0.273 OA
BRANCH  17  20
HETATM   20  C   UNL     1      -7.398   3.320 -33.937  1.00  0.00     0.149 C 
BRANCH  20  21
HETATM   21  C   UNL     1      -8.904   3.555 -34.067  1.00  0.00     0.195 C 
BRANCH  21  22
HETATM   22  O   UNL     1      -9.565   2.530 -33.320  1.00  0.00    -0.350 OA
BRANCH  22  23
HETATM   23  C   UNL     1     -10.823   2.174 -33.718  1.00  0.00     0.069 A 
HETATM   24  C   UNL     1     -11.459   0.960 -33.448  1.00  0.00     0.043 A 
HETATM   25  C   UNL     1     -12.762   0.720 -33.913  1.00  0.00    -0.059 A 
HETATM   26  C   UNL     1     -13.451  -0.584 -33.635  1.00  0.00     0.048 C 
HETATM   27  C   UNL     1     -13.417   1.704 -34.662  1.00  0.00     0.007 A 
HETATM   28  C   UNL     1     -12.784   2.914 -34.939  1.00  0.00     0.003 A 
HETATM   29  C   UNL     1     -11.492   3.144 -34.468  1.00  0.00     0.037 A 
ENDBRANCH  22  23
ENDBRANCH  21  22
ENDBRANCH  20  21
ENDBRANCH  17  20
ENDBRANCH   1  16
TORSDOF 9
ENDMDL
