MODEL 1
REMARK VINA RESULT:     -11.1      0.000      0.000
REMARK  5 active torsions:
REMARK  status: ('A' for Active; 'I' for Inactive)
REMARK    1  A    between atoms: C_4  and  N_5 
REMARK       I    between atoms: N_5  and  C_6 
REMARK    2  A    between atoms: C_6  and  C_7 
REMARK    3  A    between atoms: C_8  and  N_9 
REMARK    4  A    between atoms: N_10  and  N_11 
REMARK    5  A    between atoms: C_12  and  C_13 
ROOT
HETATM    1  C   UNL     1      -5.187   2.039 -32.365  1.00  0.00     0.105 C 
HETATM    2  C   UNL     1      -6.421   2.660 -32.520  1.00  0.00     0.123 C 
HETATM    3  N   UNL     1      -7.373   1.707 -32.854  1.00  0.00    -0.202 N 
HETATM    4  C   UNL     1      -6.714   0.529 -33.154  1.00  0.00     0.183 A 
HETATM    5  C   UNL     1      -5.368   0.709 -32.845  1.00  0.00     0.124 A 
HETATM    6  N   UNL     1      -4.475  -0.298 -33.035  1.00  0.00    -0.242 NA
HETATM    7  C   UNL     1      -4.975  -1.409 -33.597  1.00  0.00     0.086 A 
HETATM    8  C   UNL     1      -6.349  -1.554 -33.919  1.00  0.00     0.088 A 
HETATM    9  N   UNL     1      -7.257  -0.595 -33.680  1.00  0.00    -0.225 NA
HETATM   10  C   UNL     1      -4.105  -2.453 -33.890  1.00  0.00     0.034 A 
HETATM   11  C   UNL     1      -4.550  -3.626 -34.503  1.00  0.00     0.002 A 
HETATM   12  C   UNL     1      -5.893  -3.764 -34.821  1.00  0.00     0.002 A 
HETATM   13  C   UNL     1      -6.779  -2.729 -34.521  1.00  0.00     0.034 A 
ENDROOT
BRANCH   1  14
HETATM   14  C   UNL     1      -3.961   2.648 -31.836  1.00  0.00     0.262 C 
HETATM   15  N   UNL     1      -3.888   4.005 -32.097  1.00  0.00    -0.323 N 
HETATM   16  H   UNL     1      -4.674   4.382 -32.622  1.00  0.00     0.169 HD
HETATM   17  O   UNL     1      -3.117   1.999 -31.232  1.00  0.00    -0.267 OA
BRANCH  15  18
HETATM   18  C   UNL     1      -2.885   4.926 -31.755  1.00  0.00     0.036 A 
HETATM   19  C   UNL     1      -1.552   4.589 -31.525  1.00  0.00     0.036 A 
HETATM   20  C   UNL     1      -0.619   5.577 -31.168  1.00  0.00    -0.059 A 
HETATM   21  C   UNL     1       0.809   5.199 -30.908  1.00  0.00     0.048 C 
HETATM   22  C   UNL     1      -1.026   6.916 -31.096  1.00  0.00     0.013 A 
HETATM   23  C   UNL     1      -2.359   7.271 -31.321  1.00  0.00    -0.059 A 
HETATM   24  C   UNL     1      -3.281   6.266 -31.639  1.00  0.00     0.036 A 
HETATM   25  C   UNL     1      -2.787   8.707 -31.297  1.00  0.00     0.048 C 
ENDBRANCH  15  18
ENDBRANCH   1  14
BRANCH   2  26
HETATM   26  N   UNL     1      -6.802   3.970 -32.356  1.00  0.00    -0.286 NA
HETATM   27  H   UNL     1      -7.341   4.362 -33.134  1.00  0.00     0.125 HD
HETATM   28  H   UNL     1      -7.379   4.106 -31.514  1.00  0.00     0.125 HD
ENDBRANCH   2  26
BRANCH   3  29
HETATM   29  N   UNL     1      -8.701   2.038 -32.946  1.00  0.00    -0.176 NA
HETATM   30  C   UNL     1      -9.180   2.066 -34.145  1.00  0.00     0.153 C 
BRANCH  30  31
HETATM   31  C   UNL     1     -10.582   2.387 -34.316  1.00  0.00     0.011 A 
HETATM   32  C   UNL     1     -11.705   1.527 -34.086  1.00  0.00     0.004 A 
HETATM   33  C   UNL     1     -12.858   2.268 -34.353  1.00  0.00     0.043 A 
HETATM   34  C   UNL     1     -11.852   0.193 -33.652  1.00  0.00     0.014 A 
HETATM   35  C   UNL     1     -14.148   1.742 -34.212  1.00  0.00     0.030 A 
HETATM   36  N   UNL     1     -12.454   3.523 -34.743  1.00  0.00    -0.364 N 
HETATM   37  C   UNL     1     -14.265   0.419 -33.780  1.00  0.00     0.002 A 
HETATM   38  C   UNL     1     -13.135  -0.347 -33.503  1.00  0.00     0.001 A 
HETATM   39  H   UNL     1     -13.081   4.273 -35.000  1.00  0.00     0.165 HD
HETATM   40  C   UNL     1     -11.090   3.610 -34.714  1.00  0.00     0.102 A 
ENDBRANCH  30  31
ENDBRANCH   3  29
TORSDOF 5
ENDMDL
MODEL 2
REMARK VINA RESULT:     -10.8      1.575      1.850
REMARK  5 active torsions:
REMARK  status: ('A' for Active; 'I' for Inactive)
REMARK    1  A    between atoms: C_4  and  N_5 
REMARK       I    between atoms: N_5  and  C_6 
REMARK    2  A    between atoms: C_6  and  C_7 
REMARK    3  A    between atoms: C_8  and  N_9 
REMARK    4  A    between atoms: N_10  and  N_11 
REMARK    5  A    between atoms: C_12  and  C_13 
ROOT
HETATM    1  C   UNL     1      -5.888   4.158 -33.211  1.00  0.00     0.105 C 
HETATM    2  C   UNL     1      -7.164   4.390 -33.716  1.00  0.00     0.123 C 
HETATM    3  N   UNL     1      -7.852   3.187 -33.788  1.00  0.00    -0.202 N 
HETATM    4  C   UNL     1      -6.950   2.163 -33.569  1.00  0.00     0.183 A 
HETATM    5  C   UNL     1      -5.738   2.741 -33.197  1.00  0.00     0.124 A 
HETATM    6  N   UNL     1      -4.661   1.963 -32.912  1.00  0.00    -0.242 NA
HETATM    7  C   UNL     1      -4.842   0.645 -33.088  1.00  0.00     0.086 A 
HETATM    8  C   UNL     1      -6.084   0.089 -33.488  1.00  0.00     0.088 A 
HETATM    9  N   UNL     1      -7.177   0.836 -33.712  1.00  0.00    -0.225 NA
HETATM   10  C   UNL     1      -3.762  -0.206 -32.887  1.00  0.00     0.034 A 
HETATM   11  C   UNL     1      -3.869  -1.584 -33.083  1.00  0.00     0.002 A 
HETATM   12  C   UNL     1      -5.083  -2.126 -33.477  1.00  0.00     0.002 A 
HETATM   13  C   UNL     1      -6.180  -1.284 -33.671  1.00  0.00     0.034 A 
ENDROOT
BRANCH   1  14
HETATM   14  C   UNL     1      -4.911   5.173 -32.804  1.00  0.00     0.262 C 
HETATM   15  N   UNL     1      -3.995   4.691 -31.884  1.00  0.00    -0.323 N 
HETATM   16  H   UNL     1      -4.135   3.720 -31.613  1.00  0.00     0.169 HD
HETATM   17  O   UNL     1      -4.929   6.314 -33.250  1.00  0.00    -0.267 OA
BRANCH  15  18
HETATM   18  C   UNL     1      -2.920   5.349 -31.266  1.00  0.00     0.036 A 
HETATM   19  C   UNL     1      -1.585   4.970 -31.399  1.00  0.00     0.036 A 
HETATM   20  C   UNL     1      -0.575   5.677 -30.725  1.00  0.00    -0.059 A 
HETATM   21  C   UNL     1       0.857   5.253 -30.864  1.00  0.00     0.048 C 
HETATM   22  C   UNL     1      -0.913   6.801 -29.958  1.00  0.00     0.013 A 
HETATM   23  C   UNL     1      -2.247   7.191 -29.812  1.00  0.00    -0.059 A 
HETATM   24  C   UNL     1      -3.242   6.451 -30.462  1.00  0.00     0.036 A 
HETATM   25  C   UNL     1      -2.608   8.422 -29.037  1.00  0.00     0.048 C 
ENDBRANCH  15  18
ENDBRANCH   1  14
BRANCH   2  26
HETATM   26  N   UNL     1      -7.795   5.556 -34.077  1.00  0.00    -0.286 NA
HETATM   27  H   UNL     1      -8.455   5.464 -34.855  1.00  0.00     0.125 HD
HETATM   28  H   UNL     1      -8.329   5.968 -33.299  1.00  0.00     0.125 HD
ENDBRANCH   2  26
BRANCH   3  29
HETATM   29  N   UNL     1      -9.177   3.154 -34.140  1.00  0.00    -0.176 NA
HETATM   30  C   UNL     1     -10.004   3.010 -33.158  1.00  0.00     0.153 C 
BRANCH  30  31
HETATM   31  C   UNL     1     -11.422   2.989 -33.453  1.00  0.00     0.011 A 
HETATM   32  C   UNL     1     -12.264   1.838 -33.591  1.00  0.00     0.004 A 
HETATM   33  C   UNL     1     -13.558   2.297 -33.846  1.00  0.00     0.043 A 
HETATM   34  C   UNL     1     -12.053   0.446 -33.500  1.00  0.00     0.014 A 
HETATM   35  C   UNL     1     -14.648   1.436 -34.018  1.00  0.00     0.030 A 
HETATM   36  N   UNL     1     -13.504   3.670 -33.876  1.00  0.00    -0.364 N 
HETATM   37  C   UNL     1     -14.412   0.062 -33.922  1.00  0.00     0.002 A 
HETATM   38  C   UNL     1     -13.134  -0.428 -33.666  1.00  0.00     0.001 A 
HETATM   39  H   UNL     1     -14.299   4.272 -34.042  1.00  0.00     0.165 HD
HETATM   40  C   UNL     1     -12.229   4.098 -33.629  1.00  0.00     0.102 A 
ENDBRANCH  30  31
ENDBRANCH   3  29
TORSDOF 5
ENDMDL
MODEL 3
REMARK VINA RESULT:     -10.6      2.163      8.675
REMARK  5 active torsions:
REMARK  status: ('A' for Active; 'I' for Inactive)
REMARK    1  A    between atoms: C_4  and  N_5 
REMARK       I    between atoms: N_5  and  C_6 
REMARK    2  A    between atoms: C_6  and  C_7 
REMARK    3  A    between atoms: C_8  and  N_9 
REMARK    4  A    between atoms: N_10  and  N_11 
REMARK    5  A    between atoms: C_12  and  C_13 
ROOT
HETATM    1  C   UNL     1      -8.489   0.678 -32.573  1.00  0.00     0.105 C 
HETATM    2  C   UNL     1      -7.734   1.614 -31.875  1.00  0.00     0.123 C 
HETATM    3  N   UNL     1      -6.391   1.428 -32.168  1.00  0.00    -0.202 N 
HETATM    4  C   UNL     1      -6.262   0.232 -32.849  1.00  0.00     0.183 A 
HETATM    5  C   UNL     1      -7.545  -0.238 -33.121  1.00  0.00     0.124 A 
HETATM    6  N   UNL     1      -7.725  -1.406 -33.794  1.00  0.00    -0.242 NA
HETATM    7  C   UNL     1      -6.601  -2.075 -34.092  1.00  0.00     0.086 A 
HETATM    8  C   UNL     1      -5.308  -1.578 -33.783  1.00  0.00     0.088 A 
HETATM    9  N   UNL     1      -5.108  -0.398 -33.177  1.00  0.00    -0.225 NA
HETATM   10  C   UNL     1      -6.711  -3.313 -34.713  1.00  0.00     0.034 A 
HETATM   11  C   UNL     1      -5.586  -4.079 -35.024  1.00  0.00     0.002 A 
HETATM   12  C   UNL     1      -4.323  -3.594 -34.718  1.00  0.00     0.002 A 
HETATM   13  C   UNL     1      -4.197  -2.346 -34.105  1.00  0.00     0.034 A 
ENDROOT
BRANCH   1  14
HETATM   14  C   UNL     1      -9.951   0.645 -32.690  1.00  0.00     0.262 C 
HETATM   15  N   UNL     1     -10.506   1.910 -32.773  1.00  0.00    -0.323 N 
HETATM   16  H   UNL     1      -9.835   2.674 -32.728  1.00  0.00     0.169 HD
HETATM   17  O   UNL     1     -10.582  -0.405 -32.712  1.00  0.00    -0.267 OA
BRANCH  15  18
HETATM   18  C   UNL     1     -11.852   2.288 -32.895  1.00  0.00     0.036 A 
HETATM   19  C   UNL     1     -12.369   3.510 -32.466  1.00  0.00     0.036 A 
HETATM   20  C   UNL     1     -13.737   3.794 -32.611  1.00  0.00    -0.059 A 
HETATM   21  C   UNL     1     -14.283   5.107 -32.134  1.00  0.00     0.048 C 
HETATM   22  C   UNL     1     -14.573   2.861 -33.239  1.00  0.00     0.013 A 
HETATM   23  C   UNL     1     -14.072   1.630 -33.671  1.00  0.00    -0.059 A 
HETATM   24  C   UNL     1     -12.713   1.351 -33.484  1.00  0.00     0.036 A 
HETATM   25  C   UNL     1     -14.951   0.652 -34.390  1.00  0.00     0.048 C 
ENDBRANCH  15  18
ENDBRANCH   1  14
BRANCH   2  26
HETATM   26  N   UNL     1      -8.111   2.640 -31.042  1.00  0.00    -0.286 NA
HETATM   27  H   UNL     1      -8.185   3.556 -31.494  1.00  0.00     0.125 HD
HETATM   28  H   UNL     1      -9.025   2.467 -30.599  1.00  0.00     0.125 HD
ENDBRANCH   2  26
BRANCH   3  29
HETATM   29  N   UNL     1      -5.440   2.300 -31.703  1.00  0.00    -0.176 NA
HETATM   30  C   UNL     1      -5.018   3.165 -32.565  1.00  0.00     0.153 C 
BRANCH  30  31
HETATM   31  C   UNL     1      -4.029   4.133 -32.136  1.00  0.00     0.011 A 
HETATM   32  C   UNL     1      -3.031   4.771 -32.942  1.00  0.00     0.004 A 
HETATM   33  C   UNL     1      -2.323   5.645 -32.114  1.00  0.00     0.043 A 
HETATM   34  C   UNL     1      -2.675   4.705 -34.306  1.00  0.00     0.014 A 
HETATM   35  C   UNL     1      -1.278   6.452 -32.580  1.00  0.00     0.030 A 
HETATM   36  N   UNL     1      -2.860   5.535 -30.854  1.00  0.00    -0.364 N 
HETATM   37  C   UNL     1      -0.948   6.369 -33.935  1.00  0.00     0.002 A 
HETATM   38  C   UNL     1      -1.635   5.508 -34.788  1.00  0.00     0.001 A 
HETATM   39  H   UNL     1      -2.540   6.055 -30.047  1.00  0.00     0.165 HD
HETATM   40  C   UNL     1      -3.892   4.638 -30.856  1.00  0.00     0.102 A 
ENDBRANCH  30  31
ENDBRANCH   3  29
TORSDOF 5
ENDMDL
MODEL 4
REMARK VINA RESULT:     -10.6      1.808      8.802
REMARK  5 active torsions:
REMARK  status: ('A' for Active; 'I' for Inactive)
REMARK    1  A    between atoms: C_4  and  N_5 
REMARK       I    between atoms: N_5  and  C_6 
REMARK    2  A    between atoms: C_6  and  C_7 
REMARK    3  A    between atoms: C_8  and  N_9 
REMARK    4  A    between atoms: N_10  and  N_11 
REMARK    5  A    between atoms: C_12  and  C_13 
ROOT
HETATM    1  C   UNL     1      -7.573   1.977 -32.170  1.00  0.00     0.105 C 
HETATM    2  C   UNL     1      -6.499   2.796 -31.835  1.00  0.00     0.123 C 
HETATM    3  N   UNL     1      -5.352   2.319 -32.453  1.00  0.00    -0.202 N 
HETATM    4  C   UNL     1      -5.632   1.071 -32.976  1.00  0.00     0.183 A 
HETATM    5  C   UNL     1      -7.000   0.849 -32.825  1.00  0.00     0.124 A 
HETATM    6  N   UNL     1      -7.564  -0.309 -33.259  1.00  0.00    -0.242 NA
HETATM    7  C   UNL     1      -6.706  -1.213 -33.757  1.00  0.00     0.086 A 
HETATM    8  C   UNL     1      -5.315  -0.964 -33.879  1.00  0.00     0.088 A 
HETATM    9  N   UNL     1      -4.749   0.198 -33.515  1.00  0.00    -0.225 NA
HETATM   10  C   UNL     1      -7.201  -2.450 -34.153  1.00  0.00     0.034 A 
HETATM   11  C   UNL     1      -6.363  -3.449 -34.650  1.00  0.00     0.002 A 
HETATM   12  C   UNL     1      -5.002  -3.206 -34.765  1.00  0.00     0.002 A 
HETATM   13  C   UNL     1      -4.493  -1.963 -34.384  1.00  0.00     0.034 A 
ENDROOT
BRANCH   1  14
HETATM   14  C   UNL     1      -8.989   2.231 -31.882  1.00  0.00     0.262 C 
HETATM   15  N   UNL     1      -9.794   2.079 -32.998  1.00  0.00    -0.323 N 
HETATM   16  H   UNL     1      -9.297   1.831 -33.851  1.00  0.00     0.169 HD
HETATM   17  O   UNL     1      -9.384   2.539 -30.765  1.00  0.00    -0.267 OA
BRANCH  15  18
HETATM   18  C   UNL     1     -11.183   2.232 -33.124  1.00  0.00     0.036 A 
HETATM   19  C   UNL     1     -11.858   3.443 -32.976  1.00  0.00     0.036 A 
HETATM   20  C   UNL     1     -13.256   3.498 -33.100  1.00  0.00    -0.059 A 
HETATM   21  C   UNL     1     -13.973   4.804 -32.925  1.00  0.00     0.048 C 
HETATM   22  C   UNL     1     -13.967   2.334 -33.426  1.00  0.00     0.013 A 
HETATM   23  C   UNL     1     -13.305   1.112 -33.574  1.00  0.00    -0.059 A 
HETATM   24  C   UNL     1     -11.916   1.071 -33.410  1.00  0.00     0.036 A 
HETATM   25  C   UNL     1     -14.054  -0.123 -33.975  1.00  0.00     0.048 C 
ENDBRANCH  15  18
ENDBRANCH   1  14
BRANCH   2  26
HETATM   26  N   UNL     1      -6.436   3.941 -31.078  1.00  0.00    -0.286 NA
HETATM   27  H   UNL     1      -6.743   4.792 -31.559  1.00  0.00     0.125 HD
HETATM   28  H   UNL     1      -7.010   3.876 -30.224  1.00  0.00     0.125 HD
ENDBRANCH   2  26
BRANCH   3  29
HETATM   29  N   UNL     1      -4.173   3.017 -32.384  1.00  0.00    -0.176 NA
HETATM   30  C   UNL     1      -4.040   3.961 -33.256  1.00  0.00     0.153 C 
BRANCH  30  31
HETATM   31  C   UNL     1      -2.829   4.755 -33.228  1.00  0.00     0.011 A 
HETATM   32  C   UNL     1      -2.343   5.562 -32.148  1.00  0.00     0.004 A 
HETATM   33  C   UNL     1      -1.130   6.120 -32.558  1.00  0.00     0.043 A 
HETATM   34  C   UNL     1      -2.809   5.853 -30.848  1.00  0.00     0.014 A 
HETATM   35  C   UNL     1      -0.364   6.956 -31.737  1.00  0.00     0.030 A 
HETATM   36  N   UNL     1      -0.894   5.682 -33.839  1.00  0.00    -0.364 N 
HETATM   37  C   UNL     1      -0.847   7.226 -30.454  1.00  0.00     0.002 A 
HETATM   38  C   UNL     1      -2.052   6.684 -30.014  1.00  0.00     0.001 A 
HETATM   39  H   UNL     1      -0.083   5.931 -34.390  1.00  0.00     0.165 HD
HETATM   40  C   UNL     1      -1.901   4.853 -34.249  1.00  0.00     0.102 A 
ENDBRANCH  30  31
ENDBRANCH   3  29
TORSDOF 5
ENDMDL
MODEL 5
REMARK VINA RESULT:     -10.5      1.746      8.864
REMARK  5 active torsions:
REMARK  status: ('A' for Active; 'I' for Inactive)
REMARK    1  A    between atoms: C_4  and  N_5 
REMARK       I    between atoms: N_5  and  C_6 
REMARK    2  A    between atoms: C_6  and  C_7 
REMARK    3  A    between atoms: C_8  and  N_9 
REMARK    4  A    between atoms: N_10  and  N_11 
REMARK    5  A    between atoms: C_12  and  C_13 
ROOT
HETATM    1  C   UNL     1      -7.336   2.438 -32.190  1.00  0.00     0.105 C 
HETATM    2  C   UNL     1      -6.386   3.202 -31.519  1.00  0.00     0.123 C 
HETATM    3  N   UNL     1      -5.121   2.707 -31.802  1.00  0.00    -0.202 N 
HETATM    4  C   UNL     1      -5.269   1.492 -32.445  1.00  0.00     0.183 A 
HETATM    5  C   UNL     1      -6.626   1.316 -32.706  1.00  0.00     0.124 A 
HETATM    6  N   UNL     1      -7.068   0.199 -33.341  1.00  0.00    -0.242 NA
HETATM    7  C   UNL     1      -6.124  -0.716 -33.614  1.00  0.00     0.086 A 
HETATM    8  C   UNL     1      -4.752  -0.515 -33.317  1.00  0.00     0.088 A 
HETATM    9  N   UNL     1      -4.288   0.609 -32.748  1.00  0.00    -0.225 NA
HETATM   10  C   UNL     1      -6.515  -1.917 -34.196  1.00  0.00     0.034 A 
HETATM   11  C   UNL     1      -5.593  -2.926 -34.479  1.00  0.00     0.002 A 
HETATM   12  C   UNL     1      -4.252  -2.730 -34.185  1.00  0.00     0.002 A 
HETATM   13  C   UNL     1      -3.844  -1.524 -33.611  1.00  0.00     0.034 A 
ENDROOT
BRANCH   1  14
HETATM   14  C   UNL     1      -8.768   2.734 -32.311  1.00  0.00     0.262 C 
HETATM   15  N   UNL     1      -9.346   2.120 -33.409  1.00  0.00    -0.323 N 
HETATM   16  H   UNL     1      -8.705   1.572 -33.977  1.00  0.00     0.169 HD
HETATM   17  O   UNL     1      -9.359   3.447 -31.509  1.00  0.00    -0.267 OA
BRANCH  15  18
HETATM   18  C   UNL     1     -10.676   2.160 -33.855  1.00  0.00     0.036 A 
HETATM   19  C   UNL     1     -11.603   1.136 -33.660  1.00  0.00     0.036 A 
HETATM   20  C   UNL     1     -12.910   1.255 -34.162  1.00  0.00    -0.059 A 
HETATM   21  C   UNL     1     -13.894   0.141 -33.957  1.00  0.00     0.048 C 
HETATM   22  C   UNL     1     -13.294   2.433 -34.815  1.00  0.00     0.013 A 
HETATM   23  C   UNL     1     -12.377   3.467 -35.022  1.00  0.00    -0.059 A 
HETATM   24  C   UNL     1     -11.068   3.315 -34.548  1.00  0.00     0.036 A 
HETATM   25  C   UNL     1     -12.798   4.750 -35.673  1.00  0.00     0.048 C 
ENDBRANCH  15  18
ENDBRANCH   1  14
BRANCH   2  26
HETATM   26  N   UNL     1      -6.518   4.312 -30.720  1.00  0.00    -0.286 NA
HETATM   27  H   UNL     1      -6.078   5.161 -31.088  1.00  0.00     0.125 HD
HETATM   28  H   UNL     1      -7.504   4.555 -30.549  1.00  0.00     0.125 HD
ENDBRANCH   2  26
BRANCH   3  29
HETATM   29  N   UNL     1      -3.996   3.356 -31.362  1.00  0.00    -0.176 NA
HETATM   30  C   UNL     1      -3.556   4.286 -32.142  1.00  0.00     0.153 C 
BRANCH  30  31
HETATM   31  C   UNL     1      -2.383   5.030 -31.730  1.00  0.00     0.011 A 
HETATM   32  C   UNL     1      -2.311   6.056 -30.732  1.00  0.00     0.004 A 
HETATM   33  C   UNL     1      -0.978   6.467 -30.653  1.00  0.00     0.043 A 
HETATM   34  C   UNL     1      -3.250   6.660 -29.870  1.00  0.00     0.014 A 
HETATM   35  C   UNL     1      -0.540   7.452 -29.760  1.00  0.00     0.030 A 
HETATM   36  N   UNL     1      -0.271   5.731 -31.574  1.00  0.00    -0.364 N 
HETATM   37  C   UNL     1      -1.490   8.032 -28.916  1.00  0.00     0.002 A 
HETATM   38  C   UNL     1      -2.827   7.644 -28.968  1.00  0.00     0.001 A 
HETATM   39  H   UNL     1       0.723   5.820 -31.736  1.00  0.00     0.165 HD
HETATM   40  C   UNL     1      -1.101   4.857 -32.219  1.00  0.00     0.102 A 
ENDBRANCH  30  31
ENDBRANCH   3  29
TORSDOF 5
ENDMDL
MODEL 6
REMARK VINA RESULT:     -10.5      3.680      8.483
REMARK  5 active torsions:
REMARK  status: ('A' for Active; 'I' for Inactive)
REMARK    1  A    between atoms: C_4  and  N_5 
REMARK       I    between atoms: N_5  and  C_6 
REMARK    2  A    between atoms: C_6  and  C_7 
REMARK    3  A    between atoms: C_8  and  N_9 
REMARK    4  A    between atoms: N_10  and  N_11 
REMARK    5  A    between atoms: C_12  and  C_13 
ROOT
HETATM    1  C   UNL     1      -9.655   4.550 -34.221  1.00  0.00     0.105 C 
HETATM    2  C   UNL     1      -8.404   3.956 -34.091  1.00  0.00     0.123 C 
HETATM    3  N   UNL     1      -8.545   2.577 -34.155  1.00  0.00    -0.202 N 
HETATM    4  C   UNL     1      -9.893   2.279 -34.076  1.00  0.00     0.183 A 
HETATM    5  C   UNL     1     -10.594   3.482 -34.131  1.00  0.00     0.124 A 
HETATM    6  N   UNL     1     -11.952   3.493 -34.080  1.00  0.00    -0.242 NA
HETATM    7  C   UNL     1     -12.529   2.294 -33.901  1.00  0.00     0.086 A 
HETATM    8  C   UNL     1     -11.785   1.089 -33.828  1.00  0.00     0.088 A 
HETATM    9  N   UNL     1     -10.448   1.051 -33.942  1.00  0.00    -0.225 NA
HETATM   10  C   UNL     1     -13.911   2.237 -33.764  1.00  0.00     0.034 A 
HETATM   11  C   UNL     1     -14.575   1.029 -33.544  1.00  0.00     0.002 A 
HETATM   12  C   UNL     1     -13.846  -0.149 -33.470  1.00  0.00     0.002 A 
HETATM   13  C   UNL     1     -12.458  -0.107 -33.618  1.00  0.00     0.034 A 
ENDROOT
BRANCH   1  14
HETATM   14  C   UNL     1      -9.930   5.981 -34.393  1.00  0.00     0.262 C 
HETATM   15  N   UNL     1     -10.690   6.245 -35.519  1.00  0.00    -0.323 N 
HETATM   16  H   UNL     1     -10.935   5.425 -36.069  1.00  0.00     0.169 HD
HETATM   17  O   UNL     1      -9.520   6.825 -33.605  1.00  0.00    -0.267 OA
BRANCH  15  18
HETATM   18  C   UNL     1     -11.153   7.474 -36.015  1.00  0.00     0.036 A 
HETATM   19  C   UNL     1     -12.364   8.062 -35.654  1.00  0.00     0.036 A 
HETATM   20  C   UNL     1     -12.756   9.287 -36.218  1.00  0.00    -0.059 A 
HETATM   21  C   UNL     1     -14.068   9.904 -35.832  1.00  0.00     0.048 C 
HETATM   22  C   UNL     1     -11.897   9.943 -37.110  1.00  0.00     0.013 A 
HETATM   23  C   UNL     1     -10.681   9.365 -37.486  1.00  0.00    -0.059 A 
HETATM   24  C   UNL     1     -10.325   8.126 -36.940  1.00  0.00     0.036 A 
HETATM   25  C   UNL     1      -9.736  10.087 -38.398  1.00  0.00     0.048 C 
ENDBRANCH  15  18
ENDBRANCH   1  14
BRANCH   2  26
HETATM   26  N   UNL     1      -7.151   4.505 -33.966  1.00  0.00    -0.286 NA
HETATM   27  H   UNL     1      -7.134   5.527 -33.899  1.00  0.00     0.125 HD
HETATM   28  H   UNL     1      -6.655   4.158 -33.132  1.00  0.00     0.125 HD
ENDBRANCH   2  26
BRANCH   3  29
HETATM   29  N   UNL     1      -7.447   1.757 -34.174  1.00  0.00    -0.176 NA
HETATM   30  C   UNL     1      -7.231   1.101 -33.082  1.00  0.00     0.153 C 
BRANCH  30  31
HETATM   31  C   UNL     1      -6.099   0.197 -33.038  1.00  0.00     0.011 A 
HETATM   32  C   UNL     1      -5.986  -1.085 -33.667  1.00  0.00     0.004 A 
HETATM   33  C   UNL     1      -4.713  -1.581 -33.375  1.00  0.00     0.043 A 
HETATM   34  C   UNL     1      -6.837  -1.863 -34.480  1.00  0.00     0.014 A 
HETATM   35  C   UNL     1      -4.252  -2.815 -33.850  1.00  0.00     0.030 A 
HETATM   36  N   UNL     1      -4.083  -0.646 -32.589  1.00  0.00    -0.364 N 
HETATM   37  C   UNL     1      -5.115  -3.564 -34.654  1.00  0.00     0.002 A 
HETATM   38  C   UNL     1      -6.389  -3.097 -34.966  1.00  0.00     0.001 A 
HETATM   39  H   UNL     1      -3.144  -0.742 -32.225  1.00  0.00     0.165 HD
HETATM   40  C   UNL     1      -4.900   0.431 -32.388  1.00  0.00     0.102 A 
ENDBRANCH  30  31
ENDBRANCH   3  29
TORSDOF 5
ENDMDL
MODEL 7
REMARK VINA RESULT:     -10.5      3.645      7.596
REMARK  5 active torsions:
REMARK  status: ('A' for Active; 'I' for Inactive)
REMARK    1  A    between atoms: C_4  and  N_5 
REMARK       I    between atoms: N_5  and  C_6 
REMARK    2  A    between atoms: C_6  and  C_7 
REMARK    3  A    between atoms: C_8  and  N_9 
REMARK    4  A    between atoms: N_10  and  N_11 
REMARK    5  A    between atoms: C_12  and  C_13 
ROOT
HETATM    1  C   UNL     1      -8.602   3.023 -33.654  1.00  0.00     0.105 C 
HETATM    2  C   UNL     1      -8.707   4.380 -33.944  1.00  0.00     0.123 C 
HETATM    3  N   UNL     1     -10.039   4.761 -33.864  1.00  0.00    -0.202 N 
HETATM    4  C   UNL     1     -10.809   3.617 -33.768  1.00  0.00     0.183 A 
HETATM    5  C   UNL     1      -9.941   2.537 -33.622  1.00  0.00     0.124 A 
HETATM    6  N   UNL     1     -10.426   1.274 -33.497  1.00  0.00    -0.242 NA
HETATM    7  C   UNL     1     -11.759   1.158 -33.601  1.00  0.00     0.086 A 
HETATM    8  C   UNL     1     -12.614   2.277 -33.770  1.00  0.00     0.088 A 
HETATM    9  N   UNL     1     -12.159   3.538 -33.831  1.00  0.00    -0.225 NA
HETATM   10  C   UNL     1     -12.320  -0.113 -33.558  1.00  0.00     0.034 A 
HETATM   11  C   UNL     1     -13.695  -0.311 -33.691  1.00  0.00     0.002 A 
HETATM   12  C   UNL     1     -14.530   0.784 -33.860  1.00  0.00     0.002 A 
HETATM   13  C   UNL     1     -13.982   2.067 -33.892  1.00  0.00     0.034 A 
ENDROOT
BRANCH   1  14
HETATM   14  C   UNL     1      -7.362   2.267 -33.447  1.00  0.00     0.262 C 
HETATM   15  N   UNL     1      -7.486   0.935 -33.801  1.00  0.00    -0.323 N 
HETATM   16  H   UNL     1      -8.409   0.667 -34.136  1.00  0.00     0.169 HD
HETATM   17  O   UNL     1      -6.344   2.788 -33.009  1.00  0.00    -0.267 OA
BRANCH  15  18
HETATM   18  C   UNL     1      -6.534  -0.095 -33.750  1.00  0.00     0.036 A 
HETATM   19  C   UNL     1      -5.315  -0.007 -33.079  1.00  0.00     0.036 A 
HETATM   20  C   UNL     1      -4.413  -1.084 -33.099  1.00  0.00    -0.059 A 
HETATM   21  C   UNL     1      -3.098  -0.972 -32.385  1.00  0.00     0.048 C 
HETATM   22  C   UNL     1      -4.768  -2.270 -33.755  1.00  0.00     0.013 A 
HETATM   23  C   UNL     1      -5.985  -2.373 -34.434  1.00  0.00    -0.059 A 
HETATM   24  C   UNL     1      -6.855  -1.276 -34.434  1.00  0.00     0.036 A 
HETATM   25  C   UNL     1      -6.392  -3.658 -35.092  1.00  0.00     0.048 C 
ENDBRANCH  15  18
ENDBRANCH   1  14
BRANCH   2  26
HETATM   26  N   UNL     1      -7.747   5.320 -34.231  1.00  0.00    -0.286 NA
HETATM   27  H   UNL     1      -7.086   5.505 -33.470  1.00  0.00     0.125 HD
HETATM   28  H   UNL     1      -7.176   5.059 -35.047  1.00  0.00     0.125 HD
ENDBRANCH   2  26
BRANCH   3  29
HETATM   29  N   UNL     1     -10.403   6.078 -33.988  1.00  0.00    -0.176 NA
HETATM   30  C   UNL     1     -10.879   6.411 -35.142  1.00  0.00     0.153 C 
BRANCH  30  31
HETATM   31  C   UNL     1     -11.306   7.782 -35.338  1.00  0.00     0.011 A 
HETATM   32  C   UNL     1     -10.917   8.670 -36.392  1.00  0.00     0.004 A 
HETATM   33  C   UNL     1     -11.596   9.874 -36.193  1.00  0.00     0.043 A 
HETATM   34  C   UNL     1     -10.067   8.558 -37.513  1.00  0.00     0.014 A 
HETATM   35  C   UNL     1     -11.466  10.970 -37.054  1.00  0.00     0.030 A 
HETATM   36  N   UNL     1     -12.356   9.729 -35.057  1.00  0.00    -0.364 N 
HETATM   37  C   UNL     1     -10.619  10.832 -38.158  1.00  0.00     0.002 A 
HETATM   38  C   UNL     1      -9.929   9.644 -38.386  1.00  0.00     0.001 A 
HETATM   39  H   UNL     1     -12.954  10.448 -34.672  1.00  0.00     0.165 HD
HETATM   40  C   UNL     1     -12.200   8.473 -34.541  1.00  0.00     0.102 A 
ENDBRANCH  30  31
ENDBRANCH   3  29
TORSDOF 5
ENDMDL
MODEL 8
REMARK VINA RESULT:     -10.4      1.959      2.577
REMARK  5 active torsions:
REMARK  status: ('A' for Active; 'I' for Inactive)
REMARK    1  A    between atoms: C_4  and  N_5 
REMARK       I    between atoms: N_5  and  C_6 
REMARK    2  A    between atoms: C_6  and  C_7 
REMARK    3  A    between atoms: C_8  and  N_9 
REMARK    4  A    between atoms: N_10  and  N_11 
REMARK    5  A    between atoms: C_12  and  C_13 
ROOT
HETATM    1  C   UNL     1      -7.238   2.951 -33.106  1.00  0.00     0.105 C 
HETATM    2  C   UNL     1      -8.625   3.032 -33.035  1.00  0.00     0.123 C 
HETATM    3  N   UNL     1      -9.155   1.751 -32.980  1.00  0.00    -0.202 N 
HETATM    4  C   UNL     1      -8.141   0.855 -33.261  1.00  0.00     0.183 A 
HETATM    5  C   UNL     1      -6.949   1.574 -33.327  1.00  0.00     0.124 A 
HETATM    6  N   UNL     1      -5.775   0.942 -33.587  1.00  0.00    -0.242 NA
HETATM    7  C   UNL     1      -5.874  -0.373 -33.839  1.00  0.00     0.086 A 
HETATM    8  C   UNL     1      -7.107  -1.073 -33.784  1.00  0.00     0.088 A 
HETATM    9  N   UNL     1      -8.267  -0.478 -33.466  1.00  0.00    -0.225 NA
HETATM   10  C   UNL     1      -4.723  -1.070 -34.186  1.00  0.00     0.034 A 
HETATM   11  C   UNL     1      -4.757  -2.432 -34.493  1.00  0.00     0.002 A 
HETATM   12  C   UNL     1      -5.964  -3.114 -34.442  1.00  0.00     0.002 A 
HETATM   13  C   UNL     1      -7.125  -2.429 -34.083  1.00  0.00     0.034 A 
ENDROOT
BRANCH   1  14
HETATM   14  C   UNL     1      -6.290   4.066 -32.994  1.00  0.00     0.262 C 
HETATM   15  N   UNL     1      -4.976   3.640 -32.919  1.00  0.00    -0.323 N 
HETATM   16  H   UNL     1      -4.853   2.630 -32.937  1.00  0.00     0.169 HD
HETATM   17  O   UNL     1      -6.656   5.235 -32.974  1.00  0.00    -0.267 OA
BRANCH  15  18
HETATM   18  C   UNL     1      -3.798   4.395 -32.807  1.00  0.00     0.036 A 
HETATM   19  C   UNL     1      -2.908   4.626 -33.855  1.00  0.00     0.036 A 
HETATM   20  C   UNL     1      -1.741   5.379 -33.644  1.00  0.00    -0.059 A 
HETATM   21  C   UNL     1      -0.784   5.609 -34.776  1.00  0.00     0.048 C 
HETATM   22  C   UNL     1      -1.502   5.943 -32.384  1.00  0.00     0.013 A 
HETATM   23  C   UNL     1      -2.382   5.719 -31.322  1.00  0.00    -0.059 A 
HETATM   24  C   UNL     1      -3.520   4.934 -31.542  1.00  0.00     0.036 A 
HETATM   25  C   UNL     1      -2.158   6.364 -29.987  1.00  0.00     0.048 C 
ENDBRANCH  15  18
ENDBRANCH   1  14
BRANCH   2  26
HETATM   26  N   UNL     1      -9.466   4.117 -32.972  1.00  0.00    -0.286 NA
HETATM   27  H   UNL     1      -9.896   4.380 -33.864  1.00  0.00     0.125 HD
HETATM   28  H   UNL     1     -10.245   3.970 -32.314  1.00  0.00     0.125 HD
ENDBRANCH   2  26
BRANCH   3  29
HETATM   29  N   UNL     1     -10.497   1.551 -32.783  1.00  0.00    -0.176 NA
HETATM   30  C   UNL     1     -11.194   1.398 -33.860  1.00  0.00     0.153 C 
BRANCH  30  31
HETATM   31  C   UNL     1     -12.617   1.160 -33.728  1.00  0.00     0.011 A 
HETATM   32  C   UNL     1     -13.582   1.999 -33.081  1.00  0.00     0.004 A 
HETATM   33  C   UNL     1     -14.829   1.386 -33.224  1.00  0.00     0.043 A 
HETATM   34  C   UNL     1     -13.518   3.235 -32.405  1.00  0.00     0.014 A 
HETATM   35  C   UNL     1     -16.011   1.944 -32.723  1.00  0.00     0.030 A 
HETATM   36  N   UNL     1     -14.630   0.216 -33.918  1.00  0.00    -0.364 N 
HETATM   37  C   UNL     1     -15.919   3.171 -32.060  1.00  0.00     0.002 A 
HETATM   38  C   UNL     1     -14.691   3.809 -31.902  1.00  0.00     0.001 A 
HETATM   39  H   UNL     1     -15.362  -0.435 -34.166  1.00  0.00     0.165 HD
HETATM   40  C   UNL     1     -13.308   0.075 -34.236  1.00  0.00     0.102 A 
ENDBRANCH  30  31
ENDBRANCH   3  29
TORSDOF 5
ENDMDL
MODEL 9
REMARK VINA RESULT:     -10.4      2.121      9.205
REMARK  5 active torsions:
REMARK  status: ('A' for Active; 'I' for Inactive)
REMARK    1  A    between atoms: C_4  and  N_5 
REMARK       I    between atoms: N_5  and  C_6 
REMARK    2  A    between atoms: C_6  and  C_7 
REMARK    3  A    between atoms: C_8  and  N_9 
REMARK    4  A    between atoms: N_10  and  N_11 
REMARK    5  A    between atoms: C_12  and  C_13 
ROOT
HETATM    1  C   UNL     1      -6.521   1.851 -33.214  1.00  0.00     0.105 C 
HETATM    2  C   UNL     1      -5.406   2.652 -32.985  1.00  0.00     0.123 C 
HETATM    3  N   UNL     1      -5.793   3.985 -32.990  1.00  0.00    -0.202 N 
HETATM    4  C   UNL     1      -7.091   4.053 -33.462  1.00  0.00     0.183 A 
HETATM    5  C   UNL     1      -7.561   2.748 -33.592  1.00  0.00     0.124 A 
HETATM    6  N   UNL     1      -8.824   2.510 -34.035  1.00  0.00    -0.242 NA
HETATM    7  C   UNL     1      -9.520   3.600 -34.396  1.00  0.00     0.086 A 
HETATM    8  C   UNL     1      -9.004   4.915 -34.270  1.00  0.00     0.088 A 
HETATM    9  N   UNL     1      -7.784   5.174 -33.774  1.00  0.00    -0.225 NA
HETATM   10  C   UNL     1     -10.792   3.428 -34.930  1.00  0.00     0.034 A 
HETATM   11  C   UNL     1     -11.560   4.513 -35.354  1.00  0.00     0.002 A 
HETATM   12  C   UNL     1     -11.053   5.798 -35.235  1.00  0.00     0.002 A 
HETATM   13  C   UNL     1      -9.782   5.987 -34.689  1.00  0.00     0.034 A 
ENDROOT
BRANCH   1  14
HETATM   14  C   UNL     1      -6.585   0.389 -33.104  1.00  0.00     0.262 C 
HETATM   15  N   UNL     1      -5.528  -0.238 -33.740  1.00  0.00    -0.323 N 
HETATM   16  H   UNL     1      -4.873   0.391 -34.200  1.00  0.00     0.169 HD
HETATM   17  O   UNL     1      -7.487  -0.181 -32.504  1.00  0.00    -0.267 OA
BRANCH  15  18
HETATM   18  C   UNL     1      -5.242  -1.608 -33.854  1.00  0.00     0.036 A 
HETATM   19  C   UNL     1      -4.220  -2.258 -33.164  1.00  0.00     0.036 A 
HETATM   20  C   UNL     1      -3.993  -3.631 -33.356  1.00  0.00    -0.059 A 
HETATM   21  C   UNL     1      -2.882  -4.317 -32.618  1.00  0.00     0.048 C 
HETATM   22  C   UNL     1      -4.836  -4.357 -34.210  1.00  0.00     0.013 A 
HETATM   23  C   UNL     1      -5.862  -3.719 -34.912  1.00  0.00    -0.059 A 
HETATM   24  C   UNL     1      -6.048  -2.343 -34.735  1.00  0.00     0.036 A 
HETATM   25  C   UNL     1      -6.798  -4.501 -35.784  1.00  0.00     0.048 C 
ENDBRANCH  15  18
ENDBRANCH   1  14
BRANCH   2  26
HETATM   26  N   UNL     1      -4.096   2.326 -32.730  1.00  0.00    -0.286 NA
HETATM   27  H   UNL     1      -3.964   1.469 -32.186  1.00  0.00     0.125 HD
HETATM   28  H   UNL     1      -3.550   2.200 -33.595  1.00  0.00     0.125 HD
ENDBRANCH   2  26
BRANCH   3  29
HETATM   29  N   UNL     1      -4.904   4.977 -32.667  1.00  0.00    -0.176 NA
HETATM   30  C   UNL     1      -4.695   5.139 -31.403  1.00  0.00     0.153 C 
BRANCH  30  31
HETATM   31  C   UNL     1      -3.750   6.156 -30.988  1.00  0.00     0.011 A 
HETATM   32  C   UNL     1      -2.319   6.073 -31.008  1.00  0.00     0.004 A 
HETATM   33  C   UNL     1      -1.825   7.295 -30.547  1.00  0.00     0.043 A 
HETATM   34  C   UNL     1      -1.395   5.080 -31.397  1.00  0.00     0.014 A 
HETATM   35  C   UNL     1      -0.456   7.572 -30.452  1.00  0.00     0.030 A 
HETATM   36  N   UNL     1      -2.909   8.084 -30.246  1.00  0.00    -0.364 N 
HETATM   37  C   UNL     1       0.438   6.573 -30.846  1.00  0.00     0.002 A 
HETATM   38  C   UNL     1      -0.023   5.344 -31.312  1.00  0.00     0.001 A 
HETATM   39  H   UNL     1      -2.849   9.028 -29.888  1.00  0.00     0.165 HD
HETATM   40  C   UNL     1      -4.070   7.416 -30.517  1.00  0.00     0.102 A 
ENDBRANCH  30  31
ENDBRANCH   3  29
TORSDOF 5
ENDMDL
MODEL 10
REMARK VINA RESULT:     -10.3      2.456      8.656
REMARK  5 active torsions:
REMARK  status: ('A' for Active; 'I' for Inactive)
REMARK    1  A    between atoms: C_4  and  N_5 
REMARK       I    between atoms: N_5  and  C_6 
REMARK    2  A    between atoms: C_6  and  C_7 
REMARK    3  A    between atoms: C_8  and  N_9 
REMARK    4  A    between atoms: N_10  and  N_11 
REMARK    5  A    between atoms: C_12  and  C_13 
ROOT
HETATM    1  C   UNL     1      -6.827   3.636 -33.356  1.00  0.00     0.105 C 
HETATM    2  C   UNL     1      -6.682   2.261 -33.208  1.00  0.00     0.123 C 
HETATM    3  N   UNL     1      -5.432   1.990 -32.668  1.00  0.00    -0.202 N 
HETATM    4  C   UNL     1      -4.688   3.154 -32.702  1.00  0.00     0.183 A 
HETATM    5  C   UNL     1      -5.534   4.183 -33.109  1.00  0.00     0.124 A 
HETATM    6  N   UNL     1      -5.069   5.455 -33.226  1.00  0.00    -0.242 NA
HETATM    7  C   UNL     1      -3.755   5.608 -32.998  1.00  0.00     0.086 A 
HETATM    8  C   UNL     1      -2.916   4.534 -32.605  1.00  0.00     0.088 A 
HETATM    9  N   UNL     1      -3.370   3.285 -32.421  1.00  0.00    -0.225 NA
HETATM   10  C   UNL     1      -3.194   6.868 -33.173  1.00  0.00     0.034 A 
HETATM   11  C   UNL     1      -1.830   7.093 -32.984  1.00  0.00     0.002 A 
HETATM   12  C   UNL     1      -1.009   6.042 -32.603  1.00  0.00     0.002 A 
HETATM   13  C   UNL     1      -1.561   4.775 -32.412  1.00  0.00     0.034 A 
ENDROOT
BRANCH   1  14
HETATM   14  C   UNL     1      -8.057   4.352 -33.714  1.00  0.00     0.262 C 
HETATM   15  N   UNL     1      -9.192   3.743 -33.210  1.00  0.00    -0.323 N 
HETATM   16  H   UNL     1      -9.020   2.890 -32.682  1.00  0.00     0.169 HD
HETATM   17  O   UNL     1      -8.044   5.377 -34.385  1.00  0.00    -0.267 OA
BRANCH  15  18
HETATM   18  C   UNL     1     -10.538   4.121 -33.334  1.00  0.00     0.036 A 
HETATM   19  C   UNL     1     -11.114   4.606 -34.507  1.00  0.00     0.036 A 
HETATM   20  C   UNL     1     -12.468   4.980 -34.533  1.00  0.00    -0.059 A 
HETATM   21  C   UNL     1     -13.074   5.512 -35.798  1.00  0.00     0.048 C 
HETATM   22  C   UNL     1     -13.252   4.815 -33.383  1.00  0.00     0.013 A 
HETATM   23  C   UNL     1     -12.689   4.334 -32.198  1.00  0.00    -0.059 A 
HETATM   24  C   UNL     1     -11.329   4.001 -32.182  1.00  0.00     0.036 A 
HETATM   25  C   UNL     1     -13.535   4.106 -30.982  1.00  0.00     0.048 C 
ENDBRANCH  15  18
ENDBRANCH   1  14
BRANCH   2  26
HETATM   26  N   UNL     1      -7.552   1.227 -33.458  1.00  0.00    -0.286 NA
HETATM   27  H   UNL     1      -7.274   0.608 -34.225  1.00  0.00     0.125 HD
HETATM   28  H   UNL     1      -7.682   0.619 -32.636  1.00  0.00     0.125 HD
ENDBRANCH   2  26
BRANCH   3  29
HETATM   29  N   UNL     1      -5.082   0.714 -32.308  1.00  0.00    -0.176 NA
HETATM   30  C   UNL     1      -4.310   0.099 -33.141  1.00  0.00     0.153 C 
BRANCH  30  31
HETATM   31  C   UNL     1      -3.881  -1.246 -32.815  1.00  0.00     0.011 A 
HETATM   32  C   UNL     1      -4.291  -2.466 -33.445  1.00  0.00     0.004 A 
HETATM   33  C   UNL     1      -3.601  -3.509 -32.822  1.00  0.00     0.043 A 
HETATM   34  C   UNL     1      -5.167  -2.783 -34.504  1.00  0.00     0.014 A 
HETATM   35  C   UNL     1      -3.746  -4.848 -33.201  1.00  0.00     0.030 A 
HETATM   36  N   UNL     1      -2.814  -2.948 -31.844  1.00  0.00    -0.364 N 
HETATM   37  C   UNL     1      -4.619  -5.134 -34.254  1.00  0.00     0.002 A 
HETATM   38  C   UNL     1      -5.321  -4.117 -34.898  1.00  0.00     0.001 A 
HETATM   39  H   UNL     1      -2.203  -3.470 -31.230  1.00  0.00     0.165 HD
HETATM   40  C   UNL     1      -2.965  -1.589 -31.837  1.00  0.00     0.102 A 
ENDBRANCH  30  31
ENDBRANCH   3  29
TORSDOF 5
ENDMDL
