MODEL 1
REMARK VINA RESULT:      -7.9      0.000      0.000
REMARK  6 active torsions:
REMARK  status: ('A' for Active; 'I' for Inactive)
REMARK    1  A    between atoms: C_2  and  C_3 
REMARK    2  A    between atoms: C_2  and  C_9 
REMARK    3  A    between atoms: C_9  and  N_10 
REMARK       I    between atoms: N_10  and  C_11 
REMARK       I    between atoms: C_11  and  N_12 
REMARK    4  A    between atoms: N_12  and  C_13 
REMARK    5  A    between atoms: C_14  and  O_15 
REMARK    6  A    between atoms: O_15  and  C_16 
ROOT
HETATM    1  N   UNL     1      -3.638   0.012 -32.383  1.00  0.00    -0.342 N 
HETATM    2  C   UNL     1      -3.413   1.243 -31.843  1.00  0.00     0.320 C 
HETATM    3  N   UNL     1      -4.114   2.271 -32.411  1.00  0.00    -0.306 N 
HETATM    4  O   UNL     1      -2.671   1.334 -30.869  1.00  0.00    -0.247 OA
HETATM    5  H   UNL     1      -3.104  -0.708 -31.908  1.00  0.00     0.164 HD
HETATM    6  H   UNL     1      -5.035   1.998 -32.712  1.00  0.00     0.171 HD
ENDROOT
BRANCH   1   7
HETATM    7  C   UNL     1      -4.170  -0.334 -33.693  1.00  0.00     0.138 C 
BRANCH   7   8
HETATM    8  C   UNL     1      -5.612  -0.932 -33.703  1.00  0.00    -0.004 C 
HETATM    9  C   UNL     1      -6.442  -0.051 -34.674  1.00  0.00     0.021 C 
HETATM   10  C   UNL     1      -6.283  -0.767 -32.320  1.00  0.00     0.021 C 
BRANCH   8  11
HETATM   11  C   UNL     1      -5.600  -2.416 -34.124  1.00  0.00    -0.046 A 
HETATM   12  C   UNL     1      -6.713  -3.051 -34.691  1.00  0.00     0.027 A 
HETATM   13  C   UNL     1      -6.636  -4.397 -35.033  1.00  0.00     0.116 A 
HETATM   14  N   UNL     1      -5.537  -5.156 -34.864  1.00  0.00    -0.273 NA
HETATM   15  C   UNL     1      -4.464  -4.540 -34.333  1.00  0.00     0.116 A 
HETATM   16  C   UNL     1      -4.448  -3.203 -33.959  1.00  0.00     0.027 A 
ENDBRANCH   8  11
ENDBRANCH   7   8
ENDBRANCH   1   7
BRANCH   3  17
HETATM   17  C   UNL     1      -3.984   3.617 -31.997  1.00  0.00     0.070 A 
HETATM   18  C   UNL     1      -3.054   4.506 -32.559  1.00  0.00     0.101 A 
HETATM   19  C   UNL     1      -2.982   5.823 -32.093  1.00  0.00     0.039 A 
HETATM   20  C   UNL     1      -3.811   6.247 -31.054  1.00  0.00     0.003 A 
HETATM   21  C   UNL     1      -4.746   5.372 -30.506  1.00  0.00     0.002 A 
HETATM   22  C   UNL     1      -4.846   4.066 -30.989  1.00  0.00     0.032 A 
BRANCH  18  23
HETATM   23  O   UNL     1      -2.362   4.131 -33.683  1.00  0.00    -0.288 OA
BRANCH  23  24
HETATM   24  C   UNL     1      -2.271   5.186 -34.631  1.00  0.00     0.505 C 
HETATM   25  F   UNL     1      -1.226   4.902 -35.453  1.00  0.00    -0.184 F 
HETATM   26  F   UNL     1      -3.380   5.159 -35.419  1.00  0.00    -0.184 F 
ENDBRANCH  23  24
ENDBRANCH  18  23
ENDBRANCH   3  17
TORSDOF 6
ENDMDL
MODEL 2
REMARK VINA RESULT:      -7.8      6.066      8.112
REMARK  6 active torsions:
REMARK  status: ('A' for Active; 'I' for Inactive)
REMARK    1  A    between atoms: C_2  and  C_3 
REMARK    2  A    between atoms: C_2  and  C_9 
REMARK    3  A    between atoms: C_9  and  N_10 
REMARK       I    between atoms: N_10  and  C_11 
REMARK       I    between atoms: C_11  and  N_12 
REMARK    4  A    between atoms: N_12  and  C_13 
REMARK    5  A    between atoms: C_14  and  O_15 
REMARK    6  A    between atoms: O_15  and  C_16 
ROOT
HETATM    1  N   UNL     1      -9.209   0.738 -34.810  1.00  0.00    -0.342 N 
HETATM    2  C   UNL     1      -7.907   0.348 -34.708  1.00  0.00     0.320 C 
HETATM    3  N   UNL     1      -7.623  -0.485 -33.661  1.00  0.00    -0.306 N 
HETATM    4  O   UNL     1      -7.116   0.705 -35.576  1.00  0.00    -0.247 OA
HETATM    5  H   UNL     1      -9.359   1.338 -35.614  1.00  0.00     0.164 HD
HETATM    6  H   UNL     1      -8.372  -1.124 -33.454  1.00  0.00     0.171 HD
ENDROOT
BRANCH   1   7
HETATM    7  C   UNL     1     -10.247   0.753 -33.788  1.00  0.00     0.138 C 
BRANCH   7   8
HETATM    8  C   UNL     1     -11.000   2.108 -33.606  1.00  0.00    -0.004 C 
HETATM    9  C   UNL     1     -10.583   3.003 -34.804  1.00  0.00     0.021 C 
HETATM   10  C   UNL     1     -10.499   2.847 -32.344  1.00  0.00     0.021 C 
BRANCH   8  11
HETATM   11  C   UNL     1     -12.526   1.895 -33.538  1.00  0.00    -0.046 A 
HETATM   12  C   UNL     1     -13.366   2.683 -32.739  1.00  0.00     0.027 A 
HETATM   13  C   UNL     1     -14.732   2.425 -32.714  1.00  0.00     0.116 A 
HETATM   14  N   UNL     1     -15.329   1.453 -33.430  1.00  0.00    -0.273 NA
HETATM   15  C   UNL     1     -14.523   0.708 -34.209  1.00  0.00     0.116 A 
HETATM   16  C   UNL     1     -13.149   0.889 -34.295  1.00  0.00     0.027 A 
ENDBRANCH   8  11
ENDBRANCH   7   8
ENDBRANCH   1   7
BRANCH   3  17
HETATM   17  C   UNL     1      -6.321  -0.964 -33.387  1.00  0.00     0.070 A 
HETATM   18  C   UNL     1      -5.767  -2.086 -34.026  1.00  0.00     0.101 A 
HETATM   19  C   UNL     1      -4.472  -2.503 -33.699  1.00  0.00     0.039 A 
HETATM   20  C   UNL     1      -3.741  -1.825 -32.722  1.00  0.00     0.003 A 
HETATM   21  C   UNL     1      -4.282  -0.702 -32.099  1.00  0.00     0.002 A 
HETATM   22  C   UNL     1      -5.561  -0.261 -32.445  1.00  0.00     0.032 A 
BRANCH  18  23
HETATM   23  O   UNL     1      -6.424  -2.642 -35.094  1.00  0.00    -0.288 OA
BRANCH  23  24
HETATM   24  C   UNL     1      -6.594  -4.046 -34.944  1.00  0.00     0.505 C 
HETATM   25  F   UNL     1      -7.546  -4.237 -33.992  1.00  0.00    -0.184 F 
HETATM   26  F   UNL     1      -7.117  -4.545 -36.096  1.00  0.00    -0.184 F 
ENDBRANCH  23  24
ENDBRANCH  18  23
ENDBRANCH   3  17
TORSDOF 6
ENDMDL
MODEL 3
REMARK VINA RESULT:      -7.8      5.444      7.832
REMARK  6 active torsions:
REMARK  status: ('A' for Active; 'I' for Inactive)
REMARK    1  A    between atoms: C_2  and  C_3 
REMARK    2  A    between atoms: C_2  and  C_9 
REMARK    3  A    between atoms: C_9  and  N_10 
REMARK       I    between atoms: N_10  and  C_11 
REMARK       I    between atoms: C_11  and  N_12 
REMARK    4  A    between atoms: N_12  and  C_13 
REMARK    5  A    between atoms: C_14  and  O_15 
REMARK    6  A    between atoms: O_15  and  C_16 
ROOT
HETATM    1  N   UNL     1      -9.010   0.996 -34.733  1.00  0.00    -0.342 N 
HETATM    2  C   UNL     1      -7.869   0.271 -34.913  1.00  0.00     0.320 C 
HETATM    3  N   UNL     1      -7.718  -0.805 -34.083  1.00  0.00    -0.306 N 
HETATM    4  O   UNL     1      -7.111   0.584 -35.827  1.00  0.00    -0.247 OA
HETATM    5  H   UNL     1      -9.072   1.767 -35.388  1.00  0.00     0.164 HD
HETATM    6  H   UNL     1      -8.590  -1.258 -33.866  1.00  0.00     0.171 HD
ENDROOT
BRANCH   1   7
HETATM    7  C   UNL     1      -9.879   1.065 -33.567  1.00  0.00     0.138 C 
BRANCH   7   8
HETATM    8  C   UNL     1     -10.787   2.331 -33.472  1.00  0.00    -0.004 C 
HETATM    9  C   UNL     1     -10.450   3.203 -34.711  1.00  0.00     0.021 C 
HETATM   10  C   UNL     1     -10.403   3.190 -32.246  1.00  0.00     0.021 C 
BRANCH   8  11
HETATM   11  C   UNL     1     -12.280   1.947 -33.416  1.00  0.00    -0.046 A 
HETATM   12  C   UNL     1     -13.258   2.785 -32.864  1.00  0.00     0.027 A 
HETATM   13  C   UNL     1     -14.584   2.366 -32.833  1.00  0.00     0.116 A 
HETATM   14  N   UNL     1     -15.014   1.186 -33.318  1.00  0.00    -0.273 NA
HETATM   15  C   UNL     1     -14.076   0.389 -33.862  1.00  0.00     0.116 A 
HETATM   16  C   UNL     1     -12.728   0.720 -33.934  1.00  0.00     0.027 A 
ENDBRANCH   8  11
ENDBRANCH   7   8
ENDBRANCH   1   7
BRANCH   3  17
HETATM   17  C   UNL     1      -6.584  -1.649 -34.112  1.00  0.00     0.070 A 
HETATM   18  C   UNL     1      -5.349  -1.294 -33.546  1.00  0.00     0.101 A 
HETATM   19  C   UNL     1      -4.270  -2.182 -33.618  1.00  0.00     0.039 A 
HETATM   20  C   UNL     1      -4.411  -3.407 -34.273  1.00  0.00     0.003 A 
HETATM   21  C   UNL     1      -5.640  -3.768 -34.820  1.00  0.00     0.002 A 
HETATM   22  C   UNL     1      -6.729  -2.901 -34.722  1.00  0.00     0.032 A 
BRANCH  18  23
HETATM   23  O   UNL     1      -5.266  -0.168 -32.767  1.00  0.00    -0.288 OA
BRANCH  23  24
HETATM   24  C   UNL     1      -5.295  -0.475 -31.379  1.00  0.00     0.505 C 
HETATM   25  F   UNL     1      -4.647   0.528 -30.730  1.00  0.00    -0.184 F 
HETATM   26  F   UNL     1      -6.584  -0.422 -30.950  1.00  0.00    -0.184 F 
ENDBRANCH  23  24
ENDBRANCH  18  23
ENDBRANCH   3  17
TORSDOF 6
ENDMDL
MODEL 4
REMARK VINA RESULT:      -7.7      2.755      7.647
REMARK  6 active torsions:
REMARK  status: ('A' for Active; 'I' for Inactive)
REMARK    1  A    between atoms: C_2  and  C_3 
REMARK    2  A    between atoms: C_2  and  C_9 
REMARK    3  A    between atoms: C_9  and  N_10 
REMARK       I    between atoms: N_10  and  C_11 
REMARK       I    between atoms: C_11  and  N_12 
REMARK    4  A    between atoms: N_12  and  C_13 
REMARK    5  A    between atoms: C_14  and  O_15 
REMARK    6  A    between atoms: O_15  and  C_16 
ROOT
HETATM    1  N   UNL     1      -3.899   1.463 -31.555  1.00  0.00    -0.342 N 
HETATM    2  C   UNL     1      -4.610   0.353 -31.900  1.00  0.00     0.320 C 
HETATM    3  N   UNL     1      -4.402  -0.108 -33.171  1.00  0.00    -0.306 N 
HETATM    4  O   UNL     1      -5.316  -0.182 -31.050  1.00  0.00    -0.247 OA
HETATM    5  H   UNL     1      -4.083   1.744 -30.598  1.00  0.00     0.164 HD
HETATM    6  H   UNL     1      -3.453   0.016 -33.482  1.00  0.00     0.171 HD
ENDROOT
BRANCH   1   7
HETATM    7  C   UNL     1      -3.280   2.462 -32.415  1.00  0.00     0.138 C 
BRANCH   7   8
HETATM    8  C   UNL     1      -4.014   3.837 -32.496  1.00  0.00    -0.004 C 
HETATM    9  C   UNL     1      -4.489   4.163 -31.055  1.00  0.00     0.021 C 
HETATM   10  C   UNL     1      -5.305   3.720 -33.339  1.00  0.00     0.021 C 
BRANCH   8  11
HETATM   11  C   UNL     1      -3.092   4.932 -33.070  1.00  0.00    -0.046 A 
HETATM   12  C   UNL     1      -3.146   6.267 -32.646  1.00  0.00     0.027 A 
HETATM   13  C   UNL     1      -2.294   7.205 -33.219  1.00  0.00     0.116 A 
HETATM   14  N   UNL     1      -1.387   6.917 -34.171  1.00  0.00    -0.273 NA
HETATM   15  C   UNL     1      -1.325   5.632 -34.566  1.00  0.00     0.116 A 
HETATM   16  C   UNL     1      -2.137   4.627 -34.054  1.00  0.00     0.027 A 
ENDBRANCH   8  11
ENDBRANCH   7   8
ENDBRANCH   1   7
BRANCH   3  17
HETATM   17  C   UNL     1      -5.075  -1.230 -33.705  1.00  0.00     0.070 A 
HETATM   18  C   UNL     1      -6.459  -1.253 -33.944  1.00  0.00     0.101 A 
HETATM   19  C   UNL     1      -7.055  -2.403 -34.471  1.00  0.00     0.039 A 
HETATM   20  C   UNL     1      -6.284  -3.536 -34.736  1.00  0.00     0.003 A 
HETATM   21  C   UNL     1      -4.908  -3.510 -34.516  1.00  0.00     0.002 A 
HETATM   22  C   UNL     1      -4.303  -2.355 -34.021  1.00  0.00     0.032 A 
BRANCH  18  23
HETATM   23  O   UNL     1      -7.177  -0.088 -33.837  1.00  0.00    -0.288 OA
BRANCH  23  24
HETATM   24  C   UNL     1      -7.863   0.228 -35.041  1.00  0.00     0.505 C 
HETATM   25  F   UNL     1      -8.597   1.348 -34.805  1.00  0.00    -0.184 F 
HETATM   26  F   UNL     1      -6.946   0.579 -35.983  1.00  0.00    -0.184 F 
ENDBRANCH  23  24
ENDBRANCH  18  23
ENDBRANCH   3  17
TORSDOF 6
ENDMDL
MODEL 5
REMARK VINA RESULT:      -7.7      1.609      2.193
REMARK  6 active torsions:
REMARK  status: ('A' for Active; 'I' for Inactive)
REMARK    1  A    between atoms: C_2  and  C_3 
REMARK    2  A    between atoms: C_2  and  C_9 
REMARK    3  A    between atoms: C_9  and  N_10 
REMARK       I    between atoms: N_10  and  C_11 
REMARK       I    between atoms: C_11  and  N_12 
REMARK    4  A    between atoms: N_12  and  C_13 
REMARK    5  A    between atoms: C_14  and  O_15 
REMARK    6  A    between atoms: O_15  and  C_16 
ROOT
HETATM    1  N   UNL     1      -6.132   2.369 -33.898  1.00  0.00    -0.342 N 
HETATM    2  C   UNL     1      -5.522   3.522 -33.505  1.00  0.00     0.320 C 
HETATM    3  N   UNL     1      -4.566   3.381 -32.537  1.00  0.00    -0.306 N 
HETATM    4  O   UNL     1      -5.815   4.569 -34.076  1.00  0.00    -0.247 OA
HETATM    5  H   UNL     1      -6.816   2.537 -34.629  1.00  0.00     0.164 HD
HETATM    6  H   UNL     1      -4.046   2.524 -32.622  1.00  0.00     0.171 HD
ENDROOT
BRANCH   1   7
HETATM    7  C   UNL     1      -6.232   1.097 -33.197  1.00  0.00     0.138 C 
BRANCH   7   8
HETATM    8  C   UNL     1      -6.937  -0.056 -33.980  1.00  0.00    -0.004 C 
HETATM    9  C   UNL     1      -7.252   0.505 -35.392  1.00  0.00     0.021 C 
HETATM   10  C   UNL     1      -8.310  -0.384 -33.350  1.00  0.00     0.021 C 
BRANCH   8  11
HETATM   11  C   UNL     1      -6.052  -1.318 -34.036  1.00  0.00    -0.046 A 
HETATM   12  C   UNL     1      -4.808  -1.400 -33.397  1.00  0.00     0.027 A 
HETATM   13  C   UNL     1      -4.056  -2.565 -33.503  1.00  0.00     0.116 A 
HETATM   14  N   UNL     1      -4.451  -3.657 -34.184  1.00  0.00    -0.273 NA
HETATM   15  C   UNL     1      -5.653  -3.583 -34.784  1.00  0.00     0.116 A 
HETATM   16  C   UNL     1      -6.471  -2.461 -34.737  1.00  0.00     0.027 A 
ENDBRANCH   8  11
ENDBRANCH   7   8
ENDBRANCH   1   7
BRANCH   3  17
HETATM   17  C   UNL     1      -3.853   4.474 -31.990  1.00  0.00     0.070 A 
HETATM   18  C   UNL     1      -2.611   4.903 -32.485  1.00  0.00     0.101 A 
HETATM   19  C   UNL     1      -1.964   5.991 -31.889  1.00  0.00     0.039 A 
HETATM   20  C   UNL     1      -2.535   6.632 -30.789  1.00  0.00     0.003 A 
HETATM   21  C   UNL     1      -3.775   6.218 -30.307  1.00  0.00     0.002 A 
HETATM   22  C   UNL     1      -4.442   5.155 -30.918  1.00  0.00     0.032 A 
BRANCH  18  23
HETATM   23  O   UNL     1      -2.138   4.376 -33.661  1.00  0.00    -0.288 OA
BRANCH  23  24
HETATM   24  C   UNL     1      -2.070   5.351 -34.693  1.00  0.00     0.505 C 
HETATM   25  F   UNL     1      -0.965   5.075 -35.436  1.00  0.00    -0.184 F 
HETATM   26  F   UNL     1      -3.130   5.176 -35.527  1.00  0.00    -0.184 F 
ENDBRANCH  23  24
ENDBRANCH  18  23
ENDBRANCH   3  17
TORSDOF 6
ENDMDL
MODEL 6
REMARK VINA RESULT:      -7.6      6.124      8.492
REMARK  6 active torsions:
REMARK  status: ('A' for Active; 'I' for Inactive)
REMARK    1  A    between atoms: C_2  and  C_3 
REMARK    2  A    between atoms: C_2  and  C_9 
REMARK    3  A    between atoms: C_9  and  N_10 
REMARK       I    between atoms: N_10  and  C_11 
REMARK       I    between atoms: C_11  and  N_12 
REMARK    4  A    between atoms: N_12  and  C_13 
REMARK    5  A    between atoms: C_14  and  O_15 
REMARK    6  A    between atoms: O_15  and  C_16 
ROOT
HETATM    1  N   UNL     1      -9.600   0.881 -34.586  1.00  0.00    -0.342 N 
HETATM    2  C   UNL     1      -8.283   0.529 -34.585  1.00  0.00     0.320 C 
HETATM    3  N   UNL     1      -7.898  -0.307 -33.573  1.00  0.00    -0.306 N 
HETATM    4  O   UNL     1      -7.568   0.920 -35.504  1.00  0.00    -0.247 OA
HETATM    5  H   UNL     1      -9.826   1.485 -35.369  1.00  0.00     0.164 HD
HETATM    6  H   UNL     1      -8.611  -0.971 -33.321  1.00  0.00     0.171 HD
ENDROOT
BRANCH   1   7
HETATM    7  C   UNL     1     -10.559   0.853 -33.491  1.00  0.00     0.138 C 
BRANCH   7   8
HETATM    8  C   UNL     1     -12.030   1.214 -33.868  1.00  0.00    -0.004 C 
HETATM    9  C   UNL     1     -12.863  -0.080 -33.668  1.00  0.00     0.021 C 
HETATM   10  C   UNL     1     -12.143   1.549 -35.374  1.00  0.00     0.021 C 
BRANCH   8  11
HETATM   11  C   UNL     1     -12.556   2.386 -33.014  1.00  0.00    -0.046 A 
HETATM   12  C   UNL     1     -11.720   3.392 -32.512  1.00  0.00     0.027 A 
HETATM   13  C   UNL     1     -12.261   4.411 -31.735  1.00  0.00     0.116 A 
HETATM   14  N   UNL     1     -13.568   4.513 -31.429  1.00  0.00    -0.273 NA
HETATM   15  C   UNL     1     -14.372   3.555 -31.925  1.00  0.00     0.116 A 
HETATM   16  C   UNL     1     -13.922   2.498 -32.706  1.00  0.00     0.027 A 
ENDBRANCH   8  11
ENDBRANCH   7   8
ENDBRANCH   1   7
BRANCH   3  17
HETATM   17  C   UNL     1      -6.566  -0.750 -33.403  1.00  0.00     0.070 A 
HETATM   18  C   UNL     1      -6.069  -1.926 -33.986  1.00  0.00     0.101 A 
HETATM   19  C   UNL     1      -4.739  -2.302 -33.768  1.00  0.00     0.039 A 
HETATM   20  C   UNL     1      -3.914  -1.526 -32.951  1.00  0.00     0.003 A 
HETATM   21  C   UNL     1      -4.401  -0.350 -32.385  1.00  0.00     0.002 A 
HETATM   22  C   UNL     1      -5.717   0.048 -32.626  1.00  0.00     0.032 A 
BRANCH  18  23
HETATM   23  O   UNL     1      -6.832  -2.591 -34.913  1.00  0.00    -0.288 OA
BRANCH  23  24
HETATM   24  C   UNL     1      -6.766  -4.001 -34.748  1.00  0.00     0.505 C 
HETATM   25  F   UNL     1      -7.762  -4.354 -33.892  1.00  0.00    -0.184 F 
HETATM   26  F   UNL     1      -7.071  -4.592 -35.934  1.00  0.00    -0.184 F 
ENDBRANCH  23  24
ENDBRANCH  18  23
ENDBRANCH   3  17
TORSDOF 6
ENDMDL
MODEL 7
REMARK VINA RESULT:      -7.5      4.763      5.813
REMARK  6 active torsions:
REMARK  status: ('A' for Active; 'I' for Inactive)
REMARK    1  A    between atoms: C_2  and  C_3 
REMARK    2  A    between atoms: C_2  and  C_9 
REMARK    3  A    between atoms: C_9  and  N_10 
REMARK       I    between atoms: N_10  and  C_11 
REMARK       I    between atoms: C_11  and  N_12 
REMARK    4  A    between atoms: N_12  and  C_13 
REMARK    5  A    between atoms: C_14  and  O_15 
REMARK    6  A    between atoms: O_15  and  C_16 
ROOT
HETATM    1  N   UNL     1      -6.286   1.320 -34.196  1.00  0.00    -0.342 N 
HETATM    2  C   UNL     1      -7.202   2.200 -33.702  1.00  0.00     0.320 C 
HETATM    3  N   UNL     1      -8.220   1.644 -32.977  1.00  0.00    -0.306 N 
HETATM    4  O   UNL     1      -7.021   3.401 -33.879  1.00  0.00    -0.247 OA
HETATM    5  H   UNL     1      -5.549   1.795 -34.707  1.00  0.00     0.164 HD
HETATM    6  H   UNL     1      -7.927   0.846 -32.439  1.00  0.00     0.171 HD
ENDROOT
BRANCH   1   7
HETATM    7  C   UNL     1      -6.418  -0.111 -34.428  1.00  0.00     0.138 C 
BRANCH   7   8
HETATM    8  C   UNL     1      -5.490  -1.026 -33.569  1.00  0.00    -0.004 C 
HETATM    9  C   UNL     1      -5.976  -0.886 -32.102  1.00  0.00     0.021 C 
HETATM   10  C   UNL     1      -4.038  -0.493 -33.575  1.00  0.00     0.021 C 
BRANCH   8  11
HETATM   11  C   UNL     1      -5.531  -2.487 -34.063  1.00  0.00    -0.046 A 
HETATM   12  C   UNL     1      -6.646  -3.037 -34.709  1.00  0.00     0.027 A 
HETATM   13  C   UNL     1      -6.619  -4.367 -35.114  1.00  0.00     0.116 A 
HETATM   14  N   UNL     1      -5.567  -5.188 -34.936  1.00  0.00    -0.273 NA
HETATM   15  C   UNL     1      -4.491  -4.654 -34.330  1.00  0.00     0.116 A 
HETATM   16  C   UNL     1      -4.427  -3.338 -33.888  1.00  0.00     0.027 A 
ENDBRANCH   8  11
ENDBRANCH   7   8
ENDBRANCH   1   7
BRANCH   3  17
HETATM   17  C   UNL     1      -9.272   2.403 -32.415  1.00  0.00     0.070 A 
HETATM   18  C   UNL     1     -10.501   2.608 -33.064  1.00  0.00     0.101 A 
HETATM   19  C   UNL     1     -11.494   3.376 -32.445  1.00  0.00     0.039 A 
HETATM   20  C   UNL     1     -11.257   3.959 -31.199  1.00  0.00     0.003 A 
HETATM   21  C   UNL     1     -10.046   3.742 -30.547  1.00  0.00     0.002 A 
HETATM   22  C   UNL     1      -9.064   2.951 -31.144  1.00  0.00     0.032 A 
BRANCH  18  23
HETATM   23  O   UNL     1     -10.784   1.901 -34.205  1.00  0.00    -0.288 OA
BRANCH  23  24
HETATM   24  C   UNL     1     -12.129   1.441 -34.228  1.00  0.00     0.505 C 
HETATM   25  F   UNL     1     -12.453   1.207 -35.527  1.00  0.00    -0.184 F 
HETATM   26  F   UNL     1     -12.184   0.230 -33.610  1.00  0.00    -0.184 F 
ENDBRANCH  23  24
ENDBRANCH  18  23
ENDBRANCH   3  17
TORSDOF 6
ENDMDL
MODEL 8
REMARK VINA RESULT:      -7.5      3.143      7.192
REMARK  6 active torsions:
REMARK  status: ('A' for Active; 'I' for Inactive)
REMARK    1  A    between atoms: C_2  and  C_3 
REMARK    2  A    between atoms: C_2  and  C_9 
REMARK    3  A    between atoms: C_9  and  N_10 
REMARK       I    between atoms: N_10  and  C_11 
REMARK       I    between atoms: C_11  and  N_12 
REMARK    4  A    between atoms: N_12  and  C_13 
REMARK    5  A    between atoms: C_14  and  O_15 
REMARK    6  A    between atoms: O_15  and  C_16 
ROOT
HETATM    1  N   UNL     1      -7.578   1.684 -33.985  1.00  0.00    -0.342 N 
HETATM    2  C   UNL     1      -7.087   0.531 -34.523  1.00  0.00     0.320 C 
HETATM    3  N   UNL     1      -6.788  -0.456 -33.625  1.00  0.00    -0.306 N 
HETATM    4  O   UNL     1      -7.014   0.436 -35.745  1.00  0.00    -0.247 OA
HETATM    5  H   UNL     1      -7.796   2.368 -34.702  1.00  0.00     0.164 HD
HETATM    6  H   UNL     1      -7.419  -0.478 -32.843  1.00  0.00     0.171 HD
ENDROOT
BRANCH   1   7
HETATM    7  C   UNL     1      -7.458   2.186 -32.624  1.00  0.00     0.138 C 
BRANCH   7   8
HETATM    8  C   UNL     1      -6.794   3.591 -32.476  1.00  0.00    -0.004 C 
HETATM    9  C   UNL     1      -7.554   4.314 -31.332  1.00  0.00     0.021 C 
HETATM   10  C   UNL     1      -7.038   4.448 -33.739  1.00  0.00     0.021 C 
BRANCH   8  11
HETATM   11  C   UNL     1      -5.284   3.470 -32.189  1.00  0.00    -0.046 A 
HETATM   12  C   UNL     1      -4.356   4.443 -32.587  1.00  0.00     0.027 A 
HETATM   13  C   UNL     1      -3.006   4.260 -32.308  1.00  0.00     0.116 A 
HETATM   14  N   UNL     1      -2.509   3.193 -31.654  1.00  0.00    -0.273 NA
HETATM   15  C   UNL     1      -3.403   2.267 -31.259  1.00  0.00     0.116 A 
HETATM   16  C   UNL     1      -4.768   2.362 -31.496  1.00  0.00     0.027 A 
ENDBRANCH   8  11
ENDBRANCH   7   8
ENDBRANCH   1   7
BRANCH   3  17
HETATM   17  C   UNL     1      -6.244  -1.705 -34.004  1.00  0.00     0.070 A 
HETATM   18  C   UNL     1      -4.864  -1.963 -34.033  1.00  0.00     0.101 A 
HETATM   19  C   UNL     1      -4.401  -3.224 -34.423  1.00  0.00     0.039 A 
HETATM   20  C   UNL     1      -5.304  -4.217 -34.808  1.00  0.00     0.003 A 
HETATM   21  C   UNL     1      -6.674  -3.968 -34.763  1.00  0.00     0.002 A 
HETATM   22  C   UNL     1      -7.143  -2.723 -34.343  1.00  0.00     0.032 A 
BRANCH  18  23
HETATM   23  O   UNL     1      -3.997  -1.043 -33.500  1.00  0.00    -0.288 OA
BRANCH  23  24
HETATM   24  C   UNL     1      -3.495  -1.452 -32.235  1.00  0.00     0.505 C 
HETATM   25  F   UNL     1      -2.292  -0.844 -32.062  1.00  0.00    -0.184 F 
HETATM   26  F   UNL     1      -4.306  -0.952 -31.264  1.00  0.00    -0.184 F 
ENDBRANCH  23  24
ENDBRANCH  18  23
ENDBRANCH   3  17
TORSDOF 6
ENDMDL
MODEL 9
REMARK VINA RESULT:      -7.4      3.194      7.507
REMARK  6 active torsions:
REMARK  status: ('A' for Active; 'I' for Inactive)
REMARK    1  A    between atoms: C_2  and  C_3 
REMARK    2  A    between atoms: C_2  and  C_9 
REMARK    3  A    between atoms: C_9  and  N_10 
REMARK       I    between atoms: N_10  and  C_11 
REMARK       I    between atoms: C_11  and  N_12 
REMARK    4  A    between atoms: N_12  and  C_13 
REMARK    5  A    between atoms: C_14  and  O_15 
REMARK    6  A    between atoms: O_15  and  C_16 
ROOT
HETATM    1  N   UNL     1      -6.818   2.100 -32.307  1.00  0.00    -0.342 N 
HETATM    2  C   UNL     1      -6.612   0.760 -32.440  1.00  0.00     0.320 C 
HETATM    3  N   UNL     1      -6.072   0.363 -33.632  1.00  0.00    -0.306 N 
HETATM    4  O   UNL     1      -6.855   0.029 -31.484  1.00  0.00    -0.247 OA
HETATM    5  H   UNL     1      -7.202   2.332 -31.398  1.00  0.00     0.164 HD
HETATM    6  H   UNL     1      -5.414   1.026 -34.005  1.00  0.00     0.171 HD
ENDROOT
BRANCH   1   7
HETATM    7  C   UNL     1      -6.942   3.118 -33.341  1.00  0.00     0.138 C 
BRANCH   7   8
HETATM    8  C   UNL     1      -6.721   4.591 -32.874  1.00  0.00    -0.004 C 
HETATM    9  C   UNL     1      -6.779   4.569 -31.323  1.00  0.00     0.021 C 
HETATM   10  C   UNL     1      -7.900   5.488 -33.318  1.00  0.00     0.021 C 
BRANCH   8  11
HETATM   11  C   UNL     1      -5.386   5.153 -33.402  1.00  0.00    -0.046 A 
HETATM   12  C   UNL     1      -4.854   4.796 -34.648  1.00  0.00     0.027 A 
HETATM   13  C   UNL     1      -3.635   5.330 -35.053  1.00  0.00     0.116 A 
HETATM   14  N   UNL     1      -2.912   6.199 -34.322  1.00  0.00    -0.273 NA
HETATM   15  C   UNL     1      -3.432   6.553 -33.132  1.00  0.00     0.116 A 
HETATM   16  C   UNL     1      -4.639   6.069 -32.642  1.00  0.00     0.027 A 
ENDBRANCH   8  11
ENDBRANCH   7   8
ENDBRANCH   1   7
BRANCH   3  17
HETATM   17  C   UNL     1      -5.818  -0.991 -33.952  1.00  0.00     0.070 A 
HETATM   18  C   UNL     1      -4.549  -1.581 -33.834  1.00  0.00     0.101 A 
HETATM   19  C   UNL     1      -4.375  -2.927 -34.174  1.00  0.00     0.039 A 
HETATM   20  C   UNL     1      -5.450  -3.676 -34.655  1.00  0.00     0.003 A 
HETATM   21  C   UNL     1      -6.713  -3.097 -34.758  1.00  0.00     0.002 A 
HETATM   22  C   UNL     1      -6.901  -1.764 -34.389  1.00  0.00     0.032 A 
BRANCH  18  23
HETATM   23  O   UNL     1      -3.543  -0.890 -33.208  1.00  0.00    -0.288 OA
BRANCH  23  24
HETATM   24  C   UNL     1      -3.232  -1.435 -31.933  1.00  0.00     0.505 C 
HETATM   25  F   UNL     1      -1.887  -1.337 -31.768  1.00  0.00    -0.184 F 
HETATM   26  F   UNL     1      -3.781  -0.640 -30.976  1.00  0.00    -0.184 F 
ENDBRANCH  23  24
ENDBRANCH  18  23
ENDBRANCH   3  17
TORSDOF 6
ENDMDL
MODEL 10
REMARK VINA RESULT:      -7.4      3.545      6.926
REMARK  6 active torsions:
REMARK  status: ('A' for Active; 'I' for Inactive)
REMARK    1  A    between atoms: C_2  and  C_3 
REMARK    2  A    between atoms: C_2  and  C_9 
REMARK    3  A    between atoms: C_9  and  N_10 
REMARK       I    between atoms: N_10  and  C_11 
REMARK       I    between atoms: C_11  and  N_12 
REMARK    4  A    between atoms: N_12  and  C_13 
REMARK    5  A    between atoms: C_14  and  O_15 
REMARK    6  A    between atoms: O_15  and  C_16 
ROOT
HETATM    1  N   UNL     1      -8.735   1.204 -34.641  1.00  0.00    -0.342 N 
HETATM    2  C   UNL     1      -7.730   0.321 -34.906  1.00  0.00     0.320 C 
HETATM    3  N   UNL     1      -7.536  -0.650 -33.962  1.00  0.00    -0.306 N 
HETATM    4  O   UNL     1      -7.130   0.415 -35.973  1.00  0.00    -0.247 OA
HETATM    5  H   UNL     1      -8.839   1.886 -35.385  1.00  0.00     0.164 HD
HETATM    6  H   UNL     1      -8.393  -0.956 -33.534  1.00  0.00     0.171 HD
ENDROOT
BRANCH   1   7
HETATM    7  C   UNL     1      -9.356   1.533 -33.367  1.00  0.00     0.138 C 
BRANCH   7   8
HETATM    8  C   UNL     1      -8.886   2.868 -32.707  1.00  0.00    -0.004 C 
HETATM    9  C   UNL     1     -10.056   3.345 -31.806  1.00  0.00     0.021 C 
HETATM   10  C   UNL     1      -8.710   3.973 -33.774  1.00  0.00     0.021 C 
BRANCH   8  11
HETATM   11  C   UNL     1      -7.578   2.670 -31.913  1.00  0.00    -0.046 A 
HETATM   12  C   UNL     1      -7.453   1.729 -30.883  1.00  0.00     0.027 A 
HETATM   13  C   UNL     1      -6.247   1.617 -30.198  1.00  0.00     0.116 A 
HETATM   14  N   UNL     1      -5.156   2.357 -30.467  1.00  0.00    -0.273 NA
HETATM   15  C   UNL     1      -5.273   3.250 -31.467  1.00  0.00     0.116 A 
HETATM   16  C   UNL     1      -6.436   3.436 -32.203  1.00  0.00     0.027 A 
ENDBRANCH   8  11
ENDBRANCH   7   8
ENDBRANCH   1   7
BRANCH   3  17
HETATM   17  C   UNL     1      -6.521  -1.629 -34.060  1.00  0.00     0.070 A 
HETATM   18  C   UNL     1      -5.219  -1.436 -33.571  1.00  0.00     0.101 A 
HETATM   19  C   UNL     1      -4.267  -2.452 -33.708  1.00  0.00     0.039 A 
HETATM   20  C   UNL     1      -4.600  -3.645 -34.352  1.00  0.00     0.003 A 
HETATM   21  C   UNL     1      -5.896  -3.845 -34.822  1.00  0.00     0.002 A 
HETATM   22  C   UNL     1      -6.859  -2.849 -34.659  1.00  0.00     0.032 A 
BRANCH  18  23
HETATM   23  O   UNL     1      -4.948  -0.334 -32.799  1.00  0.00    -0.288 OA
BRANCH  23  24
HETATM   24  C   UNL     1      -3.582  -0.274 -32.414  1.00  0.00     0.505 C 
HETATM   25  F   UNL     1      -3.130   0.971 -32.720  1.00  0.00    -0.184 F 
HETATM   26  F   UNL     1      -3.508  -0.372 -31.060  1.00  0.00    -0.184 F 
ENDBRANCH  23  24
ENDBRANCH  18  23
ENDBRANCH   3  17
TORSDOF 6
ENDMDL
