MODEL 1
REMARK VINA RESULT:      -8.1      0.000      0.000
REMARK  1 active torsions:
REMARK  status: ('A' for Active; 'I' for Inactive)
REMARK    1  A    between atoms: C_8  and  C_9 
ROOT
HETATM    1  C   UNL     1      -5.995   4.182 -29.843  1.00  0.00     0.073 C 
HETATM    2  C   UNL     1      -5.365   5.331 -30.552  1.00  0.00     0.062 A 
HETATM    3  N   UNL     1      -5.789   6.567 -30.282  1.00  0.00    -0.178 NA
HETATM    4  N   UNL     1      -4.995   7.344 -31.019  1.00  0.00    -0.262 N 
HETATM    5  H   UNL     1      -5.119   8.346 -30.950  1.00  0.00     0.191 HD
HETATM    6  C   UNL     1      -4.098   6.661 -31.801  1.00  0.00     0.134 A 
HETATM    7  C   UNL     1      -4.310   5.317 -31.536  1.00  0.00     0.032 A 
HETATM    8  C   UNL     1      -3.586   4.079 -31.977  1.00  0.00     0.120 C 
HETATM    9  S   UNL     1      -2.021   4.298 -32.858  1.00  0.00    -0.141 SA
HETATM   10  C   UNL     1      -2.379   5.568 -34.103  1.00  0.00     0.136 C 
HETATM   11  C   UNL     1      -3.581   5.368 -35.009  1.00  0.00     0.031 C 
HETATM   12  C   UNL     1      -2.344   6.968 -33.520  1.00  0.00     0.236 C 
HETATM   13  O   UNL     1      -1.570   7.815 -33.982  1.00  0.00    -0.272 OA
HETATM   14  N   UNL     1      -3.224   7.391 -32.573  1.00  0.00    -0.311 N 
HETATM   15  H   UNL     1      -3.148   8.391 -32.415  1.00  0.00     0.170 HD
ENDROOT
BRANCH   8  16
HETATM   16  C   UNL     1      -4.541   3.064 -32.623  1.00  0.00    -0.029 A 
HETATM   17  C   UNL     1      -4.392   1.655 -32.363  1.00  0.00    -0.018 A 
HETATM   18  C   UNL     1      -5.305   0.743 -32.960  1.00  0.00    -0.025 A 
HETATM   19  C   UNL     1      -3.390   1.087 -31.534  1.00  0.00     0.013 A 
HETATM   20  C   UNL     1      -5.200  -0.639 -32.719  1.00  0.00     0.012 A 
HETATM   21  C   UNL     1      -6.326   1.209 -33.793  1.00  0.00     0.012 A 
HETATM   22  C   UNL     1      -4.203  -1.152 -31.895  1.00  0.00     0.001 A 
HETATM   23  C   UNL     1      -3.296  -0.289 -31.303  1.00  0.00     0.001 A 
HETATM   24  C   UNL     1      -6.472   2.566 -34.046  1.00  0.00     0.002 A 
HETATM   25  C   UNL     1      -5.594   3.478 -33.468  1.00  0.00     0.009 A 
ENDBRANCH   8  16
TORSDOF 1
ENDMDL
MODEL 2
REMARK VINA RESULT:      -8.1      1.953      2.697
REMARK  1 active torsions:
REMARK  status: ('A' for Active; 'I' for Inactive)
REMARK    1  A    between atoms: C_8  and  C_9 
ROOT
HETATM    1  C   UNL     1      -6.787   0.644 -30.166  1.00  0.00     0.073 C 
HETATM    2  C   UNL     1      -6.558   2.109 -30.308  1.00  0.00     0.062 A 
HETATM    3  N   UNL     1      -7.256   2.949 -29.539  1.00  0.00    -0.178 NA
HETATM    4  N   UNL     1      -6.776   4.149 -29.864  1.00  0.00    -0.262 N 
HETATM    5  H   UNL     1      -7.148   4.954 -29.374  1.00  0.00     0.191 HD
HETATM    6  C   UNL     1      -5.825   4.135 -30.852  1.00  0.00     0.134 A 
HETATM    7  C   UNL     1      -5.652   2.802 -31.191  1.00  0.00     0.032 A 
HETATM    8  C   UNL     1      -4.685   2.117 -32.111  1.00  0.00     0.120 C 
HETATM    9  S   UNL     1      -3.337   3.112 -32.795  1.00  0.00    -0.141 SA
HETATM   10  C   UNL     1      -4.148   4.625 -33.381  1.00  0.00     0.136 C 
HETATM   11  C   UNL     1      -5.350   4.488 -34.299  1.00  0.00     0.031 C 
HETATM   12  C   UNL     1      -4.413   5.605 -32.254  1.00  0.00     0.236 C 
HETATM   13  O   UNL     1      -3.941   6.749 -32.300  1.00  0.00    -0.272 OA
HETATM   14  N   UNL     1      -5.262   5.332 -31.227  1.00  0.00    -0.311 N 
HETATM   15  H   UNL     1      -5.430   6.154 -30.655  1.00  0.00     0.170 HD
ENDROOT
BRANCH   8  16
HETATM   16  C   UNL     1      -5.409   1.236 -33.140  1.00  0.00    -0.029 A 
HETATM   17  C   UNL     1      -5.033  -0.144 -33.313  1.00  0.00    -0.018 A 
HETATM   18  C   UNL     1      -5.737  -0.938 -34.259  1.00  0.00    -0.025 A 
HETATM   19  C   UNL     1      -3.998  -0.796 -32.593  1.00  0.00     0.013 A 
HETATM   20  C   UNL     1      -5.408  -2.292 -34.446  1.00  0.00     0.012 A 
HETATM   21  C   UNL     1      -6.773  -0.381 -35.016  1.00  0.00     0.012 A 
HETATM   22  C   UNL     1      -4.388  -2.893 -33.715  1.00  0.00     0.001 A 
HETATM   23  C   UNL     1      -3.681  -2.144 -32.789  1.00  0.00     0.001 A 
HETATM   24  C   UNL     1      -7.137   0.948 -34.853  1.00  0.00     0.002 A 
HETATM   25  C   UNL     1      -6.467   1.742 -33.928  1.00  0.00     0.009 A 
ENDBRANCH   8  16
TORSDOF 1
ENDMDL
MODEL 3
REMARK VINA RESULT:      -7.9      3.825      5.966
REMARK  1 active torsions:
REMARK  status: ('A' for Active; 'I' for Inactive)
REMARK    1  A    between atoms: C_8  and  C_9 
ROOT
HETATM    1  C   UNL     1      -7.105   5.758 -31.103  1.00  0.00     0.073 C 
HETATM    2  C   UNL     1      -8.026   4.591 -31.010  1.00  0.00     0.062 A 
HETATM    3  N   UNL     1      -8.993   4.602 -30.090  1.00  0.00    -0.178 NA
HETATM    4  N   UNL     1      -9.658   3.469 -30.314  1.00  0.00    -0.262 N 
HETATM    5  H   UNL     1     -10.468   3.276 -29.738  1.00  0.00     0.191 HD
HETATM    6  C   UNL     1      -9.135   2.689 -31.314  1.00  0.00     0.134 A 
HETATM    7  C   UNL     1      -8.040   3.385 -31.804  1.00  0.00     0.032 A 
HETATM    8  C   UNL     1      -7.124   3.129 -32.963  1.00  0.00     0.120 C 
HETATM    9  S   UNL     1      -7.573   1.797 -34.103  1.00  0.00    -0.141 SA
HETATM   10  C   UNL     1      -7.993   0.403 -33.022  1.00  0.00     0.136 C 
HETATM   11  C   UNL     1      -6.996  -0.004 -31.951  1.00  0.00     0.031 C 
HETATM   12  C   UNL     1      -9.399   0.514 -32.464  1.00  0.00     0.236 C 
HETATM   13  O   UNL     1     -10.225  -0.384 -32.673  1.00  0.00    -0.272 OA
HETATM   14  N   UNL     1      -9.779   1.514 -31.624  1.00  0.00    -0.311 N 
HETATM   15  H   UNL     1     -10.701   1.344 -31.236  1.00  0.00     0.170 HD
ENDROOT
BRANCH   8  16
HETATM   16  C   UNL     1      -5.650   3.124 -32.530  1.00  0.00    -0.029 A 
HETATM   17  C   UNL     1      -4.660   3.835 -33.299  1.00  0.00    -0.018 A 
HETATM   18  C   UNL     1      -3.309   3.826 -32.859  1.00  0.00    -0.025 A 
HETATM   19  C   UNL     1      -4.931   4.567 -34.483  1.00  0.00     0.013 A 
HETATM   20  C   UNL     1      -2.317   4.519 -33.575  1.00  0.00     0.012 A 
HETATM   21  C   UNL     1      -2.947   3.131 -31.702  1.00  0.00     0.012 A 
HETATM   22  C   UNL     1      -2.627   5.230 -34.731  1.00  0.00     0.001 A 
HETATM   23  C   UNL     1      -3.934   5.252 -35.187  1.00  0.00     0.001 A 
HETATM   24  C   UNL     1      -3.897   2.444 -30.959  1.00  0.00     0.002 A 
HETATM   25  C   UNL     1      -5.227   2.443 -31.366  1.00  0.00     0.009 A 
ENDBRANCH   8  16
TORSDOF 1
ENDMDL
MODEL 4
REMARK VINA RESULT:      -7.6      3.888      5.628
REMARK  1 active torsions:
REMARK  status: ('A' for Active; 'I' for Inactive)
REMARK    1  A    between atoms: C_8  and  C_9 
ROOT
HETATM    1  C   UNL     1      -4.918   3.981 -33.873  1.00  0.00     0.073 C 
HETATM    2  C   UNL     1      -6.408   4.008 -33.903  1.00  0.00     0.062 A 
HETATM    3  N   UNL     1      -7.032   5.187 -33.877  1.00  0.00    -0.178 NA
HETATM    4  N   UNL     1      -8.322   4.866 -33.978  1.00  0.00    -0.262 N 
HETATM    5  H   UNL     1      -8.996   5.621 -34.008  1.00  0.00     0.191 HD
HETATM    6  C   UNL     1      -8.572   3.518 -34.018  1.00  0.00     0.134 A 
HETATM    7  C   UNL     1      -7.331   2.901 -33.960  1.00  0.00     0.032 A 
HETATM    8  C   UNL     1      -6.917   1.464 -34.078  1.00  0.00     0.120 C 
HETATM    9  S   UNL     1      -8.180   0.272 -34.586  1.00  0.00    -0.141 SA
HETATM   10  C   UNL     1      -9.613   0.665 -33.547  1.00  0.00     0.136 C 
HETATM   11  C   UNL     1      -9.410   0.755 -32.045  1.00  0.00     0.031 C 
HETATM   12  C   UNL     1     -10.398   1.849 -34.078  1.00  0.00     0.236 C 
HETATM   13  O   UNL     1     -11.596   1.725 -34.362  1.00  0.00    -0.272 OA
HETATM   14  N   UNL     1      -9.877   3.104 -34.147  1.00  0.00    -0.311 N 
HETATM   15  H   UNL     1     -10.587   3.789 -34.382  1.00  0.00     0.170 HD
ENDROOT
BRANCH   8  16
HETATM   16  C   UNL     1      -6.069   1.018 -32.877  1.00  0.00    -0.029 A 
HETATM   17  C   UNL     1      -5.286  -0.190 -32.945  1.00  0.00    -0.018 A 
HETATM   18  C   UNL     1      -4.497  -0.563 -31.824  1.00  0.00    -0.025 A 
HETATM   19  C   UNL     1      -5.231  -1.054 -34.069  1.00  0.00     0.013 A 
HETATM   20  C   UNL     1      -3.710  -1.728 -31.856  1.00  0.00     0.012 A 
HETATM   21  C   UNL     1      -4.489   0.227 -30.671  1.00  0.00     0.012 A 
HETATM   22  C   UNL     1      -3.681  -2.546 -32.982  1.00  0.00     0.001 A 
HETATM   23  C   UNL     1      -4.443  -2.211 -34.088  1.00  0.00     0.001 A 
HETATM   24  C   UNL     1      -5.242   1.390 -30.601  1.00  0.00     0.002 A 
HETATM   25  C   UNL     1      -6.017   1.780 -31.689  1.00  0.00     0.009 A 
ENDBRANCH   8  16
TORSDOF 1
ENDMDL
MODEL 5
REMARK VINA RESULT:      -7.5     18.396     19.664
REMARK  1 active torsions:
REMARK  status: ('A' for Active; 'I' for Inactive)
REMARK    1  A    between atoms: C_8  and  C_9 
ROOT
HETATM    1  C   UNL     1      -4.510 -14.226 -38.599  1.00  0.00     0.073 C 
HETATM    2  C   UNL     1      -4.215 -14.473 -37.160  1.00  0.00     0.062 A 
HETATM    3  N   UNL     1      -2.993 -14.881 -36.813  1.00  0.00    -0.178 NA
HETATM    4  N   UNL     1      -3.045 -14.944 -35.482  1.00  0.00    -0.262 N 
HETATM    5  H   UNL     1      -2.202 -15.211 -34.989  1.00  0.00     0.191 HD
HETATM    6  C   UNL     1      -4.270 -14.641 -34.945  1.00  0.00     0.134 A 
HETATM    7  C   UNL     1      -5.089 -14.331 -36.021  1.00  0.00     0.032 A 
HETATM    8  C   UNL     1      -6.494 -13.812 -36.097  1.00  0.00     0.120 C 
HETATM    9  S   UNL     1      -7.272 -13.280 -34.552  1.00  0.00    -0.141 SA
HETATM   10  C   UNL     1      -6.919 -14.623 -33.386  1.00  0.00     0.136 C 
HETATM   11  C   UNL     1      -7.262 -16.044 -33.798  1.00  0.00     0.031 C 
HETATM   12  C   UNL     1      -5.518 -14.530 -32.811  1.00  0.00     0.236 C 
HETATM   13  O   UNL     1      -5.351 -14.446 -31.588  1.00  0.00    -0.272 OA
HETATM   14  N   UNL     1      -4.401 -14.658 -33.576  1.00  0.00    -0.311 N 
HETATM   15  H   UNL     1      -3.563 -14.720 -33.005  1.00  0.00     0.170 HD
ENDROOT
BRANCH   8  16
HETATM   16  C   UNL     1      -7.381 -14.704 -36.979  1.00  0.00    -0.029 A 
HETATM   17  C   UNL     1      -8.174 -14.129 -38.035  1.00  0.00    -0.018 A 
HETATM   18  C   UNL     1      -8.968 -14.985 -38.846  1.00  0.00    -0.025 A 
HETATM   19  C   UNL     1      -8.225 -12.745 -38.345  1.00  0.00     0.013 A 
HETATM   20  C   UNL     1      -9.746 -14.462 -39.894  1.00  0.00     0.012 A 
HETATM   21  C   UNL     1      -8.982 -16.364 -38.615  1.00  0.00     0.012 A 
HETATM   22  C   UNL     1      -9.763 -13.097 -40.167  1.00  0.00     0.001 A 
HETATM   23  C   UNL     1      -9.004 -12.238 -39.391  1.00  0.00     0.001 A 
HETATM   24  C   UNL     1      -8.220 -16.921 -37.598  1.00  0.00     0.002 A 
HETATM   25  C   UNL     1      -7.430 -16.104 -36.796  1.00  0.00     0.009 A 
ENDBRANCH   8  16
TORSDOF 1
ENDMDL
MODEL 6
REMARK VINA RESULT:      -7.4      2.671      4.217
REMARK  1 active torsions:
REMARK  status: ('A' for Active; 'I' for Inactive)
REMARK    1  A    between atoms: C_8  and  C_9 
ROOT
HETATM    1  C   UNL     1      -2.898   3.418 -32.759  1.00  0.00     0.073 C 
HETATM    2  C   UNL     1      -3.651   4.393 -31.922  1.00  0.00     0.062 A 
HETATM    3  N   UNL     1      -2.972   5.308 -31.227  1.00  0.00    -0.178 NA
HETATM    4  N   UNL     1      -3.924   6.043 -30.653  1.00  0.00    -0.262 N 
HETATM    5  H   UNL     1      -3.635   6.831 -30.087  1.00  0.00     0.191 HD
HETATM    6  C   UNL     1      -5.203   5.615 -30.904  1.00  0.00     0.134 A 
HETATM    7  C   UNL     1      -5.077   4.513 -31.735  1.00  0.00     0.032 A 
HETATM    8  C   UNL     1      -6.094   3.673 -32.451  1.00  0.00     0.120 C 
HETATM    9  S   UNL     1      -7.808   4.251 -32.442  1.00  0.00    -0.141 SA
HETATM   10  C   UNL     1      -8.127   4.687 -30.711  1.00  0.00     0.136 C 
HETATM   11  C   UNL     1      -7.811   3.658 -29.639  1.00  0.00     0.031 C 
HETATM   12  C   UNL     1      -7.575   6.054 -30.354  1.00  0.00     0.236 C 
HETATM   13  O   UNL     1      -8.329   6.936 -29.921  1.00  0.00    -0.272 OA
HETATM   14  N   UNL     1      -6.245   6.336 -30.368  1.00  0.00    -0.311 N 
HETATM   15  H   UNL     1      -6.052   7.245 -29.959  1.00  0.00     0.170 HD
ENDROOT
BRANCH   8  16
HETATM   16  C   UNL     1      -5.925   2.180 -32.126  1.00  0.00    -0.029 A 
HETATM   17  C   UNL     1      -6.257   1.179 -33.107  1.00  0.00    -0.018 A 
HETATM   18  C   UNL     1      -6.070  -0.193 -32.782  1.00  0.00    -0.025 A 
HETATM   19  C   UNL     1      -6.759   1.454 -34.405  1.00  0.00     0.013 A 
HETATM   20  C   UNL     1      -6.370  -1.199 -33.718  1.00  0.00     0.012 A 
HETATM   21  C   UNL     1      -5.580  -0.560 -31.526  1.00  0.00     0.012 A 
HETATM   22  C   UNL     1      -6.857  -0.884 -34.983  1.00  0.00     0.001 A 
HETATM   23  C   UNL     1      -7.054   0.443 -35.327  1.00  0.00     0.001 A 
HETATM   24  C   UNL     1      -5.261   0.402 -30.578  1.00  0.00     0.002 A 
HETATM   25  C   UNL     1      -5.429   1.750 -30.876  1.00  0.00     0.009 A 
ENDBRANCH   8  16
TORSDOF 1
ENDMDL
MODEL 7
REMARK VINA RESULT:      -7.4      3.694      5.750
REMARK  1 active torsions:
REMARK  status: ('A' for Active; 'I' for Inactive)
REMARK    1  A    between atoms: C_8  and  C_9 
ROOT
HETATM    1  C   UNL     1      -3.723   0.703 -32.678  1.00  0.00     0.073 C 
HETATM    2  C   UNL     1      -5.168   0.773 -32.322  1.00  0.00     0.062 A 
HETATM    3  N   UNL     1      -5.936  -0.299 -32.528  1.00  0.00    -0.178 NA
HETATM    4  N   UNL     1      -7.127   0.069 -32.055  1.00  0.00    -0.262 N 
HETATM    5  H   UNL     1      -7.876  -0.612 -32.081  1.00  0.00     0.191 HD
HETATM    6  C   UNL     1      -7.182   1.358 -31.591  1.00  0.00     0.134 A 
HETATM    7  C   UNL     1      -5.907   1.876 -31.756  1.00  0.00     0.032 A 
HETATM    8  C   UNL     1      -5.290   3.180 -31.345  1.00  0.00     0.120 C 
HETATM    9  S   UNL     1      -6.259   4.254 -30.258  1.00  0.00    -0.141 SA
HETATM   10  C   UNL     1      -7.907   4.289 -31.014  1.00  0.00     0.136 C 
HETATM   11  C   UNL     1      -8.016   4.634 -32.489  1.00  0.00     0.031 C 
HETATM   12  C   UNL     1      -8.723   3.059 -30.665  1.00  0.00     0.236 C 
HETATM   13  O   UNL     1      -9.815   3.177 -30.095  1.00  0.00    -0.272 OA
HETATM   14  N   UNL     1      -8.371   1.807 -31.062  1.00  0.00    -0.311 N 
HETATM   15  H   UNL     1      -9.106   1.134 -30.870  1.00  0.00     0.170 HD
ENDROOT
BRANCH   8  16
HETATM   16  C   UNL     1      -4.642   3.901 -32.537  1.00  0.00    -0.029 A 
HETATM   17  C   UNL     1      -3.307   4.432 -32.430  1.00  0.00    -0.018 A 
HETATM   18  C   UNL     1      -2.729   5.076 -33.558  1.00  0.00    -0.025 A 
HETATM   19  C   UNL     1      -2.499   4.358 -31.266  1.00  0.00     0.013 A 
HETATM   20  C   UNL     1      -1.424   5.596 -33.496  1.00  0.00     0.012 A 
HETATM   21  C   UNL     1      -3.450   5.197 -34.749  1.00  0.00     0.012 A 
HETATM   22  C   UNL     1      -0.663   5.497 -32.334  1.00  0.00     0.001 A 
HETATM   23  C   UNL     1      -1.201   4.880 -31.218  1.00  0.00     0.001 A 
HETATM   24  C   UNL     1      -4.737   4.687 -34.855  1.00  0.00     0.002 A 
HETATM   25  C   UNL     1      -5.321   4.047 -33.767  1.00  0.00     0.009 A 
ENDBRANCH   8  16
TORSDOF 1
ENDMDL
MODEL 8
REMARK VINA RESULT:      -7.4      4.405      6.613
REMARK  1 active torsions:
REMARK  status: ('A' for Active; 'I' for Inactive)
REMARK    1  A    between atoms: C_8  and  C_9 
ROOT
HETATM    1  C   UNL     1      -7.042  -0.077 -35.365  1.00  0.00     0.073 C 
HETATM    2  C   UNL     1      -6.309   0.477 -34.193  1.00  0.00     0.062 A 
HETATM    3  N   UNL     1      -5.192  -0.129 -33.784  1.00  0.00    -0.178 NA
HETATM    4  N   UNL     1      -4.763   0.638 -32.782  1.00  0.00    -0.262 N 
HETATM    5  H   UNL     1      -3.895   0.380 -32.329  1.00  0.00     0.191 HD
HETATM    6  C   UNL     1      -5.581   1.697 -32.484  1.00  0.00     0.134 A 
HETATM    7  C   UNL     1      -6.632   1.630 -33.387  1.00  0.00     0.032 A 
HETATM    8  C   UNL     1      -7.783   2.552 -33.659  1.00  0.00     0.120 C 
HETATM    9  S   UNL     1      -7.771   4.166 -32.841  1.00  0.00    -0.141 SA
HETATM   10  C   UNL     1      -7.366   3.791 -31.113  1.00  0.00     0.136 C 
HETATM   11  C   UNL     1      -8.187   2.735 -30.394  1.00  0.00     0.031 C 
HETATM   12  C   UNL     1      -5.878   3.580 -30.906  1.00  0.00     0.236 C 
HETATM   13  O   UNL     1      -5.255   4.287 -30.104  1.00  0.00    -0.272 OA
HETATM   14  N   UNL     1      -5.196   2.552 -31.478  1.00  0.00    -0.311 N 
HETATM   15  H   UNL     1      -4.252   2.481 -31.110  1.00  0.00     0.170 HD
ENDROOT
BRANCH   8  16
HETATM   16  C   UNL     1      -9.129   1.814 -33.587  1.00  0.00    -0.029 A 
HETATM   17  C   UNL     1     -10.290   2.346 -34.253  1.00  0.00    -0.018 A 
HETATM   18  C   UNL     1     -11.515   1.628 -34.183  1.00  0.00    -0.025 A 
HETATM   19  C   UNL     1     -10.311   3.553 -34.998  1.00  0.00     0.013 A 
HETATM   20  C   UNL     1     -12.666   2.109 -34.832  1.00  0.00     0.012 A 
HETATM   21  C   UNL     1     -11.590   0.428 -33.470  1.00  0.00     0.012 A 
HETATM   22  C   UNL     1     -12.641   3.297 -35.557  1.00  0.00     0.001 A 
HETATM   23  C   UNL     1     -11.464   4.021 -35.639  1.00  0.00     0.001 A 
HETATM   24  C   UNL     1     -10.475  -0.087 -32.826  1.00  0.00     0.002 A 
HETATM   25  C   UNL     1      -9.263   0.595 -32.886  1.00  0.00     0.009 A 
ENDBRANCH   8  16
TORSDOF 1
ENDMDL
MODEL 9
REMARK VINA RESULT:      -7.4      4.493      6.585
REMARK  1 active torsions:
REMARK  status: ('A' for Active; 'I' for Inactive)
REMARK    1  A    between atoms: C_8  and  C_9 
ROOT
HETATM    1  C   UNL     1      -7.611  -0.126 -35.397  1.00  0.00     0.073 C 
HETATM    2  C   UNL     1      -6.460  -0.704 -34.649  1.00  0.00     0.062 A 
HETATM    3  N   UNL     1      -6.123  -1.977 -34.866  1.00  0.00    -0.178 NA
HETATM    4  N   UNL     1      -5.042  -2.153 -34.107  1.00  0.00    -0.262 N 
HETATM    5  H   UNL     1      -4.587  -3.057 -34.135  1.00  0.00     0.191 HD
HETATM    6  C   UNL     1      -4.685  -1.059 -33.360  1.00  0.00     0.134 A 
HETATM    7  C   UNL     1      -5.604  -0.069 -33.676  1.00  0.00     0.032 A 
HETATM    8  C   UNL     1      -5.694   1.378 -33.291  1.00  0.00     0.120 C 
HETATM    9  S   UNL     1      -4.283   2.097 -32.416  1.00  0.00    -0.141 SA
HETATM   10  C   UNL     1      -3.895   0.891 -31.119  1.00  0.00     0.136 C 
HETATM   11  C   UNL     1      -5.018   0.424 -30.210  1.00  0.00     0.031 C 
HETATM   12  C   UNL     1      -3.081  -0.275 -31.647  1.00  0.00     0.236 C 
HETATM   13  O   UNL     1      -1.973  -0.532 -31.160  1.00  0.00    -0.272 OA
HETATM   14  N   UNL     1      -3.564  -1.151 -32.568  1.00  0.00    -0.311 N 
HETATM   15  H   UNL     1      -2.944  -1.946 -32.688  1.00  0.00     0.170 HD
ENDROOT
BRANCH   8  16
HETATM   16  C   UNL     1      -7.062   1.716 -32.677  1.00  0.00    -0.029 A 
HETATM   17  C   UNL     1      -7.646   3.018 -32.871  1.00  0.00    -0.018 A 
HETATM   18  C   UNL     1      -8.922   3.292 -32.306  1.00  0.00    -0.025 A 
HETATM   19  C   UNL     1      -7.044   4.073 -33.603  1.00  0.00     0.013 A 
HETATM   20  C   UNL     1      -9.531   4.547 -32.485  1.00  0.00     0.012 A 
HETATM   21  C   UNL     1      -9.592   2.313 -31.567  1.00  0.00     0.012 A 
HETATM   22  C   UNL     1      -8.906   5.553 -33.216  1.00  0.00     0.001 A 
HETATM   23  C   UNL     1      -7.661   5.317 -33.774  1.00  0.00     0.001 A 
HETATM   24  C   UNL     1      -9.031   1.058 -31.377  1.00  0.00     0.002 A 
HETATM   25  C   UNL     1      -7.787   0.765 -31.926  1.00  0.00     0.009 A 
ENDBRANCH   8  16
TORSDOF 1
ENDMDL
MODEL 10
REMARK VINA RESULT:      -7.3     17.792     19.455
REMARK  1 active torsions:
REMARK  status: ('A' for Active; 'I' for Inactive)
REMARK    1  A    between atoms: C_8  and  C_9 
ROOT
HETATM    1  C   UNL     1      -5.241 -11.987 -40.010  1.00  0.00     0.073 C 
HETATM    2  C   UNL     1      -4.654 -12.400 -38.704  1.00  0.00     0.062 A 
HETATM    3  N   UNL     1      -3.362 -12.162 -38.472  1.00  0.00    -0.178 NA
HETATM    4  N   UNL     1      -3.180 -12.586 -37.222  1.00  0.00    -0.262 N 
HETATM    5  H   UNL     1      -2.259 -12.475 -36.815  1.00  0.00     0.191 HD
HETATM    6  C   UNL     1      -4.292 -13.139 -36.640  1.00  0.00     0.134 A 
HETATM    7  C   UNL     1      -5.299 -13.051 -37.589  1.00  0.00     0.032 A 
HETATM    8  C   UNL     1      -6.764 -13.369 -37.532  1.00  0.00     0.120 C 
HETATM    9  S   UNL     1      -7.469 -13.761 -35.913  1.00  0.00    -0.141 SA
HETATM   10  C   UNL     1      -6.307 -14.952 -35.192  1.00  0.00     0.136 C 
HETATM   11  C   UNL     1      -5.922 -16.170 -36.014  1.00  0.00     0.031 C 
HETATM   12  C   UNL     1      -5.091 -14.274 -34.592  1.00  0.00     0.236 C 
HETATM   13  O   UNL     1      -4.815 -14.435 -33.396  1.00  0.00    -0.272 OA
HETATM   14  N   UNL     1      -4.193 -13.579 -35.340  1.00  0.00    -0.311 N 
HETATM   15  H   UNL     1      -3.372 -13.327 -34.799  1.00  0.00     0.170 HD
ENDROOT
BRANCH   8  16
HETATM   16  C   UNL     1      -7.178 -14.333 -38.655  1.00  0.00    -0.029 A 
HETATM   17  C   UNL     1      -8.446 -14.175 -39.320  1.00  0.00    -0.018 A 
HETATM   18  C   UNL     1      -8.790 -15.071 -40.369  1.00  0.00    -0.025 A 
HETATM   19  C   UNL     1      -9.400 -13.170 -39.014  1.00  0.00     0.013 A 
HETATM   20  C   UNL     1     -10.013 -14.941 -41.051  1.00  0.00     0.012 A 
HETATM   21  C   UNL     1      -7.913 -16.094 -40.740  1.00  0.00     0.012 A 
HETATM   22  C   UNL     1     -10.919 -13.937 -40.721  1.00  0.00     0.001 A 
HETATM   23  C   UNL     1     -10.613 -13.052 -39.701  1.00  0.00     0.001 A 
HETATM   24  C   UNL     1      -6.692 -16.249 -40.101  1.00  0.00     0.002 A 
HETATM   25  C   UNL     1      -6.330 -15.381 -39.076  1.00  0.00     0.009 A 
ENDBRANCH   8  16
TORSDOF 1
ENDMDL
