MODEL 1
REMARK VINA RESULT:      -8.5      0.000      0.000
REMARK  9 active torsions:
REMARK  status: ('A' for Active; 'I' for Inactive)
REMARK    1  A    between atoms: C_7  and  C_8 
REMARK    2  A    between atoms: C_9  and  O_10 
REMARK    3  A    between atoms: C_12  and  N_13 
REMARK    4  A    between atoms: N_13  and  C_14 
REMARK    5  A    between atoms: C_14  and  N_15 
REMARK       I    between atoms: N_15  and  C_16 
REMARK    6  A    between atoms: C_16  and  C_17 
REMARK    7  A    between atoms: C_19  and  O_20 
REMARK    8  A    between atoms: O_20  and  C_21 
REMARK    9  A    between atoms: C_21  and  C_22 
ROOT
HETATM    1  N   UNL     1      -8.345   5.247 -33.064  1.00  0.00    -0.337 N 
HETATM    2  H   UNL     1      -9.089   5.611 -33.651  1.00  0.00     0.168 HD
ENDROOT
BRANCH   1   3
HETATM    3  C   UNL     1      -7.961   3.926 -33.372  1.00  0.00     0.036 A 
HETATM    4  C   UNL     1      -8.804   2.902 -32.932  1.00  0.00     0.067 A 
HETATM    5  C   UNL     1      -8.470   1.562 -33.140  1.00  0.00     0.082 A 
HETATM    6  C   UNL     1      -7.269   1.202 -33.770  1.00  0.00     0.050 A 
HETATM    7  C   UNL     1      -6.423   2.243 -34.194  1.00  0.00     0.021 A 
HETATM    8  C   UNL     1      -6.763   3.590 -33.999  1.00  0.00     0.030 A 
BRANCH   5   9
HETATM    9  O   UNL     1      -9.390   0.658 -32.673  1.00  0.00    -0.360 OA
HETATM   10  H   UNL     1      -9.167   0.437 -31.750  1.00  0.00     0.217 HD
ENDBRANCH   5   9
BRANCH   6  11
HETATM   11  C   UNL     1      -6.843  -0.180 -33.988  1.00  0.00     0.183 A 
HETATM   12  N   UNL     1      -7.515  -1.189 -34.513  1.00  0.00    -0.221 NA
HETATM   13  C   UNL     1      -6.624  -2.232 -34.481  1.00  0.00     0.093 A 
HETATM   14  C   UNL     1      -5.429  -1.813 -33.924  1.00  0.00     0.107 A 
HETATM   15  C   UNL     1      -6.743  -3.562 -34.901  1.00  0.00     0.035 A 
HETATM   16  C   UNL     1      -4.312  -2.618 -33.736  1.00  0.00     0.046 A 
HETATM   17  O   UNL     1      -5.559  -0.494 -33.604  1.00  0.00    -0.289 OA
HETATM   18  C   UNL     1      -4.433  -3.951 -34.165  1.00  0.00    -0.059 A 
HETATM   19  C   UNL     1      -3.289  -4.908 -33.981  1.00  0.00     0.048 C 
HETATM   20  C   UNL     1      -5.637  -4.411 -34.732  1.00  0.00     0.009 A 
ENDBRANCH   6  11
ENDBRANCH   1   3
BRANCH   1  21
HETATM   21  C   UNL     1      -8.105   6.000 -31.971  1.00  0.00     0.157 C 
HETATM   22  S   UNL     1      -9.170   7.238 -31.594  1.00  0.00    -0.047 SA
BRANCH  21  23
HETATM   23  N   UNL     1      -6.994   5.874 -31.199  1.00  0.00    -0.201 NA
HETATM   24  C   UNL     1      -6.805   4.778 -30.364  1.00  0.00     0.237 C 
HETATM   25  O   UNL     1      -7.510   4.476 -29.408  1.00  0.00    -0.274 OA
HETATM   26  H   UNL     1      -6.209   6.062 -31.804  1.00  0.00     0.139 HD
BRANCH  24  27
HETATM   27  C   UNL     1      -5.615   3.925 -30.656  1.00  0.00     0.029 A 
HETATM   28  C   UNL     1      -4.374   4.446 -31.057  1.00  0.00     0.053 A 
HETATM   29  C   UNL     1      -3.334   3.576 -31.393  1.00  0.00     0.069 A 
HETATM   30  C   UNL     1      -3.523   2.195 -31.284  1.00  0.00     0.037 A 
HETATM   31  C   UNL     1      -4.741   1.675 -30.855  1.00  0.00     0.004 A 
HETATM   32  C   UNL     1      -5.786   2.538 -30.544  1.00  0.00     0.017 A 
BRANCH  29  33
HETATM   33  O   UNL     1      -2.092   3.937 -31.835  1.00  0.00    -0.351 OA
BRANCH  33  34
HETATM   34  C   UNL     1      -1.981   5.132 -32.608  1.00  0.00     0.179 C 
BRANCH  34  35
HETATM   35  C   UNL     1      -2.222   4.810 -34.093  1.00  0.00     0.002 C 
HETATM   36  C   UNL     1      -3.550   5.383 -34.587  1.00  0.00     0.011 C 
HETATM   37  C   UNL     1      -1.073   5.331 -34.960  1.00  0.00     0.011 C 
ENDBRANCH  34  35
ENDBRANCH  33  34
ENDBRANCH  29  33
ENDBRANCH  24  27
ENDBRANCH  21  23
ENDBRANCH   1  21
TORSDOF 9
ENDMDL
MODEL 2
REMARK VINA RESULT:      -8.4      2.677      4.175
REMARK  9 active torsions:
REMARK  status: ('A' for Active; 'I' for Inactive)
REMARK    1  A    between atoms: C_7  and  C_8 
REMARK    2  A    between atoms: C_9  and  O_10 
REMARK    3  A    between atoms: C_12  and  N_13 
REMARK    4  A    between atoms: N_13  and  C_14 
REMARK    5  A    between atoms: C_14  and  N_15 
REMARK       I    between atoms: N_15  and  C_16 
REMARK    6  A    between atoms: C_16  and  C_17 
REMARK    7  A    between atoms: C_19  and  O_20 
REMARK    8  A    between atoms: O_20  and  C_21 
REMARK    9  A    between atoms: C_21  and  C_22 
ROOT
HETATM    1  N   UNL     1      -5.310   6.331 -28.931  1.00  0.00    -0.337 N 
HETATM    2  H   UNL     1      -5.090   6.164 -27.954  1.00  0.00     0.168 HD
ENDROOT
BRANCH   1   3
HETATM    3  C   UNL     1      -5.272   5.174 -29.736  1.00  0.00     0.036 A 
HETATM    4  C   UNL     1      -6.012   4.072 -29.297  1.00  0.00     0.067 A 
HETATM    5  C   UNL     1      -5.982   2.865 -30.000  1.00  0.00     0.082 A 
HETATM    6  C   UNL     1      -5.192   2.713 -31.149  1.00  0.00     0.050 A 
HETATM    7  C   UNL     1      -4.442   3.825 -31.571  1.00  0.00     0.021 A 
HETATM    8  C   UNL     1      -4.481   5.043 -30.875  1.00  0.00     0.030 A 
BRANCH   5   9
HETATM    9  O   UNL     1      -6.764   1.869 -29.471  1.00  0.00    -0.360 OA
HETATM   10  H   UNL     1      -6.872   2.034 -28.516  1.00  0.00     0.217 HD
ENDBRANCH   5   9
BRANCH   6  11
HETATM   11  C   UNL     1      -5.089   1.469 -31.911  1.00  0.00     0.183 A 
HETATM   12  N   UNL     1      -4.008   0.811 -32.295  1.00  0.00    -0.221 NA
HETATM   13  C   UNL     1      -4.505  -0.283 -32.958  1.00  0.00     0.093 A 
HETATM   14  C   UNL     1      -5.888  -0.244 -32.958  1.00  0.00     0.107 A 
HETATM   15  C   UNL     1      -3.860  -1.352 -33.589  1.00  0.00     0.035 A 
HETATM   16  C   UNL     1      -6.711  -1.196 -33.548  1.00  0.00     0.046 A 
HETATM   17  O   UNL     1      -6.274   0.878 -32.286  1.00  0.00    -0.289 OA
HETATM   18  C   UNL     1      -6.060  -2.273 -34.174  1.00  0.00    -0.059 A 
HETATM   19  C   UNL     1      -6.862  -3.340 -34.864  1.00  0.00     0.048 C 
HETATM   20  C   UNL     1      -4.653  -2.340 -34.196  1.00  0.00     0.009 A 
ENDBRANCH   6  11
ENDBRANCH   1   3
BRANCH   1  21
HETATM   21  C   UNL     1      -5.307   7.636 -29.268  1.00  0.00     0.157 C 
HETATM   22  S   UNL     1      -6.769   8.393 -29.579  1.00  0.00    -0.047 SA
BRANCH  21  23
HETATM   23  N   UNL     1      -4.174   8.362 -29.460  1.00  0.00    -0.201 NA
HETATM   24  C   UNL     1      -2.958   7.979 -28.904  1.00  0.00     0.237 C 
HETATM   25  O   UNL     1      -2.712   7.901 -27.706  1.00  0.00    -0.274 OA
HETATM   26  H   UNL     1      -4.125   8.549 -30.451  1.00  0.00     0.139 HD
BRANCH  24  27
HETATM   27  C   UNL     1      -1.861   7.670 -29.868  1.00  0.00     0.029 A 
HETATM   28  C   UNL     1      -2.004   7.788 -31.260  1.00  0.00     0.053 A 
HETATM   29  C   UNL     1      -0.956   7.400 -32.099  1.00  0.00     0.069 A 
HETATM   30  C   UNL     1       0.242   6.939 -31.544  1.00  0.00     0.037 A 
HETATM   31  C   UNL     1       0.400   6.852 -30.163  1.00  0.00     0.004 A 
HETATM   32  C   UNL     1      -0.651   7.215 -29.327  1.00  0.00     0.017 A 
BRANCH  29  33
HETATM   33  O   UNL     1      -0.967   7.422 -33.465  1.00  0.00    -0.351 OA
BRANCH  33  34
HETATM   34  C   UNL     1      -2.204   7.154 -34.127  1.00  0.00     0.179 C 
BRANCH  34  35
HETATM   35  C   UNL     1      -2.368   5.637 -34.318  1.00  0.00     0.002 C 
HETATM   36  C   UNL     1      -3.664   5.297 -35.056  1.00  0.00     0.011 C 
HETATM   37  C   UNL     1      -1.172   5.047 -35.068  1.00  0.00     0.011 C 
ENDBRANCH  34  35
ENDBRANCH  33  34
ENDBRANCH  29  33
ENDBRANCH  24  27
ENDBRANCH  21  23
ENDBRANCH   1  21
TORSDOF 9
ENDMDL
MODEL 3
REMARK VINA RESULT:      -8.3      2.795      4.425
REMARK  9 active torsions:
REMARK  status: ('A' for Active; 'I' for Inactive)
REMARK    1  A    between atoms: C_7  and  C_8 
REMARK    2  A    between atoms: C_9  and  O_10 
REMARK    3  A    between atoms: C_12  and  N_13 
REMARK    4  A    between atoms: N_13  and  C_14 
REMARK    5  A    between atoms: C_14  and  N_15 
REMARK       I    between atoms: N_15  and  C_16 
REMARK    6  A    between atoms: C_16  and  C_17 
REMARK    7  A    between atoms: C_19  and  O_20 
REMARK    8  A    between atoms: O_20  and  C_21 
REMARK    9  A    between atoms: C_21  and  C_22 
ROOT
HETATM    1  N   UNL     1      -5.045   6.710 -28.517  1.00  0.00    -0.337 N 
HETATM    2  H   UNL     1      -4.771   6.325 -27.619  1.00  0.00     0.168 HD
ENDROOT
BRANCH   1   3
HETATM    3  C   UNL     1      -5.371   5.739 -29.485  1.00  0.00     0.036 A 
HETATM    4  C   UNL     1      -6.084   4.619 -29.045  1.00  0.00     0.067 A 
HETATM    5  C   UNL     1      -6.396   3.579 -29.924  1.00  0.00     0.082 A 
HETATM    6  C   UNL     1      -5.983   3.612 -31.264  1.00  0.00     0.050 A 
HETATM    7  C   UNL     1      -5.254   4.737 -31.689  1.00  0.00     0.021 A 
HETATM    8  C   UNL     1      -4.951   5.790 -30.812  1.00  0.00     0.030 A 
BRANCH   5   9
HETATM    9  O   UNL     1      -7.110   2.548 -29.367  1.00  0.00    -0.360 OA
HETATM   10  H   UNL     1      -6.511   2.026 -28.801  1.00  0.00     0.217 HD
ENDBRANCH   5   9
BRANCH   6  11
HETATM   11  C   UNL     1      -6.245   2.543 -32.226  1.00  0.00     0.183 A 
HETATM   12  N   UNL     1      -6.845   2.605 -33.402  1.00  0.00    -0.221 NA
HETATM   13  C   UNL     1      -6.796   1.315 -33.867  1.00  0.00     0.093 A 
HETATM   14  C   UNL     1      -6.166   0.505 -32.940  1.00  0.00     0.107 A 
HETATM   15  C   UNL     1      -7.261   0.744 -35.057  1.00  0.00     0.035 A 
HETATM   16  C   UNL     1      -5.952  -0.860 -33.090  1.00  0.00     0.046 A 
HETATM   17  O   UNL     1      -5.806   1.285 -31.881  1.00  0.00    -0.289 OA
HETATM   18  C   UNL     1      -6.414  -1.429 -34.290  1.00  0.00    -0.059 A 
HETATM   19  C   UNL     1      -6.253  -2.903 -34.535  1.00  0.00     0.048 C 
HETATM   20  C   UNL     1      -7.064  -0.634 -35.252  1.00  0.00     0.009 A 
ENDBRANCH   6  11
ENDBRANCH   1   3
BRANCH   1  21
HETATM   21  C   UNL     1      -4.763   8.023 -28.649  1.00  0.00     0.157 C 
HETATM   22  S   UNL     1      -6.030   9.114 -28.757  1.00  0.00    -0.047 SA
BRANCH  21  23
HETATM   23  N   UNL     1      -3.503   8.511 -28.790  1.00  0.00    -0.201 NA
HETATM   24  C   UNL     1      -2.384   7.749 -28.474  1.00  0.00     0.237 C 
HETATM   25  O   UNL     1      -2.099   7.322 -27.361  1.00  0.00    -0.274 OA
HETATM   26  H   UNL     1      -3.464   8.925 -29.710  1.00  0.00     0.139 HD
BRANCH  24  27
HETATM   27  C   UNL     1      -1.444   7.463 -29.598  1.00  0.00     0.029 A 
HETATM   28  C   UNL     1      -1.761   7.697 -30.946  1.00  0.00     0.053 A 
HETATM   29  C   UNL     1      -0.858   7.324 -31.945  1.00  0.00     0.069 A 
HETATM   30  C   UNL     1       0.373   6.762 -31.592  1.00  0.00     0.037 A 
HETATM   31  C   UNL     1       0.706   6.559 -30.255  1.00  0.00     0.004 A 
HETATM   32  C   UNL     1      -0.202   6.907 -29.260  1.00  0.00     0.017 A 
BRANCH  29  33
HETATM   33  O   UNL     1      -1.047   7.454 -33.292  1.00  0.00    -0.351 OA
BRANCH  33  34
HETATM   34  C   UNL     1      -2.338   7.144 -33.817  1.00  0.00     0.179 C 
BRANCH  34  35
HETATM   35  C   UNL     1      -2.393   5.656 -34.206  1.00  0.00     0.002 C 
HETATM   36  C   UNL     1      -3.650   5.329 -35.012  1.00  0.00     0.011 C 
HETATM   37  C   UNL     1      -1.146   5.250 -34.995  1.00  0.00     0.011 C 
ENDBRANCH  34  35
ENDBRANCH  33  34
ENDBRANCH  29  33
ENDBRANCH  24  27
ENDBRANCH  21  23
ENDBRANCH   1  21
TORSDOF 9
ENDMDL
MODEL 4
REMARK VINA RESULT:      -8.2      2.469      7.685
REMARK  9 active torsions:
REMARK  status: ('A' for Active; 'I' for Inactive)
REMARK    1  A    between atoms: C_7  and  C_8 
REMARK    2  A    between atoms: C_9  and  O_10 
REMARK    3  A    between atoms: C_12  and  N_13 
REMARK    4  A    between atoms: N_13  and  C_14 
REMARK    5  A    between atoms: C_14  and  N_15 
REMARK       I    between atoms: N_15  and  C_16 
REMARK    6  A    between atoms: C_16  and  C_17 
REMARK    7  A    between atoms: C_19  and  O_20 
REMARK    8  A    between atoms: O_20  and  C_21 
REMARK    9  A    between atoms: C_21  and  C_22 
ROOT
HETATM    1  N   UNL     1      -9.247   4.253 -32.556  1.00  0.00    -0.337 N 
HETATM    2  H   UNL     1      -9.512   4.405 -33.525  1.00  0.00     0.168 HD
ENDROOT
BRANCH   1   3
HETATM    3  C   UNL     1      -7.929   4.649 -32.251  1.00  0.00     0.036 A 
HETATM    4  C   UNL     1      -7.090   4.945 -33.329  1.00  0.00     0.067 A 
HETATM    5  C   UNL     1      -5.751   5.286 -33.121  1.00  0.00     0.082 A 
HETATM    6  C   UNL     1      -5.202   5.316 -31.830  1.00  0.00     0.050 A 
HETATM    7  C   UNL     1      -6.053   5.001 -30.756  1.00  0.00     0.021 A 
HETATM    8  C   UNL     1      -7.402   4.672 -30.961  1.00  0.00     0.030 A 
BRANCH   5   9
HETATM    9  O   UNL     1      -5.043   5.567 -34.261  1.00  0.00    -0.360 OA
HETATM   10  H   UNL     1      -5.527   6.245 -34.768  1.00  0.00     0.217 HD
ENDBRANCH   5   9
BRANCH   6  11
HETATM   11  C   UNL     1      -3.802   5.629 -31.545  1.00  0.00     0.183 A 
HETATM   12  N   UNL     1      -2.717   5.310 -32.231  1.00  0.00    -0.221 NA
HETATM   13  C   UNL     1      -1.694   5.874 -31.512  1.00  0.00     0.093 A 
HETATM   14  C   UNL     1      -2.202   6.518 -30.397  1.00  0.00     0.107 A 
HETATM   15  C   UNL     1      -0.312   5.889 -31.728  1.00  0.00     0.035 A 
HETATM   16  C   UNL     1      -1.439   7.190 -29.450  1.00  0.00     0.046 A 
HETATM   17  O   UNL     1      -3.557   6.368 -30.410  1.00  0.00    -0.289 OA
HETATM   18  C   UNL     1      -0.051   7.209 -29.674  1.00  0.00    -0.059 A 
HETATM   19  C   UNL     1       0.861   7.888 -28.692  1.00  0.00     0.048 C 
HETATM   20  C   UNL     1       0.498   6.560 -30.796  1.00  0.00     0.009 A 
ENDBRANCH   6  11
ENDBRANCH   1   3
BRANCH   1  21
HETATM   21  C   UNL     1     -10.107   3.465 -31.880  1.00  0.00     0.157 C 
HETATM   22  S   UNL     1     -11.417   4.173 -31.111  1.00  0.00    -0.047 SA
BRANCH  21  23
HETATM   23  N   UNL     1      -9.928   2.129 -31.708  1.00  0.00    -0.201 NA
HETATM   24  C   UNL     1      -9.662   1.283 -32.779  1.00  0.00     0.237 C 
HETATM   25  O   UNL     1     -10.412   1.066 -33.724  1.00  0.00    -0.274 OA
HETATM   26  H   UNL     1      -9.277   2.030 -30.943  1.00  0.00     0.139 HD
BRANCH  24  27
HETATM   27  C   UNL     1      -8.355   0.563 -32.741  1.00  0.00     0.029 A 
HETATM   28  C   UNL     1      -7.850  -0.175 -33.824  1.00  0.00     0.053 A 
HETATM   29  C   UNL     1      -6.658  -0.890 -33.679  1.00  0.00     0.069 A 
HETATM   30  C   UNL     1      -5.954  -0.828 -32.472  1.00  0.00     0.037 A 
HETATM   31  C   UNL     1      -6.434  -0.070 -31.407  1.00  0.00     0.004 A 
HETATM   32  C   UNL     1      -7.634   0.622 -31.540  1.00  0.00     0.017 A 
BRANCH  29  33
HETATM   33  O   UNL     1      -6.070  -1.677 -34.629  1.00  0.00    -0.351 OA
BRANCH  33  34
HETATM   34  C   UNL     1      -5.045  -2.577 -34.208  1.00  0.00     0.179 C 
BRANCH  34  35
HETATM   35  C   UNL     1      -5.277  -3.958 -34.845  1.00  0.00     0.002 C 
HETATM   36  C   UNL     1      -4.489  -5.052 -34.124  1.00  0.00     0.011 C 
HETATM   37  C   UNL     1      -6.766  -4.311 -34.859  1.00  0.00     0.011 C 
ENDBRANCH  34  35
ENDBRANCH  33  34
ENDBRANCH  29  33
ENDBRANCH  24  27
ENDBRANCH  21  23
ENDBRANCH   1  21
TORSDOF 9
ENDMDL
MODEL 5
REMARK VINA RESULT:      -8.0      2.104      3.391
REMARK  9 active torsions:
REMARK  status: ('A' for Active; 'I' for Inactive)
REMARK    1  A    between atoms: C_7  and  C_8 
REMARK    2  A    between atoms: C_9  and  O_10 
REMARK    3  A    between atoms: C_12  and  N_13 
REMARK    4  A    between atoms: N_13  and  C_14 
REMARK    5  A    between atoms: C_14  and  N_15 
REMARK       I    between atoms: N_15  and  C_16 
REMARK    6  A    between atoms: C_16  and  C_17 
REMARK    7  A    between atoms: C_19  and  O_20 
REMARK    8  A    between atoms: O_20  and  C_21 
REMARK    9  A    between atoms: C_21  and  C_22 
ROOT
HETATM    1  N   UNL     1      -7.306   4.969 -29.279  1.00  0.00    -0.337 N 
HETATM    2  H   UNL     1      -7.132   4.938 -28.279  1.00  0.00     0.168 HD
ENDROOT
BRANCH   1   3
HETATM    3  C   UNL     1      -6.992   3.773 -29.955  1.00  0.00     0.036 A 
HETATM    4  C   UNL     1      -5.636   3.497 -30.157  1.00  0.00     0.067 A 
HETATM    5  C   UNL     1      -5.236   2.364 -30.872  1.00  0.00     0.082 A 
HETATM    6  C   UNL     1      -6.178   1.487 -31.429  1.00  0.00     0.050 A 
HETATM    7  C   UNL     1      -7.538   1.785 -31.231  1.00  0.00     0.021 A 
HETATM    8  C   UNL     1      -7.943   2.914 -30.501  1.00  0.00     0.030 A 
BRANCH   5   9
HETATM    9  O   UNL     1      -3.879   2.204 -30.985  1.00  0.00    -0.360 OA
HETATM   10  H   UNL     1      -3.668   1.257 -30.878  1.00  0.00     0.217 HD
ENDBRANCH   5   9
BRANCH   6  11
HETATM   11  C   UNL     1      -5.828   0.306 -32.217  1.00  0.00     0.183 A 
HETATM   12  N   UNL     1      -4.637  -0.216 -32.458  1.00  0.00    -0.221 NA
HETATM   13  C   UNL     1      -4.908  -1.315 -33.233  1.00  0.00     0.093 A 
HETATM   14  C   UNL     1      -6.272  -1.418 -33.443  1.00  0.00     0.107 A 
HETATM   15  C   UNL     1      -4.064  -2.275 -33.802  1.00  0.00     0.035 A 
HETATM   16  C   UNL     1      -6.890  -2.414 -34.189  1.00  0.00     0.046 A 
HETATM   17  O   UNL     1      -6.873  -0.381 -32.792  1.00  0.00    -0.289 OA
HETATM   18  C   UNL     1      -6.040  -3.381 -34.753  1.00  0.00    -0.059 A 
HETATM   19  C   UNL     1      -6.610  -4.484 -35.599  1.00  0.00     0.048 C 
HETATM   20  C   UNL     1      -4.647  -3.302 -34.563  1.00  0.00     0.009 A 
ENDBRANCH   6  11
ENDBRANCH   1   3
BRANCH   1  21
HETATM   21  C   UNL     1      -7.525   6.214 -29.749  1.00  0.00     0.157 C 
HETATM   22  S   UNL     1      -8.470   7.264 -28.848  1.00  0.00    -0.047 SA
BRANCH  21  23
HETATM   23  N   UNL     1      -7.095   6.645 -30.964  1.00  0.00    -0.201 NA
HETATM   24  C   UNL     1      -5.834   7.205 -31.137  1.00  0.00     0.237 C 
HETATM   25  O   UNL     1      -5.435   8.243 -30.622  1.00  0.00    -0.274 OA
HETATM   26  H   UNL     1      -7.300   5.901 -31.615  1.00  0.00     0.139 HD
BRANCH  24  27
HETATM   27  C   UNL     1      -4.912   6.479 -32.060  1.00  0.00     0.029 A 
HETATM   28  C   UNL     1      -3.514   6.501 -31.925  1.00  0.00     0.053 A 
HETATM   29  C   UNL     1      -2.717   5.864 -32.879  1.00  0.00     0.069 A 
HETATM   30  C   UNL     1      -3.318   5.171 -33.935  1.00  0.00     0.037 A 
HETATM   31  C   UNL     1      -4.705   5.119 -34.054  1.00  0.00     0.004 A 
HETATM   32  C   UNL     1      -5.500   5.774 -33.118  1.00  0.00     0.017 A 
BRANCH  29  33
HETATM   33  O   UNL     1      -1.351   5.835 -32.898  1.00  0.00    -0.351 OA
BRANCH  33  34
HETATM   34  C   UNL     1      -0.653   7.025 -32.532  1.00  0.00     0.179 C 
BRANCH  34  35
HETATM   35  C   UNL     1       0.257   6.739 -31.325  1.00  0.00     0.002 C 
HETATM   36  C   UNL     1      -0.332   7.293 -30.028  1.00  0.00     0.011 C 
HETATM   37  C   UNL     1       0.517   5.237 -31.180  1.00  0.00     0.011 C 
ENDBRANCH  34  35
ENDBRANCH  33  34
ENDBRANCH  29  33
ENDBRANCH  24  27
ENDBRANCH  21  23
ENDBRANCH   1  21
TORSDOF 9
ENDMDL
MODEL 6
REMARK VINA RESULT:      -8.0     16.273     17.904
REMARK  9 active torsions:
REMARK  status: ('A' for Active; 'I' for Inactive)
REMARK    1  A    between atoms: C_7  and  C_8 
REMARK    2  A    between atoms: C_9  and  O_10 
REMARK    3  A    between atoms: C_12  and  N_13 
REMARK    4  A    between atoms: N_13  and  C_14 
REMARK    5  A    between atoms: C_14  and  N_15 
REMARK       I    between atoms: N_15  and  C_16 
REMARK    6  A    between atoms: C_16  and  C_17 
REMARK    7  A    between atoms: C_19  and  O_20 
REMARK    8  A    between atoms: O_20  and  C_21 
REMARK    9  A    between atoms: C_21  and  C_22 
ROOT
HETATM    1  N   UNL     1      -3.469 -15.733 -33.689  1.00  0.00    -0.337 N 
HETATM    2  H   UNL     1      -3.868 -15.851 -32.763  1.00  0.00     0.168 HD
ENDROOT
BRANCH   1   3
HETATM    3  C   UNL     1      -4.413 -15.415 -34.686  1.00  0.00     0.036 A 
HETATM    4  C   UNL     1      -5.249 -14.321 -34.442  1.00  0.00     0.067 A 
HETATM    5  C   UNL     1      -6.253 -13.973 -35.349  1.00  0.00     0.082 A 
HETATM    6  C   UNL     1      -6.471 -14.722 -36.515  1.00  0.00     0.050 A 
HETATM    7  C   UNL     1      -5.631 -15.828 -36.741  1.00  0.00     0.021 A 
HETATM    8  C   UNL     1      -4.613 -16.171 -35.839  1.00  0.00     0.030 A 
BRANCH   5   9
HETATM    9  O   UNL     1      -6.993 -12.873 -34.997  1.00  0.00    -0.360 OA
HETATM   10  H   UNL     1      -7.069 -12.848 -34.025  1.00  0.00     0.217 HD
ENDBRANCH   5   9
BRANCH   6  11
HETATM   11  C   UNL     1      -7.525 -14.433 -37.487  1.00  0.00     0.183 A 
HETATM   12  N   UNL     1      -8.276 -15.273 -38.180  1.00  0.00    -0.221 NA
HETATM   13  C   UNL     1      -9.095 -14.454 -38.915  1.00  0.00     0.093 A 
HETATM   14  C   UNL     1      -8.802 -13.129 -38.643  1.00  0.00     0.107 A 
HETATM   15  C   UNL     1     -10.109 -14.745 -39.834  1.00  0.00     0.035 A 
HETATM   16  C   UNL     1      -9.441 -12.038 -39.220  1.00  0.00     0.046 A 
HETATM   17  O   UNL     1      -7.795 -13.105 -37.725  1.00  0.00    -0.289 OA
HETATM   18  C   UNL     1     -10.464 -12.335 -40.137  1.00  0.00    -0.059 A 
HETATM   19  C   UNL     1     -11.196 -11.223 -40.834  1.00  0.00     0.048 C 
HETATM   20  C   UNL     1     -10.783 -13.672 -40.440  1.00  0.00     0.009 A 
ENDBRANCH   6  11
ENDBRANCH   1   3
BRANCH   1  21
HETATM   21  C   UNL     1      -2.200 -16.178 -33.789  1.00  0.00     0.157 C 
HETATM   22  S   UNL     1      -1.787 -17.615 -33.033  1.00  0.00    -0.047 SA
BRANCH  21  23
HETATM   23  N   UNL     1      -1.204 -15.481 -34.396  1.00  0.00    -0.201 NA
HETATM   24  C   UNL     1      -0.721 -15.839 -35.650  1.00  0.00     0.237 C 
HETATM   25  O   UNL     1      -0.161 -16.893 -35.928  1.00  0.00    -0.274 OA
HETATM   26  H   UNL     1      -1.458 -14.507 -34.323  1.00  0.00     0.139 HD
BRANCH  24  27
HETATM   27  C   UNL     1      -0.883 -14.823 -36.732  1.00  0.00     0.029 A 
HETATM   28  C   UNL     1      -1.884 -13.838 -36.720  1.00  0.00     0.053 A 
HETATM   29  C   UNL     1      -2.021 -12.976 -37.811  1.00  0.00     0.069 A 
HETATM   30  C   UNL     1      -1.132 -13.073 -38.886  1.00  0.00     0.037 A 
HETATM   31  C   UNL     1      -0.117 -14.027 -38.888  1.00  0.00     0.004 A 
HETATM   32  C   UNL     1       0.005 -14.902 -37.814  1.00  0.00     0.017 A 
BRANCH  29  33
HETATM   33  O   UNL     1      -2.967 -12.001 -37.954  1.00  0.00    -0.351 OA
BRANCH  33  34
HETATM   34  C   UNL     1      -4.316 -12.408 -38.180  1.00  0.00     0.179 C 
BRANCH  34  35
HETATM   35  C   UNL     1      -4.520 -12.708 -39.676  1.00  0.00     0.002 C 
HETATM   36  C   UNL     1      -4.745 -14.199 -39.928  1.00  0.00     0.011 C 
HETATM   37  C   UNL     1      -5.691 -11.901 -40.242  1.00  0.00     0.011 C 
ENDBRANCH  34  35
ENDBRANCH  33  34
ENDBRANCH  29  33
ENDBRANCH  24  27
ENDBRANCH  21  23
ENDBRANCH   1  21
TORSDOF 9
ENDMDL
MODEL 7
REMARK VINA RESULT:      -7.7      2.472      4.850
REMARK  9 active torsions:
REMARK  status: ('A' for Active; 'I' for Inactive)
REMARK    1  A    between atoms: C_7  and  C_8 
REMARK    2  A    between atoms: C_9  and  O_10 
REMARK    3  A    between atoms: C_12  and  N_13 
REMARK    4  A    between atoms: N_13  and  C_14 
REMARK    5  A    between atoms: C_14  and  N_15 
REMARK       I    between atoms: N_15  and  C_16 
REMARK    6  A    between atoms: C_16  and  C_17 
REMARK    7  A    between atoms: C_19  and  O_20 
REMARK    8  A    between atoms: O_20  and  C_21 
REMARK    9  A    between atoms: C_21  and  C_22 
ROOT
HETATM    1  N   UNL     1      -4.685   5.094 -29.887  1.00  0.00    -0.337 N 
HETATM    2  H   UNL     1      -3.881   5.674 -30.107  1.00  0.00     0.168 HD
ENDROOT
BRANCH   1   3
HETATM    3  C   UNL     1      -4.718   3.868 -30.582  1.00  0.00     0.036 A 
HETATM    4  C   UNL     1      -5.476   2.839 -30.015  1.00  0.00     0.067 A 
HETATM    5  C   UNL     1      -5.516   1.573 -30.604  1.00  0.00     0.082 A 
HETATM    6  C   UNL     1      -4.778   1.287 -31.762  1.00  0.00     0.050 A 
HETATM    7  C   UNL     1      -4.008   2.327 -32.313  1.00  0.00     0.021 A 
HETATM    8  C   UNL     1      -3.977   3.604 -31.732  1.00  0.00     0.030 A 
BRANCH   5   9
HETATM    9  O   UNL     1      -6.308   0.660 -29.956  1.00  0.00    -0.360 OA
HETATM   10  H   UNL     1      -5.733   0.013 -29.506  1.00  0.00     0.217 HD
ENDBRANCH   5   9
BRANCH   6  11
HETATM   11  C   UNL     1      -4.746  -0.025 -32.408  1.00  0.00     0.183 A 
HETATM   12  N   UNL     1      -3.797  -0.945 -32.386  1.00  0.00    -0.221 NA
HETATM   13  C   UNL     1      -4.310  -1.967 -33.145  1.00  0.00     0.093 A 
HETATM   14  C   UNL     1      -5.565  -1.621 -33.612  1.00  0.00     0.107 A 
HETATM   15  C   UNL     1      -3.782  -3.216 -33.491  1.00  0.00     0.035 A 
HETATM   16  C   UNL     1      -6.364  -2.425 -34.417  1.00  0.00     0.046 A 
HETATM   17  O   UNL     1      -5.856  -0.375 -33.143  1.00  0.00    -0.289 OA
HETATM   18  C   UNL     1      -5.834  -3.681 -34.756  1.00  0.00    -0.059 A 
HETATM   19  C   UNL     1      -6.611  -4.612 -35.644  1.00  0.00     0.048 C 
HETATM   20  C   UNL     1      -4.557  -4.062 -34.301  1.00  0.00     0.009 A 
ENDBRANCH   6  11
ENDBRANCH   1   3
BRANCH   1  21
HETATM   21  C   UNL     1      -5.651   5.748 -29.211  1.00  0.00     0.157 C 
HETATM   22  S   UNL     1      -5.515   5.895 -27.547  1.00  0.00    -0.047 SA
BRANCH  21  23
HETATM   23  N   UNL     1      -6.785   6.223 -29.790  1.00  0.00    -0.201 NA
HETATM   24  C   UNL     1      -6.873   6.433 -31.162  1.00  0.00     0.237 C 
HETATM   25  O   UNL     1      -6.203   7.230 -31.808  1.00  0.00    -0.274 OA
HETATM   26  H   UNL     1      -7.543   5.671 -29.416  1.00  0.00     0.139 HD
BRANCH  24  27
HETATM   27  C   UNL     1      -7.901   5.629 -31.887  1.00  0.00     0.029 A 
HETATM   28  C   UNL     1      -8.398   4.405 -31.410  1.00  0.00     0.053 A 
HETATM   29  C   UNL     1      -9.298   3.672 -32.188  1.00  0.00     0.069 A 
HETATM   30  C   UNL     1      -9.731   4.185 -33.415  1.00  0.00     0.037 A 
HETATM   31  C   UNL     1      -9.266   5.414 -33.876  1.00  0.00     0.004 A 
HETATM   32  C   UNL     1      -8.351   6.134 -33.114  1.00  0.00     0.017 A 
BRANCH  29  33
HETATM   33  O   UNL     1      -9.831   2.455 -31.872  1.00  0.00    -0.351 OA
BRANCH  33  34
HETATM   34  C   UNL     1      -9.003   1.302 -32.028  1.00  0.00     0.179 C 
BRANCH  34  35
HETATM   35  C   UNL     1      -9.566   0.410 -33.147  1.00  0.00     0.002 C 
HETATM   36  C   UNL     1     -11.055   0.668 -33.381  1.00  0.00     0.011 C 
HETATM   37  C   UNL     1      -8.791   0.612 -34.451  1.00  0.00     0.011 C 
ENDBRANCH  34  35
ENDBRANCH  33  34
ENDBRANCH  29  33
ENDBRANCH  24  27
ENDBRANCH  21  23
ENDBRANCH   1  21
TORSDOF 9
ENDMDL
MODEL 8
REMARK VINA RESULT:      -7.7      3.331      4.378
REMARK  9 active torsions:
REMARK  status: ('A' for Active; 'I' for Inactive)
REMARK    1  A    between atoms: C_7  and  C_8 
REMARK    2  A    between atoms: C_9  and  O_10 
REMARK    3  A    between atoms: C_12  and  N_13 
REMARK    4  A    between atoms: N_13  and  C_14 
REMARK    5  A    between atoms: C_14  and  N_15 
REMARK       I    between atoms: N_15  and  C_16 
REMARK    6  A    between atoms: C_16  and  C_17 
REMARK    7  A    between atoms: C_19  and  O_20 
REMARK    8  A    between atoms: O_20  and  C_21 
REMARK    9  A    between atoms: C_21  and  C_22 
ROOT
HETATM    1  N   UNL     1      -6.233   6.467 -28.850  1.00  0.00    -0.337 N 
HETATM    2  H   UNL     1      -6.598   6.266 -27.924  1.00  0.00     0.168 HD
ENDROOT
BRANCH   1   3
HETATM    3  C   UNL     1      -6.031   5.324 -29.650  1.00  0.00     0.036 A 
HETATM    4  C   UNL     1      -6.985   4.306 -29.554  1.00  0.00     0.067 A 
HETATM    5  C   UNL     1      -6.831   3.113 -30.265  1.00  0.00     0.082 A 
HETATM    6  C   UNL     1      -5.707   2.890 -31.074  1.00  0.00     0.050 A 
HETATM    7  C   UNL     1      -4.749   3.917 -31.150  1.00  0.00     0.021 A 
HETATM    8  C   UNL     1      -4.908   5.121 -30.449  1.00  0.00     0.030 A 
BRANCH   5   9
HETATM    9  O   UNL     1      -7.844   2.204 -30.092  1.00  0.00    -0.360 OA
HETATM   10  H   UNL     1      -8.678   2.607 -30.399  1.00  0.00     0.217 HD
ENDBRANCH   5   9
BRANCH   6  11
HETATM   11  C   UNL     1      -5.468   1.653 -31.816  1.00  0.00     0.183 A 
HETATM   12  N   UNL     1      -4.321   1.070 -32.123  1.00  0.00    -0.221 NA
HETATM   13  C   UNL     1      -4.697  -0.059 -32.807  1.00  0.00     0.093 A 
HETATM   14  C   UNL     1      -6.076  -0.117 -32.897  1.00  0.00     0.107 A 
HETATM   15  C   UNL     1      -3.939  -1.083 -33.385  1.00  0.00     0.035 A 
HETATM   16  C   UNL     1      -6.790  -1.127 -33.530  1.00  0.00     0.046 A 
HETATM   17  O   UNL     1      -6.582   0.978 -32.262  1.00  0.00    -0.289 OA
HETATM   18  C   UNL     1      -6.026  -2.158 -34.103  1.00  0.00    -0.059 A 
HETATM   19  C   UNL     1      -6.705  -3.283 -34.833  1.00  0.00     0.048 C 
HETATM   20  C   UNL     1      -4.620  -2.127 -34.033  1.00  0.00     0.009 A 
ENDBRANCH   6  11
ENDBRANCH   1   3
BRANCH   1  21
HETATM   21  C   UNL     1      -5.774   7.728 -28.985  1.00  0.00     0.157 C 
HETATM   22  S   UNL     1      -6.398   8.688 -30.209  1.00  0.00    -0.047 SA
BRANCH  21  23
HETATM   23  N   UNL     1      -4.762   8.244 -28.240  1.00  0.00    -0.201 NA
HETATM   24  C   UNL     1      -4.266   7.582 -27.122  1.00  0.00     0.237 C 
HETATM   25  O   UNL     1      -4.896   7.329 -26.101  1.00  0.00    -0.274 OA
HETATM   26  H   UNL     1      -4.046   8.525 -28.894  1.00  0.00     0.139 HD
BRANCH  24  27
HETATM   27  C   UNL     1      -2.830   7.179 -27.178  1.00  0.00     0.029 A 
HETATM   28  C   UNL     1      -2.021   7.367 -28.311  1.00  0.00     0.053 A 
HETATM   29  C   UNL     1      -0.709   6.886 -28.313  1.00  0.00     0.069 A 
HETATM   30  C   UNL     1      -0.198   6.263 -27.170  1.00  0.00     0.037 A 
HETATM   31  C   UNL     1      -0.986   6.103 -26.033  1.00  0.00     0.004 A 
HETATM   32  C   UNL     1      -2.300   6.559 -26.038  1.00  0.00     0.017 A 
BRANCH  29  33
HETATM   33  O   UNL     1       0.175   6.963 -29.351  1.00  0.00    -0.351 OA
BRANCH  33  34
HETATM   34  C   UNL     1      -0.354   7.097 -30.670  1.00  0.00     0.179 C 
BRANCH  34  35
HETATM   35  C   UNL     1      -0.001   5.849 -31.497  1.00  0.00     0.002 C 
HETATM   36  C   UNL     1       1.000   4.952 -30.768  1.00  0.00     0.011 C 
HETATM   37  C   UNL     1      -1.258   5.050 -31.847  1.00  0.00     0.011 C 
ENDBRANCH  34  35
ENDBRANCH  33  34
ENDBRANCH  29  33
ENDBRANCH  24  27
ENDBRANCH  21  23
ENDBRANCH   1  21
TORSDOF 9
ENDMDL
MODEL 9
REMARK VINA RESULT:      -7.6      4.017      5.110
REMARK  9 active torsions:
REMARK  status: ('A' for Active; 'I' for Inactive)
REMARK    1  A    between atoms: C_7  and  C_8 
REMARK    2  A    between atoms: C_9  and  O_10 
REMARK    3  A    between atoms: C_12  and  N_13 
REMARK    4  A    between atoms: N_13  and  C_14 
REMARK    5  A    between atoms: C_14  and  N_15 
REMARK       I    between atoms: N_15  and  C_16 
REMARK    6  A    between atoms: C_16  and  C_17 
REMARK    7  A    between atoms: C_19  and  O_20 
REMARK    8  A    between atoms: O_20  and  C_21 
REMARK    9  A    between atoms: C_21  and  C_22 
ROOT
HETATM    1  N   UNL     1      -5.313   5.126 -29.692  1.00  0.00    -0.337 N 
HETATM    2  H   UNL     1      -5.084   5.039 -28.707  1.00  0.00     0.168 HD
ENDROOT
BRANCH   1   3
HETATM    3  C   UNL     1      -5.233   3.916 -30.411  1.00  0.00     0.036 A 
HETATM    4  C   UNL     1      -6.019   2.854 -29.954  1.00  0.00     0.067 A 
HETATM    5  C   UNL     1      -5.956   1.601 -30.570  1.00  0.00     0.082 A 
HETATM    6  C   UNL     1      -5.085   1.363 -31.644  1.00  0.00     0.050 A 
HETATM    7  C   UNL     1      -4.290   2.436 -32.083  1.00  0.00     0.021 A 
HETATM    8  C   UNL     1      -4.361   3.699 -31.476  1.00  0.00     0.030 A 
BRANCH   5   9
HETATM    9  O   UNL     1      -6.788   0.652 -30.034  1.00  0.00    -0.360 OA
HETATM   10  H   UNL     1      -7.647   1.069 -29.834  1.00  0.00     0.217 HD
ENDBRANCH   5   9
BRANCH   6  11
HETATM   11  C   UNL     1      -4.945   0.068 -32.309  1.00  0.00     0.183 A 
HETATM   12  N   UNL     1      -3.947  -0.798 -32.251  1.00  0.00    -0.221 NA
HETATM   13  C   UNL     1      -4.358  -1.831 -33.055  1.00  0.00     0.093 A 
HETATM   14  C   UNL     1      -5.605  -1.547 -33.584  1.00  0.00     0.107 A 
HETATM   15  C   UNL     1      -3.742  -3.041 -33.392  1.00  0.00     0.035 A 
HETATM   16  C   UNL     1      -6.312  -2.378 -34.445  1.00  0.00     0.046 A 
HETATM   17  O   UNL     1      -5.992  -0.329 -33.110  1.00  0.00    -0.289 OA
HETATM   18  C   UNL     1      -5.693  -3.595 -34.776  1.00  0.00    -0.059 A 
HETATM   19  C   UNL     1      -6.366  -4.551 -35.720  1.00  0.00     0.048 C 
HETATM   20  C   UNL     1      -4.423  -3.913 -34.258  1.00  0.00     0.009 A 
ENDBRANCH   6  11
ENDBRANCH   1   3
BRANCH   1  21
HETATM   21  C   UNL     1      -5.361   6.403 -30.123  1.00  0.00     0.157 C 
HETATM   22  S   UNL     1      -6.601   6.862 -31.151  1.00  0.00    -0.047 SA
BRANCH  21  23
HETATM   23  N   UNL     1      -4.405   7.328 -29.843  1.00  0.00    -0.201 NA
HETATM   24  C   UNL     1      -3.575   7.208 -28.734  1.00  0.00     0.237 C 
HETATM   25  O   UNL     1      -3.937   7.221 -27.563  1.00  0.00    -0.274 OA
HETATM   26  H   UNL     1      -3.907   7.487 -30.706  1.00  0.00     0.139 HD
BRANCH  24  27
HETATM   27  C   UNL     1      -2.114   7.086 -29.015  1.00  0.00     0.029 A 
HETATM   28  C   UNL     1      -1.143   6.962 -28.008  1.00  0.00     0.053 A 
HETATM   29  C   UNL     1       0.211   6.937 -28.350  1.00  0.00     0.069 A 
HETATM   30  C   UNL     1       0.587   6.990 -29.696  1.00  0.00     0.037 A 
HETATM   31  C   UNL     1      -0.374   7.080 -30.701  1.00  0.00     0.004 A 
HETATM   32  C   UNL     1      -1.722   7.130 -30.360  1.00  0.00     0.017 A 
BRANCH  29  33
HETATM   33  O   UNL     1       1.261   6.859 -27.480  1.00  0.00    -0.351 OA
BRANCH  33  34
HETATM   34  C   UNL     1       1.121   7.492 -26.208  1.00  0.00     0.179 C 
BRANCH  34  35
HETATM   35  C   UNL     1       1.884   8.827 -26.209  1.00  0.00     0.002 C 
HETATM   36  C   UNL     1       0.934  10.022 -26.301  1.00  0.00     0.011 C 
HETATM   37  C   UNL     1       2.765   8.956 -24.964  1.00  0.00     0.011 C 
ENDBRANCH  34  35
ENDBRANCH  33  34
ENDBRANCH  29  33
ENDBRANCH  24  27
ENDBRANCH  21  23
ENDBRANCH   1  21
TORSDOF 9
ENDMDL
MODEL 10
REMARK VINA RESULT:      -7.6      5.358      6.432
REMARK  9 active torsions:
REMARK  status: ('A' for Active; 'I' for Inactive)
REMARK    1  A    between atoms: C_7  and  C_8 
REMARK    2  A    between atoms: C_9  and  O_10 
REMARK    3  A    between atoms: C_12  and  N_13 
REMARK    4  A    between atoms: N_13  and  C_14 
REMARK    5  A    between atoms: C_14  and  N_15 
REMARK       I    between atoms: N_15  and  C_16 
REMARK    6  A    between atoms: C_16  and  C_17 
REMARK    7  A    between atoms: C_19  and  O_20 
REMARK    8  A    between atoms: O_20  and  C_21 
REMARK    9  A    between atoms: C_21  and  C_22 
ROOT
HETATM    1  N   UNL     1      -3.269   5.812 -30.525  1.00  0.00    -0.337 N 
HETATM    2  H   UNL     1      -3.068   5.680 -29.539  1.00  0.00     0.168 HD
ENDROOT
BRANCH   1   3
HETATM    3  C   UNL     1      -3.682   4.639 -31.190  1.00  0.00     0.036 A 
HETATM    4  C   UNL     1      -5.059   4.421 -31.294  1.00  0.00     0.067 A 
HETATM    5  C   UNL     1      -5.555   3.256 -31.884  1.00  0.00     0.082 A 
HETATM    6  C   UNL     1      -4.692   2.260 -32.364  1.00  0.00     0.050 A 
HETATM    7  C   UNL     1      -3.310   2.486 -32.239  1.00  0.00     0.021 A 
HETATM    8  C   UNL     1      -2.808   3.662 -31.661  1.00  0.00     0.030 A 
BRANCH   5   9
HETATM    9  O   UNL     1      -6.924   3.173 -31.935  1.00  0.00    -0.360 OA
HETATM   10  H   UNL     1      -7.210   3.337 -32.852  1.00  0.00     0.217 HD
ENDBRANCH   5   9
BRANCH   6  11
HETATM   11  C   UNL     1      -5.145   1.003 -32.958  1.00  0.00     0.183 A 
HETATM   12  N   UNL     1      -6.282   0.734 -33.578  1.00  0.00    -0.221 NA
HETATM   13  C   UNL     1      -6.158  -0.586 -33.936  1.00  0.00     0.093 A 
HETATM   14  C   UNL     1      -4.938  -1.077 -33.507  1.00  0.00     0.107 A 
HETATM   15  C   UNL     1      -7.027  -1.443 -34.620  1.00  0.00     0.035 A 
HETATM   16  C   UNL     1      -4.492  -2.379 -33.699  1.00  0.00     0.046 A 
HETATM   17  O   UNL     1      -4.278  -0.063 -32.879  1.00  0.00    -0.289 OA
HETATM   18  C   UNL     1      -5.364  -3.235 -34.393  1.00  0.00    -0.059 A 
HETATM   19  C   UNL     1      -4.984  -4.669 -34.628  1.00  0.00     0.048 C 
HETATM   20  C   UNL     1      -6.616  -2.768 -34.839  1.00  0.00     0.009 A 
ENDBRANCH   6  11
ENDBRANCH   1   3
BRANCH   1  21
HETATM   21  C   UNL     1      -2.828   6.990 -31.012  1.00  0.00     0.157 C 
HETATM   22  S   UNL     1      -2.476   7.108 -32.645  1.00  0.00    -0.047 SA
BRANCH  21  23
HETATM   23  N   UNL     1      -2.565   8.074 -30.235  1.00  0.00    -0.201 NA
HETATM   24  C   UNL     1      -2.488   7.979 -28.850  1.00  0.00     0.237 C 
HETATM   25  O   UNL     1      -3.405   7.658 -28.102  1.00  0.00    -0.274 OA
HETATM   26  H   UNL     1      -1.770   8.533 -30.654  1.00  0.00     0.139 HD
BRANCH  24  27
HETATM   27  C   UNL     1      -1.173   8.332 -28.238  1.00  0.00     0.029 A 
HETATM   28  C   UNL     1      -1.045   9.173 -27.120  1.00  0.00     0.053 A 
HETATM   29  C   UNL     1       0.227   9.522 -26.658  1.00  0.00     0.069 A 
HETATM   30  C   UNL     1       1.361   8.994 -27.285  1.00  0.00     0.037 A 
HETATM   31  C   UNL     1       1.238   8.134 -28.373  1.00  0.00     0.004 A 
HETATM   32  C   UNL     1      -0.027   7.805 -28.850  1.00  0.00     0.017 A 
BRANCH  29  33
HETATM   33  O   UNL     1       0.504  10.356 -25.613  1.00  0.00    -0.351 OA
BRANCH  33  34
HETATM   34  C   UNL     1       0.429   9.819 -24.292  1.00  0.00     0.179 C 
BRANCH  34  35
HETATM   35  C   UNL     1       1.779  10.013 -23.580  1.00  0.00     0.002 C 
HETATM   36  C   UNL     1       2.688   8.795 -23.751  1.00  0.00     0.011 C 
HETATM   37  C   UNL     1       2.490  11.269 -24.087  1.00  0.00     0.011 C 
ENDBRANCH  34  35
ENDBRANCH  33  34
ENDBRANCH  29  33
ENDBRANCH  24  27
ENDBRANCH  21  23
ENDBRANCH   1  21
TORSDOF 9
ENDMDL
