MODEL 1
REMARK VINA RESULT:      -8.7      0.000      0.000
REMARK  8 active torsions:
REMARK  status: ('A' for Active; 'I' for Inactive)
REMARK    1  A    between atoms: C_2  and  N_3 
REMARK    2  A    between atoms: C_9  and  C_10 
REMARK    3  A    between atoms: C_16  and  C_17 
REMARK       I    between atoms: C_17  and  N_18 
REMARK    4  A    between atoms: N_18  and  C_19 
REMARK    5  A    between atoms: C_19  and  C_20 
REMARK    6  A    between atoms: C_20  and  C_21 
REMARK    7  A    between atoms: C_23  and  O_24 
REMARK    8  A    between atoms: C_25  and  O_26 
ROOT
HETATM    1  N   UNL     1      -5.865   5.361 -29.177  1.00  0.00    -0.248 N 
HETATM    2  N   UNL     1      -6.959   4.684 -28.751  1.00  0.00    -0.182 NA
HETATM    3  C   UNL     1      -7.218   3.842 -29.756  1.00  0.00     0.155 A 
HETATM    4  C   UNL     1      -6.284   3.936 -30.809  1.00  0.00     0.046 A 
HETATM    5  C   UNL     1      -5.421   4.946 -30.408  1.00  0.00     0.159 A 
HETATM    6  N   UNL     1      -4.370   5.435 -31.094  1.00  0.00    -0.228 NA
HETATM    7  C   UNL     1      -4.169   4.856 -32.304  1.00  0.00     0.077 A 
HETATM    8  C   UNL     1      -4.970   3.844 -32.820  1.00  0.00     0.051 A 
HETATM    9  C   UNL     1      -6.042   3.357 -32.061  1.00  0.00     0.049 A 
ENDROOT
BRANCH   9  10
HETATM   10  C   UNL     1      -6.889   2.300 -32.642  1.00  0.00     0.252 C 
HETATM   11  N   UNL     1      -6.547   0.991 -32.364  1.00  0.00    -0.357 N 
HETATM   12  H   UNL     1      -5.622   0.812 -31.992  1.00  0.00     0.162 HD
HETATM   13  O   UNL     1      -7.814   2.619 -33.380  1.00  0.00    -0.268 OA
BRANCH  11  14
HETATM   14  C   UNL     1      -7.189  -0.085 -33.102  1.00  0.00     0.127 C 
BRANCH  14  15
HETATM   15  C   UNL     1      -6.463  -0.420 -34.404  1.00  0.00     0.058 C 
BRANCH  15  16
HETATM   16  C   UNL     1      -5.963  -1.845 -34.387  1.00  0.00    -0.054 A 
HETATM   17  C   UNL     1      -6.751  -2.877 -34.925  1.00  0.00     0.046 A 
HETATM   18  C   UNL     1      -6.251  -4.174 -34.964  1.00  0.00     0.099 A 
HETATM   19  C   UNL     1      -4.979  -4.454 -34.473  1.00  0.00     0.098 A 
HETATM   20  C   UNL     1      -4.189  -3.449 -33.936  1.00  0.00     0.040 A 
HETATM   21  C   UNL     1      -4.681  -2.141 -33.895  1.00  0.00     0.010 A 
BRANCH  18  22
HETATM   22  O   UNL     1      -6.971  -5.212 -35.489  1.00  0.00    -0.358 OA
HETATM   23  H   UNL     1      -6.535  -6.042 -35.232  1.00  0.00     0.218 HD
ENDBRANCH  18  22
BRANCH  19  24
HETATM   24  O   UNL     1      -4.492  -5.728 -34.527  1.00  0.00    -0.358 OA
HETATM   25  H   UNL     1      -3.831  -5.765 -33.808  1.00  0.00     0.218 HD
ENDBRANCH  19  24
ENDBRANCH  15  16
ENDBRANCH  14  15
ENDBRANCH  11  14
ENDBRANCH   9  10
BRANCH   7  26
HETATM   26  C   UNL     1      -3.027   5.425 -33.040  1.00  0.00     0.033 A 
HETATM   27  S   UNL     1      -2.507   7.046 -32.783  1.00  0.00    -0.100 SA
HETATM   28  C   UNL     1      -1.251   6.909 -33.932  1.00  0.00     0.050 A 
HETATM   29  C   UNL     1      -1.223   5.667 -34.521  1.00  0.00     0.008 A 
HETATM   30  C   UNL     1      -2.251   4.819 -34.015  1.00  0.00     0.021 A 
ENDBRANCH   7  26
BRANCH   1  31
HETATM   31  C   UNL     1      -5.317   6.430 -28.349  1.00  0.00     0.104 C 
HETATM   32  C   UNL     1      -4.994   5.949 -26.934  1.00  0.00     0.034 C 
HETATM   33  C   UNL     1      -6.216   7.666 -28.331  1.00  0.00     0.034 C 
ENDBRANCH   1  31
TORSDOF 8
ENDMDL
MODEL 2
REMARK VINA RESULT:      -8.7      3.723      5.565
REMARK  8 active torsions:
REMARK  status: ('A' for Active; 'I' for Inactive)
REMARK    1  A    between atoms: C_2  and  N_3 
REMARK    2  A    between atoms: C_9  and  C_10 
REMARK    3  A    between atoms: C_16  and  C_17 
REMARK       I    between atoms: C_17  and  N_18 
REMARK    4  A    between atoms: N_18  and  C_19 
REMARK    5  A    between atoms: C_19  and  C_20 
REMARK    6  A    between atoms: C_20  and  C_21 
REMARK    7  A    between atoms: C_23  and  O_24 
REMARK    8  A    between atoms: C_25  and  O_26 
ROOT
HETATM    1  N   UNL     1     -10.116   1.944 -33.372  1.00  0.00    -0.248 N 
HETATM    2  N   UNL     1      -9.807   0.735 -33.900  1.00  0.00    -0.182 NA
HETATM    3  C   UNL     1      -8.737   0.350 -33.198  1.00  0.00     0.155 A 
HETATM    4  C   UNL     1      -8.373   1.273 -32.196  1.00  0.00     0.046 A 
HETATM    5  C   UNL     1      -9.284   2.311 -32.344  1.00  0.00     0.159 A 
HETATM    6  N   UNL     1      -9.332   3.455 -31.634  1.00  0.00    -0.228 NA
HETATM    7  C   UNL     1      -8.368   3.571 -30.687  1.00  0.00     0.077 A 
HETATM    8  C   UNL     1      -7.395   2.607 -30.451  1.00  0.00     0.051 A 
HETATM    9  C   UNL     1      -7.397   1.425 -31.204  1.00  0.00     0.049 A 
ENDROOT
BRANCH   9  10
HETATM   10  C   UNL     1      -6.339   0.431 -30.949  1.00  0.00     0.252 C 
HETATM   11  N   UNL     1      -5.249   0.435 -31.797  1.00  0.00    -0.357 N 
HETATM   12  H   UNL     1      -5.333   0.936 -32.674  1.00  0.00     0.162 HD
HETATM   13  O   UNL     1      -6.493  -0.380 -30.044  1.00  0.00    -0.268 OA
BRANCH  11  14
HETATM   14  C   UNL     1      -4.304  -0.669 -31.748  1.00  0.00     0.127 C 
BRANCH  14  15
HETATM   15  C   UNL     1      -3.742  -1.024 -33.124  1.00  0.00     0.058 C 
BRANCH  15  16
HETATM   16  C   UNL     1      -4.575  -2.100 -33.781  1.00  0.00    -0.054 A 
HETATM   17  C   UNL     1      -4.099  -3.421 -33.846  1.00  0.00     0.046 A 
HETATM   18  C   UNL     1      -4.904  -4.414 -34.394  1.00  0.00     0.099 A 
HETATM   19  C   UNL     1      -6.173  -4.107 -34.875  1.00  0.00     0.098 A 
HETATM   20  C   UNL     1      -6.658  -2.809 -34.821  1.00  0.00     0.040 A 
HETATM   21  C   UNL     1      -5.858  -1.804 -34.270  1.00  0.00     0.010 A 
BRANCH  18  22
HETATM   22  O   UNL     1      -4.494  -5.717 -34.469  1.00  0.00    -0.358 OA
HETATM   23  H   UNL     1      -5.286  -6.278 -34.546  1.00  0.00     0.218 HD
ENDBRANCH  18  22
BRANCH  19  24
HETATM   24  O   UNL     1      -6.961  -5.092 -35.399  1.00  0.00    -0.358 OA
HETATM   25  H   UNL     1      -7.078  -5.725 -34.664  1.00  0.00     0.218 HD
ENDBRANCH  19  24
ENDBRANCH  15  16
ENDBRANCH  14  15
ENDBRANCH  11  14
ENDBRANCH   9  10
BRANCH   7  26
HETATM   26  C   UNL     1      -8.432   4.840 -29.943  1.00  0.00     0.033 A 
HETATM   27  S   UNL     1      -9.424   6.145 -30.470  1.00  0.00    -0.100 SA
HETATM   28  C   UNL     1      -8.950   7.138 -29.165  1.00  0.00     0.050 A 
HETATM   29  C   UNL     1      -8.043   6.512 -28.343  1.00  0.00     0.008 A 
HETATM   30  C   UNL     1      -7.738   5.195 -28.797  1.00  0.00     0.021 A 
ENDBRANCH   7  26
BRANCH   1  31
HETATM   31  C   UNL     1     -11.219   2.713 -33.939  1.00  0.00     0.104 C 
HETATM   32  C   UNL     1     -12.364   1.812 -34.404  1.00  0.00     0.034 C 
HETATM   33  C   UNL     1     -10.756   3.654 -35.052  1.00  0.00     0.034 C 
ENDBRANCH   1  31
TORSDOF 8
ENDMDL
MODEL 3
REMARK VINA RESULT:      -8.7      1.996      4.229
REMARK  8 active torsions:
REMARK  status: ('A' for Active; 'I' for Inactive)
REMARK    1  A    between atoms: C_2  and  N_3 
REMARK    2  A    between atoms: C_9  and  C_10 
REMARK    3  A    between atoms: C_16  and  C_17 
REMARK       I    between atoms: C_17  and  N_18 
REMARK    4  A    between atoms: N_18  and  C_19 
REMARK    5  A    between atoms: C_19  and  C_20 
REMARK    6  A    between atoms: C_20  and  C_21 
REMARK    7  A    between atoms: C_23  and  O_24 
REMARK    8  A    between atoms: C_25  and  O_26 
ROOT
HETATM    1  N   UNL     1      -2.489   5.461 -31.443  1.00  0.00    -0.248 N 
HETATM    2  N   UNL     1      -1.849   4.429 -32.044  1.00  0.00    -0.182 NA
HETATM    3  C   UNL     1      -2.703   3.409 -31.909  1.00  0.00     0.155 A 
HETATM    4  C   UNL     1      -3.904   3.776 -31.266  1.00  0.00     0.046 A 
HETATM    5  C   UNL     1      -3.727   5.119 -30.961  1.00  0.00     0.159 A 
HETATM    6  N   UNL     1      -4.590   5.921 -30.308  1.00  0.00    -0.228 NA
HETATM    7  C   UNL     1      -5.739   5.316 -29.919  1.00  0.00     0.077 A 
HETATM    8  C   UNL     1      -6.026   3.976 -30.156  1.00  0.00     0.051 A 
HETATM    9  C   UNL     1      -5.104   3.186 -30.855  1.00  0.00     0.049 A 
ENDROOT
BRANCH   9  10
HETATM   10  C   UNL     1      -5.424   1.764 -31.072  1.00  0.00     0.252 C 
HETATM   11  N   UNL     1      -5.655   1.359 -32.373  1.00  0.00    -0.357 N 
HETATM   12  H   UNL     1      -5.832   2.075 -33.067  1.00  0.00     0.162 HD
HETATM   13  O   UNL     1      -5.523   1.022 -30.101  1.00  0.00    -0.268 OA
BRANCH  11  14
HETATM   14  C   UNL     1      -6.211   0.038 -32.619  1.00  0.00     0.127 C 
BRANCH  14  15
HETATM   15  C   UNL     1      -6.073  -0.396 -34.077  1.00  0.00     0.058 C 
BRANCH  15  16
HETATM   16  C   UNL     1      -5.702  -1.858 -34.168  1.00  0.00    -0.054 A 
HETATM   17  C   UNL     1      -6.604  -2.782 -34.724  1.00  0.00     0.046 A 
HETATM   18  C   UNL     1      -6.224  -4.113 -34.863  1.00  0.00     0.099 A 
HETATM   19  C   UNL     1      -4.961  -4.532 -34.455  1.00  0.00     0.098 A 
HETATM   20  C   UNL     1      -4.061  -3.635 -33.902  1.00  0.00     0.040 A 
HETATM   21  C   UNL     1      -4.430  -2.294 -33.761  1.00  0.00     0.010 A 
BRANCH  18  22
HETATM   22  O   UNL     1      -7.058  -5.049 -35.410  1.00  0.00    -0.358 OA
HETATM   23  H   UNL     1      -6.812  -5.163 -36.344  1.00  0.00     0.218 HD
ENDBRANCH  18  22
BRANCH  19  24
HETATM   24  O   UNL     1      -4.594  -5.838 -34.607  1.00  0.00    -0.358 OA
HETATM   25  H   UNL     1      -3.652  -5.796 -34.867  1.00  0.00     0.218 HD
ENDBRANCH  19  24
ENDBRANCH  15  16
ENDBRANCH  14  15
ENDBRANCH  11  14
ENDBRANCH   9  10
BRANCH   7  26
HETATM   26  C   UNL     1      -6.652   6.211 -29.189  1.00  0.00     0.033 A 
HETATM   27  S   UNL     1      -6.173   7.795 -28.714  1.00  0.00    -0.100 SA
HETATM   28  C   UNL     1      -7.682   8.120 -27.985  1.00  0.00     0.050 A 
HETATM   29  C   UNL     1      -8.540   7.050 -28.076  1.00  0.00     0.008 A 
HETATM   30  C   UNL     1      -7.944   5.950 -28.759  1.00  0.00     0.021 A 
ENDBRANCH   7  26
BRANCH   1  31
HETATM   31  C   UNL     1      -1.821   6.755 -31.339  1.00  0.00     0.104 C 
HETATM   32  C   UNL     1      -2.298   7.732 -32.414  1.00  0.00     0.034 C 
HETATM   33  C   UNL     1      -0.298   6.620 -31.337  1.00  0.00     0.034 C 
ENDBRANCH   1  31
TORSDOF 8
ENDMDL
MODEL 4
REMARK VINA RESULT:      -8.6      4.565      8.320
REMARK  8 active torsions:
REMARK  status: ('A' for Active; 'I' for Inactive)
REMARK    1  A    between atoms: C_2  and  N_3 
REMARK    2  A    between atoms: C_9  and  C_10 
REMARK    3  A    between atoms: C_16  and  C_17 
REMARK       I    between atoms: C_17  and  N_18 
REMARK    4  A    between atoms: N_18  and  C_19 
REMARK    5  A    between atoms: C_19  and  C_20 
REMARK    6  A    between atoms: C_20  and  C_21 
REMARK    7  A    between atoms: C_23  and  O_24 
REMARK    8  A    between atoms: C_25  and  O_26 
ROOT
HETATM    1  N   UNL     1      -5.203   1.653 -31.735  1.00  0.00    -0.248 N 
HETATM    2  N   UNL     1      -3.859   1.694 -31.560  1.00  0.00    -0.182 NA
HETATM    3  C   UNL     1      -3.487   2.784 -32.237  1.00  0.00     0.155 A 
HETATM    4  C   UNL     1      -4.575   3.473 -32.815  1.00  0.00     0.046 A 
HETATM    5  C   UNL     1      -5.679   2.701 -32.482  1.00  0.00     0.159 A 
HETATM    6  N   UNL     1      -6.960   2.925 -32.834  1.00  0.00    -0.228 NA
HETATM    7  C   UNL     1      -7.150   4.028 -33.599  1.00  0.00     0.077 A 
HETATM    8  C   UNL     1      -6.123   4.872 -34.007  1.00  0.00     0.051 A 
HETATM    9  C   UNL     1      -4.809   4.607 -33.601  1.00  0.00     0.049 A 
ENDROOT
BRANCH   9  10
HETATM   10  C   UNL     1      -3.737   5.505 -34.067  1.00  0.00     0.252 C 
HETATM   11  N   UNL     1      -3.049   6.221 -33.107  1.00  0.00    -0.357 N 
HETATM   12  H   UNL     1      -3.457   6.285 -32.182  1.00  0.00     0.162 HD
HETATM   13  O   UNL     1      -3.539   5.619 -35.271  1.00  0.00    -0.268 OA
BRANCH  11  14
HETATM   14  C   UNL     1      -2.160   7.295 -33.520  1.00  0.00     0.127 C 
BRANCH  14  15
HETATM   15  C   UNL     1      -0.698   7.013 -33.176  1.00  0.00     0.058 C 
BRANCH  15  16
HETATM   16  C   UNL     1      -0.555   6.622 -31.724  1.00  0.00    -0.054 A 
HETATM   17  C   UNL     1       0.044   5.399 -31.378  1.00  0.00     0.046 A 
HETATM   18  C   UNL     1       0.229   5.081 -30.037  1.00  0.00     0.099 A 
HETATM   19  C   UNL     1      -0.174   5.965 -29.040  1.00  0.00     0.098 A 
HETATM   20  C   UNL     1      -0.769   7.175 -29.364  1.00  0.00     0.040 A 
HETATM   21  C   UNL     1      -0.957   7.506 -30.708  1.00  0.00     0.010 A 
BRANCH  18  22
HETATM   22  O   UNL     1       0.819   3.910 -29.646  1.00  0.00    -0.358 OA
HETATM   23  H   UNL     1       1.033   3.398 -30.445  1.00  0.00     0.218 HD
ENDBRANCH  18  22
BRANCH  19  24
HETATM   24  O   UNL     1       0.025   5.649 -27.727  1.00  0.00    -0.358 OA
HETATM   25  H   UNL     1       0.399   6.463 -27.336  1.00  0.00     0.218 HD
ENDBRANCH  19  24
ENDBRANCH  15  16
ENDBRANCH  14  15
ENDBRANCH  11  14
ENDBRANCH   9  10
BRANCH   7  26
HETATM   26  C   UNL     1      -8.556   4.235 -33.986  1.00  0.00     0.033 A 
HETATM   27  S   UNL     1      -9.665   2.923 -34.087  1.00  0.00    -0.100 SA
HETATM   28  C   UNL     1     -10.950   3.941 -34.561  1.00  0.00     0.050 A 
HETATM   29  C   UNL     1     -10.558   5.255 -34.662  1.00  0.00     0.008 A 
HETATM   30  C   UNL     1      -9.179   5.421 -34.342  1.00  0.00     0.021 A 
ENDBRANCH   7  26
BRANCH   1  31
HETATM   31  C   UNL     1      -5.964   0.541 -31.176  1.00  0.00     0.104 C 
HETATM   32  C   UNL     1      -5.868   0.492 -29.651  1.00  0.00     0.034 C 
HETATM   33  C   UNL     1      -5.581  -0.797 -31.808  1.00  0.00     0.034 C 
ENDBRANCH   1  31
TORSDOF 8
ENDMDL
MODEL 5
REMARK VINA RESULT:      -8.6      5.132      7.090
REMARK  8 active torsions:
REMARK  status: ('A' for Active; 'I' for Inactive)
REMARK    1  A    between atoms: C_2  and  N_3 
REMARK    2  A    between atoms: C_9  and  C_10 
REMARK    3  A    between atoms: C_16  and  C_17 
REMARK       I    between atoms: C_17  and  N_18 
REMARK    4  A    between atoms: N_18  and  C_19 
REMARK    5  A    between atoms: C_19  and  C_20 
REMARK    6  A    between atoms: C_20  and  C_21 
REMARK    7  A    between atoms: C_23  and  O_24 
REMARK    8  A    between atoms: C_25  and  O_26 
ROOT
HETATM    1  N   UNL     1     -10.029   5.591 -33.946  1.00  0.00    -0.248 N 
HETATM    2  N   UNL     1      -8.706   5.500 -34.225  1.00  0.00    -0.182 NA
HETATM    3  C   UNL     1      -8.469   4.185 -34.196  1.00  0.00     0.155 A 
HETATM    4  C   UNL     1      -9.628   3.421 -33.941  1.00  0.00     0.046 A 
HETATM    5  C   UNL     1     -10.627   4.369 -33.768  1.00  0.00     0.159 A 
HETATM    6  N   UNL     1     -11.920   4.137 -33.469  1.00  0.00    -0.228 NA
HETATM    7  C   UNL     1     -12.240   2.828 -33.325  1.00  0.00     0.077 A 
HETATM    8  C   UNL     1     -11.326   1.789 -33.462  1.00  0.00     0.051 A 
HETATM    9  C   UNL     1      -9.996   2.079 -33.791  1.00  0.00     0.049 A 
ENDROOT
BRANCH   9  10
HETATM   10  C   UNL     1      -9.043   0.959 -33.907  1.00  0.00     0.252 C 
HETATM   11  N   UNL     1      -8.125   1.015 -34.938  1.00  0.00    -0.357 N 
HETATM   12  H   UNL     1      -8.297   1.672 -35.690  1.00  0.00     0.162 HD
HETATM   13  O   UNL     1      -9.138   0.016 -33.131  1.00  0.00    -0.268 OA
BRANCH  11  14
HETATM   14  C   UNL     1      -7.333  -0.164 -35.249  1.00  0.00     0.127 C 
BRANCH  14  15
HETATM   15  C   UNL     1      -6.245  -0.432 -34.211  1.00  0.00     0.058 C 
BRANCH  15  16
HETATM   16  C   UNL     1      -5.809  -1.878 -34.253  1.00  0.00    -0.054 A 
HETATM   17  C   UNL     1      -6.645  -2.851 -34.827  1.00  0.00     0.046 A 
HETATM   18  C   UNL     1      -6.204  -4.167 -34.920  1.00  0.00     0.099 A 
HETATM   19  C   UNL     1      -4.944  -4.523 -34.448  1.00  0.00     0.098 A 
HETATM   20  C   UNL     1      -4.107  -3.576 -33.876  1.00  0.00     0.040 A 
HETATM   21  C   UNL     1      -4.539  -2.251 -33.781  1.00  0.00     0.010 A 
BRANCH  18  22
HETATM   22  O   UNL     1      -6.973  -5.149 -35.481  1.00  0.00    -0.358 OA
HETATM   23  H   UNL     1      -7.597  -5.467 -34.806  1.00  0.00     0.218 HD
ENDBRANCH  18  22
BRANCH  19  24
HETATM   24  O   UNL     1      -4.515  -5.815 -34.555  1.00  0.00    -0.358 OA
HETATM   25  H   UNL     1      -4.352  -5.937 -35.511  1.00  0.00     0.218 HD
ENDBRANCH  19  24
ENDBRANCH  15  16
ENDBRANCH  14  15
ENDBRANCH  11  14
ENDBRANCH   9  10
BRANCH   7  26
HETATM   26  C   UNL     1     -13.654   2.607 -32.977  1.00  0.00     0.033 A 
HETATM   27  S   UNL     1     -14.566   1.328 -33.680  1.00  0.00    -0.100 SA
HETATM   28  C   UNL     1     -15.976   1.751 -32.815  1.00  0.00     0.050 A 
HETATM   29  C   UNL     1     -15.780   2.851 -32.014  1.00  0.00     0.008 A 
HETATM   30  C   UNL     1     -14.448   3.349 -32.116  1.00  0.00     0.021 A 
ENDBRANCH   7  26
BRANCH   1  31
HETATM   31  C   UNL     1     -10.647   6.908 -33.831  1.00  0.00     0.104 C 
HETATM   32  C   UNL     1     -10.803   7.587 -35.192  1.00  0.00     0.034 C 
HETATM   33  C   UNL     1      -9.914   7.806 -32.834  1.00  0.00     0.034 C 
ENDBRANCH   1  31
TORSDOF 8
ENDMDL
MODEL 6
REMARK VINA RESULT:      -8.6      4.352      8.856
REMARK  8 active torsions:
REMARK  status: ('A' for Active; 'I' for Inactive)
REMARK    1  A    between atoms: C_2  and  N_3 
REMARK    2  A    between atoms: C_9  and  C_10 
REMARK    3  A    between atoms: C_16  and  C_17 
REMARK       I    between atoms: C_17  and  N_18 
REMARK    4  A    between atoms: N_18  and  C_19 
REMARK    5  A    between atoms: C_19  and  C_20 
REMARK    6  A    between atoms: C_20  and  C_21 
REMARK    7  A    between atoms: C_23  and  O_24 
REMARK    8  A    between atoms: C_25  and  O_26 
ROOT
HETATM    1  N   UNL     1      -7.501   1.533 -33.125  1.00  0.00    -0.248 N 
HETATM    2  N   UNL     1      -7.567   2.874 -32.936  1.00  0.00    -0.182 NA
HETATM    3  C   UNL     1      -6.303   3.216 -32.669  1.00  0.00     0.155 A 
HETATM    4  C   UNL     1      -5.412   2.123 -32.723  1.00  0.00     0.046 A 
HETATM    5  C   UNL     1      -6.227   1.036 -33.009  1.00  0.00     0.159 A 
HETATM    6  N   UNL     1      -5.848  -0.251 -33.130  1.00  0.00    -0.228 NA
HETATM    7  C   UNL     1      -4.523  -0.468 -32.942  1.00  0.00     0.077 A 
HETATM    8  C   UNL     1      -3.610   0.535 -32.640  1.00  0.00     0.051 A 
HETATM    9  C   UNL     1      -4.049   1.862 -32.541  1.00  0.00     0.049 A 
ENDROOT
BRANCH   9  10
HETATM   10  C   UNL     1      -3.064   2.903 -32.197  1.00  0.00     0.252 C 
HETATM   11  N   UNL     1      -2.802   3.866 -33.152  1.00  0.00    -0.357 N 
HETATM   12  H   UNL     1      -3.100   3.683 -34.102  1.00  0.00     0.162 HD
HETATM   13  O   UNL     1      -2.487   2.841 -31.117  1.00  0.00    -0.268 OA
BRANCH  11  14
HETATM   14  C   UNL     1      -1.672   4.762 -32.967  1.00  0.00     0.127 C 
BRANCH  14  15
HETATM   15  C   UNL     1      -2.053   6.046 -32.231  1.00  0.00     0.058 C 
BRANCH  15  16
HETATM   16  C   UNL     1      -1.232   6.206 -30.974  1.00  0.00    -0.054 A 
HETATM   17  C   UNL     1      -0.366   5.179 -30.560  1.00  0.00     0.046 A 
HETATM   18  C   UNL     1       0.434   5.367 -29.438  1.00  0.00     0.099 A 
HETATM   19  C   UNL     1       0.381   6.561 -28.726  1.00  0.00     0.098 A 
HETATM   20  C   UNL     1      -0.469   7.584 -29.118  1.00  0.00     0.040 A 
HETATM   21  C   UNL     1      -1.275   7.407 -30.246  1.00  0.00     0.010 A 
BRANCH  18  22
HETATM   22  O   UNL     1       1.303   4.405 -29.000  1.00  0.00    -0.358 OA
HETATM   23  H   UNL     1       1.519   3.828 -29.753  1.00  0.00     0.218 HD
ENDBRANCH  18  22
BRANCH  19  24
HETATM   24  O   UNL     1       1.180   6.740 -27.633  1.00  0.00    -0.358 OA
HETATM   25  H   UNL     1       1.006   7.661 -27.355  1.00  0.00     0.218 HD
ENDBRANCH  19  24
ENDBRANCH  15  16
ENDBRANCH  14  15
ENDBRANCH  11  14
ENDBRANCH   9  10
BRANCH   7  26
HETATM   26  C   UNL     1      -4.142  -1.886 -33.059  1.00  0.00     0.033 A 
HETATM   27  S   UNL     1      -4.655  -2.850 -34.391  1.00  0.00    -0.100 SA
HETATM   28  C   UNL     1      -3.853  -4.236 -33.799  1.00  0.00     0.050 A 
HETATM   29  C   UNL     1      -3.216  -3.993 -32.605  1.00  0.00     0.008 A 
HETATM   30  C   UNL     1      -3.392  -2.646 -32.175  1.00  0.00     0.021 A 
ENDBRANCH   7  26
BRANCH   1  31
HETATM   31  C   UNL     1      -8.727   0.786 -33.383  1.00  0.00     0.104 C 
HETATM   32  C   UNL     1      -9.707   1.576 -34.251  1.00  0.00     0.034 C 
HETATM   33  C   UNL     1      -9.387   0.294 -32.095  1.00  0.00     0.034 C 
ENDBRANCH   1  31
TORSDOF 8
ENDMDL
MODEL 7
REMARK VINA RESULT:      -8.3      4.525      8.288
REMARK  8 active torsions:
REMARK  status: ('A' for Active; 'I' for Inactive)
REMARK    1  A    between atoms: C_2  and  N_3 
REMARK    2  A    between atoms: C_9  and  C_10 
REMARK    3  A    between atoms: C_16  and  C_17 
REMARK       I    between atoms: C_17  and  N_18 
REMARK    4  A    between atoms: N_18  and  C_19 
REMARK    5  A    between atoms: C_19  and  C_20 
REMARK    6  A    between atoms: C_20  and  C_21 
REMARK    7  A    between atoms: C_23  and  O_24 
REMARK    8  A    between atoms: C_25  and  O_26 
ROOT
HETATM    1  N   UNL     1      -9.941   3.310 -33.682  1.00  0.00    -0.248 N 
HETATM    2  N   UNL     1     -10.018   4.662 -33.609  1.00  0.00    -0.182 NA
HETATM    3  C   UNL     1      -8.744   5.055 -33.702  1.00  0.00     0.155 A 
HETATM    4  C   UNL     1      -7.846   3.980 -33.875  1.00  0.00     0.046 A 
HETATM    5  C   UNL     1      -8.657   2.853 -33.843  1.00  0.00     0.159 A 
HETATM    6  N   UNL     1      -8.262   1.568 -33.934  1.00  0.00    -0.228 NA
HETATM    7  C   UNL     1      -6.923   1.398 -34.065  1.00  0.00     0.077 A 
HETATM    8  C   UNL     1      -6.010   2.445 -34.099  1.00  0.00     0.051 A 
HETATM    9  C   UNL     1      -6.470   3.766 -34.018  1.00  0.00     0.049 A 
ENDROOT
BRANCH   9  10
HETATM   10  C   UNL     1      -5.478   4.856 -34.032  1.00  0.00     0.252 C 
HETATM   11  N   UNL     1      -4.514   4.820 -35.022  1.00  0.00    -0.357 N 
HETATM   12  H   UNL     1      -4.384   3.950 -35.524  1.00  0.00     0.162 HD
HETATM   13  O   UNL     1      -5.516   5.705 -33.150  1.00  0.00    -0.268 OA
BRANCH  11  14
HETATM   14  C   UNL     1      -3.375   5.720 -34.938  1.00  0.00     0.127 C 
BRANCH  14  15
HETATM   15  C   UNL     1      -2.087   5.004 -34.539  1.00  0.00     0.058 C 
BRANCH  15  16
HETATM   16  C   UNL     1      -1.530   5.578 -33.258  1.00  0.00    -0.054 A 
HETATM   17  C   UNL     1      -1.189   4.728 -32.192  1.00  0.00     0.046 A 
HETATM   18  C   UNL     1      -0.615   5.263 -31.043  1.00  0.00     0.099 A 
HETATM   19  C   UNL     1      -0.378   6.631 -30.946  1.00  0.00     0.098 A 
HETATM   20  C   UNL     1      -0.711   7.485 -31.986  1.00  0.00     0.040 A 
HETATM   21  C   UNL     1      -1.285   6.957 -33.146  1.00  0.00     0.010 A 
BRANCH  18  22
HETATM   22  O   UNL     1      -0.252   4.478 -29.983  1.00  0.00    -0.358 OA
HETATM   23  H   UNL     1      -0.411   3.550 -30.226  1.00  0.00     0.218 HD
ENDBRANCH  18  22
BRANCH  19  24
HETATM   24  O   UNL     1       0.198   7.145 -29.819  1.00  0.00    -0.358 OA
HETATM   25  H   UNL     1      -0.304   6.739 -29.085  1.00  0.00     0.218 HD
ENDBRANCH  19  24
ENDBRANCH  15  16
ENDBRANCH  14  15
ENDBRANCH  11  14
ENDBRANCH   9  10
BRANCH   7  26
HETATM   26  C   UNL     1      -6.520  -0.017 -34.140  1.00  0.00     0.033 A 
HETATM   27  S   UNL     1      -5.037  -0.568 -33.461  1.00  0.00    -0.100 SA
HETATM   28  C   UNL     1      -5.321  -2.180 -33.949  1.00  0.00     0.050 A 
HETATM   29  C   UNL     1      -6.508  -2.311 -34.631  1.00  0.00     0.008 A 
HETATM   30  C   UNL     1      -7.191  -1.066 -34.749  1.00  0.00     0.021 A 
ENDBRANCH   7  26
BRANCH   1  31
HETATM   31  C   UNL     1     -11.158   2.515 -33.552  1.00  0.00     0.104 C 
HETATM   32  C   UNL     1     -11.713   2.094 -34.913  1.00  0.00     0.034 C 
HETATM   33  C   UNL     1     -12.218   3.216 -32.703  1.00  0.00     0.034 C 
ENDBRANCH   1  31
TORSDOF 8
ENDMDL
MODEL 8
REMARK VINA RESULT:      -8.3      4.733      8.238
REMARK  8 active torsions:
REMARK  status: ('A' for Active; 'I' for Inactive)
REMARK    1  A    between atoms: C_2  and  N_3 
REMARK    2  A    between atoms: C_9  and  C_10 
REMARK    3  A    between atoms: C_16  and  C_17 
REMARK       I    between atoms: C_17  and  N_18 
REMARK    4  A    between atoms: N_18  and  C_19 
REMARK    5  A    between atoms: C_19  and  C_20 
REMARK    6  A    between atoms: C_20  and  C_21 
REMARK    7  A    between atoms: C_23  and  O_24 
REMARK    8  A    between atoms: C_25  and  O_26 
ROOT
HETATM    1  N   UNL     1      -8.121   3.404 -33.663  1.00  0.00    -0.248 N 
HETATM    2  N   UNL     1      -8.427   4.714 -33.834  1.00  0.00    -0.182 NA
HETATM    3  C   UNL     1      -7.273   5.341 -33.584  1.00  0.00     0.155 A 
HETATM    4  C   UNL     1      -6.215   4.454 -33.294  1.00  0.00     0.046 A 
HETATM    5  C   UNL     1      -6.803   3.198 -33.340  1.00  0.00     0.159 A 
HETATM    6  N   UNL     1      -6.207   2.014 -33.098  1.00  0.00    -0.228 NA
HETATM    7  C   UNL     1      -4.893   2.101 -32.774  1.00  0.00     0.077 A 
HETATM    8  C   UNL     1      -4.196   3.300 -32.685  1.00  0.00     0.051 A 
HETATM    9  C   UNL     1      -4.856   4.505 -32.963  1.00  0.00     0.049 A 
ENDROOT
BRANCH   9  10
HETATM   10  C   UNL     1      -4.098   5.763 -32.838  1.00  0.00     0.252 C 
HETATM   11  N   UNL     1      -3.163   6.038 -33.817  1.00  0.00    -0.357 N 
HETATM   12  H   UNL     1      -2.872   5.278 -34.420  1.00  0.00     0.162 HD
HETATM   13  O   UNL     1      -4.288   6.476 -31.860  1.00  0.00    -0.268 OA
BRANCH  11  14
HETATM   14  C   UNL     1      -2.223   7.129 -33.618  1.00  0.00     0.127 C 
BRANCH  14  15
HETATM   15  C   UNL     1      -0.800   6.639 -33.356  1.00  0.00     0.058 C 
BRANCH  15  16
HETATM   16  C   UNL     1      -0.567   6.435 -31.878  1.00  0.00    -0.054 A 
HETATM   17  C   UNL     1       0.021   5.247 -31.412  1.00  0.00     0.046 A 
HETATM   18  C   UNL     1       0.291   5.099 -30.056  1.00  0.00     0.099 A 
HETATM   19  C   UNL     1      -0.017   6.120 -29.161  1.00  0.00     0.098 A 
HETATM   20  C   UNL     1      -0.600   7.299 -29.602  1.00  0.00     0.040 A 
HETATM   21  C   UNL     1      -0.872   7.458 -30.964  1.00  0.00     0.010 A 
BRANCH  18  22
HETATM   22  O   UNL     1       0.874   3.969 -29.553  1.00  0.00    -0.358 OA
HETATM   23  H   UNL     1       1.180   4.163 -28.650  1.00  0.00     0.218 HD
ENDBRANCH  18  22
BRANCH  19  24
HETATM   24  O   UNL     1       0.264   5.971 -27.833  1.00  0.00    -0.358 OA
HETATM   25  H   UNL     1       0.362   6.886 -27.503  1.00  0.00     0.218 HD
ENDBRANCH  19  24
ENDBRANCH  15  16
ENDBRANCH  14  15
ENDBRANCH  11  14
ENDBRANCH   9  10
BRANCH   7  26
HETATM   26  C   UNL     1      -4.274   0.794 -32.494  1.00  0.00     0.033 A 
HETATM   27  S   UNL     1      -4.811  -0.643 -33.274  1.00  0.00    -0.100 SA
HETATM   28  C   UNL     1      -3.670  -1.611 -32.451  1.00  0.00     0.050 A 
HETATM   29  C   UNL     1      -2.898  -0.875 -31.585  1.00  0.00     0.008 A 
HETATM   30  C   UNL     1      -3.253   0.506 -31.602  1.00  0.00     0.021 A 
ENDBRANCH   7  26
BRANCH   1  31
HETATM   31  C   UNL     1      -9.172   2.400 -33.797  1.00  0.00     0.104 C 
HETATM   32  C   UNL     1     -10.368   2.927 -34.590  1.00  0.00     0.034 C 
HETATM   33  C   UNL     1      -9.600   1.828 -32.445  1.00  0.00     0.034 C 
ENDBRANCH   1  31
TORSDOF 8
ENDMDL
MODEL 9
REMARK VINA RESULT:      -8.2      3.954      6.383
REMARK  8 active torsions:
REMARK  status: ('A' for Active; 'I' for Inactive)
REMARK    1  A    between atoms: C_2  and  N_3 
REMARK    2  A    between atoms: C_9  and  C_10 
REMARK    3  A    between atoms: C_16  and  C_17 
REMARK       I    between atoms: C_17  and  N_18 
REMARK    4  A    between atoms: N_18  and  C_19 
REMARK    5  A    between atoms: C_19  and  C_20 
REMARK    6  A    between atoms: C_20  and  C_21 
REMARK    7  A    between atoms: C_23  and  O_24 
REMARK    8  A    between atoms: C_25  and  O_26 
ROOT
HETATM    1  N   UNL     1      -3.438   4.958 -32.747  1.00  0.00    -0.248 N 
HETATM    2  N   UNL     1      -4.102   6.138 -32.789  1.00  0.00    -0.182 NA
HETATM    3  C   UNL     1      -5.389   5.775 -32.772  1.00  0.00     0.155 A 
HETATM    4  C   UNL     1      -5.567   4.379 -32.678  1.00  0.00     0.046 A 
HETATM    5  C   UNL     1      -4.274   3.872 -32.678  1.00  0.00     0.159 A 
HETATM    6  N   UNL     1      -3.913   2.575 -32.637  1.00  0.00    -0.228 NA
HETATM    7  C   UNL     1      -4.949   1.702 -32.596  1.00  0.00     0.077 A 
HETATM    8  C   UNL     1      -6.285   2.086 -32.603  1.00  0.00     0.051 A 
HETATM    9  C   UNL     1      -6.611   3.449 -32.629  1.00  0.00     0.049 A 
ENDROOT
BRANCH   9  10
HETATM   10  C   UNL     1      -8.036   3.827 -32.659  1.00  0.00     0.252 C 
HETATM   11  N   UNL     1      -8.752   3.506 -33.795  1.00  0.00    -0.357 N 
HETATM   12  H   UNL     1      -8.231   3.256 -34.628  1.00  0.00     0.162 HD
HETATM   13  O   UNL     1      -8.505   4.449 -31.712  1.00  0.00    -0.268 OA
BRANCH  11  14
HETATM   14  C   UNL     1     -10.080   4.067 -33.982  1.00  0.00     0.127 C 
BRANCH  14  15
HETATM   15  C   UNL     1     -10.850   3.392 -35.116  1.00  0.00     0.058 C 
BRANCH  15  16
HETATM   16  C   UNL     1     -11.697   2.258 -34.589  1.00  0.00    -0.054 A 
HETATM   17  C   UNL     1     -13.068   2.199 -34.892  1.00  0.00     0.046 A 
HETATM   18  C   UNL     1     -13.822   1.115 -34.455  1.00  0.00     0.099 A 
HETATM   19  C   UNL     1     -13.226   0.092 -33.723  1.00  0.00     0.098 A 
HETATM   20  C   UNL     1     -11.876   0.135 -33.412  1.00  0.00     0.040 A 
HETATM   21  C   UNL     1     -11.109   1.219 -33.848  1.00  0.00     0.010 A 
BRANCH  18  22
HETATM   22  O   UNL     1     -15.156   1.003 -34.735  1.00  0.00    -0.358 OA
HETATM   23  H   UNL     1     -15.649   1.493 -34.054  1.00  0.00     0.218 HD
ENDBRANCH  18  22
BRANCH  19  24
HETATM   24  O   UNL     1     -13.972  -0.974 -33.310  1.00  0.00    -0.358 OA
HETATM   25  H   UNL     1     -13.327  -1.703 -33.226  1.00  0.00     0.218 HD
ENDBRANCH  19  24
ENDBRANCH  15  16
ENDBRANCH  14  15
ENDBRANCH  11  14
ENDBRANCH   9  10
BRANCH   7  26
HETATM   26  C   UNL     1      -4.524   0.292 -32.574  1.00  0.00     0.033 A 
HETATM   27  S   UNL     1      -3.307  -0.265 -31.491  1.00  0.00    -0.100 SA
HETATM   28  C   UNL     1      -3.410  -1.867 -32.073  1.00  0.00     0.050 A 
HETATM   29  C   UNL     1      -4.335  -1.991 -33.082  1.00  0.00     0.008 A 
HETATM   30  C   UNL     1      -4.967  -0.747 -33.377  1.00  0.00     0.021 A 
ENDBRANCH   7  26
BRANCH   1  31
HETATM   31  C   UNL     1      -1.980   4.954 -32.812  1.00  0.00     0.104 C 
HETATM   32  C   UNL     1      -1.346   5.204 -31.443  1.00  0.00     0.034 C 
HETATM   33  C   UNL     1      -1.446   5.924 -33.866  1.00  0.00     0.034 C 
ENDBRANCH   1  31
TORSDOF 8
ENDMDL
MODEL 10
REMARK VINA RESULT:      -8.1      4.508      7.349
REMARK  8 active torsions:
REMARK  status: ('A' for Active; 'I' for Inactive)
REMARK    1  A    between atoms: C_2  and  N_3 
REMARK    2  A    between atoms: C_9  and  C_10 
REMARK    3  A    between atoms: C_16  and  C_17 
REMARK       I    between atoms: C_17  and  N_18 
REMARK    4  A    between atoms: N_18  and  C_19 
REMARK    5  A    between atoms: C_19  and  C_20 
REMARK    6  A    between atoms: C_20  and  C_21 
REMARK    7  A    between atoms: C_23  and  O_24 
REMARK    8  A    between atoms: C_25  and  O_26 
ROOT
HETATM    1  N   UNL     1      -5.348  -0.591 -33.424  1.00  0.00    -0.248 N 
HETATM    2  N   UNL     1      -6.539  -1.177 -33.696  1.00  0.00    -0.182 NA
HETATM    3  C   UNL     1      -7.407  -0.160 -33.653  1.00  0.00     0.155 A 
HETATM    4  C   UNL     1      -6.788   1.082 -33.397  1.00  0.00     0.046 A 
HETATM    5  C   UNL     1      -5.446   0.765 -33.238  1.00  0.00     0.159 A 
HETATM    6  N   UNL     1      -4.443   1.615 -32.943  1.00  0.00    -0.228 NA
HETATM    7  C   UNL     1      -4.825   2.906 -32.787  1.00  0.00     0.077 A 
HETATM    8  C   UNL     1      -6.139   3.344 -32.910  1.00  0.00     0.051 A 
HETATM    9  C   UNL     1      -7.145   2.425 -33.235  1.00  0.00     0.049 A 
ENDROOT
BRANCH   9  10
HETATM   10  C   UNL     1      -8.533   2.913 -33.336  1.00  0.00     0.252 C 
HETATM   11  N   UNL     1      -9.449   2.404 -32.436  1.00  0.00    -0.357 N 
HETATM   12  H   UNL     1      -9.196   1.567 -31.925  1.00  0.00     0.162 HD
HETATM   13  O   UNL     1      -8.823   3.696 -34.233  1.00  0.00    -0.268 OA
BRANCH  11  14
HETATM   14  C   UNL     1     -10.866   2.657 -32.643  1.00  0.00     0.127 C 
BRANCH  14  15
HETATM   15  C   UNL     1     -11.527   1.608 -33.535  1.00  0.00     0.058 C 
BRANCH  15  16
HETATM   16  C   UNL     1     -13.031   1.733 -33.483  1.00  0.00    -0.054 A 
HETATM   17  C   UNL     1     -13.836   0.923 -34.303  1.00  0.00     0.046 A 
HETATM   18  C   UNL     1     -15.221   1.001 -34.199  1.00  0.00     0.099 A 
HETATM   19  C   UNL     1     -15.810   1.873 -33.289  1.00  0.00     0.098 A 
HETATM   20  C   UNL     1     -15.032   2.682 -32.474  1.00  0.00     0.040 A 
HETATM   21  C   UNL     1     -13.640   2.609 -32.569  1.00  0.00     0.010 A 
BRANCH  18  22
HETATM   22  O   UNL     1     -16.049   0.226 -34.963  1.00  0.00    -0.358 OA
HETATM   23  H   UNL     1     -16.467  -0.433 -34.382  1.00  0.00     0.218 HD
ENDBRANCH  18  22
BRANCH  19  24
HETATM   24  O   UNL     1     -17.171   1.933 -33.184  1.00  0.00    -0.358 OA
HETATM   25  H   UNL     1     -17.388   1.286 -32.484  1.00  0.00     0.218 HD
ENDBRANCH  19  24
ENDBRANCH  15  16
ENDBRANCH  14  15
ENDBRANCH  11  14
ENDBRANCH   9  10
BRANCH   7  26
HETATM   26  C   UNL     1      -3.711   3.807 -32.444  1.00  0.00     0.033 A 
HETATM   27  S   UNL     1      -3.787   4.854 -31.080  1.00  0.00    -0.100 SA
HETATM   28  C   UNL     1      -2.233   5.493 -31.383  1.00  0.00     0.050 A 
HETATM   29  C   UNL     1      -1.659   4.943 -32.505  1.00  0.00     0.008 A 
HETATM   30  C   UNL     1      -2.514   3.982 -33.120  1.00  0.00     0.021 A 
ENDBRANCH   7  26
BRANCH   1  31
HETATM   31  C   UNL     1      -4.150  -1.418 -33.324  1.00  0.00     0.104 C 
HETATM   32  C   UNL     1      -4.297  -2.732 -34.093  1.00  0.00     0.034 C 
HETATM   33  C   UNL     1      -3.731  -1.657 -31.874  1.00  0.00     0.034 C 
ENDBRANCH   1  31
TORSDOF 8
ENDMDL
