MODEL 1
REMARK VINA RESULT:      -9.2      0.000      0.000
REMARK  4 active torsions:
REMARK  status: ('A' for Active; 'I' for Inactive)
REMARK    1  A    between atoms: C_6  and  C_7 
REMARK    2  A    between atoms: C_7  and  N_8 
REMARK    3  A    between atoms: C_11  and  C_12 
REMARK    4  A    between atoms: C_12  and  C_13 
ROOT
HETATM    1  N   UNL     1      -7.227   1.479 -32.827  1.00  0.00    -0.064 N 
HETATM    2  H   UNL     1      -7.939   0.758 -32.620  1.00  0.00     0.280 HD
HETATM    3  C   UNL     1      -6.052   0.743 -33.442  1.00  0.00     0.247 C 
HETATM    4  C   UNL     1      -5.510  -0.282 -32.441  1.00  0.00     0.086 C 
HETATM    5  C   UNL     1      -5.115   0.417 -31.137  1.00  0.00     0.016 C 
HETATM    6  C   UNL     1      -6.285   1.212 -30.562  1.00  0.00     0.029 C 
HETATM    7  C   UNL     1      -6.859   2.201 -31.567  1.00  0.00     0.235 C 
ENDROOT
BRANCH   1   8
HETATM    8  C   UNL     1      -7.940   2.365 -33.836  1.00  0.00     0.313 C 
BRANCH   8   9
HETATM    9  C   UNL     1      -9.370   1.963 -33.937  1.00  0.00     0.131 A 
HETATM   10  N   UNL     1      -9.897   0.920 -33.323  1.00  0.00    -0.232 NA
HETATM   11  C   UNL     1     -11.218   0.901 -33.710  1.00  0.00     0.085 A 
HETATM   12  C   UNL     1     -11.501   1.972 -34.550  1.00  0.00     0.062 A 
HETATM   13  C   UNL     1     -12.236  -0.007 -33.387  1.00  0.00     0.034 A 
HETATM   14  C   UNL     1     -12.766   2.208 -35.090  1.00  0.00     0.032 A 
HETATM   15  N   UNL     1     -10.309   2.640 -34.675  1.00  0.00    -0.341 N 
HETATM   16  C   UNL     1     -13.772   1.294 -34.757  1.00  0.00     0.002 A 
HETATM   17  C   UNL     1     -13.514   0.203 -33.922  1.00  0.00     0.002 A 
HETATM   18  H   UNL     1     -10.170   3.475 -35.228  1.00  0.00     0.167 HD
ENDBRANCH   8   9
ENDBRANCH   1   8
BRANCH   4  19
HETATM   19  C   UNL     1      -4.307  -0.964 -33.072  1.00  0.00     0.165 C 
HETATM   20  O   UNL     1      -3.279  -0.323 -33.282  1.00  0.00    -0.292 OA
BRANCH  19  21
HETATM   21  C   UNL     1      -4.362  -2.413 -33.442  1.00  0.00     0.012 A 
HETATM   22  C   UNL     1      -5.365  -2.825 -34.331  1.00  0.00     0.039 A 
HETATM   23  C   UNL     1      -5.463  -4.164 -34.704  1.00  0.00     0.035 A 
HETATM   24 CL   UNL     1      -6.702  -4.660 -35.790  1.00  0.00    -0.084 Cl
HETATM   25  C   UNL     1      -4.566  -5.104 -34.204  1.00  0.00     0.024 A 
HETATM   26  C   UNL     1      -3.566  -4.703 -33.321  1.00  0.00     0.003 A 
HETATM   27  C   UNL     1      -3.463  -3.363 -32.938  1.00  0.00     0.015 A 
ENDBRANCH  19  21
ENDBRANCH   4  19
TORSDOF 4
ENDMDL
MODEL 2
REMARK VINA RESULT:      -9.2      1.626      2.366
REMARK  4 active torsions:
REMARK  status: ('A' for Active; 'I' for Inactive)
REMARK    1  A    between atoms: C_6  and  C_7 
REMARK    2  A    between atoms: C_7  and  N_8 
REMARK    3  A    between atoms: C_11  and  C_12 
REMARK    4  A    between atoms: C_12  and  C_13 
ROOT
HETATM    1  N   UNL     1      -7.709   1.542 -30.989  1.00  0.00    -0.064 N 
HETATM    2  H   UNL     1      -8.354   0.808 -30.650  1.00  0.00     0.280 HD
HETATM    3  C   UNL     1      -7.266   1.104 -32.372  1.00  0.00     0.247 C 
HETATM    4  C   UNL     1      -6.547  -0.245 -32.275  1.00  0.00     0.086 C 
HETATM    5  C   UNL     1      -5.361  -0.138 -31.313  1.00  0.00     0.016 C 
HETATM    6  C   UNL     1      -5.807   0.370 -29.944  1.00  0.00     0.029 C 
HETATM    7  C   UNL     1      -6.563   1.688 -30.036  1.00  0.00     0.235 C 
ENDROOT
BRANCH   1   8
HETATM    8  C   UNL     1      -8.605   2.770 -31.037  1.00  0.00     0.313 C 
BRANCH   8   9
HETATM    9  C   UNL     1      -9.584   2.634 -32.151  1.00  0.00     0.131 A 
HETATM   10  N   UNL     1      -9.703   3.490 -33.149  1.00  0.00    -0.232 NA
HETATM   11  C   UNL     1     -10.732   3.005 -33.924  1.00  0.00     0.085 A 
HETATM   12  C   UNL     1     -11.223   1.814 -33.399  1.00  0.00     0.062 A 
HETATM   13  C   UNL     1     -11.305   3.530 -35.090  1.00  0.00     0.034 A 
HETATM   14  C   UNL     1     -12.265   1.093 -33.984  1.00  0.00     0.032 A 
HETATM   15  N   UNL     1     -10.472   1.594 -32.272  1.00  0.00    -0.341 N 
HETATM   16  C   UNL     1     -12.826   1.631 -35.148  1.00  0.00     0.002 A 
HETATM   17  C   UNL     1     -12.358   2.830 -35.693  1.00  0.00     0.002 A 
HETATM   18  H   UNL     1     -10.580   0.803 -31.651  1.00  0.00     0.167 HD
ENDBRANCH   8   9
ENDBRANCH   1   8
BRANCH   4  19
HETATM   19  C   UNL     1      -6.077  -0.628 -33.669  1.00  0.00     0.165 C 
HETATM   20  O   UNL     1      -5.796   0.251 -34.484  1.00  0.00    -0.292 OA
BRANCH  19  21
HETATM   21  C   UNL     1      -5.952  -2.066 -34.061  1.00  0.00     0.012 A 
HETATM   22  C   UNL     1      -4.738  -2.714 -33.793  1.00  0.00     0.039 A 
HETATM   23  C   UNL     1      -4.567  -4.053 -34.142  1.00  0.00     0.035 A 
HETATM   24 CL   UNL     1      -3.071  -4.837 -33.816  1.00  0.00    -0.084 Cl
HETATM   25  C   UNL     1      -5.598  -4.761 -34.754  1.00  0.00     0.024 A 
HETATM   26  C   UNL     1      -6.808  -4.124 -35.022  1.00  0.00     0.003 A 
HETATM   27  C   UNL     1      -6.987  -2.781 -34.680  1.00  0.00     0.015 A 
ENDBRANCH  19  21
ENDBRANCH   4  19
TORSDOF 4
ENDMDL
MODEL 3
REMARK VINA RESULT:      -8.9      3.309      6.027
REMARK  4 active torsions:
REMARK  status: ('A' for Active; 'I' for Inactive)
REMARK    1  A    between atoms: C_6  and  C_7 
REMARK    2  A    between atoms: C_7  and  N_8 
REMARK    3  A    between atoms: C_11  and  C_12 
REMARK    4  A    between atoms: C_12  and  C_13 
ROOT
HETATM    1  N   UNL     1      -7.473   2.822 -33.266  1.00  0.00    -0.064 N 
HETATM    2  H   UNL     1      -8.219   2.515 -33.914  1.00  0.00     0.280 HD
HETATM    3  C   UNL     1      -6.277   1.933 -33.554  1.00  0.00     0.247 C 
HETATM    4  C   UNL     1      -6.653   0.471 -33.294  1.00  0.00     0.086 C 
HETATM    5  C   UNL     1      -7.143   0.304 -31.853  1.00  0.00     0.016 C 
HETATM    6  C   UNL     1      -8.301   1.252 -31.553  1.00  0.00     0.029 C 
HETATM    7  C   UNL     1      -7.952   2.703 -31.852  1.00  0.00     0.235 C 
ENDROOT
BRANCH   1   8
HETATM    8  C   UNL     1      -7.234   4.260 -33.698  1.00  0.00     0.313 C 
BRANCH   8   9
HETATM    9  C   UNL     1      -5.776   4.560 -33.661  1.00  0.00     0.131 A 
HETATM   10  N   UNL     1      -5.032   4.779 -34.730  1.00  0.00    -0.232 NA
HETATM   11  C   UNL     1      -3.758   4.983 -34.250  1.00  0.00     0.085 A 
HETATM   12  C   UNL     1      -3.739   4.916 -32.861  1.00  0.00     0.062 A 
HETATM   13  C   UNL     1      -2.565   5.226 -34.943  1.00  0.00     0.034 A 
HETATM   14  C   UNL     1      -2.581   5.093 -32.103  1.00  0.00     0.032 A 
HETATM   15  N   UNL     1      -5.038   4.652 -32.507  1.00  0.00    -0.341 N 
HETATM   16  C   UNL     1      -1.398   5.336 -32.810  1.00  0.00     0.002 A 
HETATM   17  C   UNL     1      -1.386   5.400 -34.205  1.00  0.00     0.002 A 
HETATM   18  H   UNL     1      -5.367   4.538 -31.558  1.00  0.00     0.167 HD
ENDBRANCH   8   9
ENDBRANCH   1   8
BRANCH   4  19
HETATM   19  C   UNL     1      -5.420  -0.382 -33.546  1.00  0.00     0.165 C 
HETATM   20  O   UNL     1      -4.299   0.096 -33.378  1.00  0.00    -0.292 OA
BRANCH  19  21
HETATM   21  C   UNL     1      -5.557  -1.802 -33.997  1.00  0.00     0.012 A 
HETATM   22  C   UNL     1      -4.453  -2.651 -33.832  1.00  0.00     0.039 A 
HETATM   23  C   UNL     1      -4.527  -3.982 -34.239  1.00  0.00     0.035 A 
HETATM   24 CL   UNL     1      -3.165  -5.013 -34.040  1.00  0.00    -0.084 Cl
HETATM   25  C   UNL     1      -5.695  -4.483 -34.808  1.00  0.00     0.024 A 
HETATM   26  C   UNL     1      -6.796  -3.646 -34.974  1.00  0.00     0.003 A 
HETATM   27  C   UNL     1      -6.730  -2.309 -34.573  1.00  0.00     0.015 A 
ENDBRANCH  19  21
ENDBRANCH   4  19
TORSDOF 4
ENDMDL
MODEL 4
REMARK VINA RESULT:      -8.6      5.114      8.245
REMARK  4 active torsions:
REMARK  status: ('A' for Active; 'I' for Inactive)
REMARK    1  A    between atoms: C_6  and  C_7 
REMARK    2  A    between atoms: C_7  and  N_8 
REMARK    3  A    between atoms: C_11  and  C_12 
REMARK    4  A    between atoms: C_12  and  C_13 
ROOT
HETATM    1  N   UNL     1      -3.583   3.799 -32.493  1.00  0.00    -0.064 N 
HETATM    2  H   UNL     1      -4.264   3.906 -33.263  1.00  0.00     0.280 HD
HETATM    3  C   UNL     1      -3.318   2.310 -32.373  1.00  0.00     0.247 C 
HETATM    4  C   UNL     1      -4.626   1.583 -32.044  1.00  0.00     0.086 C 
HETATM    5  C   UNL     1      -5.231   2.152 -30.758  1.00  0.00     0.016 C 
HETATM    6  C   UNL     1      -5.429   3.662 -30.863  1.00  0.00     0.029 C 
HETATM    7  C   UNL     1      -4.144   4.387 -31.235  1.00  0.00     0.235 C 
ENDROOT
BRANCH   1   8
HETATM    8  C   UNL     1      -2.372   4.555 -33.018  1.00  0.00     0.313 C 
BRANCH   8   9
HETATM    9  C   UNL     1      -1.648   5.193 -31.884  1.00  0.00     0.131 A 
HETATM   10  N   UNL     1      -0.767   4.576 -31.118  1.00  0.00    -0.232 NA
HETATM   11  C   UNL     1      -0.372   5.513 -30.191  1.00  0.00     0.085 A 
HETATM   12  C   UNL     1      -1.004   6.730 -30.421  1.00  0.00     0.062 A 
HETATM   13  C   UNL     1       0.522   5.395 -29.118  1.00  0.00     0.034 A 
HETATM   14  C   UNL     1      -0.787   7.865 -29.638  1.00  0.00     0.032 A 
HETATM   15  N   UNL     1      -1.808   6.504 -31.509  1.00  0.00    -0.341 N 
HETATM   16  C   UNL     1       0.110   7.731 -28.572  1.00  0.00     0.002 A 
HETATM   17  C   UNL     1       0.753   6.518 -28.312  1.00  0.00     0.002 A 
HETATM   18  H   UNL     1      -2.411   7.195 -31.936  1.00  0.00     0.167 HD
ENDBRANCH   8   9
ENDBRANCH   1   8
BRANCH   4  19
HETATM   19  C   UNL     1      -4.313   0.104 -31.884  1.00  0.00     0.165 C 
HETATM   20  O   UNL     1      -3.679  -0.287 -30.905  1.00  0.00    -0.292 OA
BRANCH  19  21
HETATM   21  C   UNL     1      -4.772  -0.885 -32.910  1.00  0.00     0.012 A 
HETATM   22  C   UNL     1      -4.067  -2.093 -33.016  1.00  0.00     0.039 A 
HETATM   23  C   UNL     1      -4.451  -3.046 -33.957  1.00  0.00     0.035 A 
HETATM   24 CL   UNL     1      -3.575  -4.521 -34.085  1.00  0.00    -0.084 Cl
HETATM   25  C   UNL     1      -5.537  -2.813 -34.797  1.00  0.00     0.024 A 
HETATM   26  C   UNL     1      -6.243  -1.616 -34.697  1.00  0.00     0.003 A 
HETATM   27  C   UNL     1      -5.863  -0.652 -33.759  1.00  0.00     0.015 A 
ENDBRANCH  19  21
ENDBRANCH   4  19
TORSDOF 4
ENDMDL
MODEL 5
REMARK VINA RESULT:      -8.6      4.220      6.829
REMARK  4 active torsions:
REMARK  status: ('A' for Active; 'I' for Inactive)
REMARK    1  A    between atoms: C_6  and  C_7 
REMARK    2  A    between atoms: C_7  and  N_8 
REMARK    3  A    between atoms: C_11  and  C_12 
REMARK    4  A    between atoms: C_12  and  C_13 
ROOT
HETATM    1  N   UNL     1      -4.776   1.914 -31.214  1.00  0.00    -0.064 N 
HETATM    2  H   UNL     1      -5.226   1.403 -30.435  1.00  0.00     0.280 HD
HETATM    3  C   UNL     1      -5.406   1.377 -32.485  1.00  0.00     0.247 C 
HETATM    4  C   UNL     1      -5.133  -0.127 -32.595  1.00  0.00     0.086 C 
HETATM    5  C   UNL     1      -3.625  -0.390 -32.560  1.00  0.00     0.016 C 
HETATM    6  C   UNL     1      -2.990   0.215 -31.310  1.00  0.00     0.029 C 
HETATM    7  C   UNL     1      -3.294   1.699 -31.169  1.00  0.00     0.235 C 
ENDROOT
BRANCH   1   8
HETATM    8  C   UNL     1      -5.180   3.354 -30.940  1.00  0.00     0.313 C 
BRANCH   8   9
HETATM    9  C   UNL     1      -4.169   4.279 -31.523  1.00  0.00     0.131 A 
HETATM   10  N   UNL     1      -4.024   4.507 -32.816  1.00  0.00    -0.232 NA
HETATM   11  C   UNL     1      -2.972   5.389 -32.913  1.00  0.00     0.085 A 
HETATM   12  C   UNL     1      -2.493   5.725 -31.651  1.00  0.00     0.062 A 
HETATM   13  C   UNL     1      -2.367   5.946 -34.048  1.00  0.00     0.034 A 
HETATM   14  C   UNL     1      -1.433   6.609 -31.446  1.00  0.00     0.032 A 
HETATM   15  N   UNL     1      -3.276   5.010 -30.780  1.00  0.00    -0.341 N 
HETATM   16  C   UNL     1      -0.841   7.157 -32.590  1.00  0.00     0.002 A 
HETATM   17  C   UNL     1      -1.296   6.831 -33.870  1.00  0.00     0.002 A 
HETATM   18  H   UNL     1      -3.184   5.027 -29.773  1.00  0.00     0.167 HD
ENDBRANCH   8   9
ENDBRANCH   1   8
BRANCH   4  19
HETATM   19  C   UNL     1      -5.736  -0.619 -33.901  1.00  0.00     0.165 C 
HETATM   20  O   UNL     1      -6.208   0.188 -34.701  1.00  0.00    -0.292 OA
BRANCH  19  21
HETATM   21  C   UNL     1      -5.761  -2.080 -34.224  1.00  0.00     0.012 A 
HETATM   22  C   UNL     1      -4.595  -2.822 -33.990  1.00  0.00     0.039 A 
HETATM   23  C   UNL     1      -4.563  -4.186 -34.277  1.00  0.00     0.035 A 
HETATM   24 CL   UNL     1      -3.125  -5.086 -33.993  1.00  0.00    -0.084 Cl
HETATM   25  C   UNL     1      -5.687  -4.825 -34.795  1.00  0.00     0.024 A 
HETATM   26  C   UNL     1      -6.850  -4.094 -35.030  1.00  0.00     0.003 A 
HETATM   27  C   UNL     1      -6.889  -2.726 -34.748  1.00  0.00     0.015 A 
ENDBRANCH  19  21
ENDBRANCH   4  19
TORSDOF 4
ENDMDL
MODEL 6
REMARK VINA RESULT:      -8.5      3.518      6.321
REMARK  4 active torsions:
REMARK  status: ('A' for Active; 'I' for Inactive)
REMARK    1  A    between atoms: C_6  and  C_7 
REMARK    2  A    between atoms: C_7  and  N_8 
REMARK    3  A    between atoms: C_11  and  C_12 
REMARK    4  A    between atoms: C_12  and  C_13 
ROOT
HETATM    1  N   UNL     1      -5.801   2.027 -31.493  1.00  0.00    -0.064 N 
HETATM    2  H   UNL     1      -6.251   2.393 -32.349  1.00  0.00     0.280 HD
HETATM    3  C   UNL     1      -4.649   1.159 -31.963  1.00  0.00     0.247 C 
HETATM    4  C   UNL     1      -5.191   0.012 -32.822  1.00  0.00     0.086 C 
HETATM    5  C   UNL     1      -6.217  -0.799 -32.026  1.00  0.00     0.016 C 
HETATM    6  C   UNL     1      -7.336   0.096 -31.498  1.00  0.00     0.029 C 
HETATM    7  C   UNL     1      -6.803   1.264 -30.681  1.00  0.00     0.235 C 
ENDROOT
BRANCH   1   8
HETATM    8  C   UNL     1      -5.318   3.295 -30.807  1.00  0.00     0.313 C 
BRANCH   8   9
HETATM    9  C   UNL     1      -4.277   3.954 -31.644  1.00  0.00     0.131 A 
HETATM   10  N   UNL     1      -4.438   4.287 -32.911  1.00  0.00    -0.232 NA
HETATM   11  C   UNL     1      -3.236   4.834 -33.299  1.00  0.00     0.085 A 
HETATM   12  C   UNL     1      -2.341   4.859 -32.235  1.00  0.00     0.062 A 
HETATM   13  C   UNL     1      -2.834   5.327 -34.548  1.00  0.00     0.034 A 
HETATM   14  C   UNL     1      -1.046   5.368 -32.337  1.00  0.00     0.032 A 
HETATM   15  N   UNL     1      -3.029   4.299 -31.188  1.00  0.00    -0.341 N 
HETATM   16  C   UNL     1      -0.660   5.857 -33.590  1.00  0.00     0.002 A 
HETATM   17  C   UNL     1      -1.535   5.836 -34.679  1.00  0.00     0.002 A 
HETATM   18  H   UNL     1      -2.656   4.166 -30.257  1.00  0.00     0.167 HD
ENDBRANCH   8   9
ENDBRANCH   1   8
BRANCH   4  19
HETATM   19  C   UNL     1      -4.017  -0.861 -33.234  1.00  0.00     0.165 C 
HETATM   20  O   UNL     1      -2.895  -0.369 -33.343  1.00  0.00    -0.292 OA
BRANCH  19  21
HETATM   21  C   UNL     1      -4.213  -2.319 -33.510  1.00  0.00     0.012 A 
HETATM   22  C   UNL     1      -5.227  -2.685 -34.406  1.00  0.00     0.039 A 
HETATM   23  C   UNL     1      -5.455  -4.030 -34.694  1.00  0.00     0.035 A 
HETATM   24 CL   UNL     1      -6.706  -4.469 -35.788  1.00  0.00    -0.084 Cl
HETATM   25  C   UNL     1      -4.677  -5.021 -34.100  1.00  0.00     0.024 A 
HETATM   26  C   UNL     1      -3.666  -4.665 -33.210  1.00  0.00     0.003 A 
HETATM   27  C   UNL     1      -3.434  -3.319 -32.912  1.00  0.00     0.015 A 
ENDBRANCH  19  21
ENDBRANCH   4  19
TORSDOF 4
ENDMDL
MODEL 7
REMARK VINA RESULT:      -8.5      4.739      7.760
REMARK  4 active torsions:
REMARK  status: ('A' for Active; 'I' for Inactive)
REMARK    1  A    between atoms: C_6  and  C_7 
REMARK    2  A    between atoms: C_7  and  N_8 
REMARK    3  A    between atoms: C_11  and  C_12 
REMARK    4  A    between atoms: C_12  and  C_13 
ROOT
HETATM    1  N   UNL     1      -5.710   1.540 -32.619  1.00  0.00    -0.064 N 
HETATM    2  H   UNL     1      -4.775   1.098 -32.621  1.00  0.00     0.280 HD
HETATM    3  C   UNL     1      -5.465   3.037 -32.656  1.00  0.00     0.247 C 
HETATM    4  C   UNL     1      -4.665   3.454 -31.417  1.00  0.00     0.086 C 
HETATM    5  C   UNL     1      -5.413   3.039 -30.147  1.00  0.00     0.016 C 
HETATM    6  C   UNL     1      -5.716   1.542 -30.152  1.00  0.00     0.029 C 
HETATM    7  C   UNL     1      -6.470   1.111 -31.402  1.00  0.00     0.235 C 
ENDROOT
BRANCH   1   8
HETATM    8  C   UNL     1      -6.319   1.028 -33.915  1.00  0.00     0.313 C 
BRANCH   8   9
HETATM    9  C   UNL     1      -6.033  -0.425 -34.064  1.00  0.00     0.131 A 
HETATM   10  N   UNL     1      -4.883  -0.996 -33.756  1.00  0.00    -0.232 NA
HETATM   11  C   UNL     1      -5.041  -2.326 -34.073  1.00  0.00     0.085 A 
HETATM   12  C   UNL     1      -6.323  -2.569 -34.554  1.00  0.00     0.062 A 
HETATM   13  C   UNL     1      -4.130  -3.387 -33.982  1.00  0.00     0.034 A 
HETATM   14  C   UNL     1      -6.767  -3.832 -34.946  1.00  0.00     0.032 A 
HETATM   15  N   UNL     1      -6.940  -1.343 -34.533  1.00  0.00    -0.341 N 
HETATM   16  C   UNL     1      -5.845  -4.881 -34.847  1.00  0.00     0.002 A 
HETATM   17  C   UNL     1      -4.547  -4.665 -34.377  1.00  0.00     0.002 A 
HETATM   18  H   UNL     1      -7.893  -1.171 -34.826  1.00  0.00     0.167 HD
ENDBRANCH   8   9
ENDBRANCH   1   8
BRANCH   4  19
HETATM   19  C   UNL     1      -4.481   4.963 -31.464  1.00  0.00     0.165 C 
HETATM   20  O   UNL     1      -5.278   5.697 -30.881  1.00  0.00    -0.292 OA
BRANCH  19  21
HETATM   21  C   UNL     1      -3.336   5.566 -32.216  1.00  0.00     0.012 A 
HETATM   22  C   UNL     1      -2.138   5.784 -31.520  1.00  0.00     0.039 A 
HETATM   23  C   UNL     1      -1.043   6.346 -32.172  1.00  0.00     0.035 A 
HETATM   24 CL   UNL     1       0.419   6.617 -31.307  1.00  0.00    -0.084 Cl
HETATM   25  C   UNL     1      -1.123   6.693 -33.518  1.00  0.00     0.024 A 
HETATM   26  C   UNL     1      -2.309   6.478 -34.217  1.00  0.00     0.003 A 
HETATM   27  C   UNL     1      -3.414   5.919 -33.570  1.00  0.00     0.015 A 
ENDBRANCH  19  21
ENDBRANCH   4  19
TORSDOF 4
ENDMDL
MODEL 8
REMARK VINA RESULT:      -8.3      3.129      5.769
REMARK  4 active torsions:
REMARK  status: ('A' for Active; 'I' for Inactive)
REMARK    1  A    between atoms: C_6  and  C_7 
REMARK    2  A    between atoms: C_7  and  N_8 
REMARK    3  A    between atoms: C_11  and  C_12 
REMARK    4  A    between atoms: C_12  and  C_13 
ROOT
HETATM    1  N   UNL     1      -8.915   3.257 -33.603  1.00  0.00    -0.064 N 
HETATM    2  H   UNL     1      -8.559   3.256 -34.574  1.00  0.00     0.280 HD
HETATM    3  C   UNL     1      -8.026   2.300 -32.830  1.00  0.00     0.247 C 
HETATM    4  C   UNL     1      -8.129   0.899 -33.444  1.00  0.00     0.086 C 
HETATM    5  C   UNL     1      -9.588   0.435 -33.446  1.00  0.00     0.016 C 
HETATM    6  C   UNL     1     -10.485   1.439 -34.165  1.00  0.00     0.029 C 
HETATM    7  C   UNL     1     -10.354   2.843 -33.592  1.00  0.00     0.235 C 
ENDROOT
BRANCH   1   8
HETATM    8  C   UNL     1      -8.706   4.701 -33.177  1.00  0.00     0.313 C 
BRANCH   8   9
HETATM    9  C   UNL     1      -7.269   5.066 -33.324  1.00  0.00     0.131 A 
HETATM   10  N   UNL     1      -6.513   4.720 -34.350  1.00  0.00    -0.232 NA
HETATM   11  C   UNL     1      -5.266   5.232 -34.070  1.00  0.00     0.085 A 
HETATM   12  C   UNL     1      -5.278   5.927 -32.866  1.00  0.00     0.062 A 
HETATM   13  C   UNL     1      -4.072   5.138 -34.798  1.00  0.00     0.034 A 
HETATM   14  C   UNL     1      -4.152   6.559 -32.336  1.00  0.00     0.032 A 
HETATM   15  N   UNL     1      -6.568   5.813 -32.412  1.00  0.00    -0.341 N 
HETATM   16  C   UNL     1      -2.968   6.457 -33.076  1.00  0.00     0.002 A 
HETATM   17  C   UNL     1      -2.925   5.758 -34.284  1.00  0.00     0.002 A 
HETATM   18  H   UNL     1      -6.913   6.210 -31.548  1.00  0.00     0.167 HD
ENDBRANCH   8   9
ENDBRANCH   1   8
BRANCH   4  19
HETATM   19  C   UNL     1      -7.266  -0.040 -32.617  1.00  0.00     0.165 C 
HETATM   20  O   UNL     1      -7.321  -0.001 -31.388  1.00  0.00    -0.292 OA
BRANCH  19  21
HETATM   21  C   UNL     1      -6.346  -1.013 -33.284  1.00  0.00     0.012 A 
HETATM   22  C   UNL     1      -6.921  -2.083 -33.984  1.00  0.00     0.039 A 
HETATM   23  C   UNL     1      -6.110  -3.020 -34.620  1.00  0.00     0.035 A 
HETATM   24 CL   UNL     1      -6.825  -4.334 -35.469  1.00  0.00    -0.084 Cl
HETATM   25  C   UNL     1      -4.723  -2.903 -34.573  1.00  0.00     0.024 A 
HETATM   26  C   UNL     1      -4.144  -1.841 -33.881  1.00  0.00     0.003 A 
HETATM   27  C   UNL     1      -4.950  -0.899 -33.236  1.00  0.00     0.015 A 
ENDBRANCH  19  21
ENDBRANCH   4  19
TORSDOF 4
ENDMDL
MODEL 9
REMARK VINA RESULT:      -8.2      2.753      7.571
REMARK  4 active torsions:
REMARK  status: ('A' for Active; 'I' for Inactive)
REMARK    1  A    between atoms: C_6  and  C_7 
REMARK    2  A    between atoms: C_7  and  N_8 
REMARK    3  A    between atoms: C_11  and  C_12 
REMARK    4  A    between atoms: C_12  and  C_13 
ROOT
HETATM    1  N   UNL     1      -5.239   1.755 -32.924  1.00  0.00    -0.064 N 
HETATM    2  H   UNL     1      -5.252   1.231 -33.815  1.00  0.00     0.280 HD
HETATM    3  C   UNL     1      -6.626   1.600 -32.328  1.00  0.00     0.247 C 
HETATM    4  C   UNL     1      -7.664   2.190 -33.290  1.00  0.00     0.086 C 
HETATM    5  C   UNL     1      -7.336   3.657 -33.578  1.00  0.00     0.016 C 
HETATM    6  C   UNL     1      -5.914   3.809 -34.112  1.00  0.00     0.029 C 
HETATM    7  C   UNL     1      -4.881   3.186 -33.184  1.00  0.00     0.235 C 
ENDROOT
BRANCH   1   8
HETATM    8  C   UNL     1      -4.185   1.012 -32.119  1.00  0.00     0.313 C 
BRANCH   8   9
HETATM    9  C   UNL     1      -4.150  -0.417 -32.536  1.00  0.00     0.131 A 
HETATM   10  N   UNL     1      -3.497  -1.367 -31.892  1.00  0.00    -0.232 NA
HETATM   11  C   UNL     1      -3.705  -2.513 -32.626  1.00  0.00     0.085 A 
HETATM   12  C   UNL     1      -4.525  -2.255 -33.718  1.00  0.00     0.062 A 
HETATM   13  C   UNL     1      -3.220  -3.812 -32.422  1.00  0.00     0.034 A 
HETATM   14  C   UNL     1      -4.911  -3.236 -34.634  1.00  0.00     0.032 A 
HETATM   15  N   UNL     1      -4.802  -0.914 -33.637  1.00  0.00    -0.341 N 
HETATM   16  C   UNL     1      -4.419  -4.528 -34.415  1.00  0.00     0.002 A 
HETATM   17  C   UNL     1      -3.585  -4.813 -33.331  1.00  0.00     0.002 A 
HETATM   18  H   UNL     1      -5.379  -0.402 -34.291  1.00  0.00     0.167 HD
ENDBRANCH   8   9
ENDBRANCH   1   8
BRANCH   4  19
HETATM   19  C   UNL     1      -9.032   2.060 -32.639  1.00  0.00     0.165 C 
HETATM   20  O   UNL     1      -9.127   2.015 -31.414  1.00  0.00    -0.292 OA
BRANCH  19  21
HETATM   21  C   UNL     1     -10.269   1.988 -33.479  1.00  0.00     0.012 A 
HETATM   22  C   UNL     1     -11.189   0.966 -33.203  1.00  0.00     0.039 A 
HETATM   23  C   UNL     1     -12.355   0.852 -33.958  1.00  0.00     0.035 A 
HETATM   24 CL   UNL     1     -13.473  -0.409 -33.616  1.00  0.00    -0.084 Cl
HETATM   25  C   UNL     1     -12.620   1.750 -34.988  1.00  0.00     0.024 A 
HETATM   26  C   UNL     1     -11.712   2.768 -35.268  1.00  0.00     0.003 A 
HETATM   27  C   UNL     1     -10.538   2.888 -34.519  1.00  0.00     0.015 A 
ENDBRANCH  19  21
ENDBRANCH   4  19
TORSDOF 4
ENDMDL
MODEL 10
REMARK VINA RESULT:      -8.1      4.181      5.851
REMARK  4 active torsions:
REMARK  status: ('A' for Active; 'I' for Inactive)
REMARK    1  A    between atoms: C_6  and  C_7 
REMARK    2  A    between atoms: C_7  and  N_8 
REMARK    3  A    between atoms: C_11  and  C_12 
REMARK    4  A    between atoms: C_12  and  C_13 
ROOT
HETATM    1  N   UNL     1      -6.900   1.489 -32.181  1.00  0.00    -0.064 N 
HETATM    2  H   UNL     1      -7.089   1.810 -33.146  1.00  0.00     0.280 HD
HETATM    3  C   UNL     1      -5.701   2.285 -31.701  1.00  0.00     0.247 C 
HETATM    4  C   UNL     1      -4.502   2.001 -32.611  1.00  0.00     0.086 C 
HETATM    5  C   UNL     1      -4.206   0.499 -32.634  1.00  0.00     0.016 C 
HETATM    6  C   UNL     1      -5.439  -0.298 -33.051  1.00  0.00     0.029 C 
HETATM    7  C   UNL     1      -6.648   0.012 -32.181  1.00  0.00     0.235 C 
ENDROOT
BRANCH   1   8
HETATM    8  C   UNL     1      -8.175   1.878 -31.450  1.00  0.00     0.313 C 
BRANCH   8   9
HETATM    9  C   UNL     1      -9.312   1.919 -32.410  1.00  0.00     0.131 A 
HETATM   10  N   UNL     1      -9.471   2.842 -33.341  1.00  0.00    -0.232 NA
HETATM   11  C   UNL     1     -10.650   2.521 -33.974  1.00  0.00     0.085 A 
HETATM   12  C   UNL     1     -11.199   1.363 -33.434  1.00  0.00     0.062 A 
HETATM   13  C   UNL     1     -11.319   3.176 -35.017  1.00  0.00     0.034 A 
HETATM   14  C   UNL     1     -12.393   0.798 -33.887  1.00  0.00     0.032 A 
HETATM   15  N   UNL     1     -10.326   0.993 -32.442  1.00  0.00    -0.341 N 
HETATM   16  C   UNL     1     -13.047   1.464 -34.929  1.00  0.00     0.002 A 
HETATM   17  C   UNL     1     -12.523   2.634 -35.485  1.00  0.00     0.002 A 
HETATM   18  H   UNL     1     -10.436   0.183 -31.847  1.00  0.00     0.167 HD
ENDBRANCH   8   9
ENDBRANCH   1   8
BRANCH   4  19
HETATM   19  C   UNL     1      -3.310   2.777 -32.073  1.00  0.00     0.165 C 
HETATM   20  O   UNL     1      -2.708   2.365 -31.082  1.00  0.00    -0.292 OA
BRANCH  19  21
HETATM   21  C   UNL     1      -2.862   4.040 -32.738  1.00  0.00     0.012 A 
HETATM   22  C   UNL     1      -1.820   4.762 -32.138  1.00  0.00     0.039 A 
HETATM   23  C   UNL     1      -1.368   5.947 -32.715  1.00  0.00     0.035 A 
HETATM   24 CL   UNL     1      -0.095   6.829 -31.967  1.00  0.00    -0.084 Cl
HETATM   25  C   UNL     1      -1.940   6.424 -33.891  1.00  0.00     0.024 A 
HETATM   26  C   UNL     1      -2.974   5.712 -34.494  1.00  0.00     0.003 A 
HETATM   27  C   UNL     1      -3.437   4.524 -33.921  1.00  0.00     0.015 A 
ENDBRANCH  19  21
ENDBRANCH   4  19
TORSDOF 4
ENDMDL
