MODEL 1
REMARK VINA RESULT:      -9.9      0.000      0.000
REMARK  12 active torsions:
REMARK  status: ('A' for Active; 'I' for Inactive)
REMARK    1  A    between atoms: C_2  and  N_3 
REMARK    2  A    between atoms: N_3  and  C_5 
REMARK    3  A    between atoms: N_3  and  C_25 
REMARK    4  A    between atoms: C_7  and  C_8 
REMARK    5  A    between atoms: C_8  and  C_9 
REMARK    6  A    between atoms: C_9  and  C_10 
REMARK    7  A    between atoms: C_18  and  C_19 
REMARK    8  A    between atoms: C_25  and  C_26 
REMARK    9  A    between atoms: C_28  and  N_29 
REMARK   10  A    between atoms: C_32  and  N_33 
REMARK   11  A    between atoms: C_39  and  O_40 
REMARK   12  A    between atoms: C_41  and  O_42 
ROOT
HETATM    1  N   UNL     1      -6.775   4.353 -32.127  1.00  0.00    -0.061 N 
HETATM    2  H   UNL     1      -7.493   4.172 -32.845  1.00  0.00     0.280 HD
ENDROOT
BRANCH   1   3
HETATM    3  C   UNL     1      -7.428   5.242 -31.066  1.00  0.00     0.180 C 
HETATM    4  C   UNL     1      -6.552   6.439 -30.709  1.00  0.00     0.039 C 
HETATM    5  C   UNL     1      -7.882   4.477 -29.827  1.00  0.00     0.039 C 
ENDBRANCH   1   3
BRANCH   1   6
HETATM    6  C   UNL     1      -5.573   5.018 -32.747  1.00  0.00     0.189 C 
HETATM    7  C   UNL     1      -4.225   4.260 -32.541  1.00  0.00     0.038 C 
HETATM    8  C   UNL     1      -3.850   4.624 -33.999  1.00  0.00    -0.010 C 
HETATM    9  C   UNL     1      -5.373   4.727 -34.262  1.00  0.00     0.038 C 
BRANCH   8  10
HETATM   10  C   UNL     1      -3.079   5.922 -34.248  1.00  0.00     0.012 C 
BRANCH  10  11
HETATM   11  C   UNL     1      -1.566   5.681 -34.231  1.00  0.00     0.079 C 
BRANCH  11  12
HETATM   12  C   UNL     1      -1.020   5.833 -32.853  1.00  0.00     0.105 A 
HETATM   13  N   UNL     1      -0.458   4.889 -32.125  1.00  0.00    -0.233 NA
HETATM   14  C   UNL     1      -0.139   5.488 -30.928  1.00  0.00     0.085 A 
HETATM   15  C   UNL     1      -0.501   6.826 -30.931  1.00  0.00     0.063 A 
HETATM   16  C   UNL     1       0.459   4.953 -29.782  1.00  0.00     0.034 A 
HETATM   17  N   UNL     1      -1.050   7.026 -32.171  1.00  0.00    -0.343 N 
HETATM   18  C   UNL     1      -0.296   7.681 -29.844  1.00  0.00     0.039 A 
HETATM   19  H   UNL     1      -1.424   7.899 -32.512  1.00  0.00     0.167 HD
HETATM   20  C   UNL     1       0.305   7.152 -28.678  1.00  0.00    -0.048 A 
HETATM   21  C   UNL     1       0.672   5.792 -28.673  1.00  0.00     0.010 A 
BRANCH  20  22
HETATM   22  C   UNL     1       0.540   8.073 -27.462  1.00  0.00    -0.024 C 
HETATM   23  C   UNL     1       1.853   8.885 -27.532  1.00  0.00     0.019 C 
HETATM   24  C   UNL     1      -0.619   9.088 -27.353  1.00  0.00     0.019 C 
HETATM   25  C   UNL     1       0.597   7.228 -26.170  1.00  0.00     0.019 C 
ENDBRANCH  20  22
ENDBRANCH  11  12
ENDBRANCH  10  11
ENDBRANCH   8  10
ENDBRANCH   1   6
BRANCH   1  26
HETATM   26  C   UNL     1      -6.340   2.965 -31.629  1.00  0.00     0.270 C 
BRANCH  26  27
HETATM   27  C   UNL     1      -6.921   1.848 -32.502  1.00  0.00     0.181 C 
HETATM   28  O   UNL     1      -5.891   1.151 -33.231  1.00  0.00    -0.354 OA
HETATM   29  C   UNL     1      -6.490  -0.126 -33.618  1.00  0.00     0.262 C 
HETATM   30  C   UNL     1      -7.729  -0.351 -32.725  1.00  0.00     0.198 C 
HETATM   31  C   UNL     1      -7.605   0.762 -31.693  1.00  0.00     0.181 C 
BRANCH  29  32
HETATM   32  N   UNL     1      -5.516  -1.191 -33.526  1.00  0.00    -0.294 N 
HETATM   33  C   UNL     1      -5.713  -2.438 -34.054  1.00  0.00     0.167 A 
HETATM   34  C   UNL     1      -4.540  -3.127 -33.795  1.00  0.00     0.149 A 
HETATM   35  N   UNL     1      -6.811  -2.886 -34.683  1.00  0.00    -0.222 NA
HETATM   36  C   UNL     1      -4.477  -4.452 -34.262  1.00  0.00     0.155 A 
HETATM   37  N   UNL     1      -3.656  -2.325 -33.098  1.00  0.00    -0.236 NA
HETATM   38  N   UNL     1      -5.560  -4.960 -34.896  1.00  0.00    -0.222 NA
HETATM   39  C   UNL     1      -6.639  -4.168 -35.075  1.00  0.00     0.237 A 
HETATM   40  C   UNL     1      -4.270  -1.168 -32.967  1.00  0.00     0.214 A 
BRANCH  36  41
HETATM   41  N   UNL     1      -3.371  -5.268 -34.099  1.00  0.00    -0.382 N 
HETATM   42  H   UNL     1      -3.321  -6.052 -34.737  1.00  0.00     0.157 HD
HETATM   43  H   UNL     1      -2.520  -4.749 -33.918  1.00  0.00     0.157 HD
ENDBRANCH  36  41
ENDBRANCH  29  32
BRANCH  30  44
HETATM   44  O   UNL     1      -8.944  -0.139 -33.461  1.00  0.00    -0.388 OA
HETATM   45  H   UNL     1      -9.530   0.404 -32.893  1.00  0.00     0.210 HD
ENDBRANCH  30  44
BRANCH  31  46
HETATM   46  O   UNL     1      -8.845   1.206 -31.178  1.00  0.00    -0.390 OA
HETATM   47  H   UNL     1      -9.233   1.799 -31.860  1.00  0.00     0.210 HD
ENDBRANCH  31  46
ENDBRANCH  26  27
ENDBRANCH   1  26
TORSDOF 12
ENDMDL
MODEL 2
REMARK VINA RESULT:      -9.3      0.757      1.430
REMARK  12 active torsions:
REMARK  status: ('A' for Active; 'I' for Inactive)
REMARK    1  A    between atoms: C_2  and  N_3 
REMARK    2  A    between atoms: N_3  and  C_5 
REMARK    3  A    between atoms: N_3  and  C_25 
REMARK    4  A    between atoms: C_7  and  C_8 
REMARK    5  A    between atoms: C_8  and  C_9 
REMARK    6  A    between atoms: C_9  and  C_10 
REMARK    7  A    between atoms: C_18  and  C_19 
REMARK    8  A    between atoms: C_25  and  C_26 
REMARK    9  A    between atoms: C_28  and  N_29 
REMARK   10  A    between atoms: C_32  and  N_33 
REMARK   11  A    between atoms: C_39  and  O_40 
REMARK   12  A    between atoms: C_41  and  O_42 
ROOT
HETATM    1  N   UNL     1      -6.380   4.470 -32.215  1.00  0.00    -0.061 N 
HETATM    2  H   UNL     1      -7.149   4.284 -32.877  1.00  0.00     0.280 HD
ENDROOT
BRANCH   1   3
HETATM    3  C   UNL     1      -6.956   5.355 -31.109  1.00  0.00     0.180 C 
HETATM    4  C   UNL     1      -6.333   6.747 -31.109  1.00  0.00     0.039 C 
HETATM    5  C   UNL     1      -6.909   4.709 -29.727  1.00  0.00     0.039 C 
ENDBRANCH   1   3
BRANCH   1   6
HETATM    6  C   UNL     1      -5.233   5.143 -32.925  1.00  0.00     0.189 C 
HETATM    7  C   UNL     1      -3.837   4.491 -32.682  1.00  0.00     0.038 C 
HETATM    8  C   UNL     1      -3.513   4.736 -34.177  1.00  0.00    -0.010 C 
HETATM    9  C   UNL     1      -5.044   4.722 -34.410  1.00  0.00     0.038 C 
BRANCH   8  10
HETATM   10  C   UNL     1      -2.828   6.048 -34.566  1.00  0.00     0.012 C 
BRANCH  10  11
HETATM   11  C   UNL     1      -1.382   6.090 -34.064  1.00  0.00     0.079 C 
BRANCH  11  12
HETATM   12  C   UNL     1      -1.303   6.743 -32.727  1.00  0.00     0.105 A 
HETATM   13  N   UNL     1      -2.087   7.702 -32.275  1.00  0.00    -0.233 NA
HETATM   14  C   UNL     1      -1.619   7.998 -31.016  1.00  0.00     0.085 A 
HETATM   15  C   UNL     1      -0.539   7.195 -30.687  1.00  0.00     0.063 A 
HETATM   16  C   UNL     1      -2.063   8.946 -30.088  1.00  0.00     0.034 A 
HETATM   17  N   UNL     1      -0.362   6.397 -31.787  1.00  0.00    -0.343 N 
HETATM   18  C   UNL     1       0.138   7.278 -29.466  1.00  0.00     0.039 A 
HETATM   19  H   UNL     1       0.349   5.688 -31.888  1.00  0.00     0.167 HD
HETATM   20  C   UNL     1      -0.298   8.235 -28.521  1.00  0.00    -0.048 A 
HETATM   21  C   UNL     1      -1.396   9.053 -28.854  1.00  0.00     0.010 A 
BRANCH  20  22
HETATM   22  C   UNL     1       0.433   8.350 -27.166  1.00  0.00    -0.024 C 
HETATM   23  C   UNL     1      -0.269   9.277 -26.148  1.00  0.00     0.019 C 
HETATM   24  C   UNL     1       0.536   6.953 -26.516  1.00  0.00     0.019 C 
HETATM   25  C   UNL     1       1.855   8.913 -27.387  1.00  0.00     0.019 C 
ENDBRANCH  20  22
ENDBRANCH  11  12
ENDBRANCH  10  11
ENDBRANCH   8  10
ENDBRANCH   1   6
BRANCH   1  26
HETATM   26  C   UNL     1      -5.898   3.086 -31.752  1.00  0.00     0.270 C 
BRANCH  26  27
HETATM   27  C   UNL     1      -6.582   1.962 -32.538  1.00  0.00     0.181 C 
HETATM   28  O   UNL     1      -5.630   1.175 -33.281  1.00  0.00    -0.354 OA
HETATM   29  C   UNL     1      -6.315  -0.084 -33.572  1.00  0.00     0.262 C 
HETATM   30  C   UNL     1      -7.515  -0.197 -32.607  1.00  0.00     0.198 C 
HETATM   31  C   UNL     1      -7.277   0.955 -31.641  1.00  0.00     0.181 C 
BRANCH  29  32
HETATM   32  N   UNL     1      -5.394  -1.196 -33.475  1.00  0.00    -0.294 N 
HETATM   33  C   UNL     1      -5.640  -2.425 -34.023  1.00  0.00     0.167 A 
HETATM   34  C   UNL     1      -4.506  -3.172 -33.752  1.00  0.00     0.149 A 
HETATM   35  N   UNL     1      -6.746  -2.812 -34.679  1.00  0.00    -0.222 NA
HETATM   36  C   UNL     1      -4.497  -4.493 -34.234  1.00  0.00     0.155 A 
HETATM   37  N   UNL     1      -3.599  -2.422 -33.027  1.00  0.00    -0.236 NA
HETATM   38  N   UNL     1      -5.590  -4.941 -34.895  1.00  0.00    -0.222 NA
HETATM   39  C   UNL     1      -6.627  -4.097 -35.084  1.00  0.00     0.237 A 
HETATM   40  C   UNL     1      -4.160  -1.239 -32.893  1.00  0.00     0.214 A 
BRANCH  36  41
HETATM   41  N   UNL     1      -3.434  -5.362 -34.062  1.00  0.00    -0.382 N 
HETATM   42  H   UNL     1      -3.330  -5.729 -33.124  1.00  0.00     0.157 HD
HETATM   43  H   UNL     1      -3.318  -6.003 -34.837  1.00  0.00     0.157 HD
ENDBRANCH  36  41
ENDBRANCH  29  32
BRANCH  30  44
HETATM   44  O   UNL     1      -8.755   0.045 -33.291  1.00  0.00    -0.388 OA
HETATM   45  H   UNL     1      -8.653   0.892 -33.774  1.00  0.00     0.210 HD
ENDBRANCH  30  44
BRANCH  31  46
HETATM   46  O   UNL     1      -8.464   1.490 -31.087  1.00  0.00    -0.390 OA
HETATM   47  H   UNL     1      -8.936   1.941 -31.823  1.00  0.00     0.210 HD
ENDBRANCH  31  46
ENDBRANCH  26  27
ENDBRANCH   1  26
TORSDOF 12
ENDMDL
MODEL 3
REMARK VINA RESULT:      -9.1      2.023      3.606
REMARK  12 active torsions:
REMARK  status: ('A' for Active; 'I' for Inactive)
REMARK    1  A    between atoms: C_2  and  N_3 
REMARK    2  A    between atoms: N_3  and  C_5 
REMARK    3  A    between atoms: N_3  and  C_25 
REMARK    4  A    between atoms: C_7  and  C_8 
REMARK    5  A    between atoms: C_8  and  C_9 
REMARK    6  A    between atoms: C_9  and  C_10 
REMARK    7  A    between atoms: C_18  and  C_19 
REMARK    8  A    between atoms: C_25  and  C_26 
REMARK    9  A    between atoms: C_28  and  N_29 
REMARK   10  A    between atoms: C_32  and  N_33 
REMARK   11  A    between atoms: C_39  and  O_40 
REMARK   12  A    between atoms: C_41  and  O_42 
ROOT
HETATM    1  N   UNL     1      -5.445   3.267 -31.938  1.00  0.00    -0.061 N 
HETATM    2  H   UNL     1      -5.810   2.429 -31.461  1.00  0.00     0.280 HD
ENDROOT
BRANCH   1   3
HETATM    3  C   UNL     1      -3.927   3.098 -32.029  1.00  0.00     0.180 C 
HETATM    4  C   UNL     1      -3.452   1.830 -31.326  1.00  0.00     0.039 C 
HETATM    5  C   UNL     1      -3.149   4.329 -31.574  1.00  0.00     0.039 C 
ENDBRANCH   1   3
BRANCH   1   6
HETATM    6  C   UNL     1      -5.821   4.509 -31.171  1.00  0.00     0.189 C 
HETATM    7  C   UNL     1      -7.158   5.176 -31.617  1.00  0.00     0.038 C 
HETATM    8  C   UNL     1      -7.470   5.446 -30.124  1.00  0.00    -0.010 C 
HETATM    9  C   UNL     1      -6.537   4.249 -29.815  1.00  0.00     0.038 C 
BRANCH   8  10
HETATM   10  C   UNL     1      -7.014   6.773 -29.515  1.00  0.00     0.012 C 
BRANCH  10  11
HETATM   11  C   UNL     1      -6.896   6.674 -27.991  1.00  0.00     0.079 C 
BRANCH  11  12
HETATM   12  C   UNL     1      -5.508   6.983 -27.545  1.00  0.00     0.105 A 
HETATM   13  N   UNL     1      -5.124   7.257 -26.315  1.00  0.00    -0.233 NA
HETATM   14  C   UNL     1      -3.772   7.498 -26.396  1.00  0.00     0.085 A 
HETATM   15  C   UNL     1      -3.320   7.355 -27.698  1.00  0.00     0.063 A 
HETATM   16  C   UNL     1      -2.856   7.850 -25.399  1.00  0.00     0.034 A 
HETATM   17  N   UNL     1      -4.442   7.017 -28.411  1.00  0.00    -0.343 N 
HETATM   18  C   UNL     1      -1.987   7.542 -28.075  1.00  0.00     0.039 A 
HETATM   19  H   UNL     1      -4.472   6.838 -29.404  1.00  0.00     0.167 HD
HETATM   20  C   UNL     1      -1.051   7.902 -27.077  1.00  0.00    -0.048 A 
HETATM   21  C   UNL     1      -1.509   8.049 -25.753  1.00  0.00     0.010 A 
BRANCH  20  22
HETATM   22  C   UNL     1       0.427   8.118 -27.467  1.00  0.00    -0.024 C 
HETATM   23  C   UNL     1       1.428   7.321 -26.600  1.00  0.00     0.019 C 
HETATM   24  C   UNL     1       0.642   7.680 -28.933  1.00  0.00     0.019 C 
HETATM   25  C   UNL     1       0.791   9.612 -27.324  1.00  0.00     0.019 C 
ENDBRANCH  20  22
ENDBRANCH  11  12
ENDBRANCH  10  11
ENDBRANCH   8  10
ENDBRANCH   1   6
BRANCH   1  26
HETATM   26  C   UNL     1      -6.173   3.313 -33.291  1.00  0.00     0.270 C 
BRANCH  26  27
HETATM   27  C   UNL     1      -6.893   1.992 -33.585  1.00  0.00     0.181 C 
HETATM   28  O   UNL     1      -6.037   1.060 -34.275  1.00  0.00    -0.354 OA
HETATM   29  C   UNL     1      -6.650  -0.252 -34.067  1.00  0.00     0.262 C 
HETATM   30  C   UNL     1      -7.626  -0.129 -32.877  1.00  0.00     0.198 C 
HETATM   31  C   UNL     1      -7.309   1.255 -32.326  1.00  0.00     0.181 C 
BRANCH  29  32
HETATM   32  N   UNL     1      -5.633  -1.262 -33.874  1.00  0.00    -0.294 N 
HETATM   33  C   UNL     1      -5.780  -2.563 -34.271  1.00  0.00     0.167 A 
HETATM   34  C   UNL     1      -4.580  -3.174 -33.952  1.00  0.00     0.149 A 
HETATM   35  N   UNL     1      -6.861  -3.116 -34.845  1.00  0.00    -0.222 NA
HETATM   36  C   UNL     1      -4.464  -4.535 -34.282  1.00  0.00     0.155 A 
HETATM   37  N   UNL     1      -3.728  -2.270 -33.344  1.00  0.00    -0.236 NA
HETATM   38  N   UNL     1      -5.526  -5.149 -34.855  1.00  0.00    -0.222 NA
HETATM   39  C   UNL     1      -6.637  -4.424 -35.106  1.00  0.00     0.237 A 
HETATM   40  C   UNL     1      -4.389  -1.132 -33.328  1.00  0.00     0.214 A 
BRANCH  36  41
HETATM   41  N   UNL     1      -3.324  -5.285 -34.044  1.00  0.00    -0.382 N 
HETATM   42  H   UNL     1      -2.487  -4.745 -33.867  1.00  0.00     0.157 HD
HETATM   43  H   UNL     1      -3.498  -6.095 -33.463  1.00  0.00     0.157 HD
ENDBRANCH  36  41
ENDBRANCH  29  32
BRANCH  30  44
HETATM   44  O   UNL     1      -8.991  -0.127 -33.323  1.00  0.00    -0.388 OA
HETATM   45  H   UNL     1      -9.533  -0.472 -32.583  1.00  0.00     0.210 HD
ENDBRANCH  30  44
BRANCH  31  46
HETATM   46  O   UNL     1      -8.409   1.886 -31.698  1.00  0.00    -0.390 OA
HETATM   47  H   UNL     1      -8.991   2.213 -32.420  1.00  0.00     0.210 HD
ENDBRANCH  31  46
ENDBRANCH  26  27
ENDBRANCH   1  26
TORSDOF 12
ENDMDL
MODEL 4
REMARK VINA RESULT:      -9.0      3.671      5.698
REMARK  12 active torsions:
REMARK  status: ('A' for Active; 'I' for Inactive)
REMARK    1  A    between atoms: C_2  and  N_3 
REMARK    2  A    between atoms: N_3  and  C_5 
REMARK    3  A    between atoms: N_3  and  C_25 
REMARK    4  A    between atoms: C_7  and  C_8 
REMARK    5  A    between atoms: C_8  and  C_9 
REMARK    6  A    between atoms: C_9  and  C_10 
REMARK    7  A    between atoms: C_18  and  C_19 
REMARK    8  A    between atoms: C_25  and  C_26 
REMARK    9  A    between atoms: C_28  and  N_29 
REMARK   10  A    between atoms: C_32  and  N_33 
REMARK   11  A    between atoms: C_39  and  O_40 
REMARK   12  A    between atoms: C_41  and  O_42 
ROOT
HETATM    1  N   UNL     1      -6.360   2.212 -31.554  1.00  0.00    -0.061 N 
HETATM    2  H   UNL     1      -6.595   2.656 -30.654  1.00  0.00     0.280 HD
ENDROOT
BRANCH   1   3
HETATM    3  C   UNL     1      -5.825   0.816 -31.231  1.00  0.00     0.180 C 
HETATM    4  C   UNL     1      -6.533  -0.267 -32.038  1.00  0.00     0.039 C 
HETATM    5  C   UNL     1      -5.811   0.500 -29.739  1.00  0.00     0.039 C 
ENDBRANCH   1   3
BRANCH   1   6
HETATM    6  C   UNL     1      -5.341   3.041 -32.294  1.00  0.00     0.189 C 
HETATM    7  C   UNL     1      -4.589   4.091 -31.420  1.00  0.00     0.038 C 
HETATM    8  C   UNL     1      -3.294   3.737 -32.191  1.00  0.00    -0.010 C 
HETATM    9  C   UNL     1      -3.953   2.365 -32.474  1.00  0.00     0.038 C 
BRANCH   8  10
HETATM   10  C   UNL     1      -2.952   4.543 -33.446  1.00  0.00     0.012 C 
BRANCH  10  11
HETATM   11  C   UNL     1      -1.456   4.866 -33.509  1.00  0.00     0.079 C 
BRANCH  11  12
HETATM   12  C   UNL     1      -0.965   5.367 -32.194  1.00  0.00     0.105 A 
HETATM   13  N   UNL     1      -0.184   4.721 -31.352  1.00  0.00    -0.233 NA
HETATM   14  C   UNL     1      -0.025   5.564 -30.276  1.00  0.00     0.085 A 
HETATM   15  C   UNL     1      -0.711   6.752 -30.472  1.00  0.00     0.063 A 
HETATM   16  C   UNL     1       0.689   5.385 -29.086  1.00  0.00     0.034 A 
HETATM   17  N   UNL     1      -1.293   6.608 -31.704  1.00  0.00    -0.343 N 
HETATM   18  C   UNL     1      -0.726   7.794 -29.539  1.00  0.00     0.039 A 
HETATM   19  H   UNL     1      -1.874   7.296 -32.161  1.00  0.00     0.167 HD
HETATM   20  C   UNL     1      -0.012   7.624 -28.331  1.00  0.00    -0.048 A 
HETATM   21  C   UNL     1       0.685   6.416 -28.130  1.00  0.00     0.010 A 
BRANCH  20  22
HETATM   22  C   UNL     1      -0.015   8.757 -27.283  1.00  0.00    -0.024 C 
HETATM   23  C   UNL     1       1.369   9.404 -27.052  1.00  0.00     0.019 C 
HETATM   24  C   UNL     1      -0.973   9.879 -27.740  1.00  0.00     0.019 C 
HETATM   25  C   UNL     1      -0.492   8.206 -25.920  1.00  0.00     0.019 C 
ENDBRANCH  20  22
ENDBRANCH  11  12
ENDBRANCH  10  11
ENDBRANCH   8  10
ENDBRANCH   1   6
BRANCH   1  26
HETATM   26  C   UNL     1      -7.663   2.232 -32.370  1.00  0.00     0.270 C 
BRANCH  26  27
HETATM   27  C   UNL     1      -8.622   3.317 -31.867  1.00  0.00     0.181 C 
HETATM   28  O   UNL     1      -9.777   3.444 -32.720  1.00  0.00    -0.354 OA
HETATM   29  C   UNL     1     -10.784   4.125 -31.906  1.00  0.00     0.262 C 
HETATM   30  C   UNL     1     -10.357   3.993 -30.428  1.00  0.00     0.198 C 
HETATM   31  C   UNL     1      -9.202   3.005 -30.500  1.00  0.00     0.181 C 
BRANCH  29  32
HETATM   32  N   UNL     1     -12.100   3.586 -32.173  1.00  0.00    -0.294 N 
HETATM   33  C   UNL     1     -12.385   2.801 -33.256  1.00  0.00     0.167 A 
HETATM   34  C   UNL     1     -13.720   2.462 -33.113  1.00  0.00     0.149 A 
HETATM   35  N   UNL     1     -11.544   2.444 -34.241  1.00  0.00    -0.222 NA
HETATM   36  C   UNL     1     -14.263   1.628 -34.105  1.00  0.00     0.155 A 
HETATM   37  N   UNL     1     -14.246   3.053 -31.979  1.00  0.00    -0.236 NA
HETATM   38  N   UNL     1     -13.464   1.243 -35.128  1.00  0.00    -0.222 NA
HETATM   39  C   UNL     1     -12.178   1.655 -35.138  1.00  0.00     0.237 A 
HETATM   40  C   UNL     1     -13.242   3.707 -31.435  1.00  0.00     0.214 A 
BRANCH  36  41
HETATM   41  N   UNL     1     -15.575   1.185 -34.098  1.00  0.00    -0.382 N 
HETATM   42  H   UNL     1     -15.739   0.327 -34.609  1.00  0.00     0.157 HD
HETATM   43  H   UNL     1     -16.024   1.295 -33.197  1.00  0.00     0.157 HD
ENDBRANCH  36  41
ENDBRANCH  29  32
BRANCH  30  44
HETATM   44  O   UNL     1      -9.845   5.237 -29.923  1.00  0.00    -0.388 OA
HETATM   45  H   UNL     1      -9.238   5.593 -30.605  1.00  0.00     0.210 HD
ENDBRANCH  30  44
BRANCH  31  46
HETATM   46  O   UNL     1      -8.237   3.177 -29.480  1.00  0.00    -0.390 OA
HETATM   47  H   UNL     1      -8.109   2.293 -29.066  1.00  0.00     0.210 HD
ENDBRANCH  31  46
ENDBRANCH  26  27
ENDBRANCH   1  26
TORSDOF 12
ENDMDL
MODEL 5
REMARK VINA RESULT:      -9.0      3.631      5.749
REMARK  12 active torsions:
REMARK  status: ('A' for Active; 'I' for Inactive)
REMARK    1  A    between atoms: C_2  and  N_3 
REMARK    2  A    between atoms: N_3  and  C_5 
REMARK    3  A    between atoms: N_3  and  C_25 
REMARK    4  A    between atoms: C_7  and  C_8 
REMARK    5  A    between atoms: C_8  and  C_9 
REMARK    6  A    between atoms: C_9  and  C_10 
REMARK    7  A    between atoms: C_18  and  C_19 
REMARK    8  A    between atoms: C_25  and  C_26 
REMARK    9  A    between atoms: C_28  and  N_29 
REMARK   10  A    between atoms: C_32  and  N_33 
REMARK   11  A    between atoms: C_39  and  O_40 
REMARK   12  A    between atoms: C_41  and  O_42 
ROOT
HETATM    1  N   UNL     1      -5.414   1.849 -32.347  1.00  0.00    -0.061 N 
HETATM    2  H   UNL     1      -5.702   2.295 -31.463  1.00  0.00     0.280 HD
ENDROOT
BRANCH   1   3
HETATM    3  C   UNL     1      -4.943   0.437 -31.996  1.00  0.00     0.180 C 
HETATM    4  C   UNL     1      -5.893  -0.631 -32.531  1.00  0.00     0.039 C 
HETATM    5  C   UNL     1      -4.648   0.245 -30.511  1.00  0.00     0.039 C 
ENDBRANCH   1   3
BRANCH   1   6
HETATM    6  C   UNL     1      -4.321   2.652 -33.005  1.00  0.00     0.189 C 
HETATM    7  C   UNL     1      -4.719   4.110 -33.389  1.00  0.00     0.038 C 
HETATM    8  C   UNL     1      -3.314   4.568 -32.925  1.00  0.00    -0.010 C 
HETATM    9  C   UNL     1      -3.310   3.309 -32.023  1.00  0.00     0.038 C 
BRANCH   8  10
HETATM   10  C   UNL     1      -2.185   4.608 -33.957  1.00  0.00     0.012 C 
BRANCH  10  11
HETATM   11  C   UNL     1      -1.348   5.882 -33.815  1.00  0.00     0.079 C 
BRANCH  11  12
HETATM   12  C   UNL     1      -0.823   6.021 -32.428  1.00  0.00     0.105 A 
HETATM   13  N   UNL     1      -0.209   5.090 -31.725  1.00  0.00    -0.233 NA
HETATM   14  C   UNL     1       0.062   5.667 -30.506  1.00  0.00     0.085 A 
HETATM   15  C   UNL     1      -0.381   6.979 -30.468  1.00  0.00     0.063 A 
HETATM   16  C   UNL     1       0.684   5.133 -29.372  1.00  0.00     0.034 A 
HETATM   17  N   UNL     1      -0.933   7.186 -31.707  1.00  0.00    -0.343 N 
HETATM   18  C   UNL     1      -0.239   7.809 -29.352  1.00  0.00     0.039 A 
HETATM   19  H   UNL     1      -1.357   8.046 -32.022  1.00  0.00     0.167 HD
HETATM   20  C   UNL     1       0.385   7.279 -28.198  1.00  0.00    -0.048 A 
HETATM   21  C   UNL     1       0.836   5.945 -28.234  1.00  0.00     0.010 A 
BRANCH  20  22
HETATM   22  C   UNL     1       0.553   8.172 -26.950  1.00  0.00    -0.024 C 
HETATM   23  C   UNL     1       0.639   9.682 -27.264  1.00  0.00     0.019 C 
HETATM   24  C   UNL     1      -0.654   7.970 -26.006  1.00  0.00     0.019 C 
HETATM   25  C   UNL     1       1.850   7.788 -26.205  1.00  0.00     0.019 C 
ENDBRANCH  20  22
ENDBRANCH  11  12
ENDBRANCH  10  11
ENDBRANCH   8  10
ENDBRANCH   1   6
BRANCH   1  26
HETATM   26  C   UNL     1      -6.653   1.910 -33.255  1.00  0.00     0.270 C 
BRANCH  26  27
HETATM   27  C   UNL     1      -7.799   2.680 -32.589  1.00  0.00     0.181 C 
HETATM   28  O   UNL     1      -8.933   2.814 -33.468  1.00  0.00    -0.354 OA
HETATM   29  C   UNL     1     -10.065   3.115 -32.592  1.00  0.00     0.262 C 
HETATM   30  C   UNL     1      -9.665   2.715 -31.156  1.00  0.00     0.198 C 
HETATM   31  C   UNL     1      -8.355   1.969 -31.369  1.00  0.00     0.181 C 
BRANCH  29  32
HETATM   32  N   UNL     1     -11.260   2.449 -33.062  1.00  0.00    -0.294 N 
HETATM   33  C   UNL     1     -12.523   2.817 -32.685  1.00  0.00     0.167 A 
HETATM   34  C   UNL     1     -13.368   1.973 -33.386  1.00  0.00     0.149 A 
HETATM   35  N   UNL     1     -12.859   3.787 -31.819  1.00  0.00    -0.222 NA
HETATM   36  C   UNL     1     -14.746   2.161 -33.187  1.00  0.00     0.155 A 
HETATM   37  N   UNL     1     -12.633   1.088 -34.154  1.00  0.00    -0.236 NA
HETATM   38  N   UNL     1     -15.144   3.120 -32.319  1.00  0.00    -0.222 NA
HETATM   39  C   UNL     1     -14.204   3.868 -31.702  1.00  0.00     0.237 A 
HETATM   40  C   UNL     1     -11.375   1.414 -33.944  1.00  0.00     0.214 A 
BRANCH  36  41
HETATM   41  N   UNL     1     -15.720   1.412 -33.826  1.00  0.00    -0.382 N 
HETATM   42  H   UNL     1     -15.875   1.652 -34.797  1.00  0.00     0.157 HD
HETATM   43  H   UNL     1     -15.690   0.431 -33.579  1.00  0.00     0.157 HD
ENDBRANCH  36  41
ENDBRANCH  29  32
BRANCH  30  44
HETATM   44  O   UNL     1      -9.391   3.874 -30.352  1.00  0.00    -0.388 OA
HETATM   45  H   UNL     1      -8.500   3.745 -29.963  1.00  0.00     0.210 HD
ENDBRANCH  30  44
BRANCH  31  46
HETATM   46  O   UNL     1      -7.465   2.053 -30.273  1.00  0.00    -0.390 OA
HETATM   47  H   UNL     1      -7.653   2.908 -29.826  1.00  0.00     0.210 HD
ENDBRANCH  31  46
ENDBRANCH  26  27
ENDBRANCH   1  26
TORSDOF 12
ENDMDL
MODEL 6
REMARK VINA RESULT:      -8.9      3.936      5.761
REMARK  12 active torsions:
REMARK  status: ('A' for Active; 'I' for Inactive)
REMARK    1  A    between atoms: C_2  and  N_3 
REMARK    2  A    between atoms: N_3  and  C_5 
REMARK    3  A    between atoms: N_3  and  C_25 
REMARK    4  A    between atoms: C_7  and  C_8 
REMARK    5  A    between atoms: C_8  and  C_9 
REMARK    6  A    between atoms: C_9  and  C_10 
REMARK    7  A    between atoms: C_18  and  C_19 
REMARK    8  A    between atoms: C_25  and  C_26 
REMARK    9  A    between atoms: C_28  and  N_29 
REMARK   10  A    between atoms: C_32  and  N_33 
REMARK   11  A    between atoms: C_39  and  O_40 
REMARK   12  A    between atoms: C_41  and  O_42 
ROOT
HETATM    1  N   UNL     1      -6.583   3.416 -32.596  1.00  0.00    -0.061 N 
HETATM    2  H   UNL     1      -7.119   4.297 -32.575  1.00  0.00     0.280 HD
ENDROOT
BRANCH   1   3
HETATM    3  C   UNL     1      -6.553   2.884 -31.162  1.00  0.00     0.180 C 
HETATM    4  C   UNL     1      -7.134   1.477 -31.064  1.00  0.00     0.039 C 
HETATM    5  C   UNL     1      -7.183   3.834 -30.148  1.00  0.00     0.039 C 
ENDBRANCH   1   3
BRANCH   1   6
HETATM    6  C   UNL     1      -5.194   3.664 -33.127  1.00  0.00     0.189 C 
HETATM    7  C   UNL     1      -4.616   5.079 -32.819  1.00  0.00     0.038 C 
HETATM    8  C   UNL     1      -3.245   4.411 -32.551  1.00  0.00    -0.010 C 
HETATM    9  C   UNL     1      -4.044   3.124 -32.229  1.00  0.00     0.038 C 
BRANCH   8  10
HETATM   10  C   UNL     1      -2.265   4.269 -33.718  1.00  0.00     0.012 C 
BRANCH  10  11
HETATM   11  C   UNL     1      -1.250   5.415 -33.734  1.00  0.00     0.079 C 
BRANCH  11  12
HETATM   12  C   UNL     1      -0.778   5.726 -32.355  1.00  0.00     0.105 A 
HETATM   13  N   UNL     1      -0.120   4.916 -31.550  1.00  0.00    -0.233 NA
HETATM   14  C   UNL     1       0.073   5.626 -30.388  1.00  0.00     0.085 A 
HETATM   15  C   UNL     1      -0.466   6.899 -30.490  1.00  0.00     0.063 A 
HETATM   16  C   UNL     1       0.697   5.251 -29.194  1.00  0.00     0.034 A 
HETATM   17  N   UNL     1      -0.993   6.944 -31.755  1.00  0.00    -0.343 N 
HETATM   18  C   UNL     1      -0.417   7.841 -29.458  1.00  0.00     0.039 A 
HETATM   19  H   UNL     1      -1.468   7.735 -32.163  1.00  0.00     0.167 HD
HETATM   20  C   UNL     1       0.209   7.473 -28.243  1.00  0.00    -0.048 A 
HETATM   21  C   UNL     1       0.755   6.179 -28.138  1.00  0.00     0.010 A 
BRANCH  20  22
HETATM   22  C   UNL     1       0.274   8.492 -27.086  1.00  0.00    -0.024 C 
HETATM   23  C   UNL     1      -0.236   9.902 -27.459  1.00  0.00     0.019 C 
HETATM   24  C   UNL     1      -0.591   7.990 -25.909  1.00  0.00     0.019 C 
HETATM   25  C   UNL     1       1.736   8.648 -26.611  1.00  0.00     0.019 C 
ENDBRANCH  20  22
ENDBRANCH  11  12
ENDBRANCH  10  11
ENDBRANCH   8  10
ENDBRANCH   1   6
BRANCH   1  26
HETATM   26  C   UNL     1      -7.317   2.518 -33.604  1.00  0.00     0.270 C 
BRANCH  26  27
HETATM   27  C   UNL     1      -8.418   3.287 -34.343  1.00  0.00     0.181 C 
HETATM   28  O   UNL     1      -9.703   2.649 -34.200  1.00  0.00    -0.354 OA
HETATM   29  C   UNL     1     -10.685   3.684 -34.516  1.00  0.00     0.262 C 
HETATM   30  C   UNL     1      -9.974   5.051 -34.411  1.00  0.00     0.198 C 
HETATM   31  C   UNL     1      -8.634   4.684 -33.790  1.00  0.00     0.181 C 
BRANCH  29  32
HETATM   32  N   UNL     1     -11.839   3.570 -33.652  1.00  0.00    -0.294 N 
HETATM   33  C   UNL     1     -12.798   2.604 -33.801  1.00  0.00     0.167 A 
HETATM   34  C   UNL     1     -13.683   2.813 -32.758  1.00  0.00     0.149 A 
HETATM   35  N   UNL     1     -12.856   1.665 -34.758  1.00  0.00    -0.222 NA
HETATM   36  C   UNL     1     -14.769   1.925 -32.672  1.00  0.00     0.155 A 
HETATM   37  N   UNL     1     -13.288   3.902 -32.003  1.00  0.00    -0.236 NA
HETATM   38  N   UNL     1     -14.885   0.961 -33.616  1.00  0.00    -0.222 NA
HETATM   39  C   UNL     1     -13.943   0.879 -34.580  1.00  0.00     0.237 A 
HETATM   40  C   UNL     1     -12.172   4.321 -32.562  1.00  0.00     0.214 A 
BRANCH  36  41
HETATM   41  N   UNL     1     -15.732   1.988 -31.680  1.00  0.00    -0.382 N 
HETATM   42  H   UNL     1     -15.643   1.288 -30.953  1.00  0.00     0.157 HD
HETATM   43  H   UNL     1     -15.951   2.936 -31.401  1.00  0.00     0.157 HD
ENDBRANCH  36  41
ENDBRANCH  29  32
BRANCH  30  44
HETATM   44  O   UNL     1      -9.724   5.607 -35.711  1.00  0.00    -0.388 OA
HETATM   45  H   UNL     1      -8.844   5.283 -35.995  1.00  0.00     0.210 HD
ENDBRANCH  30  44
BRANCH  31  46
HETATM   46  O   UNL     1      -7.578   5.551 -34.156  1.00  0.00    -0.390 OA
HETATM   47  H   UNL     1      -7.936   6.465 -34.102  1.00  0.00     0.210 HD
ENDBRANCH  31  46
ENDBRANCH  26  27
ENDBRANCH   1  26
TORSDOF 12
ENDMDL
MODEL 7
REMARK VINA RESULT:      -8.7      3.786     10.926
REMARK  12 active torsions:
REMARK  status: ('A' for Active; 'I' for Inactive)
REMARK    1  A    between atoms: C_2  and  N_3 
REMARK    2  A    between atoms: N_3  and  C_5 
REMARK    3  A    between atoms: N_3  and  C_25 
REMARK    4  A    between atoms: C_7  and  C_8 
REMARK    5  A    between atoms: C_8  and  C_9 
REMARK    6  A    between atoms: C_9  and  C_10 
REMARK    7  A    between atoms: C_18  and  C_19 
REMARK    8  A    between atoms: C_25  and  C_26 
REMARK    9  A    between atoms: C_28  and  N_29 
REMARK   10  A    between atoms: C_32  and  N_33 
REMARK   11  A    between atoms: C_39  and  O_40 
REMARK   12  A    between atoms: C_41  and  O_42 
ROOT
HETATM    1  N   UNL     1      -2.833   5.951 -32.734  1.00  0.00    -0.061 N 
HETATM    2  H   UNL     1      -2.918   6.918 -32.384  1.00  0.00     0.280 HD
ENDROOT
BRANCH   1   3
HETATM    3  C   UNL     1      -2.623   6.048 -34.247  1.00  0.00     0.180 C 
HETATM    4  C   UNL     1      -3.719   5.323 -35.022  1.00  0.00     0.039 C 
HETATM    5  C   UNL     1      -1.229   5.621 -34.696  1.00  0.00     0.039 C 
ENDBRANCH   1   3
BRANCH   1   6
HETATM    6  C   UNL     1      -4.071   5.162 -32.393  1.00  0.00     0.189 C 
HETATM    7  C   UNL     1      -3.850   4.005 -31.371  1.00  0.00     0.038 C 
HETATM    8  C   UNL     1      -5.203   4.384 -30.719  1.00  0.00    -0.010 C 
HETATM    9  C   UNL     1      -4.975   5.801 -31.301  1.00  0.00     0.038 C 
BRANCH   8  10
HETATM   10  C   UNL     1      -6.471   3.693 -31.223  1.00  0.00     0.012 C 
BRANCH  10  11
HETATM   11  C   UNL     1      -6.772   2.426 -30.416  1.00  0.00     0.079 C 
BRANCH  11  12
HETATM   12  C   UNL     1      -6.195   1.224 -31.082  1.00  0.00     0.105 A 
HETATM   13  N   UNL     1      -4.986   0.731 -30.898  1.00  0.00    -0.233 NA
HETATM   14  C   UNL     1      -4.898  -0.354 -31.740  1.00  0.00     0.085 A 
HETATM   15  C   UNL     1      -6.080  -0.535 -32.440  1.00  0.00     0.063 A 
HETATM   16  C   UNL     1      -3.837  -1.237 -31.967  1.00  0.00     0.034 A 
HETATM   17  N   UNL     1      -6.895   0.475 -31.997  1.00  0.00    -0.343 N 
HETATM   18  C   UNL     1      -6.276  -1.563 -33.368  1.00  0.00     0.039 A 
HETATM   19  H   UNL     1      -7.841   0.642 -32.306  1.00  0.00     0.167 HD
HETATM   20  C   UNL     1      -5.209  -2.459 -33.610  1.00  0.00    -0.048 A 
HETATM   21  C   UNL     1      -4.007  -2.276 -32.900  1.00  0.00     0.010 A 
BRANCH  20  22
HETATM   22  C   UNL     1      -5.397  -3.601 -34.632  1.00  0.00    -0.024 C 
HETATM   23  C   UNL     1      -6.835  -4.161 -34.693  1.00  0.00     0.019 C 
HETATM   24  C   UNL     1      -5.046  -3.089 -36.047  1.00  0.00     0.019 C 
HETATM   25  C   UNL     1      -4.465  -4.780 -34.274  1.00  0.00     0.019 C 
ENDBRANCH  20  22
ENDBRANCH  11  12
ENDBRANCH  10  11
ENDBRANCH   8  10
ENDBRANCH   1   6
BRANCH   1  26
HETATM   26  C   UNL     1      -1.657   5.340 -31.956  1.00  0.00     0.270 C 
BRANCH  26  27
HETATM   27  C   UNL     1      -1.074   6.335 -30.947  1.00  0.00     0.181 C 
HETATM   28  O   UNL     1      -2.107   7.106 -30.301  1.00  0.00    -0.354 OA
HETATM   29  C   UNL     1      -1.491   7.633 -29.084  1.00  0.00     0.262 C 
HETATM   30  C   UNL     1      -0.225   6.796 -28.801  1.00  0.00     0.198 C 
HETATM   31  C   UNL     1      -0.347   5.655 -29.801  1.00  0.00     0.181 C 
BRANCH  29  32
HETATM   32  N   UNL     1      -2.439   7.626 -27.992  1.00  0.00    -0.294 N 
HETATM   33  C   UNL     1      -2.218   8.259 -26.800  1.00  0.00     0.167 A 
HETATM   34  C   UNL     1      -3.372   8.054 -26.063  1.00  0.00     0.149 A 
HETATM   35  N   UNL     1      -1.114   8.930 -26.433  1.00  0.00    -0.222 NA
HETATM   36  C   UNL     1      -3.408   8.631 -24.782  1.00  0.00     0.155 A 
HETATM   37  N   UNL     1      -4.269   7.285 -26.782  1.00  0.00    -0.236 NA
HETATM   38  N   UNL     1      -2.319   9.312 -24.356  1.00  0.00    -0.222 NA
HETATM   39  C   UNL     1      -1.259   9.429 -25.185  1.00  0.00     0.237 A 
HETATM   40  C   UNL     1      -3.681   7.060 -27.938  1.00  0.00     0.214 A 
BRANCH  36  41
HETATM   41  N   UNL     1      -4.494   8.532 -23.929  1.00  0.00    -0.382 N 
HETATM   42  H   UNL     1      -5.388   8.755 -24.349  1.00  0.00     0.157 HD
HETATM   43  H   UNL     1      -4.444   7.727 -23.318  1.00  0.00     0.157 HD
ENDBRANCH  36  41
ENDBRANCH  29  32
BRANCH  30  44
HETATM   44  O   UNL     1       0.967   7.535 -29.114  1.00  0.00    -0.388 OA
HETATM   45  H   UNL     1       1.647   7.265 -28.463  1.00  0.00     0.210 HD
ENDBRANCH  30  44
BRANCH  31  46
HETATM   46  O   UNL     1       0.896   5.126 -30.221  1.00  0.00    -0.390 OA
HETATM   47  H   UNL     1       0.963   4.226 -29.830  1.00  0.00     0.210 HD
ENDBRANCH  31  46
ENDBRANCH  26  27
ENDBRANCH   1  26
TORSDOF 12
ENDMDL
MODEL 8
REMARK VINA RESULT:      -8.6      3.501      8.221
REMARK  12 active torsions:
REMARK  status: ('A' for Active; 'I' for Inactive)
REMARK    1  A    between atoms: C_2  and  N_3 
REMARK    2  A    between atoms: N_3  and  C_5 
REMARK    3  A    between atoms: N_3  and  C_25 
REMARK    4  A    between atoms: C_7  and  C_8 
REMARK    5  A    between atoms: C_8  and  C_9 
REMARK    6  A    between atoms: C_9  and  C_10 
REMARK    7  A    between atoms: C_18  and  C_19 
REMARK    8  A    between atoms: C_25  and  C_26 
REMARK    9  A    between atoms: C_28  and  N_29 
REMARK   10  A    between atoms: C_32  and  N_33 
REMARK   11  A    between atoms: C_39  and  O_40 
REMARK   12  A    between atoms: C_41  and  O_42 
ROOT
HETATM    1  N   UNL     1      -1.701   6.395 -29.997  1.00  0.00    -0.061 N 
HETATM    2  H   UNL     1      -1.810   5.379 -30.136  1.00  0.00     0.280 HD
ENDROOT
BRANCH   1   3
HETATM    3  C   UNL     1      -0.656   6.580 -28.895  1.00  0.00     0.180 C 
HETATM    4  C   UNL     1      -1.280   7.078 -27.595  1.00  0.00     0.039 C 
HETATM    5  C   UNL     1       0.533   7.436 -29.322  1.00  0.00     0.039 C 
ENDBRANCH   1   3
BRANCH   1   6
HETATM    6  C   UNL     1      -3.023   7.015 -29.621  1.00  0.00     0.189 C 
HETATM    7  C   UNL     1      -3.486   8.183 -30.543  1.00  0.00     0.038 C 
HETATM    8  C   UNL     1      -4.928   7.627 -30.447  1.00  0.00    -0.010 C 
HETATM    9  C   UNL     1      -4.274   6.256 -30.145  1.00  0.00     0.038 C 
BRANCH   8  10
HETATM   10  C   UNL     1      -5.836   8.151 -29.333  1.00  0.00     0.012 C 
BRANCH  10  11
HETATM   11  C   UNL     1      -7.264   8.375 -29.839  1.00  0.00     0.079 C 
BRANCH  11  12
HETATM   12  C   UNL     1      -7.865   7.097 -30.316  1.00  0.00     0.105 A 
HETATM   13  N   UNL     1      -8.093   6.020 -29.591  1.00  0.00    -0.233 NA
HETATM   14  C   UNL     1      -8.627   5.097 -30.460  1.00  0.00     0.085 A 
HETATM   15  C   UNL     1      -8.739   5.625 -31.736  1.00  0.00     0.063 A 
HETATM   16  C   UNL     1      -9.038   3.779 -30.237  1.00  0.00     0.034 A 
HETATM   17  N   UNL     1      -8.258   6.903 -31.618  1.00  0.00    -0.343 N 
HETATM   18  C   UNL     1      -9.250   4.908 -32.824  1.00  0.00     0.039 A 
HETATM   19  H   UNL     1      -8.194   7.576 -32.368  1.00  0.00     0.167 HD
HETATM   20  C   UNL     1      -9.666   3.573 -32.611  1.00  0.00    -0.048 A 
HETATM   21  C   UNL     1      -9.551   3.035 -31.315  1.00  0.00     0.010 A 
BRANCH  20  22
HETATM   22  C   UNL     1     -10.230   2.759 -33.795  1.00  0.00    -0.024 C 
HETATM   23  C   UNL     1     -11.535   1.998 -33.469  1.00  0.00     0.019 C 
HETATM   24  C   UNL     1     -10.538   3.708 -34.974  1.00  0.00     0.019 C 
HETATM   25  C   UNL     1      -9.192   1.708 -34.247  1.00  0.00     0.019 C 
ENDBRANCH  20  22
ENDBRANCH  11  12
ENDBRANCH  10  11
ENDBRANCH   8  10
ENDBRANCH   1   6
BRANCH   1  26
HETATM   26  C   UNL     1      -1.296   6.952 -31.372  1.00  0.00     0.270 C 
BRANCH  26  27
HETATM   27  C   UNL     1      -1.515   5.918 -32.482  1.00  0.00     0.181 C 
HETATM   28  O   UNL     1      -2.105   4.705 -31.973  1.00  0.00    -0.354 OA
HETATM   29  C   UNL     1      -2.679   4.037 -33.140  1.00  0.00     0.262 C 
HETATM   30  C   UNL     1      -2.808   5.087 -34.264  1.00  0.00     0.198 C 
HETATM   31  C   UNL     1      -2.492   6.389 -33.543  1.00  0.00     0.181 C 
BRANCH  29  32
HETATM   32  N   UNL     1      -3.936   3.408 -32.796  1.00  0.00    -0.294 N 
HETATM   33  C   UNL     1      -4.023   2.235 -32.097  1.00  0.00     0.167 A 
HETATM   34  C   UNL     1      -5.380   2.011 -31.938  1.00  0.00     0.149 A 
HETATM   35  N   UNL     1      -3.005   1.473 -31.665  1.00  0.00    -0.222 NA
HETATM   36  C   UNL     1      -5.744   0.857 -31.223  1.00  0.00     0.155 A 
HETATM   37  N   UNL     1      -6.107   3.013 -32.554  1.00  0.00    -0.236 NA
HETATM   38  N   UNL     1      -4.759   0.046 -30.770  1.00  0.00    -0.222 NA
HETATM   39  C   UNL     1      -3.475   0.391 -31.003  1.00  0.00     0.237 A 
HETATM   40  C   UNL     1      -5.207   3.839 -33.045  1.00  0.00     0.214 A 
BRANCH  36  41
HETATM   41  N   UNL     1      -7.056   0.500 -30.963  1.00  0.00    -0.382 N 
HETATM   42  H   UNL     1      -7.749   1.179 -31.254  1.00  0.00     0.157 HD
HETATM   43  H   UNL     1      -7.244  -0.477 -31.147  1.00  0.00     0.157 HD
ENDBRANCH  36  41
ENDBRANCH  29  32
BRANCH  30  44
HETATM   44  O   UNL     1      -1.809   4.887 -35.277  1.00  0.00    -0.388 OA
HETATM   45  H   UNL     1      -2.278   4.862 -36.137  1.00  0.00     0.210 HD
ENDBRANCH  30  44
BRANCH  31  46
HETATM   46  O   UNL     1      -1.913   7.377 -34.374  1.00  0.00    -0.390 OA
HETATM   47  H   UNL     1      -2.482   8.176 -34.295  1.00  0.00     0.210 HD
ENDBRANCH  31  46
ENDBRANCH  26  27
ENDBRANCH   1  26
TORSDOF 12
ENDMDL
MODEL 9
REMARK VINA RESULT:      -8.6      4.017      8.665
REMARK  12 active torsions:
REMARK  status: ('A' for Active; 'I' for Inactive)
REMARK    1  A    between atoms: C_2  and  N_3 
REMARK    2  A    between atoms: N_3  and  C_5 
REMARK    3  A    between atoms: N_3  and  C_25 
REMARK    4  A    between atoms: C_7  and  C_8 
REMARK    5  A    between atoms: C_8  and  C_9 
REMARK    6  A    between atoms: C_9  and  C_10 
REMARK    7  A    between atoms: C_18  and  C_19 
REMARK    8  A    between atoms: C_25  and  C_26 
REMARK    9  A    between atoms: C_28  and  N_29 
REMARK   10  A    between atoms: C_32  and  N_33 
REMARK   11  A    between atoms: C_39  and  O_40 
REMARK   12  A    between atoms: C_41  and  O_42 
ROOT
HETATM    1  N   UNL     1     -12.065   5.522 -33.438  1.00  0.00    -0.061 N 
HETATM    2  H   UNL     1     -12.698   5.678 -32.639  1.00  0.00     0.280 HD
ENDROOT
BRANCH   1   3
HETATM    3  C   UNL     1     -12.552   6.430 -34.569  1.00  0.00     0.180 C 
HETATM    4  C   UNL     1     -11.430   7.304 -35.122  1.00  0.00     0.039 C 
HETATM    5  C   UNL     1     -13.786   7.249 -34.204  1.00  0.00     0.039 C 
ENDBRANCH   1   3
BRANCH   1   6
HETATM    6  C   UNL     1     -12.082   4.070 -33.843  1.00  0.00     0.189 C 
HETATM    7  C   UNL     1     -13.247   3.233 -33.232  1.00  0.00     0.038 C 
HETATM    8  C   UNL     1     -13.386   2.515 -34.597  1.00  0.00    -0.010 C 
HETATM    9  C   UNL     1     -12.748   3.782 -35.218  1.00  0.00     0.038 C 
BRANCH   8  10
HETATM   10  C   UNL     1     -12.588   1.230 -34.827  1.00  0.00     0.012 C 
BRANCH  10  11
HETATM   11  C   UNL     1     -12.040   0.672 -33.510  1.00  0.00     0.079 C 
BRANCH  11  12
HETATM   12  C   UNL     1     -10.550   0.679 -33.509  1.00  0.00     0.105 A 
HETATM   13  N   UNL     1      -9.768   1.004 -34.518  1.00  0.00    -0.233 NA
HETATM   14  C   UNL     1      -8.482   0.835 -34.057  1.00  0.00     0.085 A 
HETATM   15  C   UNL     1      -8.481   0.412 -32.737  1.00  0.00     0.063 A 
HETATM   16  C   UNL     1      -7.258   1.018 -34.708  1.00  0.00     0.034 A 
HETATM   17  N   UNL     1      -9.808   0.330 -32.406  1.00  0.00    -0.343 N 
HETATM   18  C   UNL     1      -7.312   0.159 -32.012  1.00  0.00     0.039 A 
HETATM   19  H   UNL     1     -10.171   0.047 -31.507  1.00  0.00     0.167 HD
HETATM   20  C   UNL     1      -6.068   0.337 -32.660  1.00  0.00    -0.048 A 
HETATM   21  C   UNL     1      -6.068   0.766 -34.002  1.00  0.00     0.010 A 
BRANCH  20  22
HETATM   22  C   UNL     1      -4.763   0.061 -31.883  1.00  0.00    -0.024 C 
HETATM   23  C   UNL     1      -3.583   0.970 -32.294  1.00  0.00     0.019 C 
HETATM   24  C   UNL     1      -5.005   0.282 -30.374  1.00  0.00     0.019 C 
HETATM   25  C   UNL     1      -4.315  -1.399 -32.117  1.00  0.00     0.019 C 
ENDBRANCH  20  22
ENDBRANCH  11  12
ENDBRANCH  10  11
ENDBRANCH   8  10
ENDBRANCH   1   6
BRANCH   1  26
HETATM   26  C   UNL     1     -10.658   5.846 -32.910  1.00  0.00     0.270 C 
BRANCH  26  27
HETATM   27  C   UNL     1     -10.035   4.639 -32.198  1.00  0.00     0.181 C 
HETATM   28  O   UNL     1      -8.605   4.597 -32.373  1.00  0.00    -0.354 OA
HETATM   29  C   UNL     1      -8.112   3.733 -31.301  1.00  0.00     0.262 C 
HETATM   30  C   UNL     1      -9.222   3.631 -30.234  1.00  0.00     0.198 C 
HETATM   31  C   UNL     1     -10.225   4.679 -30.694  1.00  0.00     0.181 C 
BRANCH  29  32
HETATM   32  N   UNL     1      -6.859   4.236 -30.781  1.00  0.00    -0.294 N 
HETATM   33  C   UNL     1      -5.731   4.376 -31.541  1.00  0.00     0.167 A 
HETATM   34  C   UNL     1      -4.789   4.926 -30.689  1.00  0.00     0.149 A 
HETATM   35  N   UNL     1      -5.581   4.046 -32.834  1.00  0.00    -0.222 NA
HETATM   36  C   UNL     1      -3.524   5.192 -31.242  1.00  0.00     0.155 A 
HETATM   37  N   UNL     1      -5.324   5.091 -29.425  1.00  0.00    -0.236 NA
HETATM   38  N   UNL     1      -3.312   4.872 -32.540  1.00  0.00    -0.222 NA
HETATM   39  C   UNL     1      -4.327   4.336 -33.251  1.00  0.00     0.237 A 
HETATM   40  C   UNL     1      -6.570   4.679 -29.522  1.00  0.00     0.214 A 
BRANCH  36  41
HETATM   41  N   UNL     1      -2.481   5.756 -30.528  1.00  0.00    -0.382 N 
HETATM   42  H   UNL     1      -2.187   5.231 -29.714  1.00  0.00     0.157 HD
HETATM   43  H   UNL     1      -1.763   6.151 -31.123  1.00  0.00     0.157 HD
ENDBRANCH  36  41
ENDBRANCH  29  32
BRANCH  30  44
HETATM   44  O   UNL     1      -9.869   2.348 -30.278  1.00  0.00    -0.388 OA
HETATM   45  H   UNL     1      -9.928   2.029 -29.354  1.00  0.00     0.210 HD
ENDBRANCH  30  44
BRANCH  31  46
HETATM   46  O   UNL     1     -11.562   4.388 -30.335  1.00  0.00    -0.390 OA
HETATM   47  H   UNL     1     -12.082   5.205 -30.508  1.00  0.00     0.210 HD
ENDBRANCH  31  46
ENDBRANCH  26  27
ENDBRANCH   1  26
TORSDOF 12
ENDMDL
MODEL 10
REMARK VINA RESULT:      -8.5      3.886      7.898
REMARK  12 active torsions:
REMARK  status: ('A' for Active; 'I' for Inactive)
REMARK    1  A    between atoms: C_2  and  N_3 
REMARK    2  A    between atoms: N_3  and  C_5 
REMARK    3  A    between atoms: N_3  and  C_25 
REMARK    4  A    between atoms: C_7  and  C_8 
REMARK    5  A    between atoms: C_8  and  C_9 
REMARK    6  A    between atoms: C_9  and  C_10 
REMARK    7  A    between atoms: C_18  and  C_19 
REMARK    8  A    between atoms: C_25  and  C_26 
REMARK    9  A    between atoms: C_28  and  N_29 
REMARK   10  A    between atoms: C_32  and  N_33 
REMARK   11  A    between atoms: C_39  and  O_40 
REMARK   12  A    between atoms: C_41  and  O_42 
ROOT
HETATM    1  N   UNL     1     -11.265   2.775 -33.240  1.00  0.00    -0.061 N 
HETATM    2  H   UNL     1     -11.317   3.211 -32.307  1.00  0.00     0.280 HD
ENDROOT
BRANCH   1   3
HETATM    3  C   UNL     1     -12.574   2.009 -33.442  1.00  0.00     0.180 C 
HETATM    4  C   UNL     1     -12.949   1.900 -34.917  1.00  0.00     0.039 C 
HETATM    5  C   UNL     1     -13.728   2.543 -32.598  1.00  0.00     0.039 C 
ENDBRANCH   1   3
BRANCH   1   6
HETATM    6  C   UNL     1     -10.068   1.862 -33.323  1.00  0.00     0.189 C 
HETATM    7  C   UNL     1      -9.329   1.625 -31.971  1.00  0.00     0.038 C 
HETATM    8  C   UNL     1      -9.154   0.141 -32.378  1.00  0.00    -0.010 C 
HETATM    9  C   UNL     1     -10.399   0.343 -33.277  1.00  0.00     0.038 C 
BRANCH   8  10
HETATM   10  C   UNL     1      -7.887  -0.259 -33.137  1.00  0.00     0.012 C 
BRANCH  10  11
HETATM   11  C   UNL     1      -6.635  -0.036 -32.285  1.00  0.00     0.079 C 
BRANCH  11  12
HETATM   12  C   UNL     1      -5.993   1.268 -32.616  1.00  0.00     0.105 A 
HETATM   13  N   UNL     1      -6.368   2.109 -33.558  1.00  0.00    -0.233 NA
HETATM   14  C   UNL     1      -5.468   3.148 -33.506  1.00  0.00     0.085 A 
HETATM   15  C   UNL     1      -4.533   2.943 -32.503  1.00  0.00     0.063 A 
HETATM   16  C   UNL     1      -5.378   4.305 -34.286  1.00  0.00     0.034 A 
HETATM   17  N   UNL     1      -4.894   1.745 -31.943  1.00  0.00    -0.343 N 
HETATM   18  C   UNL     1      -3.497   3.839 -32.222  1.00  0.00     0.039 A 
HETATM   19  H   UNL     1      -4.419   1.291 -31.177  1.00  0.00     0.167 HD
HETATM   20  C   UNL     1      -3.393   5.011 -33.007  1.00  0.00    -0.048 A 
HETATM   21  C   UNL     1      -4.342   5.220 -34.027  1.00  0.00     0.010 A 
BRANCH  20  22
HETATM   22  C   UNL     1      -2.257   6.016 -32.720  1.00  0.00    -0.024 C 
HETATM   23  C   UNL     1      -1.973   6.994 -33.882  1.00  0.00     0.019 C 
HETATM   24  C   UNL     1      -2.622   6.869 -31.485  1.00  0.00     0.019 C 
HETATM   25  C   UNL     1      -0.943   5.253 -32.439  1.00  0.00     0.019 C 
ENDBRANCH  20  22
ENDBRANCH  11  12
ENDBRANCH  10  11
ENDBRANCH   8  10
ENDBRANCH   1   6
BRANCH   1  26
HETATM   26  C   UNL     1     -11.038   3.937 -34.220  1.00  0.00     0.270 C 
BRANCH  26  27
HETATM   27  C   UNL     1     -10.518   5.185 -33.498  1.00  0.00     0.181 C 
HETATM   28  O   UNL     1     -10.209   4.913 -32.117  1.00  0.00    -0.354 OA
HETATM   29  C   UNL     1      -9.314   5.993 -31.702  1.00  0.00     0.262 C 
HETATM   30  C   UNL     1      -8.750   6.649 -32.980  1.00  0.00     0.198 C 
HETATM   31  C   UNL     1      -9.213   5.700 -34.077  1.00  0.00     0.181 C 
BRANCH  29  32
HETATM   32  N   UNL     1      -8.289   5.488 -30.815  1.00  0.00    -0.294 N 
HETATM   33  C   UNL     1      -7.805   6.194 -29.747  1.00  0.00     0.167 A 
HETATM   34  C   UNL     1      -6.891   5.348 -29.142  1.00  0.00     0.149 A 
HETATM   35  N   UNL     1      -8.148   7.438 -29.378  1.00  0.00    -0.222 NA
HETATM   36  C   UNL     1      -6.255   5.837 -27.989  1.00  0.00     0.155 A 
HETATM   37  N   UNL     1      -6.798   4.160 -29.844  1.00  0.00    -0.236 NA
HETATM   38  N   UNL     1      -6.555   7.090 -27.573  1.00  0.00    -0.222 NA
HETATM   39  C   UNL     1      -7.468   7.803 -28.267  1.00  0.00     0.237 A 
HETATM   40  C   UNL     1      -7.661   4.276 -30.832  1.00  0.00     0.214 A 
BRANCH  36  41
HETATM   41  N   UNL     1      -5.330   5.110 -27.259  1.00  0.00    -0.382 N 
HETATM   42  H   UNL     1      -5.461   4.107 -27.283  1.00  0.00     0.157 HD
HETATM   43  H   UNL     1      -4.387   5.468 -27.347  1.00  0.00     0.157 HD
ENDBRANCH  36  41
ENDBRANCH  29  32
BRANCH  30  44
HETATM   44  O   UNL     1      -9.355   7.930 -33.217  1.00  0.00    -0.388 OA
HETATM   45  H   UNL     1     -10.268   7.759 -33.531  1.00  0.00     0.210 HD
ENDBRANCH  30  44
BRANCH  31  46
HETATM   46  O   UNL     1      -9.415   6.327 -35.328  1.00  0.00    -0.390 OA
HETATM   47  H   UNL     1      -8.926   7.179 -35.295  1.00  0.00     0.210 HD
ENDBRANCH  31  46
ENDBRANCH  26  27
ENDBRANCH   1  26
TORSDOF 12
ENDMDL
