MODEL 1
REMARK VINA RESULT:      -7.6      0.000      0.000
REMARK  9 active torsions:
REMARK  status: ('A' for Active; 'I' for Inactive)
REMARK    1  A    between atoms: C_2  and  O_3 
REMARK    2  A    between atoms: O_3  and  C_4 
REMARK    3  A    between atoms: C_4  and  C_5 
REMARK    4  A    between atoms: C_11  and  O_12 
REMARK    5  A    between atoms: C_13  and  C_14 
REMARK    6  A    between atoms: C_14  and  N_15 
REMARK    7  A    between atoms: N_22  and  C_23 
REMARK    8  A    between atoms: C_29  and  C_30 
REMARK    9  A    between atoms: C_30  and  N_31 
ROOT
HETATM    1  C   UNL     1      -8.111   3.871 -31.633  1.00  0.00     0.077 C 
HETATM    2  C   UNL     1      -6.759   4.317 -31.913  1.00  0.00     0.020 A 
HETATM    3  C   UNL     1      -6.111   3.234 -32.527  1.00  0.00     0.053 A 
HETATM    4  C   UNL     1      -4.755   3.293 -32.906  1.00  0.00     0.053 A 
HETATM    5  C   UNL     1      -4.023   4.430 -32.595  1.00  0.00     0.047 A 
HETATM    6 BR   UNL     1      -2.180   4.474 -33.034  1.00  0.00    -0.048 Br
HETATM    7  C   UNL     1      -4.640   5.523 -31.999  1.00  0.00     0.092 A 
HETATM    8  C   UNL     1      -6.027   5.542 -31.705  1.00  0.00     0.016 A 
HETATM    9  N   UNL     1      -7.050   2.227 -32.738  1.00  0.00    -0.312 N 
HETATM   10  C   UNL     1      -8.234   2.551 -32.092  1.00  0.00     0.060 C 
ENDROOT
BRANCH   8  11
HETATM   11  C   UNL     1      -6.655   6.807 -31.135  1.00  0.00     0.277 C 
BRANCH  11  12
HETATM   12  N   UNL     1      -6.121   7.279 -29.804  1.00  0.00    -0.063 N 
HETATM   13  H   UNL     1      -5.176   7.644 -30.017  1.00  0.00     0.280 HD
HETATM   14  C   UNL     1      -6.917   8.423 -29.197  1.00  0.00     0.261 C 
HETATM   15  C   UNL     1      -6.269   8.852 -27.876  1.00  0.00     0.195 C 
HETATM   16  O   UNL     1      -6.187   7.747 -26.970  1.00  0.00    -0.388 OA
HETATM   17  C   UNL     1      -5.378   6.690 -27.497  1.00  0.00     0.195 C 
HETATM   18  C   UNL     1      -5.966   6.146 -28.803  1.00  0.00     0.261 C 
ENDBRANCH  11  12
ENDBRANCH   8  11
BRANCH   7  19
HETATM   19  O   UNL     1      -3.895   6.644 -31.695  1.00  0.00    -0.359 OA
HETATM   20  H   UNL     1      -3.436   6.459 -30.843  1.00  0.00     0.218 HD
ENDBRANCH   7  19
BRANCH   1  21
HETATM   21  C   UNL     1      -9.160   4.621 -30.934  1.00  0.00     0.296 C 
HETATM   22  O   UNL     1      -9.103   4.866 -29.737  1.00  0.00    -0.259 OA
BRANCH  21  23
HETATM   23  O   UNL     1     -10.158   5.022 -31.765  1.00  0.00    -0.318 OA
BRANCH  23  24
HETATM   24  C   UNL     1     -11.369   5.475 -31.129  1.00  0.00     0.174 C 
HETATM   25  C   UNL     1     -12.379   4.346 -31.066  1.00  0.00     0.034 C 
ENDBRANCH  23  24
ENDBRANCH  21  23
ENDBRANCH   1  21
BRANCH  10  26
HETATM   26  C   UNL     1      -9.391   1.597 -31.927  1.00  0.00     0.293 C 
BRANCH  26  27
HETATM   27  N   UNL     1     -10.592   1.825 -32.823  1.00  0.00    -0.066 N 
HETATM   28  H   UNL     1     -11.310   2.310 -32.270  1.00  0.00     0.280 HD
HETATM   29  C   UNL     1     -10.298   2.681 -34.031  1.00  0.00     0.235 C 
HETATM   30  C   UNL     1     -11.595   2.959 -34.779  1.00  0.00     0.028 C 
HETATM   31  C   UNL     1     -12.308   1.671 -35.175  1.00  0.00     0.003 C 
HETATM   32  C   UNL     1     -12.525   0.768 -33.966  1.00  0.00     0.028 C 
HETATM   33  C   UNL     1     -11.225   0.504 -33.221  1.00  0.00     0.235 C 
ENDBRANCH  26  27
ENDBRANCH  10  26
BRANCH   9  34
HETATM   34  C   UNL     1      -6.807   1.019 -33.442  1.00  0.00     0.040 A 
HETATM   35  C   UNL     1      -6.213  -0.064 -32.784  1.00  0.00     0.030 A 
HETATM   36  C   UNL     1      -6.057  -1.275 -33.459  1.00  0.00     0.002 A 
HETATM   37  C   UNL     1      -6.485  -1.401 -34.781  1.00  0.00     0.000 A 
HETATM   38  C   UNL     1      -7.066  -0.316 -35.438  1.00  0.00     0.002 A 
HETATM   39  C   UNL     1      -7.232   0.897 -34.773  1.00  0.00     0.030 A 
ENDBRANCH   9  34
TORSDOF 9
ENDMDL
MODEL 2
REMARK VINA RESULT:      -7.5      2.430      5.966
REMARK  9 active torsions:
REMARK  status: ('A' for Active; 'I' for Inactive)
REMARK    1  A    between atoms: C_2  and  O_3 
REMARK    2  A    between atoms: O_3  and  C_4 
REMARK    3  A    between atoms: C_4  and  C_5 
REMARK    4  A    between atoms: C_11  and  O_12 
REMARK    5  A    between atoms: C_13  and  C_14 
REMARK    6  A    between atoms: C_14  and  N_15 
REMARK    7  A    between atoms: N_22  and  C_23 
REMARK    8  A    between atoms: C_29  and  C_30 
REMARK    9  A    between atoms: C_30  and  N_31 
ROOT
HETATM    1  C   UNL     1      -8.137   2.700 -32.394  1.00  0.00     0.077 C 
HETATM    2  C   UNL     1      -8.120   3.899 -31.578  1.00  0.00     0.020 A 
HETATM    3  C   UNL     1      -6.859   4.485 -31.774  1.00  0.00     0.053 A 
HETATM    4  C   UNL     1      -6.468   5.659 -31.100  1.00  0.00     0.053 A 
HETATM    5  C   UNL     1      -7.329   6.208 -30.161  1.00  0.00     0.047 A 
HETATM    6 BR   UNL     1      -6.767   7.740 -29.198  1.00  0.00    -0.048 Br
HETATM    7  C   UNL     1      -8.589   5.659 -29.954  1.00  0.00     0.092 A 
HETATM    8  C   UNL     1      -9.060   4.545 -30.694  1.00  0.00     0.016 A 
HETATM    9  N   UNL     1      -6.191   3.762 -32.760  1.00  0.00    -0.312 N 
HETATM   10  C   UNL     1      -6.904   2.608 -33.055  1.00  0.00     0.060 C 
ENDROOT
BRANCH   8  11
HETATM   11  C   UNL     1     -10.484   4.050 -30.481  1.00  0.00     0.277 C 
BRANCH  11  12
HETATM   12  N   UNL     1     -11.416   4.162 -31.664  1.00  0.00    -0.063 N 
HETATM   13  H   UNL     1     -11.157   3.367 -32.275  1.00  0.00     0.280 HD
HETATM   14  C   UNL     1     -12.883   3.992 -31.304  1.00  0.00     0.261 C 
HETATM   15  C   UNL     1     -13.734   4.078 -32.575  1.00  0.00     0.195 C 
HETATM   16  O   UNL     1     -13.512   5.322 -33.248  1.00  0.00    -0.388 OA
HETATM   17  C   UNL     1     -12.148   5.464 -33.661  1.00  0.00     0.195 C 
HETATM   18  C   UNL     1     -11.204   5.442 -32.454  1.00  0.00     0.261 C 
ENDBRANCH  11  12
ENDBRANCH   8  11
BRANCH   7  19
HETATM   19  O   UNL     1      -9.430   6.218 -29.015  1.00  0.00    -0.359 OA
HETATM   20  H   UNL     1     -10.313   5.797 -29.138  1.00  0.00     0.218 HD
ENDBRANCH   7  19
BRANCH   1  21
HETATM   21  C   UNL     1      -9.213   1.707 -32.477  1.00  0.00     0.296 C 
HETATM   22  O   UNL     1      -9.228   0.697 -31.787  1.00  0.00    -0.259 OA
BRANCH  21  23
HETATM   23  O   UNL     1     -10.177   2.053 -33.372  1.00  0.00    -0.318 OA
BRANCH  23  24
HETATM   24  C   UNL     1     -11.220   1.082 -33.587  1.00  0.00     0.174 C 
HETATM   25  C   UNL     1     -12.098   1.509 -34.748  1.00  0.00     0.034 C 
ENDBRANCH  23  24
ENDBRANCH  21  23
ENDBRANCH   1  21
BRANCH  10  26
HETATM   26  C   UNL     1      -6.373   1.489 -33.916  1.00  0.00     0.293 C 
BRANCH  26  27
HETATM   27  N   UNL     1      -5.277   0.632 -33.317  1.00  0.00    -0.066 N 
HETATM   28  H   UNL     1      -4.374   1.052 -33.570  1.00  0.00     0.280 HD
HETATM   29  C   UNL     1      -5.326   0.544 -31.810  1.00  0.00     0.235 C 
HETATM   30  C   UNL     1      -4.107  -0.220 -31.311  1.00  0.00     0.028 C 
HETATM   31  C   UNL     1      -4.007  -1.604 -31.943  1.00  0.00     0.003 C 
HETATM   32  C   UNL     1      -4.047  -1.519 -33.463  1.00  0.00     0.028 C 
HETATM   33  C   UNL     1      -5.263  -0.747 -33.952  1.00  0.00     0.235 C 
ENDBRANCH  26  27
ENDBRANCH  10  26
BRANCH   9  34
HETATM   34  C   UNL     1      -4.936   4.113 -33.321  1.00  0.00     0.040 A 
HETATM   35  C   UNL     1      -4.886   4.850 -34.510  1.00  0.00     0.030 A 
HETATM   36  C   UNL     1      -3.651   5.264 -35.008  1.00  0.00     0.002 A 
HETATM   37  C   UNL     1      -2.476   4.940 -34.329  1.00  0.00     0.000 A 
HETATM   38  C   UNL     1      -2.528   4.196 -33.150  1.00  0.00     0.002 A 
HETATM   39  C   UNL     1      -3.757   3.780 -32.640  1.00  0.00     0.030 A 
ENDBRANCH   9  34
TORSDOF 9
ENDMDL
MODEL 3
REMARK VINA RESULT:      -7.5      3.584      7.485
REMARK  9 active torsions:
REMARK  status: ('A' for Active; 'I' for Inactive)
REMARK    1  A    between atoms: C_2  and  O_3 
REMARK    2  A    between atoms: O_3  and  C_4 
REMARK    3  A    between atoms: C_4  and  C_5 
REMARK    4  A    between atoms: C_11  and  O_12 
REMARK    5  A    between atoms: C_13  and  C_14 
REMARK    6  A    between atoms: C_14  and  N_15 
REMARK    7  A    between atoms: N_22  and  C_23 
REMARK    8  A    between atoms: C_29  and  C_30 
REMARK    9  A    between atoms: C_30  and  N_31 
ROOT
HETATM    1  C   UNL     1      -8.652   2.011 -33.081  1.00  0.00     0.077 C 
HETATM    2  C   UNL     1      -9.328   3.047 -33.838  1.00  0.00     0.020 A 
HETATM    3  C   UNL     1      -8.534   4.197 -33.718  1.00  0.00     0.053 A 
HETATM    4  C   UNL     1      -8.906   5.426 -34.299  1.00  0.00     0.053 A 
HETATM    5  C   UNL     1     -10.130   5.516 -34.946  1.00  0.00     0.047 A 
HETATM    6 BR   UNL     1     -10.664   7.189 -35.656  1.00  0.00    -0.048 Br
HETATM    7  C   UNL     1     -10.932   4.390 -35.092  1.00  0.00     0.092 A 
HETATM    8  C   UNL     1     -10.540   3.113 -34.619  1.00  0.00     0.016 A 
HETATM    9  N   UNL     1      -7.366   3.853 -33.041  1.00  0.00    -0.312 N 
HETATM   10  C   UNL     1      -7.480   2.562 -32.543  1.00  0.00     0.060 C 
ENDROOT
BRANCH   8  11
HETATM   11  C   UNL     1     -11.426   1.906 -34.892  1.00  0.00     0.277 C 
BRANCH  11  12
HETATM   12  N   UNL     1     -12.853   1.998 -34.406  1.00  0.00    -0.063 N 
HETATM   13  H   UNL     1     -13.302   2.680 -35.043  1.00  0.00     0.280 HD
HETATM   14  C   UNL     1     -13.626   0.695 -34.528  1.00  0.00     0.261 C 
HETATM   15  C   UNL     1     -15.066   0.909 -34.051  1.00  0.00     0.195 C 
HETATM   16  O   UNL     1     -15.086   1.393 -32.704  1.00  0.00    -0.388 OA
HETATM   17  C   UNL     1     -14.426   2.658 -32.586  1.00  0.00     0.195 C 
HETATM   18  C   UNL     1     -12.952   2.548 -32.993  1.00  0.00     0.261 C 
ENDBRANCH  11  12
ENDBRANCH   8  11
BRANCH   7  19
HETATM   19  O   UNL     1     -12.148   4.499 -35.737  1.00  0.00    -0.359 OA
HETATM   20  H   UNL     1     -12.765   3.876 -35.288  1.00  0.00     0.218 HD
ENDBRANCH   7  19
BRANCH   1  21
HETATM   21  C   UNL     1      -9.124   0.642 -32.846  1.00  0.00     0.296 C 
HETATM   22  O   UNL     1     -10.176   0.400 -32.271  1.00  0.00    -0.259 OA
BRANCH  21  23
HETATM   23  O   UNL     1      -8.282  -0.296 -33.357  1.00  0.00    -0.318 OA
BRANCH  23  24
HETATM   24  C   UNL     1      -7.955  -0.161 -34.753  1.00  0.00     0.174 C 
HETATM   25  C   UNL     1      -6.695  -0.943 -35.072  1.00  0.00     0.034 C 
ENDBRANCH  23  24
ENDBRANCH  21  23
ENDBRANCH   1  21
BRANCH  10  26
HETATM   26  C   UNL     1      -6.498   1.942 -31.580  1.00  0.00     0.293 C 
BRANCH  26  27
HETATM   27  N   UNL     1      -5.512   0.950 -32.162  1.00  0.00    -0.066 N 
HETATM   28  H   UNL     1      -5.823   0.717 -33.114  1.00  0.00     0.280 HD
HETATM   29  C   UNL     1      -4.102   1.481 -32.266  1.00  0.00     0.235 C 
HETATM   30  C   UNL     1      -3.231   0.461 -32.987  1.00  0.00     0.028 C 
HETATM   31  C   UNL     1      -3.260  -0.898 -32.297  1.00  0.00     0.003 C 
HETATM   32  C   UNL     1      -4.690  -1.392 -32.113  1.00  0.00     0.028 C 
HETATM   33  C   UNL     1      -5.554  -0.362 -31.400  1.00  0.00     0.235 C 
ENDBRANCH  26  27
ENDBRANCH  10  26
BRANCH   9  34
HETATM   34  C   UNL     1      -6.260   4.716 -32.828  1.00  0.00     0.040 A 
HETATM   35  C   UNL     1      -5.229   4.775 -33.773  1.00  0.00     0.030 A 
HETATM   36  C   UNL     1      -4.190   5.688 -33.598  1.00  0.00     0.002 A 
HETATM   37  C   UNL     1      -4.177   6.530 -32.486  1.00  0.00     0.000 A 
HETATM   38  C   UNL     1      -5.199   6.461 -31.539  1.00  0.00     0.002 A 
HETATM   39  C   UNL     1      -6.245   5.556 -31.706  1.00  0.00     0.030 A 
ENDBRANCH   9  34
TORSDOF 9
ENDMDL
MODEL 4
REMARK VINA RESULT:      -7.4      2.664      5.234
REMARK  9 active torsions:
REMARK  status: ('A' for Active; 'I' for Inactive)
REMARK    1  A    between atoms: C_2  and  O_3 
REMARK    2  A    between atoms: O_3  and  C_4 
REMARK    3  A    between atoms: C_4  and  C_5 
REMARK    4  A    between atoms: C_11  and  O_12 
REMARK    5  A    between atoms: C_13  and  C_14 
REMARK    6  A    between atoms: C_14  and  N_15 
REMARK    7  A    between atoms: N_22  and  C_23 
REMARK    8  A    between atoms: C_29  and  C_30 
REMARK    9  A    between atoms: C_30  and  N_31 
ROOT
HETATM    1  C   UNL     1      -8.388   3.231 -31.694  1.00  0.00     0.077 C 
HETATM    2  C   UNL     1      -8.775   4.552 -32.152  1.00  0.00     0.020 A 
HETATM    3  C   UNL     1      -9.955   4.376 -32.891  1.00  0.00     0.053 A 
HETATM    4  C   UNL     1     -10.604   5.452 -33.529  1.00  0.00     0.053 A 
HETATM    5  C   UNL     1     -10.016   6.708 -33.485  1.00  0.00     0.047 A 
HETATM    6 BR   UNL     1     -10.848   8.136 -34.412  1.00  0.00    -0.048 Br
HETATM    7  C   UNL     1      -8.854   6.915 -32.751  1.00  0.00     0.092 A 
HETATM    8  C   UNL     1      -8.235   5.882 -32.004  1.00  0.00     0.016 A 
HETATM    9  N   UNL     1     -10.347   3.044 -32.777  1.00  0.00    -0.312 N 
HETATM   10  C   UNL     1      -9.342   2.314 -32.158  1.00  0.00     0.060 C 
ENDROOT
BRANCH   8  11
HETATM   11  C   UNL     1      -7.016   6.200 -31.150  1.00  0.00     0.277 C 
BRANCH  11  12
HETATM   12  N   UNL     1      -5.697   5.646 -31.632  1.00  0.00    -0.063 N 
HETATM   13  H   UNL     1      -5.800   4.619 -31.552  1.00  0.00     0.280 HD
HETATM   14  C   UNL     1      -5.400   5.955 -33.090  1.00  0.00     0.261 C 
HETATM   15  C   UNL     1      -4.066   5.314 -33.487  1.00  0.00     0.195 C 
HETATM   16  O   UNL     1      -3.010   5.779 -32.640  1.00  0.00    -0.388 OA
HETATM   17  C   UNL     1      -3.238   5.430 -31.270  1.00  0.00     0.195 C 
HETATM   18  C   UNL     1      -4.532   6.065 -30.750  1.00  0.00     0.261 C 
ENDBRANCH  11  12
ENDBRANCH   8  11
BRANCH   7  19
HETATM   19  O   UNL     1      -8.283   8.171 -32.721  1.00  0.00    -0.359 OA
HETATM   20  H   UNL     1      -7.329   8.044 -32.508  1.00  0.00     0.218 HD
ENDBRANCH   7  19
BRANCH   1  21
HETATM   21  C   UNL     1      -7.181   2.880 -30.937  1.00  0.00     0.296 C 
HETATM   22  O   UNL     1      -7.189   2.734 -29.723  1.00  0.00    -0.259 OA
BRANCH  21  23
HETATM   23  O   UNL     1      -6.092   2.716 -31.734  1.00  0.00    -0.318 OA
BRANCH  23  24
HETATM   24  C   UNL     1      -4.930   2.139 -31.108  1.00  0.00     0.174 C 
HETATM   25  C   UNL     1      -3.945   1.676 -32.165  1.00  0.00     0.034 C 
ENDBRANCH  23  24
ENDBRANCH  21  23
ENDBRANCH   1  21
BRANCH  10  26
HETATM   26  C   UNL     1      -9.332   0.809 -32.063  1.00  0.00     0.293 C 
BRANCH  26  27
HETATM   27  N   UNL     1      -8.497   0.070 -33.088  1.00  0.00    -0.066 N 
HETATM   28  H   UNL     1      -9.019  -0.768 -33.376  1.00  0.00     0.280 HD
HETATM   29  C   UNL     1      -8.209   0.872 -34.334  1.00  0.00     0.235 C 
HETATM   30  C   UNL     1      -7.489  -0.010 -35.346  1.00  0.00     0.028 C 
HETATM   31  C   UNL     1      -6.212  -0.610 -34.768  1.00  0.00     0.003 C 
HETATM   32  C   UNL     1      -6.492  -1.345 -33.462  1.00  0.00     0.028 C 
HETATM   33  C   UNL     1      -7.219  -0.458 -32.462  1.00  0.00     0.235 C 
ENDBRANCH  26  27
ENDBRANCH  10  26
BRANCH   9  34
HETATM   34  C   UNL     1     -11.556   2.502 -33.286  1.00  0.00     0.040 A 
HETATM   35  C   UNL     1     -12.739   2.622 -32.548  1.00  0.00     0.030 A 
HETATM   36  C   UNL     1     -13.937   2.162 -33.094  1.00  0.00     0.002 A 
HETATM   37  C   UNL     1     -13.953   1.583 -34.362  1.00  0.00     0.000 A 
HETATM   38  C   UNL     1     -12.770   1.453 -35.091  1.00  0.00     0.002 A 
HETATM   39  C   UNL     1     -11.567   1.913 -34.558  1.00  0.00     0.030 A 
ENDBRANCH   9  34
TORSDOF 9
ENDMDL
MODEL 5
REMARK VINA RESULT:      -7.4      3.274      6.985
REMARK  9 active torsions:
REMARK  status: ('A' for Active; 'I' for Inactive)
REMARK    1  A    between atoms: C_2  and  O_3 
REMARK    2  A    between atoms: O_3  and  C_4 
REMARK    3  A    between atoms: C_4  and  C_5 
REMARK    4  A    between atoms: C_11  and  O_12 
REMARK    5  A    between atoms: C_13  and  C_14 
REMARK    6  A    between atoms: C_14  and  N_15 
REMARK    7  A    between atoms: N_22  and  C_23 
REMARK    8  A    between atoms: C_29  and  C_30 
REMARK    9  A    between atoms: C_30  and  N_31 
ROOT
HETATM    1  C   UNL     1      -9.058   4.149 -33.735  1.00  0.00     0.077 C 
HETATM    2  C   UNL     1     -10.297   3.400 -33.646  1.00  0.00     0.020 A 
HETATM    3  C   UNL     1      -9.942   2.047 -33.760  1.00  0.00     0.053 A 
HETATM    4  C   UNL     1     -10.906   1.019 -33.757  1.00  0.00     0.053 A 
HETATM    5  C   UNL     1     -12.250   1.364 -33.712  1.00  0.00     0.047 A 
HETATM    6 BR   UNL     1     -13.546  -0.016 -33.789  1.00  0.00    -0.048 Br
HETATM    7  C   UNL     1     -12.631   2.694 -33.585  1.00  0.00     0.092 A 
HETATM    8  C   UNL     1     -11.687   3.745 -33.473  1.00  0.00     0.016 A 
HETATM    9  N   UNL     1      -8.552   1.961 -33.780  1.00  0.00    -0.312 N 
HETATM   10  C   UNL     1      -8.008   3.233 -33.890  1.00  0.00     0.060 C 
ENDROOT
BRANCH   8  11
HETATM   11  C   UNL     1     -12.174   5.170 -33.246  1.00  0.00     0.277 C 
BRANCH  11  12
HETATM   12  N   UNL     1     -13.229   5.678 -34.199  1.00  0.00    -0.063 N 
HETATM   13  H   UNL     1     -13.871   4.876 -34.328  1.00  0.00     0.280 HD
HETATM   14  C   UNL     1     -14.052   6.828 -33.643  1.00  0.00     0.261 C 
HETATM   15  C   UNL     1     -15.116   7.236 -34.668  1.00  0.00     0.195 C 
HETATM   16  O   UNL     1     -14.508   7.596 -35.912  1.00  0.00    -0.388 OA
HETATM   17  C   UNL     1     -13.789   6.499 -36.487  1.00  0.00     0.195 C 
HETATM   18  C   UNL     1     -12.658   6.039 -35.561  1.00  0.00     0.261 C 
ENDBRANCH  11  12
ENDBRANCH   8  11
BRANCH   7  19
HETATM   19  O   UNL     1     -13.972   3.017 -33.545  1.00  0.00    -0.359 OA
HETATM   20  H   UNL     1     -14.451   2.207 -33.252  1.00  0.00     0.218 HD
ENDBRANCH   7  19
BRANCH   1  21
HETATM   21  C   UNL     1      -8.909   5.609 -33.737  1.00  0.00     0.296 C 
HETATM   22  O   UNL     1      -9.318   6.308 -34.653  1.00  0.00    -0.259 OA
BRANCH  21  23
HETATM   23  O   UNL     1      -8.303   6.074 -32.612  1.00  0.00    -0.318 OA
BRANCH  23  24
HETATM   24  C   UNL     1      -8.922   5.713 -31.362  1.00  0.00     0.174 C 
HETATM   25  C   UNL     1      -7.860   5.419 -30.320  1.00  0.00     0.034 C 
ENDBRANCH  23  24
ENDBRANCH  21  23
ENDBRANCH   1  21
BRANCH  10  26
HETATM   26  C   UNL     1      -6.547   3.504 -34.154  1.00  0.00     0.293 C 
BRANCH  26  27
HETATM   27  N   UNL     1      -5.780   4.215 -33.059  1.00  0.00    -0.066 N 
HETATM   28  H   UNL     1      -6.463   4.610 -32.400  1.00  0.00     0.280 HD
HETATM   29  C   UNL     1      -4.863   3.311 -32.269  1.00  0.00     0.235 C 
HETATM   30  C   UNL     1      -4.254   4.096 -31.115  1.00  0.00     0.028 C 
HETATM   31  C   UNL     1      -3.519   5.340 -31.601  1.00  0.00     0.003 C 
HETATM   32  C   UNL     1      -4.420   6.207 -32.471  1.00  0.00     0.028 C 
HETATM   33  C   UNL     1      -5.031   5.412 -33.616  1.00  0.00     0.235 C 
ENDBRANCH  26  27
ENDBRANCH  10  26
BRANCH   9  34
HETATM   34  C   UNL     1      -7.808   0.752 -33.768  1.00  0.00     0.040 A 
HETATM   35  C   UNL     1      -7.619   0.039 -34.958  1.00  0.00     0.030 A 
HETATM   36  C   UNL     1      -6.815  -1.101 -34.953  1.00  0.00     0.002 A 
HETATM   37  C   UNL     1      -6.211  -1.527 -33.770  1.00  0.00     0.000 A 
HETATM   38  C   UNL     1      -6.411  -0.822 -32.584  1.00  0.00     0.002 A 
HETATM   39  C   UNL     1      -7.208   0.322 -32.577  1.00  0.00     0.030 A 
ENDBRANCH   9  34
TORSDOF 9
ENDMDL
MODEL 6
REMARK VINA RESULT:      -7.2      3.146      6.524
REMARK  9 active torsions:
REMARK  status: ('A' for Active; 'I' for Inactive)
REMARK    1  A    between atoms: C_2  and  O_3 
REMARK    2  A    between atoms: O_3  and  C_4 
REMARK    3  A    between atoms: C_4  and  C_5 
REMARK    4  A    between atoms: C_11  and  O_12 
REMARK    5  A    between atoms: C_13  and  C_14 
REMARK    6  A    between atoms: C_14  and  N_15 
REMARK    7  A    between atoms: N_22  and  C_23 
REMARK    8  A    between atoms: C_29  and  C_30 
REMARK    9  A    between atoms: C_30  and  N_31 
ROOT
HETATM    1  C   UNL     1      -9.068   4.177 -33.855  1.00  0.00     0.077 C 
HETATM    2  C   UNL     1     -10.271   3.375 -33.746  1.00  0.00     0.020 A 
HETATM    3  C   UNL     1      -9.853   2.037 -33.802  1.00  0.00     0.053 A 
HETATM    4  C   UNL     1     -10.768   0.966 -33.765  1.00  0.00     0.053 A 
HETATM    5  C   UNL     1     -12.126   1.248 -33.747  1.00  0.00     0.047 A 
HETATM    6 BR   UNL     1     -13.355  -0.194 -33.778  1.00  0.00    -0.048 Br
HETATM    7  C   UNL     1     -12.571   2.562 -33.678  1.00  0.00     0.092 A 
HETATM    8  C   UNL     1     -11.678   3.661 -33.601  1.00  0.00     0.016 A 
HETATM    9  N   UNL     1      -8.460   2.015 -33.806  1.00  0.00    -0.312 N 
HETATM   10  C   UNL     1      -7.975   3.306 -33.962  1.00  0.00     0.060 C 
ENDROOT
BRANCH   8  11
HETATM   11  C   UNL     1     -12.233   5.069 -33.436  1.00  0.00     0.277 C 
BRANCH  11  12
HETATM   12  N   UNL     1     -13.267   5.259 -32.353  1.00  0.00    -0.063 N 
HETATM   13  H   UNL     1     -13.895   4.441 -32.445  1.00  0.00     0.280 HD
HETATM   14  C   UNL     1     -12.692   5.226 -30.946  1.00  0.00     0.261 C 
HETATM   15  C   UNL     1     -13.825   5.384 -29.927  1.00  0.00     0.195 C 
HETATM   16  O   UNL     1     -14.547   6.599 -30.157  1.00  0.00    -0.388 OA
HETATM   17  C   UNL     1     -15.158   6.614 -31.452  1.00  0.00     0.195 C 
HETATM   18  C   UNL     1     -14.103   6.512 -32.559  1.00  0.00     0.261 C 
ENDBRANCH  11  12
ENDBRANCH   8  11
BRANCH   7  19
HETATM   19  O   UNL     1     -13.926   2.824 -33.663  1.00  0.00    -0.359 OA
HETATM   20  H   UNL     1     -14.074   3.515 -32.976  1.00  0.00     0.218 HD
ENDBRANCH   7  19
BRANCH   1  21
HETATM   21  C   UNL     1      -8.988   5.641 -33.915  1.00  0.00     0.296 C 
HETATM   22  O   UNL     1      -9.431   6.283 -34.857  1.00  0.00    -0.259 OA
BRANCH  21  23
HETATM   23  O   UNL     1      -8.401   6.179 -32.813  1.00  0.00    -0.318 OA
BRANCH  23  24
HETATM   24  C   UNL     1      -9.036   5.889 -31.552  1.00  0.00     0.174 C 
HETATM   25  C   UNL     1      -7.995   5.489 -30.524  1.00  0.00     0.034 C 
ENDBRANCH  23  24
ENDBRANCH  21  23
ENDBRANCH   1  21
BRANCH  10  26
HETATM   26  C   UNL     1      -6.525   3.634 -34.224  1.00  0.00     0.293 C 
BRANCH  26  27
HETATM   27  N   UNL     1      -5.758   4.275 -33.086  1.00  0.00    -0.066 N 
HETATM   28  H   UNL     1      -6.438   4.564 -32.370  1.00  0.00     0.280 HD
HETATM   29  C   UNL     1      -4.769   3.349 -32.419  1.00  0.00     0.235 C 
HETATM   30  C   UNL     1      -4.161   4.047 -31.210  1.00  0.00     0.028 C 
HETATM   31  C   UNL     1      -3.509   5.372 -31.590  1.00  0.00     0.003 C 
HETATM   32  C   UNL     1      -4.484   6.270 -32.341  1.00  0.00     0.028 C 
HETATM   33  C   UNL     1      -5.092   5.561 -33.541  1.00  0.00     0.235 C 
ENDBRANCH  26  27
ENDBRANCH  10  26
BRANCH   9  34
HETATM   34  C   UNL     1      -7.660   0.844 -33.737  1.00  0.00     0.040 A 
HETATM   35  C   UNL     1      -7.130   0.434 -32.509  1.00  0.00     0.030 A 
HETATM   36  C   UNL     1      -6.418  -0.763 -32.435  1.00  0.00     0.002 A 
HETATM   37  C   UNL     1      -6.232  -1.540 -33.580  1.00  0.00     0.000 A 
HETATM   38  C   UNL     1      -6.752  -1.122 -34.805  1.00  0.00     0.002 A 
HETATM   39  C   UNL     1      -7.469   0.070 -34.890  1.00  0.00     0.030 A 
ENDBRANCH   9  34
TORSDOF 9
ENDMDL
MODEL 7
REMARK VINA RESULT:      -7.2      2.700      5.971
REMARK  9 active torsions:
REMARK  status: ('A' for Active; 'I' for Inactive)
REMARK    1  A    between atoms: C_2  and  O_3 
REMARK    2  A    between atoms: O_3  and  C_4 
REMARK    3  A    between atoms: C_4  and  C_5 
REMARK    4  A    between atoms: C_11  and  O_12 
REMARK    5  A    between atoms: C_13  and  C_14 
REMARK    6  A    between atoms: C_14  and  N_15 
REMARK    7  A    between atoms: N_22  and  C_23 
REMARK    8  A    between atoms: C_29  and  C_30 
REMARK    9  A    between atoms: C_30  and  N_31 
ROOT
HETATM    1  C   UNL     1      -9.077   2.638 -31.871  1.00  0.00     0.077 C 
HETATM    2  C   UNL     1      -8.322   3.430 -30.919  1.00  0.00     0.020 A 
HETATM    3  C   UNL     1      -8.910   4.704 -30.918  1.00  0.00     0.053 A 
HETATM    4  C   UNL     1      -8.406   5.759 -30.132  1.00  0.00     0.053 A 
HETATM    5  C   UNL     1      -7.250   5.549 -29.394  1.00  0.00     0.047 A 
HETATM    6 BR   UNL     1      -6.529   6.993 -28.402  1.00  0.00    -0.048 Br
HETATM    7  C   UNL     1      -6.652   4.295 -29.365  1.00  0.00     0.092 A 
HETATM    8  C   UNL     1      -7.194   3.181 -30.054  1.00  0.00     0.016 A 
HETATM    9  N   UNL     1     -10.048   4.659 -31.721  1.00  0.00    -0.312 N 
HETATM   10  C   UNL     1     -10.092   3.450 -32.400  1.00  0.00     0.060 C 
ENDROOT
BRANCH   8  11
HETATM   11  C   UNL     1      -6.539   1.815 -29.906  1.00  0.00     0.277 C 
BRANCH  11  12
HETATM   12  N   UNL     1      -5.151   1.671 -30.484  1.00  0.00    -0.063 N 
HETATM   13  H   UNL     1      -4.528   2.102 -29.778  1.00  0.00     0.280 HD
HETATM   14  C   UNL     1      -4.706   0.228 -30.652  1.00  0.00     0.261 C 
HETATM   15  C   UNL     1      -3.276   0.195 -31.202  1.00  0.00     0.195 C 
HETATM   16  O   UNL     1      -3.195   0.904 -32.443  1.00  0.00    -0.388 OA
HETATM   17  C   UNL     1      -3.540   2.285 -32.286  1.00  0.00     0.195 C 
HETATM   18  C   UNL     1      -4.980   2.438 -31.785  1.00  0.00     0.261 C 
ENDBRANCH  11  12
ENDBRANCH   8  11
BRANCH   7  19
HETATM   19  O   UNL     1      -5.501   4.106 -28.627  1.00  0.00    -0.359 OA
HETATM   20  H   UNL     1      -5.697   4.412 -27.711  1.00  0.00     0.218 HD
ENDBRANCH   7  19
BRANCH   1  21
HETATM   21  C   UNL     1      -8.808   1.255 -32.278  1.00  0.00     0.296 C 
HETATM   22  O   UNL     1      -9.384   0.300 -31.777  1.00  0.00    -0.259 OA
BRANCH  21  23
HETATM   23  O   UNL     1      -7.883   1.173 -33.272  1.00  0.00    -0.318 OA
BRANCH  23  24
HETATM   24  C   UNL     1      -8.364   0.703 -34.547  1.00  0.00     0.174 C 
HETATM   25  C   UNL     1      -7.196   0.338 -35.442  1.00  0.00     0.034 C 
ENDBRANCH  23  24
ENDBRANCH  21  23
ENDBRANCH   1  21
BRANCH  10  26
HETATM   26  C   UNL     1     -11.064   3.144 -33.513  1.00  0.00     0.293 C 
BRANCH  26  27
HETATM   27  N   UNL     1     -12.219   2.226 -33.172  1.00  0.00    -0.066 N 
HETATM   28  H   UNL     1     -12.062   1.859 -32.224  1.00  0.00     0.280 HD
HETATM   29  C   UNL     1     -13.565   2.911 -33.172  1.00  0.00     0.235 C 
HETATM   30  C   UNL     1     -14.627   1.936 -32.684  1.00  0.00     0.028 C 
HETATM   31  C   UNL     1     -14.656   0.662 -33.521  1.00  0.00     0.003 C 
HETATM   32  C   UNL     1     -13.276   0.019 -33.592  1.00  0.00     0.028 C 
HETATM   33  C   UNL     1     -12.220   1.004 -34.073  1.00  0.00     0.235 C 
ENDBRANCH  26  27
ENDBRANCH  10  26
BRANCH   9  34
HETATM   34  C   UNL     1     -10.979   5.719 -31.878  1.00  0.00     0.040 A 
HETATM   35  C   UNL     1     -12.101   5.789 -31.044  1.00  0.00     0.030 A 
HETATM   36  C   UNL     1     -12.965   6.879 -31.147  1.00  0.00     0.002 A 
HETATM   37  C   UNL     1     -12.713   7.887 -32.079  1.00  0.00     0.000 A 
HETATM   38  C   UNL     1     -11.601   7.807 -32.917  1.00  0.00     0.002 A 
HETATM   39  C   UNL     1     -10.728   6.725 -32.820  1.00  0.00     0.030 A 
ENDBRANCH   9  34
TORSDOF 9
ENDMDL
MODEL 8
REMARK VINA RESULT:      -7.2      3.501      9.164
REMARK  9 active torsions:
REMARK  status: ('A' for Active; 'I' for Inactive)
REMARK    1  A    between atoms: C_2  and  O_3 
REMARK    2  A    between atoms: O_3  and  C_4 
REMARK    3  A    between atoms: C_4  and  C_5 
REMARK    4  A    between atoms: C_11  and  O_12 
REMARK    5  A    between atoms: C_13  and  C_14 
REMARK    6  A    between atoms: C_14  and  N_15 
REMARK    7  A    between atoms: N_22  and  C_23 
REMARK    8  A    between atoms: C_29  and  C_30 
REMARK    9  A    between atoms: C_30  and  N_31 
ROOT
HETATM    1  C   UNL     1      -3.832   5.174 -31.348  1.00  0.00     0.077 C 
HETATM    2  C   UNL     1      -5.174   4.624 -31.367  1.00  0.00     0.020 A 
HETATM    3  C   UNL     1      -5.959   5.486 -30.587  1.00  0.00     0.053 A 
HETATM    4  C   UNL     1      -7.326   5.240 -30.347  1.00  0.00     0.053 A 
HETATM    5  C   UNL     1      -7.890   4.072 -30.837  1.00  0.00     0.047 A 
HETATM    6 BR   UNL     1      -9.707   3.704 -30.445  1.00  0.00    -0.048 Br
HETATM    7  C   UNL     1      -7.142   3.205 -31.624  1.00  0.00     0.092 A 
HETATM    8  C   UNL     1      -5.796   3.475 -31.979  1.00  0.00     0.016 A 
HETATM    9  N   UNL     1      -5.176   6.579 -30.222  1.00  0.00    -0.312 N 
HETATM   10  C   UNL     1      -3.854   6.342 -30.572  1.00  0.00     0.060 C 
ENDROOT
BRANCH   8  11
HETATM   11  C   UNL     1      -5.063   2.528 -32.919  1.00  0.00     0.277 C 
BRANCH  11  12
HETATM   12  N   UNL     1      -4.831   1.125 -32.409  1.00  0.00    -0.063 N 
HETATM   13  H   UNL     1      -5.511   1.013 -31.637  1.00  0.00     0.280 HD
HETATM   14  C   UNL     1      -5.134   0.045 -33.434  1.00  0.00     0.261 C 
HETATM   15  C   UNL     1      -4.908  -1.334 -32.804  1.00  0.00     0.195 C 
HETATM   16  O   UNL     1      -3.568  -1.453 -32.314  1.00  0.00    -0.388 OA
HETATM   17  C   UNL     1      -3.291  -0.488 -31.293  1.00  0.00     0.195 C 
HETATM   18  C   UNL     1      -3.438   0.939 -31.832  1.00  0.00     0.261 C 
ENDBRANCH  11  12
ENDBRANCH   8  11
BRANCH   7  19
HETATM   19  O   UNL     1      -7.720   2.046 -32.102  1.00  0.00    -0.359 OA
HETATM   20  H   UNL     1      -8.613   1.984 -31.689  1.00  0.00     0.218 HD
ENDBRANCH   7  19
BRANCH   1  21
HETATM   21  C   UNL     1      -2.633   4.594 -31.963  1.00  0.00     0.296 C 
HETATM   22  O   UNL     1      -1.794   3.984 -31.315  1.00  0.00    -0.259 OA
BRANCH  21  23
HETATM   23  O   UNL     1      -2.587   4.791 -33.307  1.00  0.00    -0.318 OA
BRANCH  23  24
HETATM   24  C   UNL     1      -1.405   5.441 -33.813  1.00  0.00     0.174 C 
HETATM   25  C   UNL     1      -1.543   6.946 -33.685  1.00  0.00     0.034 C 
ENDBRANCH  23  24
ENDBRANCH  21  23
ENDBRANCH   1  21
BRANCH  10  26
HETATM   26  C   UNL     1      -2.700   7.212 -30.139  1.00  0.00     0.293 C 
BRANCH  26  27
HETATM   27  N   UNL     1      -1.760   6.628 -29.105  1.00  0.00    -0.066 N 
HETATM   28  H   UNL     1      -2.039   5.652 -28.940  1.00  0.00     0.280 HD
HETATM   29  C   UNL     1      -0.312   6.616 -29.533  1.00  0.00     0.235 C 
HETATM   30  C   UNL     1       0.517   5.885 -28.485  1.00  0.00     0.028 C 
HETATM   31  C   UNL     1       0.355   6.505 -27.101  1.00  0.00     0.003 C 
HETATM   32  C   UNL     1      -1.114   6.597 -26.708  1.00  0.00     0.028 C 
HETATM   33  C   UNL     1      -1.935   7.320 -27.766  1.00  0.00     0.235 C 
ENDBRANCH  26  27
ENDBRANCH  10  26
BRANCH   9  34
HETATM   34  C   UNL     1      -5.645   7.726 -29.529  1.00  0.00     0.040 A 
HETATM   35  C   UNL     1      -6.104   8.835 -30.248  1.00  0.00     0.030 A 
HETATM   36  C   UNL     1      -6.642   9.923 -29.561  1.00  0.00     0.002 A 
HETATM   37  C   UNL     1      -6.716   9.904 -28.168  1.00  0.00     0.000 A 
HETATM   38  C   UNL     1      -6.247   8.802 -27.453  1.00  0.00     0.002 A 
HETATM   39  C   UNL     1      -5.711   7.708 -28.129  1.00  0.00     0.030 A 
ENDBRANCH   9  34
TORSDOF 9
ENDMDL
MODEL 9
REMARK VINA RESULT:      -7.2      2.709      5.718
REMARK  9 active torsions:
REMARK  status: ('A' for Active; 'I' for Inactive)
REMARK    1  A    between atoms: C_2  and  O_3 
REMARK    2  A    between atoms: O_3  and  C_4 
REMARK    3  A    between atoms: C_4  and  C_5 
REMARK    4  A    between atoms: C_11  and  O_12 
REMARK    5  A    between atoms: C_13  and  C_14 
REMARK    6  A    between atoms: C_14  and  N_15 
REMARK    7  A    between atoms: N_22  and  C_23 
REMARK    8  A    between atoms: C_29  and  C_30 
REMARK    9  A    between atoms: C_30  and  N_31 
ROOT
HETATM    1  C   UNL     1      -7.638   3.776 -32.053  1.00  0.00     0.077 C 
HETATM    2  C   UNL     1      -7.771   5.218 -31.969  1.00  0.00     0.020 A 
HETATM    3  C   UNL     1      -6.500   5.742 -32.251  1.00  0.00     0.053 A 
HETATM    4  C   UNL     1      -6.239   7.126 -32.220  1.00  0.00     0.053 A 
HETATM    5  C   UNL     1      -7.253   7.989 -31.828  1.00  0.00     0.047 A 
HETATM    6 BR   UNL     1      -6.877   9.842 -31.710  1.00  0.00    -0.048 Br
HETATM    7  C   UNL     1      -8.525   7.501 -31.556  1.00  0.00     0.092 A 
HETATM    8  C   UNL     1      -8.854   6.127 -31.685  1.00  0.00     0.016 A 
HETATM    9  N   UNL     1      -5.666   4.689 -32.622  1.00  0.00    -0.312 N 
HETATM   10  C   UNL     1      -6.309   3.481 -32.388  1.00  0.00     0.060 C 
ENDROOT
BRANCH   8  11
HETATM   11  C   UNL     1     -10.290   5.675 -31.458  1.00  0.00     0.277 C 
BRANCH  11  12
HETATM   12  N   UNL     1     -10.978   5.019 -32.631  1.00  0.00    -0.063 N 
HETATM   13  H   UNL     1     -10.478   4.121 -32.759  1.00  0.00     0.280 HD
HETATM   14  C   UNL     1     -12.438   4.685 -32.374  1.00  0.00     0.261 C 
HETATM   15  C   UNL     1     -13.027   3.987 -33.605  1.00  0.00     0.195 C 
HETATM   16  O   UNL     1     -12.886   4.809 -34.768  1.00  0.00    -0.388 OA
HETATM   17  C   UNL     1     -11.511   5.071 -35.068  1.00  0.00     0.195 C 
HETATM   18  C   UNL     1     -10.831   5.818 -33.915  1.00  0.00     0.261 C 
ENDBRANCH  11  12
ENDBRANCH   8  11
BRANCH   7  19
HETATM   19  O   UNL     1      -9.521   8.373 -31.166  1.00  0.00    -0.359 OA
HETATM   20  H   UNL     1      -9.565   9.080 -31.852  1.00  0.00     0.218 HD
ENDBRANCH   7  19
BRANCH   1  21
HETATM   21  C   UNL     1      -8.677   2.778 -31.774  1.00  0.00     0.296 C 
HETATM   22  O   UNL     1      -8.986   2.455 -30.636  1.00  0.00    -0.259 OA
BRANCH  21  23
HETATM   23  O   UNL     1      -9.254   2.293 -32.905  1.00  0.00    -0.318 OA
BRANCH  23  24
HETATM   24  C   UNL     1     -10.392   1.430 -32.716  1.00  0.00     0.174 C 
HETATM   25  C   UNL     1      -9.963  -0.023 -32.787  1.00  0.00     0.034 C 
ENDBRANCH  23  24
ENDBRANCH  21  23
ENDBRANCH   1  21
BRANCH  10  26
HETATM   26  C   UNL     1      -5.630   2.137 -32.471  1.00  0.00     0.293 C 
BRANCH  26  27
HETATM   27  N   UNL     1      -6.373   1.046 -33.214  1.00  0.00    -0.066 N 
HETATM   28  H   UNL     1      -7.316   0.975 -32.811  1.00  0.00     0.280 HD
HETATM   29  C   UNL     1      -6.534   1.314 -34.692  1.00  0.00     0.235 C 
HETATM   30  C   UNL     1      -7.409   0.231 -35.308  1.00  0.00     0.028 C 
HETATM   31  C   UNL     1      -6.846  -1.164 -35.057  1.00  0.00     0.003 C 
HETATM   32  C   UNL     1      -6.602  -1.400 -33.571  1.00  0.00     0.028 C 
HETATM   33  C   UNL     1      -5.734  -0.308 -32.964  1.00  0.00     0.235 C 
ENDBRANCH  26  27
ENDBRANCH  10  26
BRANCH   9  34
HETATM   34  C   UNL     1      -4.335   4.828 -33.095  1.00  0.00     0.040 A 
HETATM   35  C   UNL     1      -4.101   5.097 -34.448  1.00  0.00     0.030 A 
HETATM   36  C   UNL     1      -2.796   5.317 -34.888  1.00  0.00     0.002 A 
HETATM   37  C   UNL     1      -1.734   5.264 -33.985  1.00  0.00     0.000 A 
HETATM   38  C   UNL     1      -1.969   4.984 -32.639  1.00  0.00     0.002 A 
HETATM   39  C   UNL     1      -3.269   4.767 -32.187  1.00  0.00     0.030 A 
ENDBRANCH   9  34
TORSDOF 9
ENDMDL
MODEL 10
REMARK VINA RESULT:      -7.2      3.324      6.885
REMARK  9 active torsions:
REMARK  status: ('A' for Active; 'I' for Inactive)
REMARK    1  A    between atoms: C_2  and  O_3 
REMARK    2  A    between atoms: O_3  and  C_4 
REMARK    3  A    between atoms: C_4  and  C_5 
REMARK    4  A    between atoms: C_11  and  O_12 
REMARK    5  A    between atoms: C_13  and  C_14 
REMARK    6  A    between atoms: C_14  and  N_15 
REMARK    7  A    between atoms: N_22  and  C_23 
REMARK    8  A    between atoms: C_29  and  C_30 
REMARK    9  A    between atoms: C_30  and  N_31 
ROOT
HETATM    1  C   UNL     1      -9.611   4.355 -33.301  1.00  0.00     0.077 C 
HETATM    2  C   UNL     1     -10.805   3.532 -33.295  1.00  0.00     0.020 A 
HETATM    3  C   UNL     1     -10.378   2.226 -33.583  1.00  0.00     0.053 A 
HETATM    4  C   UNL     1     -11.284   1.153 -33.701  1.00  0.00     0.053 A 
HETATM    5  C   UNL     1     -12.644   1.412 -33.602  1.00  0.00     0.047 A 
HETATM    6 BR   UNL     1     -13.863  -0.018 -33.841  1.00  0.00    -0.048 Br
HETATM    7  C   UNL     1     -13.096   2.692 -33.304  1.00  0.00     0.092 A 
HETATM    8  C   UNL     1     -12.209   3.773 -33.069  1.00  0.00     0.016 A 
HETATM    9  N   UNL     1      -8.986   2.222 -33.626  1.00  0.00    -0.312 N 
HETATM   10  C   UNL     1      -8.514   3.527 -33.579  1.00  0.00     0.060 C 
ENDROOT
BRANCH   8  11
HETATM   11  C   UNL     1     -12.770   5.128 -32.659  1.00  0.00     0.277 C 
BRANCH  11  12
HETATM   12  N   UNL     1     -13.187   6.048 -33.781  1.00  0.00    -0.063 N 
HETATM   13  H   UNL     1     -12.545   6.856 -33.707  1.00  0.00     0.280 HD
HETATM   14  C   UNL     1     -12.998   5.449 -35.165  1.00  0.00     0.261 C 
HETATM   15  C   UNL     1     -13.408   6.475 -36.226  1.00  0.00     0.195 C 
HETATM   16  O   UNL     1     -14.764   6.893 -36.029  1.00  0.00    -0.388 OA
HETATM   17  C   UNL     1     -14.942   7.527 -34.758  1.00  0.00     0.195 C 
HETATM   18  C   UNL     1     -14.606   6.566 -33.612  1.00  0.00     0.261 C 
ENDBRANCH  11  12
ENDBRANCH   8  11
BRANCH   7  19
HETATM   19  O   UNL     1     -14.452   2.931 -33.211  1.00  0.00    -0.359 OA
HETATM   20  H   UNL     1     -14.556   3.833 -32.827  1.00  0.00     0.218 HD
ENDBRANCH   7  19
BRANCH   1  21
HETATM   21  C   UNL     1      -9.543   5.809 -33.119  1.00  0.00     0.296 C 
HETATM   22  O   UNL     1      -9.981   6.595 -33.948  1.00  0.00    -0.259 OA
BRANCH  21  23
HETATM   23  O   UNL     1      -8.974   6.163 -31.935  1.00  0.00    -0.318 OA
BRANCH  23  24
HETATM   24  C   UNL     1      -9.736   5.859 -30.750  1.00  0.00     0.174 C 
HETATM   25  C   UNL     1      -8.893   6.101 -29.513  1.00  0.00     0.034 C 
ENDBRANCH  23  24
ENDBRANCH  21  23
ENDBRANCH   1  21
BRANCH  10  26
HETATM   26  C   UNL     1      -7.076   3.911 -33.819  1.00  0.00     0.293 C 
BRANCH  26  27
HETATM   27  N   UNL     1      -6.129   3.768 -32.645  1.00  0.00    -0.066 N 
HETATM   28  H   UNL     1      -5.601   4.645 -32.557  1.00  0.00     0.280 HD
HETATM   29  C   UNL     1      -6.825   3.525 -31.327  1.00  0.00     0.235 C 
HETATM   30  C   UNL     1      -5.795   3.537 -30.205  1.00  0.00     0.028 C 
HETATM   31  C   UNL     1      -4.687   2.517 -30.441  1.00  0.00     0.003 C 
HETATM   32  C   UNL     1      -4.046   2.708 -31.810  1.00  0.00     0.028 C 
HETATM   33  C   UNL     1      -5.083   2.704 -32.923  1.00  0.00     0.235 C 
ENDBRANCH  26  27
ENDBRANCH  10  26
BRANCH   9  34
HETATM   34  C   UNL     1      -8.176   1.066 -33.774  1.00  0.00     0.040 A 
HETATM   35  C   UNL     1      -7.763   0.662 -35.049  1.00  0.00     0.030 A 
HETATM   36  C   UNL     1      -6.898  -0.424 -35.178  1.00  0.00     0.002 A 
HETATM   37  C   UNL     1      -6.454  -1.105 -34.044  1.00  0.00     0.000 A 
HETATM   38  C   UNL     1      -6.877  -0.708 -32.775  1.00  0.00     0.002 A 
HETATM   39  C   UNL     1      -7.738   0.379 -32.633  1.00  0.00     0.030 A 
ENDBRANCH   9  34
TORSDOF 9
ENDMDL
