MODEL 1
REMARK VINA RESULT:      -8.2      0.000      0.000
REMARK  8 active torsions:
REMARK  status: ('A' for Active; 'I' for Inactive)
REMARK    1  A    between atoms: C_2  and  O_3 
REMARK    2  A    between atoms: O_3  and  C_4 
REMARK    3  A    between atoms: C_5  and  O_6 
REMARK    4  A    between atoms: O_6  and  C_7 
REMARK    5  A    between atoms: C_10  and  C_11 
REMARK    6  A    between atoms: C_11  and  N_12 
REMARK    7  A    between atoms: N_12  and  C_13 
REMARK    8  A    between atoms: C_20  and  C_21 
REMARK       I    between atoms: C_21  and  N_22 
ROOT
HETATM    1  C   UNL     1      -9.337   1.297 -32.585  1.00  0.00     0.009 A 
HETATM    2  C   UNL     1     -10.620   0.776 -32.838  1.00  0.00     0.039 A 
HETATM    3  C   UNL     1     -11.416   1.302 -33.877  1.00  0.00     0.030 A 
HETATM    4  C   UNL     1     -10.923   2.366 -34.619  1.00  0.00     0.063 A 
HETATM    5  N   UNL     1     -11.902   2.658 -35.526  1.00  0.00    -0.277 N 
HETATM    6  H   UNL     1     -11.887   3.388 -36.230  1.00  0.00     0.189 HD
HETATM    7  N   UNL     1     -12.990   1.875 -35.445  1.00  0.00    -0.168 NA
HETATM    8  C   UNL     1     -12.704   1.032 -34.426  1.00  0.00     0.156 A 
HETATM    9  C   UNL     1      -9.676   2.943 -34.378  1.00  0.00     0.034 A 
HETATM   10  C   UNL     1      -8.908   2.395 -33.341  1.00  0.00     0.026 A 
ENDROOT
BRANCH   1  11
HETATM   11  N   UNL     1      -8.620   0.784 -31.498  1.00  0.00    -0.289 NA
HETATM   12  H   UNL     1      -8.680  -0.232 -31.443  1.00  0.00     0.128 HD
BRANCH  11  13
HETATM   13  C   UNL     1      -7.279   1.276 -31.222  1.00  0.00     0.131 C 
BRANCH  13  14
HETATM   14  C   UNL     1      -6.261   0.270 -31.709  1.00  0.00    -0.042 A 
HETATM   15  C   UNL     1      -6.511  -0.514 -32.846  1.00  0.00     0.048 A 
HETATM   16  C   UNL     1      -5.561  -1.437 -33.303  1.00  0.00     0.102 A 
HETATM   17  C   UNL     1      -4.339  -1.577 -32.617  1.00  0.00     0.102 A 
HETATM   18  C   UNL     1      -4.099  -0.813 -31.471  1.00  0.00     0.040 A 
HETATM   19  C   UNL     1      -5.053   0.102 -31.021  1.00  0.00     0.011 A 
BRANCH  16  20
HETATM   20  O   UNL     1      -5.722  -2.230 -34.412  1.00  0.00    -0.349 OA
BRANCH  20  21
HETATM   21  C   UNL     1      -6.928  -2.978 -34.531  1.00  0.00     0.171 C 
HETATM   22  C   UNL     1      -6.601  -4.287 -35.225  1.00  0.00     0.034 C 
ENDBRANCH  20  21
ENDBRANCH  16  20
BRANCH  17  23
HETATM   23  O   UNL     1      -3.456  -2.493 -33.135  1.00  0.00    -0.349 OA
BRANCH  23  24
HETATM   24  C   UNL     1      -3.265  -3.708 -32.417  1.00  0.00     0.171 C 
HETATM   25  C   UNL     1      -3.504  -4.860 -33.376  1.00  0.00     0.034 C 
ENDBRANCH  23  24
ENDBRANCH  17  23
ENDBRANCH  13  14
ENDBRANCH  11  13
ENDBRANCH   1  11
BRANCH   8  26
HETATM   26  C   UNL     1     -13.654  -0.005 -34.002  1.00  0.00     0.270 C 
HETATM   27  N   UNL     1     -14.948   0.236 -34.376  1.00  0.00    -0.365 N 
HETATM   28  H   UNL     1     -15.152   1.082 -34.897  1.00  0.00     0.159 HD
HETATM   29  H   UNL     1     -15.673  -0.419 -34.130  1.00  0.00     0.159 HD
HETATM   30  O   UNL     1     -13.351  -1.013 -33.371  1.00  0.00    -0.266 OA
ENDBRANCH   8  26
TORSDOF 8
ENDMDL
MODEL 2
REMARK VINA RESULT:      -7.8      5.130      8.252
REMARK  8 active torsions:
REMARK  status: ('A' for Active; 'I' for Inactive)
REMARK    1  A    between atoms: C_2  and  O_3 
REMARK    2  A    between atoms: O_3  and  C_4 
REMARK    3  A    between atoms: C_5  and  O_6 
REMARK    4  A    between atoms: O_6  and  C_7 
REMARK    5  A    between atoms: C_10  and  C_11 
REMARK    6  A    between atoms: C_11  and  N_12 
REMARK    7  A    between atoms: N_12  and  C_13 
REMARK    8  A    between atoms: C_20  and  C_21 
REMARK       I    between atoms: C_21  and  N_22 
ROOT
HETATM    1  C   UNL     1      -6.377   1.036 -33.416  1.00  0.00     0.009 A 
HETATM    2  C   UNL     1      -5.353   0.255 -32.848  1.00  0.00     0.039 A 
HETATM    3  C   UNL     1      -5.049  -1.019 -33.370  1.00  0.00     0.030 A 
HETATM    4  C   UNL     1      -5.804  -1.501 -34.431  1.00  0.00     0.063 A 
HETATM    5  N   UNL     1      -5.293  -2.738 -34.706  1.00  0.00    -0.277 N 
HETATM    6  H   UNL     1      -5.606  -3.385 -35.421  1.00  0.00     0.189 HD
HETATM    7  N   UNL     1      -4.267  -3.105 -33.921  1.00  0.00    -0.168 NA
HETATM    8  C   UNL     1      -4.107  -2.052 -33.087  1.00  0.00     0.156 A 
HETATM    9  C   UNL     1      -6.855  -0.782 -35.000  1.00  0.00     0.034 A 
HETATM   10  C   UNL     1      -7.130   0.483 -34.460  1.00  0.00     0.026 A 
ENDROOT
BRANCH   1  11
HETATM   11  N   UNL     1      -6.682   2.262 -32.814  1.00  0.00    -0.289 NA
HETATM   12  H   UNL     1      -7.679   2.362 -32.629  1.00  0.00     0.128 HD
BRANCH  11  13
HETATM   13  C   UNL     1      -5.862   2.750 -31.715  1.00  0.00     0.131 C 
BRANCH  13  14
HETATM   14  C   UNL     1      -4.751   3.617 -32.260  1.00  0.00    -0.042 A 
HETATM   15  C   UNL     1      -3.455   3.546 -31.726  1.00  0.00     0.048 A 
HETATM   16  C   UNL     1      -2.423   4.342 -32.241  1.00  0.00     0.102 A 
HETATM   17  C   UNL     1      -2.687   5.221 -33.309  1.00  0.00     0.102 A 
HETATM   18  C   UNL     1      -3.983   5.310 -33.826  1.00  0.00     0.040 A 
HETATM   19  C   UNL     1      -5.006   4.515 -33.304  1.00  0.00     0.011 A 
BRANCH  16  20
HETATM   20  O   UNL     1      -1.127   4.322 -31.785  1.00  0.00    -0.349 OA
BRANCH  20  21
HETATM   21  C   UNL     1      -0.816   5.081 -30.622  1.00  0.00     0.171 C 
HETATM   22  C   UNL     1       0.565   5.682 -30.811  1.00  0.00     0.034 C 
ENDBRANCH  20  21
ENDBRANCH  16  20
BRANCH  17  23
HETATM   23  O   UNL     1      -1.620   5.957 -33.765  1.00  0.00    -0.349 OA
BRANCH  23  24
HETATM   24  C   UNL     1      -1.802   7.362 -33.916  1.00  0.00     0.171 C 
HETATM   25  C   UNL     1      -1.810   7.983 -32.531  1.00  0.00     0.034 C 
ENDBRANCH  23  24
ENDBRANCH  17  23
ENDBRANCH  13  14
ENDBRANCH  11  13
ENDBRANCH   1  11
BRANCH   8  26
HETATM   26  C   UNL     1      -3.067  -2.049 -32.049  1.00  0.00     0.270 C 
HETATM   27  N   UNL     1      -2.807  -3.282 -31.516  1.00  0.00    -0.365 N 
HETATM   28  H   UNL     1      -3.331  -4.079 -31.860  1.00  0.00     0.159 HD
HETATM   29  H   UNL     1      -2.110  -3.381 -30.796  1.00  0.00     0.159 HD
HETATM   30  O   UNL     1      -2.462  -1.051 -31.670  1.00  0.00    -0.266 OA
ENDBRANCH   8  26
TORSDOF 8
ENDMDL
MODEL 3
REMARK VINA RESULT:      -7.7      2.646      3.992
REMARK  8 active torsions:
REMARK  status: ('A' for Active; 'I' for Inactive)
REMARK    1  A    between atoms: C_2  and  O_3 
REMARK    2  A    between atoms: O_3  and  C_4 
REMARK    3  A    between atoms: C_5  and  O_6 
REMARK    4  A    between atoms: O_6  and  C_7 
REMARK    5  A    between atoms: C_10  and  C_11 
REMARK    6  A    between atoms: C_11  and  N_12 
REMARK    7  A    between atoms: N_12  and  C_13 
REMARK    8  A    between atoms: C_20  and  C_21 
REMARK       I    between atoms: C_21  and  N_22 
ROOT
HETATM    1  C   UNL     1     -11.202   2.170 -34.346  1.00  0.00     0.009 A 
HETATM    2  C   UNL     1     -11.654   2.893 -33.226  1.00  0.00     0.039 A 
HETATM    3  C   UNL     1     -13.013   2.856 -32.850  1.00  0.00     0.030 A 
HETATM    4  C   UNL     1     -13.899   2.122 -33.627  1.00  0.00     0.063 A 
HETATM    5  N   UNL     1     -15.119   2.281 -33.032  1.00  0.00    -0.277 N 
HETATM    6  H   UNL     1     -16.004   1.888 -33.334  1.00  0.00     0.189 HD
HETATM    7  N   UNL     1     -15.106   3.050 -31.931  1.00  0.00    -0.168 NA
HETATM    8  C   UNL     1     -13.810   3.416 -31.807  1.00  0.00     0.156 A 
HETATM    9  C   UNL     1     -13.506   1.425 -34.769  1.00  0.00     0.034 A 
HETATM   10  C   UNL     1     -12.147   1.479 -35.115  1.00  0.00     0.026 A 
ENDROOT
BRANCH   1  11
HETATM   11  N   UNL     1      -9.858   2.299 -34.715  1.00  0.00    -0.289 NA
HETATM   12  H   UNL     1      -9.722   3.016 -35.426  1.00  0.00     0.128 HD
BRANCH  11  13
HETATM   13  C   UNL     1      -8.829   2.335 -33.687  1.00  0.00     0.131 C 
BRANCH  13  14
HETATM   14  C   UNL     1      -7.968   1.097 -33.790  1.00  0.00    -0.042 A 
HETATM   15  C   UNL     1      -7.147   0.700 -32.723  1.00  0.00     0.048 A 
HETATM   16  C   UNL     1      -6.360  -0.455 -32.816  1.00  0.00     0.102 A 
HETATM   17  C   UNL     1      -6.394  -1.229 -33.992  1.00  0.00     0.102 A 
HETATM   18  C   UNL     1      -7.192  -0.821 -35.065  1.00  0.00     0.040 A 
HETATM   19  C   UNL     1      -7.971   0.334 -34.964  1.00  0.00     0.011 A 
BRANCH  16  20
HETATM   20  O   UNL     1      -5.543  -0.919 -31.814  1.00  0.00    -0.349 OA
BRANCH  20  21
HETATM   21  C   UNL     1      -4.537  -0.046 -31.313  1.00  0.00     0.171 C 
HETATM   22  C   UNL     1      -3.185  -0.623 -31.693  1.00  0.00     0.034 C 
ENDBRANCH  20  21
ENDBRANCH  16  20
BRANCH  17  23
HETATM   23  O   UNL     1      -5.603  -2.353 -33.999  1.00  0.00    -0.349 OA
BRANCH  23  24
HETATM   24  C   UNL     1      -5.590  -3.145 -35.183  1.00  0.00     0.171 C 
HETATM   25  C   UNL     1      -6.227  -4.484 -34.856  1.00  0.00     0.034 C 
ENDBRANCH  23  24
ENDBRANCH  17  23
ENDBRANCH  13  14
ENDBRANCH  11  13
ENDBRANCH   1  11
BRANCH   8  26
HETATM   26  C   UNL     1     -13.360   4.280 -30.708  1.00  0.00     0.270 C 
HETATM   27  N   UNL     1     -12.476   3.681 -29.852  1.00  0.00    -0.365 N 
HETATM   28  H   UNL     1     -12.205   2.720 -30.030  1.00  0.00     0.159 HD
HETATM   29  H   UNL     1     -12.112   4.194 -29.066  1.00  0.00     0.159 HD
HETATM   30  O   UNL     1     -13.721   5.441 -30.541  1.00  0.00    -0.266 OA
ENDBRANCH   8  26
TORSDOF 8
ENDMDL
MODEL 4
REMARK VINA RESULT:      -7.6      4.179      7.565
REMARK  8 active torsions:
REMARK  status: ('A' for Active; 'I' for Inactive)
REMARK    1  A    between atoms: C_2  and  O_3 
REMARK    2  A    between atoms: O_3  and  C_4 
REMARK    3  A    between atoms: C_5  and  O_6 
REMARK    4  A    between atoms: O_6  and  C_7 
REMARK    5  A    between atoms: C_10  and  C_11 
REMARK    6  A    between atoms: C_11  and  N_12 
REMARK    7  A    between atoms: N_12  and  C_13 
REMARK    8  A    between atoms: C_20  and  C_21 
REMARK       I    between atoms: C_21  and  N_22 
ROOT
HETATM    1  C   UNL     1      -7.282   0.248 -32.077  1.00  0.00     0.009 A 
HETATM    2  C   UNL     1      -5.999  -0.293 -31.871  1.00  0.00     0.039 A 
HETATM    3  C   UNL     1      -5.444  -1.197 -32.802  1.00  0.00     0.030 A 
HETATM    4  C   UNL     1      -6.204  -1.568 -33.903  1.00  0.00     0.063 A 
HETATM    5  N   UNL     1      -5.422  -2.442 -34.603  1.00  0.00    -0.277 N 
HETATM    6  H   UNL     1      -5.658  -2.921 -35.465  1.00  0.00     0.189 HD
HETATM    7  N   UNL     1      -4.215  -2.672 -34.058  1.00  0.00    -0.168 NA
HETATM    8  C   UNL     1      -4.217  -1.909 -32.941  1.00  0.00     0.156 A 
HETATM    9  C   UNL     1      -7.495  -1.091 -34.127  1.00  0.00     0.034 A 
HETATM   10  C   UNL     1      -8.017  -0.191 -33.186  1.00  0.00     0.026 A 
ENDROOT
BRANCH   1  11
HETATM   11  N   UNL     1      -7.811   1.085 -31.087  1.00  0.00    -0.289 NA
HETATM   12  H   UNL     1      -7.198   1.153 -30.275  1.00  0.00     0.128 HD
BRANCH  11  13
HETATM   13  C   UNL     1      -8.383   2.370 -31.459  1.00  0.00     0.131 C 
BRANCH  13  14
HETATM   14  C   UNL     1      -7.316   3.236 -32.088  1.00  0.00    -0.042 A 
HETATM   15  C   UNL     1      -6.157   3.581 -31.376  1.00  0.00     0.048 A 
HETATM   16  C   UNL     1      -5.163   4.373 -31.965  1.00  0.00     0.102 A 
HETATM   17  C   UNL     1      -5.327   4.827 -33.289  1.00  0.00     0.102 A 
HETATM   18  C   UNL     1      -6.492   4.503 -33.991  1.00  0.00     0.040 A 
HETATM   19  C   UNL     1      -7.478   3.715 -33.394  1.00  0.00     0.011 A 
BRANCH  16  20
HETATM   20  O   UNL     1      -3.996   4.743 -31.343  1.00  0.00    -0.349 OA
BRANCH  20  21
HETATM   21  C   UNL     1      -2.888   3.851 -31.414  1.00  0.00     0.171 C 
HETATM   22  C   UNL     1      -1.617   4.682 -31.414  1.00  0.00     0.034 C 
ENDBRANCH  20  21
ENDBRANCH  16  20
BRANCH  17  23
HETATM   23  O   UNL     1      -4.302   5.588 -33.798  1.00  0.00    -0.349 OA
BRANCH  23  24
HETATM   24  C   UNL     1      -3.782   5.227 -35.074  1.00  0.00     0.171 C 
HETATM   25  C   UNL     1      -2.268   5.176 -34.964  1.00  0.00     0.034 C 
ENDBRANCH  23  24
ENDBRANCH  17  23
ENDBRANCH  13  14
ENDBRANCH  11  13
ENDBRANCH   1  11
BRANCH   8  26
HETATM   26  C   UNL     1      -3.058  -1.873 -32.039  1.00  0.00     0.270 C 
HETATM   27  N   UNL     1      -2.723  -3.090 -31.510  1.00  0.00    -0.365 N 
HETATM   28  H   UNL     1      -3.278  -3.899 -31.768  1.00  0.00     0.159 HD
HETATM   29  H   UNL     1      -1.942  -3.166 -30.879  1.00  0.00     0.159 HD
HETATM   30  O   UNL     1      -2.421  -0.862 -31.761  1.00  0.00    -0.266 OA
ENDBRANCH   8  26
TORSDOF 8
ENDMDL
MODEL 5
REMARK VINA RESULT:      -7.6      4.568      7.312
REMARK  8 active torsions:
REMARK  status: ('A' for Active; 'I' for Inactive)
REMARK    1  A    between atoms: C_2  and  O_3 
REMARK    2  A    between atoms: O_3  and  C_4 
REMARK    3  A    between atoms: C_5  and  O_6 
REMARK    4  A    between atoms: O_6  and  C_7 
REMARK    5  A    between atoms: C_10  and  C_11 
REMARK    6  A    between atoms: C_11  and  N_12 
REMARK    7  A    between atoms: N_12  and  C_13 
REMARK    8  A    between atoms: C_20  and  C_21 
REMARK       I    between atoms: C_21  and  N_22 
ROOT
HETATM    1  C   UNL     1      -5.432   3.799 -32.371  1.00  0.00     0.009 A 
HETATM    2  C   UNL     1      -4.111   4.150 -32.035  1.00  0.00     0.039 A 
HETATM    3  C   UNL     1      -3.274   4.779 -32.981  1.00  0.00     0.030 A 
HETATM    4  C   UNL     1      -3.768   5.011 -34.257  1.00  0.00     0.063 A 
HETATM    5  N   UNL     1      -2.746   5.611 -34.937  1.00  0.00    -0.277 N 
HETATM    6  H   UNL     1      -2.750   5.917 -35.904  1.00  0.00     0.189 HD
HETATM    7  N   UNL     1      -1.629   5.796 -34.215  1.00  0.00    -0.168 NA
HETATM    8  C   UNL     1      -1.940   5.283 -33.002  1.00  0.00     0.156 A 
HETATM    9  C   UNL     1      -5.055   4.642 -34.649  1.00  0.00     0.034 A 
HETATM   10  C   UNL     1      -5.864   4.022 -33.685  1.00  0.00     0.026 A 
ENDROOT
BRANCH   1  11
HETATM   11  N   UNL     1      -6.195   3.114 -31.417  1.00  0.00    -0.289 NA
HETATM   12  H   UNL     1      -7.176   3.048 -31.686  1.00  0.00     0.128 HD
BRANCH  11  13
HETATM   13  C   UNL     1      -5.691   1.875 -30.845  1.00  0.00     0.131 C 
BRANCH  13  14
HETATM   14  C   UNL     1      -5.740   0.781 -31.887  1.00  0.00    -0.042 A 
HETATM   15  C   UNL     1      -4.636  -0.057 -32.103  1.00  0.00     0.048 A 
HETATM   16  C   UNL     1      -4.689  -1.080 -33.060  1.00  0.00     0.102 A 
HETATM   17  C   UNL     1      -5.864  -1.271 -33.812  1.00  0.00     0.102 A 
HETATM   18  C   UNL     1      -6.956  -0.421 -33.614  1.00  0.00     0.040 A 
HETATM   19  C   UNL     1      -6.893   0.597 -32.660  1.00  0.00     0.011 A 
BRANCH  16  20
HETATM   20  O   UNL     1      -3.659  -1.950 -33.322  1.00  0.00    -0.349 OA
BRANCH  20  21
HETATM   21  C   UNL     1      -3.361  -2.947 -32.350  1.00  0.00     0.171 C 
HETATM   22  C   UNL     1      -3.431  -4.301 -33.031  1.00  0.00     0.034 C 
ENDBRANCH  20  21
ENDBRANCH  16  20
BRANCH  17  23
HETATM   23  O   UNL     1      -5.840  -2.301 -34.721  1.00  0.00    -0.349 OA
BRANCH  23  24
HETATM   24  C   UNL     1      -6.849  -3.301 -34.614  1.00  0.00     0.171 C 
HETATM   25  C   UNL     1      -6.380  -4.522 -35.383  1.00  0.00     0.034 C 
ENDBRANCH  23  24
ENDBRANCH  17  23
ENDBRANCH  13  14
ENDBRANCH  11  13
ENDBRANCH   1  11
BRANCH   8  26
HETATM   26  C   UNL     1      -0.971   5.287 -31.899  1.00  0.00     0.270 C 
HETATM   27  N   UNL     1      -0.282   6.462 -31.764  1.00  0.00    -0.365 N 
HETATM   28  H   UNL     1      -0.480   7.217 -32.411  1.00  0.00     0.159 HD
HETATM   29  H   UNL     1       0.407   6.559 -31.036  1.00  0.00     0.159 HD
HETATM   30  O   UNL     1      -0.770   4.341 -31.143  1.00  0.00    -0.266 OA
ENDBRANCH   8  26
TORSDOF 8
ENDMDL
MODEL 6
REMARK VINA RESULT:      -7.6      4.605      7.189
REMARK  8 active torsions:
REMARK  status: ('A' for Active; 'I' for Inactive)
REMARK    1  A    between atoms: C_2  and  O_3 
REMARK    2  A    between atoms: O_3  and  C_4 
REMARK    3  A    between atoms: C_5  and  O_6 
REMARK    4  A    between atoms: O_6  and  C_7 
REMARK    5  A    between atoms: C_10  and  C_11 
REMARK    6  A    between atoms: C_11  and  N_12 
REMARK    7  A    between atoms: N_12  and  C_13 
REMARK    8  A    between atoms: C_20  and  C_21 
REMARK       I    between atoms: C_21  and  N_22 
ROOT
HETATM    1  C   UNL     1      -3.489   2.615 -31.335  1.00  0.00     0.009 A 
HETATM    2  C   UNL     1      -2.864   3.496 -32.237  1.00  0.00     0.039 A 
HETATM    3  C   UNL     1      -3.374   4.796 -32.439  1.00  0.00     0.030 A 
HETATM    4  C   UNL     1      -4.523   5.173 -31.757  1.00  0.00     0.063 A 
HETATM    5  N   UNL     1      -4.776   6.455 -32.156  1.00  0.00    -0.277 N 
HETATM    6  H   UNL     1      -5.544   7.048 -31.863  1.00  0.00     0.189 HD
HETATM    7  N   UNL     1      -3.889   6.951 -33.036  1.00  0.00    -0.168 NA
HETATM    8  C   UNL     1      -3.017   5.933 -33.222  1.00  0.00     0.156 A 
HETATM    9  C   UNL     1      -5.200   4.321 -30.886  1.00  0.00     0.034 A 
HETATM   10  C   UNL     1      -4.666   3.036 -30.704  1.00  0.00     0.026 A 
ENDROOT
BRANCH   1  11
HETATM   11  N   UNL     1      -2.981   1.314 -31.226  1.00  0.00    -0.289 NA
HETATM   12  H   UNL     1      -2.070   1.295 -30.770  1.00  0.00     0.128 HD
BRANCH  11  13
HETATM   13  C   UNL     1      -3.849   0.237 -30.776  1.00  0.00     0.131 C 
BRANCH  13  14
HETATM   14  C   UNL     1      -4.166  -0.675 -31.939  1.00  0.00    -0.042 A 
HETATM   15  C   UNL     1      -5.064  -0.278 -32.942  1.00  0.00     0.048 A 
HETATM   16  C   UNL     1      -5.346  -1.121 -34.026  1.00  0.00     0.102 A 
HETATM   17  C   UNL     1      -4.720  -2.380 -34.112  1.00  0.00     0.102 A 
HETATM   18  C   UNL     1      -3.844  -2.786 -33.100  1.00  0.00     0.040 A 
HETATM   19  C   UNL     1      -3.571  -1.940 -32.023  1.00  0.00     0.011 A 
BRANCH  16  20
HETATM   20  O   UNL     1      -6.199  -0.802 -35.054  1.00  0.00    -0.349 OA
BRANCH  20  21
HETATM   21  C   UNL     1      -6.842   0.468 -35.021  1.00  0.00     0.171 C 
HETATM   22  C   UNL     1      -8.322   0.236 -34.772  1.00  0.00     0.034 C 
ENDBRANCH  20  21
ENDBRANCH  16  20
BRANCH  17  23
HETATM   23  O   UNL     1      -5.040  -3.140 -35.210  1.00  0.00    -0.349 OA
BRANCH  23  24
HETATM   24  C   UNL     1      -5.465  -4.481 -34.985  1.00  0.00     0.171 C 
HETATM   25  C   UNL     1      -6.953  -4.555 -35.280  1.00  0.00     0.034 C 
ENDBRANCH  23  24
ENDBRANCH  17  23
ENDBRANCH  13  14
ENDBRANCH  11  13
ENDBRANCH   1  11
BRANCH   8  26
HETATM   26  C   UNL     1      -1.871   6.065 -34.131  1.00  0.00     0.270 C 
HETATM   27  N   UNL     1      -1.742   5.033 -35.021  1.00  0.00    -0.365 N 
HETATM   28  H   UNL     1      -2.419   4.279 -34.990  1.00  0.00     0.159 HD
HETATM   29  H   UNL     1      -0.985   5.035 -35.685  1.00  0.00     0.159 HD
HETATM   30  O   UNL     1      -1.080   7.003 -34.125  1.00  0.00    -0.266 OA
ENDBRANCH   8  26
TORSDOF 8
ENDMDL
MODEL 7
REMARK VINA RESULT:      -7.6      4.808      7.554
REMARK  8 active torsions:
REMARK  status: ('A' for Active; 'I' for Inactive)
REMARK    1  A    between atoms: C_2  and  O_3 
REMARK    2  A    between atoms: O_3  and  C_4 
REMARK    3  A    between atoms: C_5  and  O_6 
REMARK    4  A    between atoms: O_6  and  C_7 
REMARK    5  A    between atoms: C_10  and  C_11 
REMARK    6  A    between atoms: C_11  and  N_12 
REMARK    7  A    between atoms: N_12  and  C_13 
REMARK    8  A    between atoms: C_20  and  C_21 
REMARK       I    between atoms: C_21  and  N_22 
ROOT
HETATM    1  C   UNL     1      -5.097   3.901 -32.154  1.00  0.00     0.009 A 
HETATM    2  C   UNL     1      -3.772   4.336 -31.959  1.00  0.00     0.039 A 
HETATM    3  C   UNL     1      -3.067   4.975 -33.000  1.00  0.00     0.030 A 
HETATM    4  C   UNL     1      -3.692   5.133 -34.229  1.00  0.00     0.063 A 
HETATM    5  N   UNL     1      -2.776   5.763 -35.023  1.00  0.00    -0.277 N 
HETATM    6  H   UNL     1      -2.889   6.033 -35.993  1.00  0.00     0.189 HD
HETATM    7  N   UNL     1      -1.608   6.035 -34.418  1.00  0.00    -0.168 NA
HETATM    8  C   UNL     1      -1.772   5.550 -33.166  1.00  0.00     0.156 A 
HETATM    9  C   UNL     1      -4.987   4.681 -34.482  1.00  0.00     0.034 A 
HETATM   10  C   UNL     1      -5.664   4.053 -33.426  1.00  0.00     0.026 A 
ENDROOT
BRANCH   1  11
HETATM   11  N   UNL     1      -5.725   3.211 -31.110  1.00  0.00    -0.289 NA
HETATM   12  H   UNL     1      -6.737   3.185 -31.222  1.00  0.00     0.128 HD
BRANCH  11  13
HETATM   13  C   UNL     1      -5.184   1.938 -30.659  1.00  0.00     0.131 C 
BRANCH  13  14
HETATM   14  C   UNL     1      -5.634   0.838 -31.592  1.00  0.00    -0.042 A 
HETATM   15  C   UNL     1      -6.971   0.747 -32.006  1.00  0.00     0.048 A 
HETATM   16  C   UNL     1      -7.383  -0.267 -32.881  1.00  0.00     0.102 A 
HETATM   17  C   UNL     1      -6.444  -1.204 -33.354  1.00  0.00     0.102 A 
HETATM   18  C   UNL     1      -5.116  -1.128 -32.924  1.00  0.00     0.040 A 
HETATM   19  C   UNL     1      -4.715  -0.116 -32.048  1.00  0.00     0.011 A 
BRANCH  16  20
HETATM   20  O   UNL     1      -8.667  -0.417 -33.345  1.00  0.00    -0.349 OA
BRANCH  20  21
HETATM   21  C   UNL     1      -9.281   0.695 -33.988  1.00  0.00     0.171 C 
HETATM   22  C   UNL     1     -10.693   0.828 -33.449  1.00  0.00     0.034 C 
ENDBRANCH  20  21
ENDBRANCH  16  20
BRANCH  17  23
HETATM   23  O   UNL     1      -6.924  -2.158 -34.218  1.00  0.00    -0.349 OA
BRANCH  23  24
HETATM   24  C   UNL     1      -5.976  -3.005 -34.862  1.00  0.00     0.171 C 
HETATM   25  C   UNL     1      -6.643  -4.345 -35.114  1.00  0.00     0.034 C 
ENDBRANCH  23  24
ENDBRANCH  17  23
ENDBRANCH  13  14
ENDBRANCH  11  13
ENDBRANCH   1  11
BRANCH   8  26
HETATM   26  C   UNL     1      -0.704   5.646 -32.162  1.00  0.00     0.270 C 
HETATM   27  N   UNL     1      -0.268   6.923 -31.931  1.00  0.00    -0.365 N 
HETATM   28  H   UNL     1      -0.695   7.682 -32.450  1.00  0.00     0.159 HD
HETATM   29  H   UNL     1       0.464   7.089 -31.259  1.00  0.00     0.159 HD
HETATM   30  O   UNL     1      -0.223   4.691 -31.561  1.00  0.00    -0.266 OA
ENDBRANCH   8  26
TORSDOF 8
ENDMDL
MODEL 8
REMARK VINA RESULT:      -7.6      5.471      8.562
REMARK  8 active torsions:
REMARK  status: ('A' for Active; 'I' for Inactive)
REMARK    1  A    between atoms: C_2  and  O_3 
REMARK    2  A    between atoms: O_3  and  C_4 
REMARK    3  A    between atoms: C_5  and  O_6 
REMARK    4  A    between atoms: O_6  and  C_7 
REMARK    5  A    between atoms: C_10  and  C_11 
REMARK    6  A    between atoms: C_11  and  N_12 
REMARK    7  A    between atoms: N_12  and  C_13 
REMARK    8  A    between atoms: C_20  and  C_21 
REMARK       I    between atoms: C_21  and  N_22 
ROOT
HETATM    1  C   UNL     1      -3.492   4.021 -32.647  1.00  0.00     0.009 A 
HETATM    2  C   UNL     1      -2.425   4.165 -31.740  1.00  0.00     0.039 A 
HETATM    3  C   UNL     1      -1.543   5.261 -31.841  1.00  0.00     0.030 A 
HETATM    4  C   UNL     1      -1.727   6.172 -32.872  1.00  0.00     0.063 A 
HETATM    5  N   UNL     1      -0.734   7.098 -32.719  1.00  0.00    -0.277 N 
HETATM    6  H   UNL     1      -0.558   7.909 -33.301  1.00  0.00     0.189 HD
HETATM    7  N   UNL     1       0.081   6.873 -31.675  1.00  0.00    -0.168 NA
HETATM    8  C   UNL     1      -0.406   5.738 -31.124  1.00  0.00     0.156 A 
HETATM    9  C   UNL     1      -2.745   6.048 -33.818  1.00  0.00     0.034 A 
HETATM   10  C   UNL     1      -3.607   4.950 -33.689  1.00  0.00     0.026 A 
ENDROOT
BRANCH   1  11
HETATM   11  N   UNL     1      -4.295   2.878 -32.543  1.00  0.00    -0.289 NA
HETATM   12  H   UNL     1      -4.432   2.592 -31.575  1.00  0.00     0.128 HD
BRANCH  11  13
HETATM   13  C   UNL     1      -5.516   2.781 -33.329  1.00  0.00     0.131 C 
BRANCH  13  14
HETATM   14  C   UNL     1      -5.811   1.329 -33.626  1.00  0.00    -0.042 A 
HETATM   15  C   UNL     1      -5.166   0.303 -32.919  1.00  0.00     0.048 A 
HETATM   16  C   UNL     1      -5.451  -1.042 -33.188  1.00  0.00     0.102 A 
HETATM   17  C   UNL     1      -6.398  -1.370 -34.178  1.00  0.00     0.102 A 
HETATM   18  C   UNL     1      -7.024  -0.349 -34.900  1.00  0.00     0.040 A 
HETATM   19  C   UNL     1      -6.731   0.989 -34.626  1.00  0.00     0.011 A 
BRANCH  16  20
HETATM   20  O   UNL     1      -4.876  -2.103 -32.533  1.00  0.00    -0.349 OA
BRANCH  20  21
HETATM   21  C   UNL     1      -3.471  -2.065 -32.302  1.00  0.00     0.171 C 
HETATM   22  C   UNL     1      -3.022  -3.463 -31.917  1.00  0.00     0.034 C 
ENDBRANCH  20  21
ENDBRANCH  16  20
BRANCH  17  23
HETATM   23  O   UNL     1      -6.630  -2.710 -34.373  1.00  0.00    -0.349 OA
BRANCH  23  24
HETATM   24  C   UNL     1      -5.767  -3.407 -35.266  1.00  0.00     0.171 C 
HETATM   25  C   UNL     1      -5.772  -4.873 -34.872  1.00  0.00     0.034 C 
ENDBRANCH  23  24
ENDBRANCH  17  23
ENDBRANCH  13  14
ENDBRANCH  11  13
ENDBRANCH   1  11
BRANCH   8  26
HETATM   26  C   UNL     1       0.214   5.138 -29.935  1.00  0.00     0.270 C 
HETATM   27  N   UNL     1      -0.201   5.686 -28.752  1.00  0.00    -0.365 N 
HETATM   28  H   UNL     1      -0.879   6.440 -28.778  1.00  0.00     0.159 HD
HETATM   29  H   UNL     1       0.170   5.341 -27.881  1.00  0.00     0.159 HD
HETATM   30  O   UNL     1       1.033   4.224 -29.961  1.00  0.00    -0.266 OA
ENDBRANCH   8  26
TORSDOF 8
ENDMDL
MODEL 9
REMARK VINA RESULT:      -7.5      3.010      8.319
REMARK  8 active torsions:
REMARK  status: ('A' for Active; 'I' for Inactive)
REMARK    1  A    between atoms: C_2  and  O_3 
REMARK    2  A    between atoms: O_3  and  C_4 
REMARK    3  A    between atoms: C_5  and  O_6 
REMARK    4  A    between atoms: O_6  and  C_7 
REMARK    5  A    between atoms: C_10  and  C_11 
REMARK    6  A    between atoms: C_11  and  N_12 
REMARK    7  A    between atoms: N_12  and  C_13 
REMARK    8  A    between atoms: C_20  and  C_21 
REMARK       I    between atoms: C_21  and  N_22 
ROOT
HETATM    1  C   UNL     1      -6.268   0.637 -33.797  1.00  0.00     0.009 A 
HETATM    2  C   UNL     1      -5.256  -0.074 -33.125  1.00  0.00     0.039 A 
HETATM    3  C   UNL     1      -4.939  -1.396 -33.501  1.00  0.00     0.030 A 
HETATM    4  C   UNL     1      -5.668  -1.991 -34.520  1.00  0.00     0.063 A 
HETATM    5  N   UNL     1      -5.150  -3.249 -34.649  1.00  0.00    -0.277 N 
HETATM    6  H   UNL     1      -5.445  -3.970 -35.298  1.00  0.00     0.189 HD
HETATM    7  N   UNL     1      -4.141  -3.525 -33.806  1.00  0.00    -0.168 NA
HETATM    8  C   UNL     1      -4.002  -2.388 -33.087  1.00  0.00     0.156 A 
HETATM    9  C   UNL     1      -6.707  -1.342 -35.187  1.00  0.00     0.034 A 
HETATM   10  C   UNL     1      -6.996  -0.027 -34.792  1.00  0.00     0.026 A 
ENDROOT
BRANCH   1  11
HETATM   11  N   UNL     1      -6.589   1.921 -33.337  1.00  0.00    -0.289 NA
HETATM   12  H   UNL     1      -6.646   2.597 -34.097  1.00  0.00     0.128 HD
BRANCH  11  13
HETATM   13  C   UNL     1      -7.653   2.092 -32.361  1.00  0.00     0.131 C 
BRANCH  13  14
HETATM   14  C   UNL     1      -8.994   1.949 -33.043  1.00  0.00    -0.042 A 
HETATM   15  C   UNL     1      -9.440   2.912 -33.962  1.00  0.00     0.048 A 
HETATM   16  C   UNL     1     -10.678   2.771 -34.603  1.00  0.00     0.102 A 
HETATM   17  C   UNL     1     -11.483   1.649 -34.326  1.00  0.00     0.102 A 
HETATM   18  C   UNL     1     -11.050   0.701 -33.394  1.00  0.00     0.040 A 
HETATM   19  C   UNL     1      -9.816   0.852 -32.757  1.00  0.00     0.011 A 
BRANCH  16  20
HETATM   20  O   UNL     1     -11.180   3.659 -35.523  1.00  0.00    -0.349 OA
BRANCH  20  21
HETATM   21  C   UNL     1     -11.558   4.953 -35.066  1.00  0.00     0.171 C 
HETATM   22  C   UNL     1     -12.919   5.278 -35.656  1.00  0.00     0.034 C 
ENDBRANCH  20  21
ENDBRANCH  16  20
BRANCH  17  23
HETATM   23  O   UNL     1     -12.675   1.578 -35.005  1.00  0.00    -0.349 OA
BRANCH  23  24
HETATM   24  C   UNL     1     -13.868   1.855 -34.277  1.00  0.00     0.171 C 
HETATM   25  C   UNL     1     -14.710   0.592 -34.261  1.00  0.00     0.034 C 
ENDBRANCH  23  24
ENDBRANCH  17  23
ENDBRANCH  13  14
ENDBRANCH  11  13
ENDBRANCH   1  11
BRANCH   8  26
HETATM   26  C   UNL     1      -2.986  -2.270 -32.032  1.00  0.00     0.270 C 
HETATM   27  N   UNL     1      -2.681  -3.453 -31.415  1.00  0.00    -0.365 N 
HETATM   28  H   UNL     1      -3.160  -4.294 -31.717  1.00  0.00     0.159 HD
HETATM   29  H   UNL     1      -1.996  -3.472 -30.677  1.00  0.00     0.159 HD
HETATM   30  O   UNL     1      -2.436  -1.222 -31.707  1.00  0.00    -0.266 OA
ENDBRANCH   8  26
TORSDOF 8
ENDMDL
MODEL 10
REMARK VINA RESULT:      -7.5      4.095      6.380
REMARK  8 active torsions:
REMARK  status: ('A' for Active; 'I' for Inactive)
REMARK    1  A    between atoms: C_2  and  O_3 
REMARK    2  A    between atoms: O_3  and  C_4 
REMARK    3  A    between atoms: C_5  and  O_6 
REMARK    4  A    between atoms: O_6  and  C_7 
REMARK    5  A    between atoms: C_10  and  C_11 
REMARK    6  A    between atoms: C_11  and  N_12 
REMARK    7  A    between atoms: N_12  and  C_13 
REMARK    8  A    between atoms: C_20  and  C_21 
REMARK       I    between atoms: C_21  and  N_22 
ROOT
HETATM    1  C   UNL     1      -6.361   3.313 -31.970  1.00  0.00     0.009 A 
HETATM    2  C   UNL     1      -5.483   3.809 -32.951  1.00  0.00     0.039 A 
HETATM    3  C   UNL     1      -4.430   4.679 -32.597  1.00  0.00     0.030 A 
HETATM    4  C   UNL     1      -4.302   5.063 -31.270  1.00  0.00     0.063 A 
HETATM    5  N   UNL     1      -3.221   5.899 -31.237  1.00  0.00    -0.277 N 
HETATM    6  H   UNL     1      -2.838   6.374 -30.428  1.00  0.00     0.189 HD
HETATM    7  N   UNL     1      -2.629   6.090 -32.428  1.00  0.00    -0.168 NA
HETATM    8  C   UNL     1      -3.368   5.344 -33.280  1.00  0.00     0.156 A 
HETATM    9  C   UNL     1      -5.173   4.631 -30.270  1.00  0.00     0.034 A 
HETATM   10  C   UNL     1      -6.207   3.764 -30.653  1.00  0.00     0.026 A 
ENDROOT
BRANCH   1  11
HETATM   11  N   UNL     1      -7.429   2.510 -32.387  1.00  0.00    -0.289 NA
HETATM   12  H   UNL     1      -7.483   2.439 -33.403  1.00  0.00     0.128 HD
BRANCH  11  13
HETATM   13  C   UNL     1      -7.672   1.235 -31.730  1.00  0.00     0.131 C 
BRANCH  13  14
HETATM   14  C   UNL     1      -6.614   0.240 -32.148  1.00  0.00    -0.042 A 
HETATM   15  C   UNL     1      -6.805  -0.586 -33.267  1.00  0.00     0.048 A 
HETATM   16  C   UNL     1      -5.816  -1.498 -33.661  1.00  0.00     0.102 A 
HETATM   17  C   UNL     1      -4.616  -1.586 -32.927  1.00  0.00     0.102 A 
HETATM   18  C   UNL     1      -4.436  -0.780 -31.799  1.00  0.00     0.040 A 
HETATM   19  C   UNL     1      -5.428   0.124 -31.413  1.00  0.00     0.011 A 
BRANCH  16  20
HETATM   20  O   UNL     1      -5.918  -2.330 -34.749  1.00  0.00    -0.349 OA
BRANCH  20  21
HETATM   21  C   UNL     1      -6.878  -3.380 -34.700  1.00  0.00     0.171 C 
HETATM   22  C   UNL     1      -6.328  -4.554 -35.490  1.00  0.00     0.034 C 
ENDBRANCH  20  21
ENDBRANCH  16  20
BRANCH  17  23
HETATM   23  O   UNL     1      -3.694  -2.495 -33.385  1.00  0.00    -0.349 OA
BRANCH  23  24
HETATM   24  C   UNL     1      -3.382  -3.601 -32.543  1.00  0.00     0.171 C 
HETATM   25  C   UNL     1      -3.426  -4.860 -33.390  1.00  0.00     0.034 C 
ENDBRANCH  23  24
ENDBRANCH  17  23
ENDBRANCH  13  14
ENDBRANCH  11  13
ENDBRANCH   1  11
BRANCH   8  26
HETATM   26  C   UNL     1      -3.050   5.277 -34.712  1.00  0.00     0.270 C 
HETATM   27  N   UNL     1      -1.718   5.112 -34.981  1.00  0.00    -0.365 N 
HETATM   28  H   UNL     1      -1.071   5.052 -34.203  1.00  0.00     0.159 HD
HETATM   29  H   UNL     1      -1.402   5.057 -35.935  1.00  0.00     0.159 HD
HETATM   30  O   UNL     1      -3.877   5.356 -35.615  1.00  0.00    -0.266 OA
ENDBRANCH   8  26
TORSDOF 8
ENDMDL
