MODEL 1
REMARK VINA RESULT:      -6.3      0.000      0.000
REMARK  8 active torsions:
REMARK  status: ('A' for Active; 'I' for Inactive)
REMARK    1  A    between atoms: C_2  and  N_3 
REMARK    2  A    between atoms: C_2  and  C_17 
REMARK    3  A    between atoms: N_3  and  C_6 
REMARK    4  A    between atoms: C_6  and  C_7 
REMARK    5  A    between atoms: C_7  and  O_8 
REMARK    6  A    between atoms: C_7  and  C_9 
REMARK    7  A    between atoms: C_11  and  O_12 
REMARK    8  A    between atoms: C_17  and  C_18 
ROOT
HETATM    1  N   UNL     1     -10.890   2.220 -32.472  1.00  0.00    -0.068 N 
HETATM    2  H   UNL     1     -10.040   2.260 -31.892  1.00  0.00     0.277 HD
HETATM    3  H   UNL     1     -11.660   2.053 -31.798  1.00  0.00     0.277 HD
ENDROOT
BRANCH   1   4
HETATM    4  C   UNL     1     -11.052   3.521 -33.218  1.00  0.00     0.188 C 
HETATM    5  C   UNL     1     -10.878   3.200 -34.705  1.00  0.00     0.040 C 
BRANCH   4   6
HETATM    6  C   UNL     1     -10.023   4.559 -32.732  1.00  0.00     0.099 C 
BRANCH   6   7
HETATM    7  C   UNL     1      -8.690   3.927 -32.472  1.00  0.00     0.078 A 
HETATM    8  S   UNL     1      -7.444   4.026 -33.643  1.00  0.00    -0.073 SA
HETATM    9  C   UNL     1      -6.408   3.106 -32.619  1.00  0.00     0.035 A 
HETATM   10  C   UNL     1      -7.097   2.785 -31.447  1.00  0.00     0.074 A 
HETATM   11  C   UNL     1      -5.082   2.698 -32.836  1.00  0.00     0.021 A 
HETATM   12  N   UNL     1      -8.403   3.255 -31.382  1.00  0.00    -0.245 NA
HETATM   13  C   UNL     1      -6.437   2.035 -30.454  1.00  0.00     0.033 A 
HETATM   14  C   UNL     1      -5.114   1.625 -30.659  1.00  0.00     0.002 A 
HETATM   15  C   UNL     1      -4.449   1.953 -31.836  1.00  0.00     0.002 A 
ENDBRANCH   6   7
ENDBRANCH   4   6
ENDBRANCH   1   4
BRANCH   1  16
HETATM   16  C   UNL     1     -10.790   0.961 -33.306  1.00  0.00     0.269 C 
BRANCH  16  17
HETATM   17  C   UNL     1      -9.802  -0.004 -32.612  1.00  0.00     0.177 C 
BRANCH  17  18
HETATM   18  O   UNL     1      -9.609   0.488 -31.276  1.00  0.00    -0.389 OA
HETATM   19  H   UNL     1     -10.266   1.205 -31.152  1.00  0.00     0.210 HD
ENDBRANCH  17  18
BRANCH  17  20
HETATM   20  C   UNL     1      -8.484  -0.087 -33.349  1.00  0.00    -0.025 A 
HETATM   21  C   UNL     1      -7.390  -0.722 -32.729  1.00  0.00     0.046 A 
HETATM   22  C   UNL     1      -6.169  -0.856 -33.394  1.00  0.00     0.068 A 
HETATM   23  C   UNL     1      -6.043  -0.369 -34.694  1.00  0.00     0.037 A 
HETATM   24  C   UNL     1      -7.110   0.272 -35.319  1.00  0.00     0.003 A 
HETATM   25  C   UNL     1      -8.324   0.418 -34.650  1.00  0.00     0.010 A 
BRANCH  22  26
HETATM   26  O   UNL     1      -5.048  -1.456 -32.896  1.00  0.00    -0.356 OA
HETATM   27  C   UNL     1      -4.377  -2.384 -33.740  1.00  0.00     0.210 C 
ENDBRANCH  22  26
ENDBRANCH  17  20
ENDBRANCH  16  17
ENDBRANCH   1  16
TORSDOF 8
ENDMDL
MODEL 2
REMARK VINA RESULT:      -6.2      3.453      6.334
REMARK  8 active torsions:
REMARK  status: ('A' for Active; 'I' for Inactive)
REMARK    1  A    between atoms: C_2  and  N_3 
REMARK    2  A    between atoms: C_2  and  C_17 
REMARK    3  A    between atoms: N_3  and  C_6 
REMARK    4  A    between atoms: C_6  and  C_7 
REMARK    5  A    between atoms: C_7  and  O_8 
REMARK    6  A    between atoms: C_7  and  C_9 
REMARK    7  A    between atoms: C_11  and  O_12 
REMARK    8  A    between atoms: C_17  and  C_18 
ROOT
HETATM    1  N   UNL     1      -7.372   2.424 -32.680  1.00  0.00    -0.068 N 
HETATM    2  H   UNL     1      -8.274   2.024 -32.975  1.00  0.00     0.277 HD
HETATM    3  H   UNL     1      -7.622   3.142 -31.976  1.00  0.00     0.277 HD
ENDROOT
BRANCH   1   4
HETATM    4  C   UNL     1      -6.503   1.333 -32.103  1.00  0.00     0.188 C 
HETATM    5  C   UNL     1      -5.981   1.852 -30.760  1.00  0.00     0.040 C 
BRANCH   4   6
HETATM    6  C   UNL     1      -5.355   0.984 -33.068  1.00  0.00     0.099 C 
BRANCH   6   7
HETATM    7  C   UNL     1      -5.448  -0.435 -33.538  1.00  0.00     0.078 A 
HETATM    8  S   UNL     1      -6.874  -1.002 -34.299  1.00  0.00    -0.073 SA
HETATM    9  C   UNL     1      -6.168  -2.565 -34.457  1.00  0.00     0.035 A 
HETATM   10  C   UNL     1      -4.883  -2.540 -33.911  1.00  0.00     0.074 A 
HETATM   11  C   UNL     1      -6.711  -3.730 -35.024  1.00  0.00     0.021 A 
HETATM   12  N   UNL     1      -4.489  -1.317 -33.382  1.00  0.00    -0.245 NA
HETATM   13  C   UNL     1      -4.111  -3.719 -33.936  1.00  0.00     0.033 A 
HETATM   14  C   UNL     1      -4.641  -4.884 -34.501  1.00  0.00     0.002 A 
HETATM   15  C   UNL     1      -5.925  -4.887 -35.036  1.00  0.00     0.002 A 
ENDBRANCH   6   7
ENDBRANCH   4   6
ENDBRANCH   1   4
BRANCH   1  16
HETATM   16  C   UNL     1      -6.821   3.182 -33.868  1.00  0.00     0.269 C 
BRANCH  16  17
HETATM   17  C   UNL     1      -6.310   4.554 -33.373  1.00  0.00     0.177 C 
BRANCH  17  18
HETATM   18  O   UNL     1      -7.038   5.556 -34.100  1.00  0.00    -0.389 OA
HETATM   19  H   UNL     1      -6.495   5.772 -34.886  1.00  0.00     0.210 HD
ENDBRANCH  17  18
BRANCH  17  20
HETATM   20  C   UNL     1      -4.821   4.712 -33.589  1.00  0.00    -0.025 A 
HETATM   21  C   UNL     1      -3.942   4.455 -32.518  1.00  0.00     0.046 A 
HETATM   22  C   UNL     1      -2.559   4.548 -32.690  1.00  0.00     0.068 A 
HETATM   23  C   UNL     1      -2.047   4.882 -33.943  1.00  0.00     0.037 A 
HETATM   24  C   UNL     1      -2.901   5.150 -35.010  1.00  0.00     0.003 A 
HETATM   25  C   UNL     1      -4.281   5.071 -34.835  1.00  0.00     0.010 A 
BRANCH  22  26
HETATM   26  O   UNL     1      -1.616   4.316 -31.730  1.00  0.00    -0.356 OA
HETATM   27  C   UNL     1      -0.510   5.210 -31.673  1.00  0.00     0.210 C 
ENDBRANCH  22  26
ENDBRANCH  17  20
ENDBRANCH  16  17
ENDBRANCH   1  16
TORSDOF 8
ENDMDL
MODEL 3
REMARK VINA RESULT:      -6.2      1.991      4.742
REMARK  8 active torsions:
REMARK  status: ('A' for Active; 'I' for Inactive)
REMARK    1  A    between atoms: C_2  and  N_3 
REMARK    2  A    between atoms: C_2  and  C_17 
REMARK    3  A    between atoms: N_3  and  C_6 
REMARK    4  A    between atoms: C_6  and  C_7 
REMARK    5  A    between atoms: C_7  and  O_8 
REMARK    6  A    between atoms: C_7  and  C_9 
REMARK    7  A    between atoms: C_11  and  O_12 
REMARK    8  A    between atoms: C_17  and  C_18 
ROOT
HETATM    1  N   UNL     1      -6.575   1.235 -33.109  1.00  0.00    -0.068 N 
HETATM    2  H   UNL     1      -7.541   0.987 -33.365  1.00  0.00     0.277 HD
HETATM    3  H   UNL     1      -6.372   2.094 -33.652  1.00  0.00     0.277 HD
ENDROOT
BRANCH   1   4
HETATM    4  C   UNL     1      -6.491   1.463 -31.620  1.00  0.00     0.188 C 
HETATM    5  C   UNL     1      -6.431   0.080 -30.966  1.00  0.00     0.040 C 
BRANCH   4   6
HETATM    6  C   UNL     1      -7.701   2.278 -31.125  1.00  0.00     0.099 C 
BRANCH   6   7
HETATM    7  C   UNL     1      -8.754   2.392 -32.185  1.00  0.00     0.078 A 
HETATM    8  S   UNL     1      -8.964   3.863 -33.038  1.00  0.00    -0.073 SA
HETATM    9  C   UNL     1     -10.257   3.159 -33.932  1.00  0.00     0.035 A 
HETATM   10  C   UNL     1     -10.436   1.840 -33.509  1.00  0.00     0.074 A 
HETATM   11  C   UNL     1     -11.055   3.731 -34.936  1.00  0.00     0.021 A 
HETATM   12  N   UNL     1      -9.574   1.419 -32.504  1.00  0.00    -0.245 NA
HETATM   13  C   UNL     1     -11.445   1.063 -34.113  1.00  0.00     0.033 A 
HETATM   14  C   UNL     1     -12.244   1.623 -35.116  1.00  0.00     0.002 A 
HETATM   15  C   UNL     1     -12.050   2.940 -35.520  1.00  0.00     0.002 A 
ENDBRANCH   6   7
ENDBRANCH   4   6
ENDBRANCH   1   4
BRANCH   1  16
HETATM   16  C   UNL     1      -5.682   0.158 -33.688  1.00  0.00     0.269 C 
BRANCH  16  17
HETATM   17  C   UNL     1      -6.548  -0.767 -34.573  1.00  0.00     0.177 C 
BRANCH  17  18
HETATM   18  O   UNL     1      -7.888  -0.695 -34.063  1.00  0.00    -0.389 OA
HETATM   19  H   UNL     1      -8.005  -1.482 -33.491  1.00  0.00     0.210 HD
ENDBRANCH  17  18
BRANCH  17  20
HETATM   20  C   UNL     1      -6.044  -2.193 -34.559  1.00  0.00    -0.025 A 
HETATM   21  C   UNL     1      -4.842  -2.489 -33.887  1.00  0.00     0.046 A 
HETATM   22  C   UNL     1      -4.366  -3.800 -33.816  1.00  0.00     0.068 A 
HETATM   23  C   UNL     1      -5.104  -4.827 -34.403  1.00  0.00     0.037 A 
HETATM   24  C   UNL     1      -6.289  -4.552 -35.081  1.00  0.00     0.003 A 
HETATM   25  C   UNL     1      -6.756  -3.242 -35.165  1.00  0.00     0.010 A 
BRANCH  22  26
HETATM   26  O   UNL     1      -3.223  -4.203 -33.188  1.00  0.00    -0.356 OA
HETATM   27  C   UNL     1      -2.945  -3.637 -31.913  1.00  0.00     0.210 C 
ENDBRANCH  22  26
ENDBRANCH  17  20
ENDBRANCH  16  17
ENDBRANCH   1  16
TORSDOF 8
ENDMDL
MODEL 4
REMARK VINA RESULT:      -6.1      3.502      5.384
REMARK  8 active torsions:
REMARK  status: ('A' for Active; 'I' for Inactive)
REMARK    1  A    between atoms: C_2  and  N_3 
REMARK    2  A    between atoms: C_2  and  C_17 
REMARK    3  A    between atoms: N_3  and  C_6 
REMARK    4  A    between atoms: C_6  and  C_7 
REMARK    5  A    between atoms: C_7  and  O_8 
REMARK    6  A    between atoms: C_7  and  C_9 
REMARK    7  A    between atoms: C_11  and  O_12 
REMARK    8  A    between atoms: C_17  and  C_18 
ROOT
HETATM    1  N   UNL     1      -4.404   1.744 -31.765  1.00  0.00    -0.068 N 
HETATM    2  H   UNL     1      -3.871   2.599 -31.982  1.00  0.00     0.277 HD
HETATM    3  H   UNL     1      -4.184   1.543 -30.773  1.00  0.00     0.277 HD
ENDROOT
BRANCH   1   4
HETATM    4  C   UNL     1      -5.875   2.000 -31.985  1.00  0.00     0.188 C 
HETATM    5  C   UNL     1      -6.254   1.291 -33.287  1.00  0.00     0.040 C 
BRANCH   4   6
HETATM    6  C   UNL     1      -6.161   3.512 -32.053  1.00  0.00     0.099 C 
BRANCH   6   7
HETATM    7  C   UNL     1      -4.918   4.291 -32.360  1.00  0.00     0.078 A 
HETATM    8  S   UNL     1      -4.253   5.351 -31.191  1.00  0.00    -0.073 SA
HETATM    9  C   UNL     1      -3.002   5.782 -32.295  1.00  0.00     0.035 A 
HETATM   10  C   UNL     1      -3.187   5.079 -33.487  1.00  0.00     0.074 A 
HETATM   11  C   UNL     1      -1.934   6.677 -32.119  1.00  0.00     0.021 A 
HETATM   12  N   UNL     1      -4.291   4.236 -33.512  1.00  0.00    -0.245 NA
HETATM   13  C   UNL     1      -2.270   5.271 -34.539  1.00  0.00     0.033 A 
HETATM   14  C   UNL     1      -1.200   6.159 -34.373  1.00  0.00     0.002 A 
HETATM   15  C   UNL     1      -1.038   6.852 -33.178  1.00  0.00     0.002 A 
ENDBRANCH   6   7
ENDBRANCH   4   6
ENDBRANCH   1   4
BRANCH   1  16
HETATM   16  C   UNL     1      -3.777   0.624 -32.565  1.00  0.00     0.269 C 
BRANCH  16  17
HETATM   17  C   UNL     1      -3.550  -0.579 -31.622  1.00  0.00     0.177 C 
BRANCH  17  18
HETATM   18  O   UNL     1      -2.223  -0.444 -31.088  1.00  0.00    -0.389 OA
HETATM   19  H   UNL     1      -2.274  -0.732 -30.153  1.00  0.00     0.210 HD
ENDBRANCH  17  18
BRANCH  17  20
HETATM   20  C   UNL     1      -3.706  -1.899 -32.344  1.00  0.00    -0.025 A 
HETATM   21  C   UNL     1      -4.507  -1.956 -33.501  1.00  0.00     0.046 A 
HETATM   22  C   UNL     1      -4.642  -3.146 -34.220  1.00  0.00     0.068 A 
HETATM   23  C   UNL     1      -3.957  -4.284 -33.792  1.00  0.00     0.037 A 
HETATM   24  C   UNL     1      -3.170  -4.248 -32.644  1.00  0.00     0.003 A 
HETATM   25  C   UNL     1      -3.047  -3.065 -31.919  1.00  0.00     0.010 A 
BRANCH  22  26
HETATM   26  O   UNL     1      -5.382  -3.317 -35.354  1.00  0.00    -0.356 OA
HETATM   27  C   UNL     1      -6.307  -4.399 -35.372  1.00  0.00     0.210 C 
ENDBRANCH  22  26
ENDBRANCH  17  20
ENDBRANCH  16  17
ENDBRANCH   1  16
TORSDOF 8
ENDMDL
MODEL 5
REMARK VINA RESULT:      -6.1      4.270      7.258
REMARK  8 active torsions:
REMARK  status: ('A' for Active; 'I' for Inactive)
REMARK    1  A    between atoms: C_2  and  N_3 
REMARK    2  A    between atoms: C_2  and  C_17 
REMARK    3  A    between atoms: N_3  and  C_6 
REMARK    4  A    between atoms: C_6  and  C_7 
REMARK    5  A    between atoms: C_7  and  O_8 
REMARK    6  A    between atoms: C_7  and  C_9 
REMARK    7  A    between atoms: C_11  and  O_12 
REMARK    8  A    between atoms: C_17  and  C_18 
ROOT
HETATM    1  N   UNL     1      -5.350   3.722 -33.289  1.00  0.00    -0.068 N 
HETATM    2  H   UNL     1      -5.847   3.155 -33.991  1.00  0.00     0.277 HD
HETATM    3  H   UNL     1      -5.828   4.641 -33.309  1.00  0.00     0.277 HD
ENDROOT
BRANCH   1   4
HETATM    4  C   UNL     1      -5.451   3.053 -31.940  1.00  0.00     0.188 C 
HETATM    5  C   UNL     1      -5.345   4.162 -30.890  1.00  0.00     0.040 C 
BRANCH   4   6
HETATM    6  C   UNL     1      -4.341   1.998 -31.771  1.00  0.00     0.099 C 
BRANCH   6   7
HETATM    7  C   UNL     1      -4.686   0.723 -32.478  1.00  0.00     0.078 A 
HETATM    8  S   UNL     1      -3.457  -0.398 -32.887  1.00  0.00    -0.073 SA
HETATM    9  C   UNL     1      -4.635  -1.426 -33.608  1.00  0.00     0.035 A 
HETATM   10  C   UNL     1      -5.893  -0.832 -33.484  1.00  0.00     0.074 A 
HETATM   11  C   UNL     1      -4.461  -2.670 -34.238  1.00  0.00     0.021 A 
HETATM   12  N   UNL     1      -5.905   0.401 -32.843  1.00  0.00    -0.245 NA
HETATM   13  C   UNL     1      -7.017  -1.505 -34.003  1.00  0.00     0.033 A 
HETATM   14  C   UNL     1      -6.855  -2.746 -34.630  1.00  0.00     0.002 A 
HETATM   15  C   UNL     1      -5.592  -3.318 -34.745  1.00  0.00     0.002 A 
ENDBRANCH   6   7
ENDBRANCH   4   6
ENDBRANCH   1   4
BRANCH   1  16
HETATM   16  C   UNL     1      -3.958   3.966 -33.830  1.00  0.00     0.269 C 
BRANCH  16  17
HETATM   17  C   UNL     1      -3.735   5.493 -33.925  1.00  0.00     0.177 C 
BRANCH  17  18
HETATM   18  O   UNL     1      -3.549   5.800 -35.316  1.00  0.00    -0.389 OA
HETATM   19  H   UNL     1      -2.891   5.156 -35.652  1.00  0.00     0.210 HD
ENDBRANCH  17  18
BRANCH  17  20
HETATM   20  C   UNL     1      -2.540   5.939 -33.112  1.00  0.00    -0.025 A 
HETATM   21  C   UNL     1      -1.868   4.999 -32.307  1.00  0.00     0.046 A 
HETATM   22  C   UNL     1      -0.736   5.362 -31.576  1.00  0.00     0.068 A 
HETATM   23  C   UNL     1      -0.258   6.669 -31.661  1.00  0.00     0.037 A 
HETATM   24  C   UNL     1      -0.916   7.616 -32.443  1.00  0.00     0.003 A 
HETATM   25  C   UNL     1      -2.054   7.257 -33.162  1.00  0.00     0.010 A 
BRANCH  22  26
HETATM   26  O   UNL     1      -0.003   4.537 -30.771  1.00  0.00    -0.356 OA
HETATM   27  C   UNL     1       0.599   5.116 -29.619  1.00  0.00     0.210 C 
ENDBRANCH  22  26
ENDBRANCH  17  20
ENDBRANCH  16  17
ENDBRANCH   1  16
TORSDOF 8
ENDMDL
MODEL 6
REMARK VINA RESULT:      -6.1      4.048      6.878
REMARK  8 active torsions:
REMARK  status: ('A' for Active; 'I' for Inactive)
REMARK    1  A    between atoms: C_2  and  N_3 
REMARK    2  A    between atoms: C_2  and  C_17 
REMARK    3  A    between atoms: N_3  and  C_6 
REMARK    4  A    between atoms: C_6  and  C_7 
REMARK    5  A    between atoms: C_7  and  O_8 
REMARK    6  A    between atoms: C_7  and  C_9 
REMARK    7  A    between atoms: C_11  and  O_12 
REMARK    8  A    between atoms: C_17  and  C_18 
ROOT
HETATM    1  N   UNL     1      -6.037   3.134 -31.917  1.00  0.00    -0.068 N 
HETATM    2  H   UNL     1      -5.477   2.320 -32.209  1.00  0.00     0.277 HD
HETATM    3  H   UNL     1      -6.731   3.260 -32.676  1.00  0.00     0.277 HD
ENDROOT
BRANCH   1   4
HETATM    4  C   UNL     1      -6.687   2.847 -30.587  1.00  0.00     0.188 C 
HETATM    5  C   UNL     1      -6.337   4.018 -29.665  1.00  0.00     0.040 C 
BRANCH   4   6
HETATM    6  C   UNL     1      -6.193   1.504 -30.018  1.00  0.00     0.099 C 
BRANCH   6   7
HETATM    7  C   UNL     1      -5.946   0.506 -31.108  1.00  0.00     0.078 A 
HETATM    8  S   UNL     1      -4.375  -0.130 -31.357  1.00  0.00    -0.073 SA
HETATM    9  C   UNL     1      -4.964  -1.068 -32.677  1.00  0.00     0.035 A 
HETATM   10  C   UNL     1      -6.331  -0.823 -32.832  1.00  0.00     0.074 A 
HETATM   11  C   UNL     1      -4.269  -1.956 -33.513  1.00  0.00     0.021 A 
HETATM   12  N   UNL     1      -6.876   0.085 -31.933  1.00  0.00    -0.245 NA
HETATM   13  C   UNL     1      -7.029  -1.493 -33.857  1.00  0.00     0.033 A 
HETATM   14  C   UNL     1      -6.346  -2.383 -34.694  1.00  0.00     0.002 A 
HETATM   15  C   UNL     1      -4.984  -2.608 -34.523  1.00  0.00     0.002 A 
ENDBRANCH   6   7
ENDBRANCH   4   6
ENDBRANCH   1   4
BRANCH   1  16
HETATM   16  C   UNL     1      -5.124   4.339 -31.987  1.00  0.00     0.269 C 
BRANCH  16  17
HETATM   17  C   UNL     1      -3.685   3.842 -32.260  1.00  0.00     0.177 C 
BRANCH  17  18
HETATM   18  O   UNL     1      -3.119   3.490 -30.987  1.00  0.00    -0.389 OA
HETATM   19  H   UNL     1      -2.498   2.752 -31.159  1.00  0.00     0.210 HD
ENDBRANCH  17  18
BRANCH  17  20
HETATM   20  C   UNL     1      -2.846   4.897 -32.947  1.00  0.00    -0.025 A 
HETATM   21  C   UNL     1      -2.821   6.203 -32.421  1.00  0.00     0.046 A 
HETATM   22  C   UNL     1      -2.026   7.193 -33.002  1.00  0.00     0.068 A 
HETATM   23  C   UNL     1      -1.235   6.874 -34.105  1.00  0.00     0.037 A 
HETATM   24  C   UNL     1      -1.256   5.591 -34.645  1.00  0.00     0.003 A 
HETATM   25  C   UNL     1      -2.060   4.606 -34.074  1.00  0.00     0.010 A 
BRANCH  22  26
HETATM   26  O   UNL     1      -1.918   8.486 -32.575  1.00  0.00    -0.356 OA
HETATM   27  C   UNL     1      -2.401   8.784 -31.271  1.00  0.00     0.210 C 
ENDBRANCH  22  26
ENDBRANCH  17  20
ENDBRANCH  16  17
ENDBRANCH   1  16
TORSDOF 8
ENDMDL
MODEL 7
REMARK VINA RESULT:      -6.1      2.725      4.214
REMARK  8 active torsions:
REMARK  status: ('A' for Active; 'I' for Inactive)
REMARK    1  A    between atoms: C_2  and  N_3 
REMARK    2  A    between atoms: C_2  and  C_17 
REMARK    3  A    between atoms: N_3  and  C_6 
REMARK    4  A    between atoms: C_6  and  C_7 
REMARK    5  A    between atoms: C_7  and  O_8 
REMARK    6  A    between atoms: C_7  and  C_9 
REMARK    7  A    between atoms: C_11  and  O_12 
REMARK    8  A    between atoms: C_17  and  C_18 
ROOT
HETATM    1  N   UNL     1      -7.058  -0.174 -31.978  1.00  0.00    -0.068 N 
HETATM    2  H   UNL     1      -6.630  -1.110 -32.024  1.00  0.00     0.277 HD
HETATM    3  H   UNL     1      -7.896  -0.298 -31.382  1.00  0.00     0.277 HD
ENDROOT
BRANCH   1   4
HETATM    4  C   UNL     1      -6.070   0.801 -31.386  1.00  0.00     0.188 C 
HETATM    5  C   UNL     1      -5.952   0.458 -29.898  1.00  0.00     0.040 C 
BRANCH   4   6
HETATM    6  C   UNL     1      -6.541   2.251 -31.603  1.00  0.00     0.099 C 
BRANCH   6   7
HETATM    7  C   UNL     1      -5.511   3.057 -32.334  1.00  0.00     0.078 A 
HETATM    8  S   UNL     1      -5.918   3.862 -33.790  1.00  0.00    -0.073 SA
HETATM    9  C   UNL     1      -4.302   4.443 -33.921  1.00  0.00     0.035 A 
HETATM   10  C   UNL     1      -3.562   3.974 -32.833  1.00  0.00     0.074 A 
HETATM   11  C   UNL     1      -3.730   5.255 -34.913  1.00  0.00     0.021 A 
HETATM   12  N   UNL     1      -4.265   3.176 -31.939  1.00  0.00    -0.245 NA
HETATM   13  C   UNL     1      -2.203   4.333 -32.730  1.00  0.00     0.033 A 
HETATM   14  C   UNL     1      -1.624   5.144 -33.712  1.00  0.00     0.002 A 
HETATM   15  C   UNL     1      -2.379   5.597 -34.789  1.00  0.00     0.002 A 
ENDBRANCH   6   7
ENDBRANCH   4   6
ENDBRANCH   1   4
BRANCH   1  16
HETATM   16  C   UNL     1      -7.578   0.136 -33.365  1.00  0.00     0.269 C 
BRANCH  16  17
HETATM   17  C   UNL     1      -6.442  -0.130 -34.380  1.00  0.00     0.177 C 
BRANCH  17  18
HETATM   18  O   UNL     1      -6.903   0.348 -35.654  1.00  0.00    -0.389 OA
HETATM   19  H   UNL     1      -6.164   0.866 -36.035  1.00  0.00     0.210 HD
ENDBRANCH  17  18
BRANCH  17  20
HETATM   20  C   UNL     1      -6.085  -1.598 -34.454  1.00  0.00    -0.025 A 
HETATM   21  C   UNL     1      -4.844  -2.029 -33.946  1.00  0.00     0.046 A 
HETATM   22  C   UNL     1      -4.497  -3.382 -33.958  1.00  0.00     0.068 A 
HETATM   23  C   UNL     1      -5.401  -4.315 -34.464  1.00  0.00     0.037 A 
HETATM   24  C   UNL     1      -6.628  -3.906 -34.982  1.00  0.00     0.003 A 
HETATM   25  C   UNL     1      -6.969  -2.555 -34.982  1.00  0.00     0.010 A 
BRANCH  22  26
HETATM   26  O   UNL     1      -3.330  -3.913 -33.488  1.00  0.00    -0.356 OA
HETATM   27  C   UNL     1      -3.074  -3.791 -32.093  1.00  0.00     0.210 C 
ENDBRANCH  22  26
ENDBRANCH  17  20
ENDBRANCH  16  17
ENDBRANCH   1  16
TORSDOF 8
ENDMDL
MODEL 8
REMARK VINA RESULT:      -6.0      2.787      6.202
REMARK  8 active torsions:
REMARK  status: ('A' for Active; 'I' for Inactive)
REMARK    1  A    between atoms: C_2  and  N_3 
REMARK    2  A    between atoms: C_2  and  C_17 
REMARK    3  A    between atoms: N_3  and  C_6 
REMARK    4  A    between atoms: C_6  and  C_7 
REMARK    5  A    between atoms: C_7  and  O_8 
REMARK    6  A    between atoms: C_7  and  C_9 
REMARK    7  A    between atoms: C_11  and  O_12 
REMARK    8  A    between atoms: C_17  and  C_18 
ROOT
HETATM    1  N   UNL     1      -7.603   2.499 -32.412  1.00  0.00    -0.068 N 
HETATM    2  H   UNL     1      -8.431   2.525 -31.801  1.00  0.00     0.277 HD
HETATM    3  H   UNL     1      -7.142   3.416 -32.267  1.00  0.00     0.277 HD
ENDROOT
BRANCH   1   4
HETATM    4  C   UNL     1      -6.719   1.344 -32.012  1.00  0.00     0.188 C 
HETATM    5  C   UNL     1      -6.156   1.680 -30.628  1.00  0.00     0.040 C 
BRANCH   4   6
HETATM    6  C   UNL     1      -5.600   1.129 -33.048  1.00  0.00     0.099 C 
BRANCH   6   7
HETATM    7  C   UNL     1      -5.477  -0.315 -33.429  1.00  0.00     0.078 A 
HETATM    8  S   UNL     1      -3.994  -1.142 -33.209  1.00  0.00    -0.073 SA
HETATM    9  C   UNL     1      -4.694  -2.572 -33.868  1.00  0.00     0.035 A 
HETATM   10  C   UNL     1      -6.022  -2.309 -34.213  1.00  0.00     0.074 A 
HETATM   11  C   UNL     1      -4.112  -3.835 -34.065  1.00  0.00     0.021 A 
HETATM   12  N   UNL     1      -6.452  -1.012 -33.964  1.00  0.00    -0.245 NA
HETATM   13  C   UNL     1      -6.797  -3.346 -34.769  1.00  0.00     0.033 A 
HETATM   14  C   UNL     1      -6.228  -4.608 -34.967  1.00  0.00     0.002 A 
HETATM   15  C   UNL     1      -4.902  -4.847 -34.620  1.00  0.00     0.002 A 
ENDBRANCH   6   7
ENDBRANCH   4   6
ENDBRANCH   1   4
BRANCH   1  16
HETATM   16  C   UNL     1      -8.111   2.511 -33.837  1.00  0.00     0.269 C 
BRANCH  16  17
HETATM   17  C   UNL     1      -9.123   1.354 -34.000  1.00  0.00     0.177 C 
BRANCH  17  18
HETATM   18  O   UNL     1      -8.693   0.583 -35.133  1.00  0.00    -0.389 OA
HETATM   19  H   UNL     1      -7.968   0.008 -34.812  1.00  0.00     0.210 HD
ENDBRANCH  17  18
BRANCH  17  20
HETATM   20  C   UNL     1     -10.533   1.865 -34.203  1.00  0.00    -0.025 A 
HETATM   21  C   UNL     1     -11.614   1.104 -33.717  1.00  0.00     0.046 A 
HETATM   22  C   UNL     1     -12.927   1.562 -33.847  1.00  0.00     0.068 A 
HETATM   23  C   UNL     1     -13.163   2.797 -34.450  1.00  0.00     0.037 A 
HETATM   24  C   UNL     1     -12.107   3.558 -34.947  1.00  0.00     0.003 A 
HETATM   25  C   UNL     1     -10.799   3.094 -34.830  1.00  0.00     0.010 A 
BRANCH  22  26
HETATM   26  O   UNL     1     -14.047   0.916 -33.409  1.00  0.00    -0.356 OA
HETATM   27  C   UNL     1     -15.048   1.703 -32.773  1.00  0.00     0.210 C 
ENDBRANCH  22  26
ENDBRANCH  17  20
ENDBRANCH  16  17
ENDBRANCH   1  16
TORSDOF 8
ENDMDL
MODEL 9
REMARK VINA RESULT:      -6.0      3.623      5.166
REMARK  8 active torsions:
REMARK  status: ('A' for Active; 'I' for Inactive)
REMARK    1  A    between atoms: C_2  and  N_3 
REMARK    2  A    between atoms: C_2  and  C_17 
REMARK    3  A    between atoms: N_3  and  C_6 
REMARK    4  A    between atoms: C_6  and  C_7 
REMARK    5  A    between atoms: C_7  and  O_8 
REMARK    6  A    between atoms: C_7  and  C_9 
REMARK    7  A    between atoms: C_11  and  O_12 
REMARK    8  A    between atoms: C_17  and  C_18 
ROOT
HETATM    1  N   UNL     1      -4.892   2.295 -30.527  1.00  0.00    -0.068 N 
HETATM    2  H   UNL     1      -3.882   2.229 -30.718  1.00  0.00     0.277 HD
HETATM    3  H   UNL     1      -4.953   2.601 -29.539  1.00  0.00     0.277 HD
ENDROOT
BRANCH   1   4
HETATM    4  C   UNL     1      -5.519   3.287 -31.475  1.00  0.00     0.188 C 
HETATM    5  C   UNL     1      -6.886   2.719 -31.865  1.00  0.00     0.040 C 
BRANCH   4   6
HETATM    6  C   UNL     1      -4.619   3.508 -32.706  1.00  0.00     0.099 C 
BRANCH   6   7
HETATM    7  C   UNL     1      -3.403   4.310 -32.357  1.00  0.00     0.078 A 
HETATM    8  S   UNL     1      -3.147   5.845 -33.072  1.00  0.00    -0.073 SA
HETATM    9  C   UNL     1      -1.666   6.002 -32.206  1.00  0.00     0.035 A 
HETATM   10  C   UNL     1      -1.473   4.858 -31.428  1.00  0.00     0.074 A 
HETATM   11  C   UNL     1      -0.742   7.059 -32.213  1.00  0.00     0.021 A 
HETATM   12  N   UNL     1      -2.470   3.896 -31.531  1.00  0.00    -0.245 NA
HETATM   13  C   UNL     1      -0.318   4.769 -30.624  1.00  0.00     0.033 A 
HETATM   14  C   UNL     1       0.607   5.819 -30.622  1.00  0.00     0.002 A 
HETATM   15  C   UNL     1       0.396   6.947 -31.408  1.00  0.00     0.002 A 
ENDBRANCH   6   7
ENDBRANCH   4   6
ENDBRANCH   1   4
BRANCH   1  16
HETATM   16  C   UNL     1      -5.435   0.883 -30.558  1.00  0.00     0.269 C 
BRANCH  16  17
HETATM   17  C   UNL     1      -4.325  -0.053 -31.089  1.00  0.00     0.177 C 
BRANCH  17  18
HETATM   18  O   UNL     1      -3.183   0.773 -31.365  1.00  0.00    -0.389 OA
HETATM   19  H   UNL     1      -3.360   1.637 -30.938  1.00  0.00     0.210 HD
ENDBRANCH  17  18
BRANCH  17  20
HETATM   20  C   UNL     1      -4.762  -0.797 -32.332  1.00  0.00    -0.025 A 
HETATM   21  C   UNL     1      -4.022  -1.917 -32.756  1.00  0.00     0.046 A 
HETATM   22  C   UNL     1      -4.419  -2.655 -33.873  1.00  0.00     0.068 A 
HETATM   23  C   UNL     1      -5.572  -2.284 -34.563  1.00  0.00     0.037 A 
HETATM   24  C   UNL     1      -6.310  -1.172 -34.164  1.00  0.00     0.003 A 
HETATM   25  C   UNL     1      -5.907  -0.427 -33.058  1.00  0.00     0.010 A 
BRANCH  22  26
HETATM   26  O   UNL     1      -3.785  -3.759 -34.370  1.00  0.00    -0.356 OA
HETATM   27  C   UNL     1      -3.655  -4.880 -33.504  1.00  0.00     0.210 C 
ENDBRANCH  22  26
ENDBRANCH  17  20
ENDBRANCH  16  17
ENDBRANCH   1  16
TORSDOF 8
ENDMDL
MODEL 10
REMARK VINA RESULT:      -5.9      2.305      5.436
REMARK  8 active torsions:
REMARK  status: ('A' for Active; 'I' for Inactive)
REMARK    1  A    between atoms: C_2  and  N_3 
REMARK    2  A    between atoms: C_2  and  C_17 
REMARK    3  A    between atoms: N_3  and  C_6 
REMARK    4  A    between atoms: C_6  and  C_7 
REMARK    5  A    between atoms: C_7  and  O_8 
REMARK    6  A    between atoms: C_7  and  C_9 
REMARK    7  A    between atoms: C_11  and  O_12 
REMARK    8  A    between atoms: C_17  and  C_18 
ROOT
HETATM    1  N   UNL     1      -5.266   1.262 -31.561  1.00  0.00    -0.068 N 
HETATM    2  H   UNL     1      -5.046   2.241 -31.331  1.00  0.00     0.277 HD
HETATM    3  H   UNL     1      -5.346   0.788 -30.642  1.00  0.00     0.277 HD
ENDROOT
BRANCH   1   4
HETATM    4  C   UNL     1      -6.551   1.207 -32.349  1.00  0.00     0.188 C 
HETATM    5  C   UNL     1      -6.168   1.355 -33.824  1.00  0.00     0.040 C 
BRANCH   4   6
HETATM    6  C   UNL     1      -7.516   2.318 -31.894  1.00  0.00     0.099 C 
BRANCH   6   7
HETATM    7  C   UNL     1      -8.758   2.340 -32.732  1.00  0.00     0.078 A 
HETATM    8  S   UNL     1      -9.079   3.668 -33.765  1.00  0.00    -0.073 SA
HETATM    9  C   UNL     1     -10.555   2.929 -34.257  1.00  0.00     0.035 A 
HETATM   10  C   UNL     1     -10.697   1.711 -33.588  1.00  0.00     0.074 A 
HETATM   11  C   UNL     1     -11.518   3.392 -35.168  1.00  0.00     0.021 A 
HETATM   12  N   UNL     1      -9.666   1.392 -32.714  1.00  0.00    -0.245 NA
HETATM   13  C   UNL     1     -11.839   0.925 -33.842  1.00  0.00     0.033 A 
HETATM   14  C   UNL     1     -12.803   1.376 -34.751  1.00  0.00     0.002 A 
HETATM   15  C   UNL     1     -12.643   2.594 -35.403  1.00  0.00     0.002 A 
ENDBRANCH   6   7
ENDBRANCH   4   6
ENDBRANCH   1   4
BRANCH   1  16
HETATM   16  C   UNL     1      -4.034   0.681 -32.220  1.00  0.00     0.269 C 
BRANCH  16  17
HETATM   17  C   UNL     1      -3.582  -0.552 -31.403  1.00  0.00     0.177 C 
BRANCH  17  18
HETATM   18  O   UNL     1      -2.213  -0.325 -31.033  1.00  0.00    -0.389 OA
HETATM   19  H   UNL     1      -2.201   0.513 -30.526  1.00  0.00     0.210 HD
ENDBRANCH  17  18
BRANCH  17  20
HETATM   20  C   UNL     1      -3.718  -1.833 -32.196  1.00  0.00    -0.025 A 
HETATM   21  C   UNL     1      -4.557  -1.853 -33.327  1.00  0.00     0.046 A 
HETATM   22  C   UNL     1      -4.676  -3.004 -34.109  1.00  0.00     0.068 A 
HETATM   23  C   UNL     1      -3.939  -4.139 -33.772  1.00  0.00     0.037 A 
HETATM   24  C   UNL     1      -3.113  -4.140 -32.650  1.00  0.00     0.003 A 
HETATM   25  C   UNL     1      -3.005  -2.996 -31.862  1.00  0.00     0.010 A 
BRANCH  22  26
HETATM   26  O   UNL     1      -5.451  -3.136 -35.226  1.00  0.00    -0.356 OA
HETATM   27  C   UNL     1      -6.202  -4.337 -35.360  1.00  0.00     0.210 C 
ENDBRANCH  22  26
ENDBRANCH  17  20
ENDBRANCH  16  17
ENDBRANCH   1  16
TORSDOF 8
ENDMDL
