MODEL 1
REMARK VINA RESULT:      -8.8      0.000      0.000
REMARK  6 active torsions:
REMARK  status: ('A' for Active; 'I' for Inactive)
REMARK    1  A    between atoms: O_2  and  C_3 
REMARK    2  A    between atoms: C_6  and  C_7 
REMARK    3  A    between atoms: C_11  and  C_12 
REMARK       I    between atoms: C_12  and  N_13 
REMARK    4  A    between atoms: N_13  and  N_14 
REMARK       I    between atoms: N_14  and  C_15 
REMARK    5  A    between atoms: C_15  and  C_16 
REMARK    6  A    between atoms: C_17  and  C_18 
ROOT
HETATM    1  C   UNL     1      -3.548   3.847 -31.229  1.00  0.00     0.288 C 
HETATM    2  N   UNL     1      -4.319   4.738 -30.515  1.00  0.00    -0.262 N 
HETATM    3  O   UNL     1      -2.324   3.935 -31.281  1.00  0.00    -0.264 OA
HETATM    4  H   UNL     1      -5.327   4.659 -30.409  1.00  0.00     0.190 HD
ENDROOT
BRANCH   1   5
HETATM    5  C   UNL     1      -4.282   2.816 -31.912  1.00  0.00     0.121 A 
HETATM    6  N   UNL     1      -5.586   2.979 -32.284  1.00  0.00    -0.272 N 
HETATM    7  N   UNL     1      -6.119   1.918 -32.906  1.00  0.00    -0.174 NA
HETATM    8  H   UNL     1      -6.163   3.802 -32.136  1.00  0.00     0.189 HD
HETATM    9  C   UNL     1      -5.136   1.003 -32.924  1.00  0.00     0.089 A 
HETATM   10  C   UNL     1      -3.961   1.537 -32.322  1.00  0.00     0.071 A 
BRANCH   9  11
HETATM   11  C   UNL     1      -5.328  -0.331 -33.503  1.00  0.00    -0.005 A 
HETATM   12  C   UNL     1      -6.574  -0.711 -34.025  1.00  0.00     0.016 A 
HETATM   13  C   UNL     1      -6.767  -1.978 -34.590  1.00  0.00     0.037 A 
HETATM   14  C   UNL     1      -5.715  -2.891 -34.640  1.00  0.00     0.068 A 
HETATM   15  C   UNL     1      -4.476  -2.526 -34.111  1.00  0.00     0.037 A 
HETATM   16  C   UNL     1      -4.280  -1.260 -33.549  1.00  0.00     0.016 A 
BRANCH  14  17
HETATM   17  O   UNL     1      -5.764  -4.152 -35.164  1.00  0.00    -0.356 OA
HETATM   18  C   UNL     1      -4.999  -5.152 -34.503  1.00  0.00     0.210 C 
ENDBRANCH  14  17
ENDBRANCH   9  11
ENDBRANCH   1   5
BRANCH   2  19
HETATM   19  N   UNL     1      -3.708   5.805 -29.851  1.00  0.00    -0.267 N 
HETATM   20  C   UNL     1      -3.713   7.034 -30.470  1.00  0.00     0.240 C 
HETATM   21  O   UNL     1      -4.209   7.215 -31.579  1.00  0.00    -0.271 OA
HETATM   22  H   UNL     1      -3.446   5.658 -28.880  1.00  0.00     0.190 HD
BRANCH  20  23
HETATM   23  C   UNL     1      -3.078   8.172 -29.757  1.00  0.00     0.089 A 
HETATM   24  C   UNL     1      -1.604   8.190 -29.397  1.00  0.00     0.036 A 
HETATM   25  C   UNL     1      -2.162   9.178 -30.397  1.00  0.00     0.025 A 
BRANCH  24  26
HETATM   26  C   UNL     1      -0.646   7.109 -29.845  1.00  0.00    -0.015 A 
HETATM   27  C   UNL     1      -0.167   6.126 -28.963  1.00  0.00     0.123 A 
HETATM   28  F   UNL     1      -0.549   6.151 -27.677  1.00  0.00    -0.206 F 
HETATM   29  C   UNL     1       0.698   5.115 -29.374  1.00  0.00     0.043 A 
HETATM   30  C   UNL     1       1.106   5.056 -30.703  1.00  0.00     0.003 A 
HETATM   31  C   UNL     1       0.639   6.005 -31.609  1.00  0.00     0.001 A 
HETATM   32  C   UNL     1      -0.231   7.015 -31.184  1.00  0.00     0.011 A 
ENDBRANCH  24  26
ENDBRANCH  20  23
ENDBRANCH   2  19
TORSDOF 6
ENDMDL
MODEL 2
REMARK VINA RESULT:      -8.8      6.035      9.518
REMARK  6 active torsions:
REMARK  status: ('A' for Active; 'I' for Inactive)
REMARK    1  A    between atoms: O_2  and  C_3 
REMARK    2  A    between atoms: C_6  and  C_7 
REMARK    3  A    between atoms: C_11  and  C_12 
REMARK       I    between atoms: C_12  and  N_13 
REMARK    4  A    between atoms: N_13  and  N_14 
REMARK       I    between atoms: N_14  and  C_15 
REMARK    5  A    between atoms: C_15  and  C_16 
REMARK    6  A    between atoms: C_17  and  C_18 
ROOT
HETATM    1  C   UNL     1      -7.834   1.218 -34.132  1.00  0.00     0.288 C 
HETATM    2  N   UNL     1      -7.211   1.325 -32.908  1.00  0.00    -0.262 N 
HETATM    3  O   UNL     1      -7.255   0.789 -35.127  1.00  0.00    -0.264 OA
HETATM    4  H   UNL     1      -7.678   1.625 -32.056  1.00  0.00     0.190 HD
ENDROOT
BRANCH   1   5
HETATM    5  C   UNL     1      -9.204   1.653 -34.158  1.00  0.00     0.121 A 
HETATM    6  N   UNL     1      -9.604   2.750 -34.867  1.00  0.00    -0.272 N 
HETATM    7  N   UNL     1     -10.915   3.016 -34.779  1.00  0.00    -0.174 NA
HETATM    8  H   UNL     1      -9.017   3.356 -35.433  1.00  0.00     0.189 HD
HETATM    9  C   UNL     1     -11.400   2.073 -33.955  1.00  0.00     0.089 A 
HETATM   10  C   UNL     1     -10.358   1.188 -33.557  1.00  0.00     0.071 A 
BRANCH   9  11
HETATM   11  C   UNL     1     -12.817   2.030 -33.573  1.00  0.00    -0.005 A 
HETATM   12  C   UNL     1     -13.316   2.893 -32.586  1.00  0.00     0.016 A 
HETATM   13  C   UNL     1     -14.668   2.869 -32.220  1.00  0.00     0.037 A 
HETATM   14  C   UNL     1     -15.545   1.978 -32.836  1.00  0.00     0.068 A 
HETATM   15  C   UNL     1     -15.054   1.107 -33.810  1.00  0.00     0.037 A 
HETATM   16  C   UNL     1     -13.705   1.131 -34.179  1.00  0.00     0.016 A 
BRANCH  14  17
HETATM   17  O   UNL     1     -16.882   1.853 -32.579  1.00  0.00    -0.356 OA
HETATM   18  C   UNL     1     -17.515   2.944 -31.923  1.00  0.00     0.210 C 
ENDBRANCH  14  17
ENDBRANCH   9  11
ENDBRANCH   1   5
BRANCH   2  19
HETATM   19  N   UNL     1      -5.864   0.972 -32.784  1.00  0.00    -0.267 N 
HETATM   20  C   UNL     1      -5.543  -0.037 -31.904  1.00  0.00     0.240 C 
HETATM   21  O   UNL     1      -6.385  -0.610 -31.218  1.00  0.00    -0.271 OA
HETATM   22  H   UNL     1      -5.220   1.355 -33.471  1.00  0.00     0.190 HD
BRANCH  20  23
HETATM   23  C   UNL     1      -4.113  -0.424 -31.785  1.00  0.00     0.089 A 
HETATM   24  C   UNL     1      -3.539  -1.652 -32.467  1.00  0.00     0.036 A 
HETATM   25  C   UNL     1      -3.091  -0.266 -32.874  1.00  0.00     0.025 A 
BRANCH  24  26
HETATM   26  C   UNL     1      -4.348  -2.503 -33.420  1.00  0.00    -0.015 A 
HETATM   27  C   UNL     1      -4.148  -3.889 -33.533  1.00  0.00     0.123 A 
HETATM   28  F   UNL     1      -3.200  -4.482 -32.791  1.00  0.00    -0.206 F 
HETATM   29  C   UNL     1      -4.904  -4.683 -34.392  1.00  0.00     0.043 A 
HETATM   30  C   UNL     1      -5.902  -4.101 -35.168  1.00  0.00     0.003 A 
HETATM   31  C   UNL     1      -6.138  -2.732 -35.071  1.00  0.00     0.001 A 
HETATM   32  C   UNL     1      -5.373  -1.946 -34.203  1.00  0.00     0.011 A 
ENDBRANCH  24  26
ENDBRANCH  20  23
ENDBRANCH   2  19
TORSDOF 6
ENDMDL
MODEL 3
REMARK VINA RESULT:      -8.7      1.705      2.072
REMARK  6 active torsions:
REMARK  status: ('A' for Active; 'I' for Inactive)
REMARK    1  A    between atoms: O_2  and  C_3 
REMARK    2  A    between atoms: C_6  and  C_7 
REMARK    3  A    between atoms: C_11  and  C_12 
REMARK       I    between atoms: C_12  and  N_13 
REMARK    4  A    between atoms: N_13  and  N_14 
REMARK       I    between atoms: N_14  and  C_15 
REMARK    5  A    between atoms: C_15  and  C_16 
REMARK    6  A    between atoms: C_17  and  C_18 
ROOT
HETATM    1  C   UNL     1      -5.841   3.780 -29.842  1.00  0.00     0.288 C 
HETATM    2  N   UNL     1      -4.651   4.422 -30.102  1.00  0.00    -0.262 N 
HETATM    3  O   UNL     1      -6.750   4.314 -29.210  1.00  0.00    -0.264 OA
HETATM    4  H   UNL     1      -3.903   4.027 -30.667  1.00  0.00     0.190 HD
ENDROOT
BRANCH   1   5
HETATM    5  C   UNL     1      -5.937   2.441 -30.357  1.00  0.00     0.121 A 
HETATM    6  N   UNL     1      -6.331   1.390 -29.578  1.00  0.00    -0.272 N 
HETATM    7  N   UNL     1      -6.361   0.211 -30.216  1.00  0.00    -0.174 NA
HETATM    8  H   UNL     1      -6.593   1.424 -28.597  1.00  0.00     0.189 HD
HETATM    9  C   UNL     1      -5.944   0.486 -31.462  1.00  0.00     0.089 A 
HETATM   10  C   UNL     1      -5.683   1.880 -31.594  1.00  0.00     0.071 A 
BRANCH   9  11
HETATM   11  C   UNL     1      -5.807  -0.559 -32.483  1.00  0.00    -0.005 A 
HETATM   12  C   UNL     1      -4.575  -1.198 -32.690  1.00  0.00     0.016 A 
HETATM   13  C   UNL     1      -4.435  -2.204 -33.654  1.00  0.00     0.037 A 
HETATM   14  C   UNL     1      -5.526  -2.588 -34.432  1.00  0.00     0.068 A 
HETATM   15  C   UNL     1      -6.752  -1.947 -34.242  1.00  0.00     0.037 A 
HETATM   16  C   UNL     1      -6.895  -0.944 -33.277  1.00  0.00     0.016 A 
BRANCH  14  17
HETATM   17  O   UNL     1      -5.529  -3.552 -35.400  1.00  0.00    -0.356 OA
HETATM   18  C   UNL     1      -6.572  -4.517 -35.342  1.00  0.00     0.210 C 
ENDBRANCH  14  17
ENDBRANCH   9  11
ENDBRANCH   1   5
BRANCH   2  19
HETATM   19  N   UNL     1      -4.437   5.711 -29.606  1.00  0.00    -0.267 N 
HETATM   20  C   UNL     1      -4.596   6.767 -30.474  1.00  0.00     0.240 C 
HETATM   21  O   UNL     1      -4.891   6.614 -31.657  1.00  0.00    -0.271 OA
HETATM   22  H   UNL     1      -4.347   5.811 -28.599  1.00  0.00     0.190 HD
BRANCH  20  23
HETATM   23  C   UNL     1      -4.385   8.139 -29.943  1.00  0.00     0.089 A 
HETATM   24  C   UNL     1      -3.005   8.750 -29.784  1.00  0.00     0.036 A 
HETATM   25  C   UNL     1      -3.992   9.327 -30.775  1.00  0.00     0.025 A 
BRANCH  24  26
HETATM   26  C   UNL     1      -1.751   8.059 -30.270  1.00  0.00    -0.015 A 
HETATM   27  C   UNL     1      -0.771   7.583 -29.383  1.00  0.00     0.123 A 
HETATM   28  F   UNL     1      -0.935   7.761 -28.062  1.00  0.00    -0.206 F 
HETATM   29  C   UNL     1       0.376   6.927 -29.822  1.00  0.00     0.043 A 
HETATM   30  C   UNL     1       0.571   6.719 -31.184  1.00  0.00     0.003 A 
HETATM   31  C   UNL     1      -0.386   7.163 -32.092  1.00  0.00     0.001 A 
HETATM   32  C   UNL     1      -1.535   7.820 -31.638  1.00  0.00     0.011 A 
ENDBRANCH  24  26
ENDBRANCH  20  23
ENDBRANCH   2  19
TORSDOF 6
ENDMDL
MODEL 4
REMARK VINA RESULT:      -8.6      1.535      2.959
REMARK  6 active torsions:
REMARK  status: ('A' for Active; 'I' for Inactive)
REMARK    1  A    between atoms: O_2  and  C_3 
REMARK    2  A    between atoms: C_6  and  C_7 
REMARK    3  A    between atoms: C_11  and  C_12 
REMARK       I    between atoms: C_12  and  N_13 
REMARK    4  A    between atoms: N_13  and  N_14 
REMARK       I    between atoms: N_14  and  C_15 
REMARK    5  A    between atoms: C_15  and  C_16 
REMARK    6  A    between atoms: C_17  and  C_18 
ROOT
HETATM    1  C   UNL     1      -3.629   4.054 -31.320  1.00  0.00     0.288 C 
HETATM    2  N   UNL     1      -2.284   3.788 -31.197  1.00  0.00    -0.262 N 
HETATM    3  O   UNL     1      -4.127   5.109 -30.931  1.00  0.00    -0.264 OA
HETATM    4  H   UNL     1      -1.834   2.950 -31.557  1.00  0.00     0.190 HD
ENDROOT
BRANCH   1   5
HETATM    5  C   UNL     1      -4.405   3.007 -31.928  1.00  0.00     0.121 A 
HETATM    6  N   UNL     1      -5.759   3.103 -32.079  1.00  0.00    -0.272 N 
HETATM    7  N   UNL     1      -6.326   2.036 -32.661  1.00  0.00    -0.174 NA
HETATM    8  H   UNL     1      -6.350   3.881 -31.800  1.00  0.00     0.189 HD
HETATM    9  C   UNL     1      -5.309   1.186 -32.880  1.00  0.00     0.089 A 
HETATM   10  C   UNL     1      -4.084   1.769 -32.447  1.00  0.00     0.071 A 
BRANCH   9  11
HETATM   11  C   UNL     1      -5.517  -0.134 -33.486  1.00  0.00    -0.005 A 
HETATM   12  C   UNL     1      -6.758  -0.475 -34.045  1.00  0.00     0.016 A 
HETATM   13  C   UNL     1      -6.966  -1.728 -34.637  1.00  0.00     0.037 A 
HETATM   14  C   UNL     1      -5.935  -2.664 -34.677  1.00  0.00     0.068 A 
HETATM   15  C   UNL     1      -4.701  -2.338 -34.111  1.00  0.00     0.037 A 
HETATM   16  C   UNL     1      -4.490  -1.086 -33.522  1.00  0.00     0.016 A 
BRANCH  14  17
HETATM   17  O   UNL     1      -6.000  -3.915 -35.223  1.00  0.00    -0.356 OA
HETATM   18  C   UNL     1      -5.261  -4.939 -34.571  1.00  0.00     0.210 C 
ENDBRANCH  14  17
ENDBRANCH   9  11
ENDBRANCH   1   5
BRANCH   2  19
HETATM   19  N   UNL     1      -1.447   4.722 -30.578  1.00  0.00    -0.267 N 
HETATM   20  C   UNL     1      -0.642   5.496 -31.383  1.00  0.00     0.240 C 
HETATM   21  O   UNL     1      -0.618   5.377 -32.606  1.00  0.00    -0.271 OA
HETATM   22  H   UNL     1      -1.602   4.899 -29.590  1.00  0.00     0.190 HD
BRANCH  20  23
HETATM   23  C   UNL     1       0.235   6.499 -30.727  1.00  0.00     0.089 A 
HETATM   24  C   UNL     1      -0.303   7.781 -30.118  1.00  0.00     0.036 A 
HETATM   25  C   UNL     1       0.323   6.718 -29.243  1.00  0.00     0.025 A 
BRANCH  24  26
HETATM   26  C   UNL     1      -1.784   8.074 -30.022  1.00  0.00    -0.015 A 
HETATM   27  C   UNL     1      -2.528   8.520 -31.127  1.00  0.00     0.123 A 
HETATM   28  F   UNL     1      -1.911   8.714 -32.303  1.00  0.00    -0.206 F 
HETATM   29  C   UNL     1      -3.896   8.771 -31.051  1.00  0.00     0.043 A 
HETATM   30  C   UNL     1      -4.567   8.571 -29.849  1.00  0.00     0.003 A 
HETATM   31  C   UNL     1      -3.864   8.115 -28.736  1.00  0.00     0.001 A 
HETATM   32  C   UNL     1      -2.491   7.865 -28.826  1.00  0.00     0.011 A 
ENDBRANCH  24  26
ENDBRANCH  20  23
ENDBRANCH   2  19
TORSDOF 6
ENDMDL
MODEL 5
REMARK VINA RESULT:      -8.3      3.283      4.458
REMARK  6 active torsions:
REMARK  status: ('A' for Active; 'I' for Inactive)
REMARK    1  A    between atoms: O_2  and  C_3 
REMARK    2  A    between atoms: C_6  and  C_7 
REMARK    3  A    between atoms: C_11  and  C_12 
REMARK       I    between atoms: C_12  and  N_13 
REMARK    4  A    between atoms: N_13  and  N_14 
REMARK       I    between atoms: N_14  and  C_15 
REMARK    5  A    between atoms: C_15  and  C_16 
REMARK    6  A    between atoms: C_17  and  C_18 
ROOT
HETATM    1  C   UNL     1      -3.711   2.782 -31.141  1.00  0.00     0.288 C 
HETATM    2  N   UNL     1      -3.346   4.110 -31.097  1.00  0.00    -0.262 N 
HETATM    3  O   UNL     1      -2.882   1.876 -31.189  1.00  0.00    -0.264 OA
HETATM    4  H   UNL     1      -4.006   4.878 -31.003  1.00  0.00     0.190 HD
ENDROOT
BRANCH   1   5
HETATM    5  C   UNL     1      -5.128   2.539 -31.136  1.00  0.00     0.121 A 
HETATM    6  N   UNL     1      -5.861   2.547 -29.983  1.00  0.00    -0.272 N 
HETATM    7  N   UNL     1      -7.166   2.296 -30.158  1.00  0.00    -0.174 NA
HETATM    8  H   UNL     1      -5.516   2.719 -29.043  1.00  0.00     0.189 HD
HETATM    9  C   UNL     1      -7.300   2.087 -31.478  1.00  0.00     0.089 A 
HETATM   10  C   UNL     1      -6.043   2.246 -32.128  1.00  0.00     0.071 A 
BRANCH   9  11
HETATM   11  C   UNL     1      -8.594   1.749 -32.083  1.00  0.00    -0.005 A 
HETATM   12  C   UNL     1      -9.490   2.760 -32.462  1.00  0.00     0.016 A 
HETATM   13  C   UNL     1     -10.723   2.451 -33.050  1.00  0.00     0.037 A 
HETATM   14  C   UNL     1     -11.083   1.122 -33.267  1.00  0.00     0.068 A 
HETATM   15  C   UNL     1     -10.203   0.110 -32.880  1.00  0.00     0.037 A 
HETATM   16  C   UNL     1      -8.970   0.416 -32.296  1.00  0.00     0.016 A 
BRANCH  14  17
HETATM   17  O   UNL     1     -12.247   0.682 -33.832  1.00  0.00    -0.356 OA
HETATM   18  C   UNL     1     -13.449   1.301 -33.391  1.00  0.00     0.210 C 
ENDBRANCH  14  17
ENDBRANCH   9  11
ENDBRANCH   1   5
BRANCH   2  19
HETATM   19  N   UNL     1      -1.993   4.457 -31.143  1.00  0.00    -0.267 N 
HETATM   20  C   UNL     1      -1.674   5.755 -31.472  1.00  0.00     0.240 C 
HETATM   21  O   UNL     1      -2.526   6.597 -31.746  1.00  0.00    -0.271 OA
HETATM   22  H   UNL     1      -1.329   3.787 -30.767  1.00  0.00     0.190 HD
BRANCH  20  23
HETATM   23  C   UNL     1      -0.237   6.129 -31.506  1.00  0.00     0.089 A 
HETATM   24  C   UNL     1       0.465   6.785 -30.330  1.00  0.00     0.036 A 
HETATM   25  C   UNL     1       0.855   5.395 -30.781  1.00  0.00     0.025 A 
BRANCH  24  26
HETATM   26  C   UNL     1      -0.213   6.992 -28.994  1.00  0.00    -0.015 A 
HETATM   27  C   UNL     1      -1.153   8.015 -28.786  1.00  0.00     0.123 A 
HETATM   28  F   UNL     1      -1.451   8.852 -29.793  1.00  0.00    -0.206 F 
HETATM   29  C   UNL     1      -1.797   8.198 -27.565  1.00  0.00     0.043 A 
HETATM   30  C   UNL     1      -1.518   7.341 -26.504  1.00  0.00     0.003 A 
HETATM   31  C   UNL     1      -0.603   6.307 -26.678  1.00  0.00     0.001 A 
HETATM   32  C   UNL     1       0.036   6.132 -27.911  1.00  0.00     0.011 A 
ENDBRANCH  24  26
ENDBRANCH  20  23
ENDBRANCH   2  19
TORSDOF 6
ENDMDL
MODEL 6
REMARK VINA RESULT:      -8.3      3.271      4.617
REMARK  6 active torsions:
REMARK  status: ('A' for Active; 'I' for Inactive)
REMARK    1  A    between atoms: O_2  and  C_3 
REMARK    2  A    between atoms: C_6  and  C_7 
REMARK    3  A    between atoms: C_11  and  C_12 
REMARK       I    between atoms: C_12  and  N_13 
REMARK    4  A    between atoms: N_13  and  N_14 
REMARK       I    between atoms: N_14  and  C_15 
REMARK    5  A    between atoms: C_15  and  C_16 
REMARK    6  A    between atoms: C_17  and  C_18 
ROOT
HETATM    1  C   UNL     1      -3.721   2.263 -31.214  1.00  0.00     0.288 C 
HETATM    2  N   UNL     1      -3.472   3.617 -31.154  1.00  0.00    -0.262 N 
HETATM    3  O   UNL     1      -2.824   1.428 -31.128  1.00  0.00    -0.264 OA
HETATM    4  H   UNL     1      -4.198   4.329 -31.167  1.00  0.00     0.190 HD
ENDROOT
BRANCH   1   5
HETATM    5  C   UNL     1      -5.102   1.904 -31.391  1.00  0.00     0.121 A 
HETATM    6  N   UNL     1      -5.770   1.125 -30.490  1.00  0.00    -0.272 N 
HETATM    7  N   UNL     1      -7.049   0.883 -30.812  1.00  0.00    -0.174 NA
HETATM    8  H   UNL     1      -5.397   0.731 -29.631  1.00  0.00     0.189 HD
HETATM    9  C   UNL     1      -7.228   1.503 -31.989  1.00  0.00     0.089 A 
HETATM   10  C   UNL     1      -6.031   2.169 -32.378  1.00  0.00     0.071 A 
BRANCH   9  11
HETATM   11  C   UNL     1      -8.508   1.455 -32.705  1.00  0.00    -0.005 A 
HETATM   12  C   UNL     1      -9.406   0.397 -32.492  1.00  0.00     0.016 A 
HETATM   13  C   UNL     1     -10.636   0.345 -33.161  1.00  0.00     0.037 A 
HETATM   14  C   UNL     1     -10.988   1.351 -34.059  1.00  0.00     0.068 A 
HETATM   15  C   UNL     1     -10.095   2.400 -34.287  1.00  0.00     0.037 A 
HETATM   16  C   UNL     1      -8.868   2.455 -33.617  1.00  0.00     0.016 A 
BRANCH  14  17
HETATM   17  O   UNL     1     -12.151   1.426 -34.773  1.00  0.00    -0.356 OA
HETATM   18  C   UNL     1     -13.239   0.635 -34.312  1.00  0.00     0.210 C 
ENDBRANCH  14  17
ENDBRANCH   9  11
ENDBRANCH   1   5
BRANCH   2  19
HETATM   19  N   UNL     1      -2.158   4.074 -31.028  1.00  0.00    -0.267 N 
HETATM   20  C   UNL     1      -1.635   4.818 -32.061  1.00  0.00     0.240 C 
HETATM   21  O   UNL     1      -2.268   5.067 -33.085  1.00  0.00    -0.271 OA
HETATM   22  H   UNL     1      -1.721   3.982 -30.115  1.00  0.00     0.190 HD
BRANCH  20  23
HETATM   23  C   UNL     1      -0.243   5.318 -31.921  1.00  0.00     0.089 A 
HETATM   24  C   UNL     1       0.079   6.693 -31.364  1.00  0.00     0.036 A 
HETATM   25  C   UNL     1       0.493   5.444 -30.617  1.00  0.00     0.025 A 
BRANCH  24  26
HETATM   26  C   UNL     1      -0.983   7.606 -30.794  1.00  0.00    -0.015 A 
HETATM   27  C   UNL     1      -1.871   8.319 -31.617  1.00  0.00     0.123 A 
HETATM   28  F   UNL     1      -1.769   8.210 -32.951  1.00  0.00    -0.206 F 
HETATM   29  C   UNL     1      -2.866   9.146 -31.099  1.00  0.00     0.043 A 
HETATM   30  C   UNL     1      -3.005   9.274 -29.720  1.00  0.00     0.003 A 
HETATM   31  C   UNL     1      -2.152   8.570 -28.874  1.00  0.00     0.001 A 
HETATM   32  C   UNL     1      -1.158   7.742 -29.407  1.00  0.00     0.011 A 
ENDBRANCH  24  26
ENDBRANCH  20  23
ENDBRANCH   2  19
TORSDOF 6
ENDMDL
MODEL 7
REMARK VINA RESULT:      -8.1      7.145     10.397
REMARK  6 active torsions:
REMARK  status: ('A' for Active; 'I' for Inactive)
REMARK    1  A    between atoms: O_2  and  C_3 
REMARK    2  A    between atoms: C_6  and  C_7 
REMARK    3  A    between atoms: C_11  and  C_12 
REMARK       I    between atoms: C_12  and  N_13 
REMARK    4  A    between atoms: N_13  and  N_14 
REMARK       I    between atoms: N_14  and  C_15 
REMARK    5  A    between atoms: C_15  and  C_16 
REMARK    6  A    between atoms: C_17  and  C_18 
ROOT
HETATM    1  C   UNL     1       1.307   8.714 -25.345  1.00  0.00     0.288 C 
HETATM    2  N   UNL     1       2.372   8.108 -24.716  1.00  0.00    -0.262 N 
HETATM    3  O   UNL     1       0.716   9.674 -24.855  1.00  0.00    -0.264 OA
HETATM    4  H   UNL     1       2.913   7.348 -25.121  1.00  0.00     0.190 HD
ENDROOT
BRANCH   1   5
HETATM    5  C   UNL     1       0.935   8.137 -26.609  1.00  0.00     0.121 A 
HETATM    6  N   UNL     1       1.227   6.842 -26.928  1.00  0.00    -0.272 N 
HETATM    7  N   UNL     1       0.813   6.468 -28.147  1.00  0.00    -0.174 NA
HETATM    8  H   UNL     1       1.711   6.165 -26.345  1.00  0.00     0.189 HD
HETATM    9  C   UNL     1       0.246   7.568 -28.668  1.00  0.00     0.089 A 
HETATM   10  C   UNL     1       0.291   8.634 -27.725  1.00  0.00     0.071 A 
BRANCH   9  11
HETATM   11  C   UNL     1      -0.316   7.584 -30.023  1.00  0.00    -0.005 A 
HETATM   12  C   UNL     1      -1.446   8.362 -30.318  1.00  0.00     0.016 A 
HETATM   13  C   UNL     1      -1.986   8.394 -31.611  1.00  0.00     0.037 A 
HETATM   14  C   UNL     1      -1.405   7.644 -32.632  1.00  0.00     0.068 A 
HETATM   15  C   UNL     1      -0.289   6.856 -32.344  1.00  0.00     0.037 A 
HETATM   16  C   UNL     1       0.253   6.825 -31.054  1.00  0.00     0.016 A 
BRANCH  14  17
HETATM   17  O   UNL     1      -1.825   7.586 -33.931  1.00  0.00    -0.356 OA
HETATM   18  C   UNL     1      -2.377   6.353 -34.373  1.00  0.00     0.210 C 
ENDBRANCH  14  17
ENDBRANCH   9  11
ENDBRANCH   1   5
BRANCH   2  19
HETATM   19  N   UNL     1       2.785   8.563 -23.461  1.00  0.00    -0.267 N 
HETATM   20  C   UNL     1       3.921   9.337 -23.401  1.00  0.00     0.240 C 
HETATM   21  O   UNL     1       4.587   9.615 -24.395  1.00  0.00    -0.271 OA
HETATM   22  H   UNL     1       2.135   8.445 -22.689  1.00  0.00     0.190 HD
BRANCH  20  23
HETATM   23  C   UNL     1       4.352   9.835 -22.069  1.00  0.00     0.089 A 
HETATM   24  C   UNL     1       5.487   9.199 -21.287  1.00  0.00     0.036 A 
HETATM   25  C   UNL     1       5.612  10.612 -21.813  1.00  0.00     0.025 A 
BRANCH  24  26
HETATM   26  C   UNL     1       6.346   8.093 -21.858  1.00  0.00    -0.015 A 
HETATM   27  C   UNL     1       5.896   6.764 -21.933  1.00  0.00     0.123 A 
HETATM   28  F   UNL     1       4.677   6.453 -21.467  1.00  0.00    -0.206 F 
HETATM   29  C   UNL     1       6.674   5.745 -22.478  1.00  0.00     0.043 A 
HETATM   30  C   UNL     1       7.939   6.036 -22.978  1.00  0.00     0.003 A 
HETATM   31  C   UNL     1       8.411   7.345 -22.934  1.00  0.00     0.001 A 
HETATM   32  C   UNL     1       7.621   8.361 -22.386  1.00  0.00     0.011 A 
ENDBRANCH  24  26
ENDBRANCH  20  23
ENDBRANCH   2  19
TORSDOF 6
ENDMDL
MODEL 8
REMARK VINA RESULT:      -7.9      7.743     10.242
REMARK  6 active torsions:
REMARK  status: ('A' for Active; 'I' for Inactive)
REMARK    1  A    between atoms: O_2  and  C_3 
REMARK    2  A    between atoms: C_6  and  C_7 
REMARK    3  A    between atoms: C_11  and  C_12 
REMARK       I    between atoms: C_12  and  N_13 
REMARK    4  A    between atoms: N_13  and  N_14 
REMARK       I    between atoms: N_14  and  C_15 
REMARK    5  A    between atoms: C_15  and  C_16 
REMARK    6  A    between atoms: C_17  and  C_18 
ROOT
HETATM    1  C   UNL     1     -10.519   2.463 -33.320  1.00  0.00     0.288 C 
HETATM    2  N   UNL     1      -9.812   3.290 -32.475  1.00  0.00    -0.262 N 
HETATM    3  O   UNL     1      -9.975   1.826 -34.220  1.00  0.00    -0.264 OA
HETATM    4  H   UNL     1     -10.225   3.786 -31.689  1.00  0.00     0.190 HD
ENDROOT
BRANCH   1   5
HETATM    5  C   UNL     1     -11.935   2.408 -33.076  1.00  0.00     0.121 A 
HETATM    6  N   UNL     1     -12.671   1.285 -33.327  1.00  0.00    -0.272 N 
HETATM    7  N   UNL     1     -13.976   1.407 -33.048  1.00  0.00    -0.174 NA
HETATM    8  H   UNL     1     -12.328   0.401 -33.693  1.00  0.00     0.189 HD
HETATM    9  C   UNL     1     -14.117   2.672 -32.619  1.00  0.00     0.089 A 
HETATM   10  C   UNL     1     -12.853   3.327 -32.608  1.00  0.00     0.071 A 
BRANCH   9  11
HETATM   11  C   UNL     1     -15.422   3.220 -32.234  1.00  0.00    -0.005 A 
HETATM   12  C   UNL     1     -16.560   2.399 -32.201  1.00  0.00     0.016 A 
HETATM   13  C   UNL     1     -17.810   2.909 -31.825  1.00  0.00     0.037 A 
HETATM   14  C   UNL     1     -17.943   4.251 -31.476  1.00  0.00     0.068 A 
HETATM   15  C   UNL     1     -16.819   5.078 -31.518  1.00  0.00     0.037 A 
HETATM   16  C   UNL     1     -15.569   4.571 -31.891  1.00  0.00     0.016 A 
BRANCH  14  17
HETATM   17  O   UNL     1     -19.096   4.874 -31.088  1.00  0.00    -0.356 OA
HETATM   18  C   UNL     1     -19.271   5.092 -29.694  1.00  0.00     0.210 C 
ENDBRANCH  14  17
ENDBRANCH   9  11
ENDBRANCH   1   5
BRANCH   2  19
HETATM   19  N   UNL     1      -8.435   3.450 -32.655  1.00  0.00    -0.267 N 
HETATM   20  C   UNL     1      -7.596   2.892 -31.718  1.00  0.00     0.240 C 
HETATM   21  O   UNL     1      -8.011   2.288 -30.732  1.00  0.00    -0.271 OA
HETATM   22  H   UNL     1      -8.125   3.817 -33.550  1.00  0.00     0.190 HD
BRANCH  20  23
HETATM   23  C   UNL     1      -6.132   3.048 -31.918  1.00  0.00     0.089 A 
HETATM   24  C   UNL     1      -5.299   2.038 -32.687  1.00  0.00     0.036 A 
HETATM   25  C   UNL     1      -5.483   3.444 -33.214  1.00  0.00     0.025 A 
BRANCH  24  26
HETATM   26  C   UNL     1      -5.916   0.864 -33.413  1.00  0.00    -0.015 A 
HETATM   27  C   UNL     1      -5.910  -0.433 -32.872  1.00  0.00     0.123 A 
HETATM   28  F   UNL     1      -5.324  -0.650 -31.685  1.00  0.00    -0.206 F 
HETATM   29  C   UNL     1      -6.495  -1.515 -33.526  1.00  0.00     0.043 A 
HETATM   30  C   UNL     1      -7.119  -1.322 -34.754  1.00  0.00     0.003 A 
HETATM   31  C   UNL     1      -7.158  -0.047 -35.313  1.00  0.00     0.001 A 
HETATM   32  C   UNL     1      -6.568   1.032 -34.647  1.00  0.00     0.011 A 
ENDBRANCH  24  26
ENDBRANCH  20  23
ENDBRANCH   2  19
TORSDOF 6
ENDMDL
MODEL 9
REMARK VINA RESULT:      -7.7      8.160     11.271
REMARK  6 active torsions:
REMARK  status: ('A' for Active; 'I' for Inactive)
REMARK    1  A    between atoms: O_2  and  C_3 
REMARK    2  A    between atoms: C_6  and  C_7 
REMARK    3  A    between atoms: C_11  and  C_12 
REMARK       I    between atoms: C_12  and  N_13 
REMARK    4  A    between atoms: N_13  and  N_14 
REMARK       I    between atoms: N_14  and  C_15 
REMARK    5  A    between atoms: C_15  and  C_16 
REMARK    6  A    between atoms: C_17  and  C_18 
ROOT
HETATM    1  C   UNL     1       2.272   8.957 -24.267  1.00  0.00     0.288 C 
HETATM    2  N   UNL     1       3.455   8.397 -23.837  1.00  0.00    -0.262 N 
HETATM    3  O   UNL     1       1.569   9.649 -23.533  1.00  0.00    -0.264 OA
HETATM    4  H   UNL     1       4.082   7.866 -24.435  1.00  0.00     0.190 HD
ENDROOT
BRANCH   1   5
HETATM    5  C   UNL     1       1.918   8.664 -25.629  1.00  0.00     0.121 A 
HETATM    6  N   UNL     1       1.970   9.612 -26.611  1.00  0.00    -0.272 N 
HETATM    7  N   UNL     1       1.602   9.172 -27.823  1.00  0.00    -0.174 NA
HETATM    8  H   UNL     1       2.253  10.583 -26.507  1.00  0.00     0.189 HD
HETATM    9  C   UNL     1       1.266   7.886 -27.632  1.00  0.00     0.089 A 
HETATM   10  C   UNL     1       1.466   7.527 -26.268  1.00  0.00     0.071 A 
BRANCH   9  11
HETATM   11  C   UNL     1       0.774   7.041 -28.726  1.00  0.00    -0.005 A 
HETATM   12  C   UNL     1       0.862   5.643 -28.643  1.00  0.00     0.016 A 
HETATM   13  C   UNL     1       0.386   4.826 -29.677  1.00  0.00     0.037 A 
HETATM   14  C   UNL     1      -0.185   5.394 -30.814  1.00  0.00     0.068 A 
HETATM   15  C   UNL     1      -0.263   6.785 -30.910  1.00  0.00     0.037 A 
HETATM   16  C   UNL     1       0.208   7.603 -29.878  1.00  0.00     0.016 A 
BRANCH  14  17
HETATM   17  O   UNL     1      -0.689   4.718 -31.889  1.00  0.00    -0.356 OA
HETATM   18  C   UNL     1      -2.100   4.551 -31.939  1.00  0.00     0.210 C 
ENDBRANCH  14  17
ENDBRANCH   9  11
ENDBRANCH   1   5
BRANCH   2  19
HETATM   19  N   UNL     1       3.868   8.582 -22.515  1.00  0.00    -0.267 N 
HETATM   20  C   UNL     1       4.800   9.563 -22.265  1.00  0.00     0.240 C 
HETATM   21  O   UNL     1       5.290  10.254 -23.155  1.00  0.00    -0.271 OA
HETATM   22  H   UNL     1       3.336   8.105 -21.792  1.00  0.00     0.190 HD
BRANCH  20  23
HETATM   23  C   UNL     1       5.228   9.771 -20.857  1.00  0.00     0.089 A 
HETATM   24  C   UNL     1       6.341   8.964 -20.213  1.00  0.00     0.036 A 
HETATM   25  C   UNL     1       6.502  10.450 -20.442  1.00  0.00     0.025 A 
BRANCH  24  26
HETATM   26  C   UNL     1       7.181   7.977 -20.992  1.00  0.00    -0.015 A 
HETATM   27  C   UNL     1       7.117   6.593 -20.753  1.00  0.00     0.123 A 
HETATM   28  F   UNL     1       6.304   6.126 -19.792  1.00  0.00    -0.206 F 
HETATM   29  C   UNL     1       7.872   5.677 -21.480  1.00  0.00     0.043 A 
HETATM   30  C   UNL     1       8.718   6.127 -22.489  1.00  0.00     0.003 A 
HETATM   31  C   UNL     1       8.795   7.490 -22.764  1.00  0.00     0.001 A 
HETATM   32  C   UNL     1       8.031   8.401 -22.027  1.00  0.00     0.011 A 
ENDBRANCH  24  26
ENDBRANCH  20  23
ENDBRANCH   2  19
TORSDOF 6
ENDMDL
MODEL 10
REMARK VINA RESULT:      -7.6      3.274      3.918
REMARK  6 active torsions:
REMARK  status: ('A' for Active; 'I' for Inactive)
REMARK    1  A    between atoms: O_2  and  C_3 
REMARK    2  A    between atoms: C_6  and  C_7 
REMARK    3  A    between atoms: C_11  and  C_12 
REMARK       I    between atoms: C_12  and  N_13 
REMARK    4  A    between atoms: N_13  and  N_14 
REMARK       I    between atoms: N_14  and  C_15 
REMARK    5  A    between atoms: C_15  and  C_16 
REMARK    6  A    between atoms: C_17  and  C_18 
ROOT
HETATM    1  C   UNL     1      -4.226   5.396 -30.321  1.00  0.00     0.288 C 
HETATM    2  N   UNL     1      -4.391   6.274 -29.273  1.00  0.00    -0.262 N 
HETATM    3  O   UNL     1      -3.266   5.462 -31.086  1.00  0.00    -0.264 OA
HETATM    4  H   UNL     1      -5.144   6.211 -28.592  1.00  0.00     0.190 HD
ENDROOT
BRANCH   1   5
HETATM    5  C   UNL     1      -5.260   4.406 -30.457  1.00  0.00     0.121 A 
HETATM    6  N   UNL     1      -5.408   3.384 -29.563  1.00  0.00    -0.272 N 
HETATM    7  N   UNL     1      -6.419   2.549 -29.843  1.00  0.00    -0.174 NA
HETATM    8  H   UNL     1      -4.841   3.209 -28.739  1.00  0.00     0.189 HD
HETATM    9  C   UNL     1      -6.947   3.022 -30.983  1.00  0.00     0.089 A 
HETATM   10  C   UNL     1      -6.255   4.197 -31.392  1.00  0.00     0.071 A 
BRANCH   9  11
HETATM   11  C   UNL     1      -8.077   2.362 -31.648  1.00  0.00    -0.005 A 
HETATM   12  C   UNL     1      -8.159   0.962 -31.694  1.00  0.00     0.016 A 
HETATM   13  C   UNL     1      -9.239   0.320 -32.316  1.00  0.00     0.037 A 
HETATM   14  C   UNL     1     -10.255   1.070 -32.905  1.00  0.00     0.068 A 
HETATM   15  C   UNL     1     -10.173   2.464 -32.876  1.00  0.00     0.037 A 
HETATM   16  C   UNL     1      -9.098   3.106 -32.253  1.00  0.00     0.016 A 
BRANCH  14  17
HETATM   17  O   UNL     1     -11.360   0.576 -33.539  1.00  0.00    -0.356 OA
HETATM   18  C   UNL     1     -12.026   1.448 -34.442  1.00  0.00     0.210 C 
ENDBRANCH  14  17
ENDBRANCH   9  11
ENDBRANCH   1   5
BRANCH   2  19
HETATM   19  N   UNL     1      -3.465   7.303 -29.079  1.00  0.00    -0.267 N 
HETATM   20  C   UNL     1      -2.881   7.416 -27.838  1.00  0.00     0.240 C 
HETATM   21  O   UNL     1      -3.161   6.670 -26.904  1.00  0.00    -0.271 OA
HETATM   22  H   UNL     1      -3.146   7.801 -29.906  1.00  0.00     0.190 HD
BRANCH  20  23
HETATM   23  C   UNL     1      -1.885   8.500 -27.637  1.00  0.00     0.089 A 
HETATM   24  C   UNL     1      -0.467   8.416 -28.172  1.00  0.00     0.036 A 
HETATM   25  C   UNL     1      -1.431   9.453 -28.706  1.00  0.00     0.025 A 
BRANCH  24  26
HETATM   26  C   UNL     1       0.001   7.282 -29.056  1.00  0.00    -0.015 A 
HETATM   27  C   UNL     1       0.360   6.029 -28.532  1.00  0.00     0.123 A 
HETATM   28  F   UNL     1       0.311   5.829 -27.206  1.00  0.00    -0.206 F 
HETATM   29  C   UNL     1       0.771   4.973 -29.342  1.00  0.00     0.043 A 
HETATM   30  C   UNL     1       0.825   5.145 -30.722  1.00  0.00     0.003 A 
HETATM   31  C   UNL     1       0.461   6.368 -31.278  1.00  0.00     0.001 A 
HETATM   32  C   UNL     1       0.048   7.421 -30.453  1.00  0.00     0.011 A 
ENDBRANCH  24  26
ENDBRANCH  20  23
ENDBRANCH   2  19
TORSDOF 6
ENDMDL
