MODEL 1
REMARK VINA RESULT:      -8.3      0.000      0.000
REMARK  7 active torsions:
REMARK  status: ('A' for Active; 'I' for Inactive)
REMARK    1  A    between atoms: C_4  and  C_5 
REMARK    2  A    between atoms: C_5  and  O_6 
REMARK    3  A    between atoms: C_5  and  C_7 
REMARK    4  A    between atoms: C_7  and  N_8 
REMARK       I    between atoms: N_8  and  C_9 
REMARK    5  A    between atoms: N_8  and  C_20 
REMARK    6  A    between atoms: C_9  and  C_10 
REMARK    7  A    between atoms: C_14  and  C_15 
ROOT
HETATM    1  N   UNL     1      -7.490   0.789 -32.864  1.00  0.00    -0.339 N 
HETATM    2  C   UNL     1      -8.295   1.931 -33.086  1.00  0.00     0.274 C 
HETATM    3  O   UNL     1      -7.862   3.063 -32.850  1.00  0.00    -0.266 OA
ENDROOT
BRANCH   1   4
HETATM    4  C   UNL     1      -7.871  -0.585 -33.268  1.00  0.00     0.163 C 
BRANCH   4   5
HETATM    5  C   UNL     1      -7.386  -1.002 -34.678  1.00  0.00     0.169 C 
BRANCH   5   6
HETATM    6  C   UNL     1      -6.427  -2.174 -34.600  1.00  0.00    -0.028 A 
HETATM    7  C   UNL     1      -5.086  -1.994 -34.227  1.00  0.00     0.010 A 
HETATM    8  C   UNL     1      -4.221  -3.085 -34.132  1.00  0.00     0.001 A 
HETATM    9  C   UNL     1      -4.687  -4.371 -34.401  1.00  0.00     0.000 A 
HETATM   10  C   UNL     1      -6.017  -4.566 -34.767  1.00  0.00     0.001 A 
HETATM   11  C   UNL     1      -6.883  -3.475 -34.865  1.00  0.00     0.010 A 
ENDBRANCH   5   6
BRANCH   5  12
HETATM   12  O   UNL     1      -6.771   0.064 -35.401  1.00  0.00    -0.389 OA
HETATM   13  H   UNL     1      -7.394   0.823 -35.378  1.00  0.00     0.210 HD
ENDBRANCH   5  12
ENDBRANCH   4   5
ENDBRANCH   1   4
BRANCH   1  14
HETATM   14  C   UNL     1      -6.212   1.018 -32.150  1.00  0.00     0.087 C 
HETATM   15  C   UNL     1      -5.029   1.443 -33.038  1.00  0.00     0.025 C 
HETATM   16  C   UNL     1      -3.784   1.733 -32.202  1.00  0.00     0.002 C 
HETATM   17  C   UNL     1      -3.403   0.536 -31.336  1.00  0.00     0.000 C 
HETATM   18  C   UNL     1      -4.565   0.085 -30.456  1.00  0.00     0.002 C 
HETATM   19  C   UNL     1      -5.828  -0.189 -31.273  1.00  0.00     0.025 C 
ENDBRANCH   1  14
BRANCH   2  20
HETATM   20  C   UNL     1      -9.663   1.797 -33.635  1.00  0.00     0.146 A 
HETATM   21  N   UNL     1     -10.079   2.329 -34.805  1.00  0.00    -0.169 NA
HETATM   22  N   UNL     1     -11.359   1.924 -34.919  1.00  0.00    -0.281 N 
HETATM   23  H   UNL     1     -11.890   2.212 -35.734  1.00  0.00     0.189 HD
HETATM   24  C   UNL     1     -11.778   1.145 -33.885  1.00  0.00     0.034 A 
HETATM   25  C   UNL     1     -10.701   1.017 -33.047  1.00  0.00     0.066 A 
BRANCH  24  26
HETATM   26  C   UNL     1     -13.143   0.528 -33.676  1.00  0.00     0.037 A 
HETATM   27  C   UNL     1     -14.242   1.385 -33.087  1.00  0.00     0.011 A 
HETATM   28  C   UNL     1     -14.300   1.003 -34.526  1.00  0.00     0.011 A 
ENDBRANCH  24  26
ENDBRANCH   2  20
TORSDOF 7
ENDMDL
MODEL 2
REMARK VINA RESULT:      -8.1      2.395      6.446
REMARK  7 active torsions:
REMARK  status: ('A' for Active; 'I' for Inactive)
REMARK    1  A    between atoms: C_4  and  C_5 
REMARK    2  A    between atoms: C_5  and  O_6 
REMARK    3  A    between atoms: C_5  and  C_7 
REMARK    4  A    between atoms: C_7  and  N_8 
REMARK       I    between atoms: N_8  and  C_9 
REMARK    5  A    between atoms: N_8  and  C_20 
REMARK    6  A    between atoms: C_9  and  C_10 
REMARK    7  A    between atoms: C_14  and  C_15 
ROOT
HETATM    1  N   UNL     1      -7.180   1.849 -32.806  1.00  0.00    -0.339 N 
HETATM    2  C   UNL     1      -6.681   2.824 -31.910  1.00  0.00     0.274 C 
HETATM    3  O   UNL     1      -7.444   3.440 -31.161  1.00  0.00    -0.266 OA
ENDROOT
BRANCH   1   4
HETATM    4  C   UNL     1      -6.323   0.956 -33.620  1.00  0.00     0.163 C 
BRANCH   4   5
HETATM    5  C   UNL     1      -5.589  -0.145 -32.817  1.00  0.00     0.169 C 
BRANCH   5   6
HETATM    6  C   UNL     1      -5.571  -1.456 -33.579  1.00  0.00    -0.028 A 
HETATM    7  C   UNL     1      -4.385  -2.189 -33.739  1.00  0.00     0.010 A 
HETATM    8  C   UNL     1      -4.388  -3.408 -34.418  1.00  0.00     0.001 A 
HETATM    9  C   UNL     1      -5.577  -3.913 -34.941  1.00  0.00     0.000 A 
HETATM   10  C   UNL     1      -6.763  -3.199 -34.786  1.00  0.00     0.001 A 
HETATM   11  C   UNL     1      -6.761  -1.979 -34.108  1.00  0.00     0.010 A 
ENDBRANCH   5   6
BRANCH   5  12
HETATM   12  O   UNL     1      -6.145  -0.362 -31.520  1.00  0.00    -0.389 OA
HETATM   13  H   UNL     1      -6.996  -0.835 -31.648  1.00  0.00     0.210 HD
ENDBRANCH   5  12
ENDBRANCH   4   5
ENDBRANCH   1   4
BRANCH   1  14
HETATM   14  C   UNL     1      -8.654   1.773 -32.934  1.00  0.00     0.087 C 
HETATM   15  C   UNL     1      -9.228   0.354 -33.095  1.00  0.00     0.025 C 
HETATM   16  C   UNL     1     -10.755   0.374 -33.138  1.00  0.00     0.002 C 
HETATM   17  C   UNL     1     -11.268   1.290 -34.245  1.00  0.00     0.000 C 
HETATM   18  C   UNL     1     -10.702   2.700 -34.117  1.00  0.00     0.002 C 
HETATM   19  C   UNL     1      -9.175   2.699 -34.050  1.00  0.00     0.025 C 
ENDBRANCH   1  14
BRANCH   2  20
HETATM   20  C   UNL     1      -5.230   3.104 -31.829  1.00  0.00     0.146 A 
HETATM   21  N   UNL     1      -4.406   2.628 -30.871  1.00  0.00    -0.169 NA
HETATM   22  N   UNL     1      -3.190   3.096 -31.215  1.00  0.00    -0.281 N 
HETATM   23  H   UNL     1      -2.396   2.867 -30.626  1.00  0.00     0.189 HD
HETATM   24  C   UNL     1      -3.194   3.839 -32.355  1.00  0.00     0.034 A 
HETATM   25  C   UNL     1      -4.491   3.844 -32.798  1.00  0.00     0.066 A 
BRANCH  24  26
HETATM   26  C   UNL     1      -2.025   4.525 -33.026  1.00  0.00     0.037 A 
HETATM   27  C   UNL     1      -1.872   6.022 -32.860  1.00  0.00     0.011 A 
HETATM   28  C   UNL     1      -0.924   5.106 -32.165  1.00  0.00     0.011 A 
ENDBRANCH  24  26
ENDBRANCH   2  20
TORSDOF 7
ENDMDL
MODEL 3
REMARK VINA RESULT:      -8.1      1.763      2.297
REMARK  7 active torsions:
REMARK  status: ('A' for Active; 'I' for Inactive)
REMARK    1  A    between atoms: C_4  and  C_5 
REMARK    2  A    between atoms: C_5  and  O_6 
REMARK    3  A    between atoms: C_5  and  C_7 
REMARK    4  A    between atoms: C_7  and  N_8 
REMARK       I    between atoms: N_8  and  C_9 
REMARK    5  A    between atoms: N_8  and  C_20 
REMARK    6  A    between atoms: C_9  and  C_10 
REMARK    7  A    between atoms: C_14  and  C_15 
ROOT
HETATM    1  N   UNL     1      -6.645   2.220 -33.237  1.00  0.00    -0.339 N 
HETATM    2  C   UNL     1      -7.933   2.617 -32.803  1.00  0.00     0.274 C 
HETATM    3  O   UNL     1      -8.128   3.756 -32.371  1.00  0.00    -0.266 OA
ENDROOT
BRANCH   1   4
HETATM    4  C   UNL     1      -6.358   0.934 -33.914  1.00  0.00     0.163 C 
BRANCH   4   5
HETATM    5  C   UNL     1      -5.747  -0.155 -32.999  1.00  0.00     0.169 C 
BRANCH   5   6
HETATM    6  C   UNL     1      -5.700  -1.497 -33.704  1.00  0.00    -0.028 A 
HETATM    7  C   UNL     1      -4.489  -2.181 -33.887  1.00  0.00     0.010 A 
HETATM    8  C   UNL     1      -4.463  -3.428 -34.513  1.00  0.00     0.001 A 
HETATM    9  C   UNL     1      -5.649  -4.011 -34.957  1.00  0.00     0.000 A 
HETATM   10  C   UNL     1      -6.860  -3.346 -34.778  1.00  0.00     0.001 A 
HETATM   11  C   UNL     1      -6.886  -2.097 -34.153  1.00  0.00     0.010 A 
ENDBRANCH   5   6
BRANCH   5  12
HETATM   12  O   UNL     1      -6.436  -0.299 -31.757  1.00  0.00    -0.389 OA
HETATM   13  H   UNL     1      -7.375  -0.065 -31.921  1.00  0.00     0.210 HD
ENDBRANCH   5  12
ENDBRANCH   4   5
ENDBRANCH   1   4
BRANCH   1  14
HETATM   14  C   UNL     1      -5.538   3.162 -32.946  1.00  0.00     0.087 C 
HETATM   15  C   UNL     1      -5.182   4.131 -34.087  1.00  0.00     0.025 C 
HETATM   16  C   UNL     1      -4.089   5.111 -33.663  1.00  0.00     0.002 C 
HETATM   17  C   UNL     1      -2.845   4.377 -33.173  1.00  0.00     0.000 C 
HETATM   18  C   UNL     1      -3.174   3.398 -32.051  1.00  0.00     0.002 C 
HETATM   19  C   UNL     1      -4.282   2.423 -32.449  1.00  0.00     0.025 C 
ENDBRANCH   1  14
BRANCH   2  20
HETATM   20  C   UNL     1      -9.079   1.685 -32.887  1.00  0.00     0.146 A 
HETATM   21  N   UNL     1      -9.201   0.547 -32.170  1.00  0.00    -0.169 NA
HETATM   22  N   UNL     1     -10.399   0.050 -32.533  1.00  0.00    -0.281 N 
HETATM   23  H   UNL     1     -10.710  -0.822 -32.118  1.00  0.00     0.189 HD
HETATM   24  C   UNL     1     -11.057   0.823 -33.439  1.00  0.00     0.034 A 
HETATM   25  C   UNL     1     -10.248   1.905 -33.672  1.00  0.00     0.066 A 
BRANCH  24  26
HETATM   26  C   UNL     1     -12.408   0.573 -34.072  1.00  0.00     0.037 A 
HETATM   27  C   UNL     1     -13.627   1.226 -33.458  1.00  0.00     0.011 A 
HETATM   28  C   UNL     1     -13.114   1.716 -34.768  1.00  0.00     0.011 A 
ENDBRANCH  24  26
ENDBRANCH   2  20
TORSDOF 7
ENDMDL
MODEL 4
REMARK VINA RESULT:      -8.0      2.937      6.096
REMARK  7 active torsions:
REMARK  status: ('A' for Active; 'I' for Inactive)
REMARK    1  A    between atoms: C_4  and  C_5 
REMARK    2  A    between atoms: C_5  and  O_6 
REMARK    3  A    between atoms: C_5  and  C_7 
REMARK    4  A    between atoms: C_7  and  N_8 
REMARK       I    between atoms: N_8  and  C_9 
REMARK    5  A    between atoms: N_8  and  C_20 
REMARK    6  A    between atoms: C_9  and  C_10 
REMARK    7  A    between atoms: C_14  and  C_15 
ROOT
HETATM    1  N   UNL     1      -4.036   2.860 -32.282  1.00  0.00    -0.339 N 
HETATM    2  C   UNL     1      -3.739   1.541 -31.864  1.00  0.00     0.274 C 
HETATM    3  O   UNL     1      -2.778   1.318 -31.122  1.00  0.00    -0.266 OA
ENDROOT
BRANCH   1   4
HETATM    4  C   UNL     1      -5.254   3.235 -33.037  1.00  0.00     0.163 C 
BRANCH   4   5
HETATM    5  C   UNL     1      -6.546   3.305 -32.186  1.00  0.00     0.169 C 
BRANCH   5   6
HETATM    6  C   UNL     1      -7.556   2.270 -32.642  1.00  0.00    -0.028 A 
HETATM    7  C   UNL     1      -7.698   1.939 -33.999  1.00  0.00     0.010 A 
HETATM    8  C   UNL     1      -8.611   0.964 -34.402  1.00  0.00     0.001 A 
HETATM    9  C   UNL     1      -9.390   0.302 -33.455  1.00  0.00     0.000 A 
HETATM   10  C   UNL     1      -9.257   0.616 -32.104  1.00  0.00     0.001 A 
HETATM   11  C   UNL     1      -8.345   1.593 -31.699  1.00  0.00     0.010 A 
ENDBRANCH   5   6
BRANCH   5  12
HETATM   12  O   UNL     1      -7.157   4.595 -32.194  1.00  0.00    -0.389 OA
HETATM   13  H   UNL     1      -6.703   5.123 -32.887  1.00  0.00     0.210 HD
ENDBRANCH   5  12
ENDBRANCH   4   5
ENDBRANCH   1   4
BRANCH   1  14
HETATM   14  C   UNL     1      -3.024   3.893 -31.957  1.00  0.00     0.087 C 
HETATM   15  C   UNL     1      -3.555   5.111 -31.181  1.00  0.00     0.025 C 
HETATM   16  C   UNL     1      -2.426   6.077 -30.824  1.00  0.00     0.002 C 
HETATM   17  C   UNL     1      -1.661   6.523 -32.067  1.00  0.00     0.000 C 
HETATM   18  C   UNL     1      -1.137   5.331 -32.863  1.00  0.00     0.002 C 
HETATM   19  C   UNL     1      -2.250   4.342 -33.211  1.00  0.00     0.025 C 
ENDBRANCH   1  14
BRANCH   2  20
HETATM   20  C   UNL     1      -4.590   0.406 -32.281  1.00  0.00     0.146 A 
HETATM   21  N   UNL     1      -5.417  -0.279 -31.462  1.00  0.00    -0.169 NA
HETATM   22  N   UNL     1      -6.013  -1.181 -32.266  1.00  0.00    -0.281 N 
HETATM   23  H   UNL     1      -6.686  -1.823 -31.863  1.00  0.00     0.189 HD
HETATM   24  C   UNL     1      -5.617  -1.097 -33.565  1.00  0.00     0.034 A 
HETATM   25  C   UNL     1      -4.718  -0.064 -33.621  1.00  0.00     0.066 A 
BRANCH  24  26
HETATM   26  C   UNL     1      -6.063  -1.949 -34.733  1.00  0.00     0.037 A 
HETATM   27  C   UNL     1      -5.507  -3.351 -34.860  1.00  0.00     0.011 A 
HETATM   28  C   UNL     1      -6.932  -3.159 -34.468  1.00  0.00     0.011 A 
ENDBRANCH  24  26
ENDBRANCH   2  20
TORSDOF 7
ENDMDL
MODEL 5
REMARK VINA RESULT:      -7.9      1.658      6.146
REMARK  7 active torsions:
REMARK  status: ('A' for Active; 'I' for Inactive)
REMARK    1  A    between atoms: C_4  and  C_5 
REMARK    2  A    between atoms: C_5  and  O_6 
REMARK    3  A    between atoms: C_5  and  C_7 
REMARK    4  A    between atoms: C_7  and  N_8 
REMARK       I    between atoms: N_8  and  C_9 
REMARK    5  A    between atoms: N_8  and  C_20 
REMARK    6  A    between atoms: C_9  and  C_10 
REMARK    7  A    between atoms: C_14  and  C_15 
ROOT
HETATM    1  N   UNL     1      -8.979   1.449 -32.692  1.00  0.00    -0.339 N 
HETATM    2  C   UNL     1      -8.341   2.579 -32.127  1.00  0.00     0.274 C 
HETATM    3  O   UNL     1      -8.975   3.615 -31.906  1.00  0.00    -0.266 OA
ENDROOT
BRANCH   1   4
HETATM    4  C   UNL     1      -8.336   0.123 -32.842  1.00  0.00     0.163 C 
BRANCH   4   5
HETATM    5  C   UNL     1      -7.807  -0.182 -34.265  1.00  0.00     0.169 C 
BRANCH   5   6
HETATM    6  C   UNL     1      -6.632  -1.140 -34.216  1.00  0.00    -0.028 A 
HETATM    7  C   UNL     1      -6.734  -2.444 -34.724  1.00  0.00     0.010 A 
HETATM    8  C   UNL     1      -5.637  -3.305 -34.699  1.00  0.00     0.001 A 
HETATM    9  C   UNL     1      -4.421  -2.873 -34.173  1.00  0.00     0.000 A 
HETATM   10  C   UNL     1      -4.303  -1.579 -33.670  1.00  0.00     0.001 A 
HETATM   11  C   UNL     1      -5.401  -0.716 -33.693  1.00  0.00     0.010 A 
ENDBRANCH   5   6
BRANCH   5  12
HETATM   12  O   UNL     1      -7.432   0.989 -34.990  1.00  0.00    -0.389 OA
HETATM   13  H   UNL     1      -7.541   0.783 -35.944  1.00  0.00     0.210 HD
ENDBRANCH   5  12
ENDBRANCH   4   5
ENDBRANCH   1   4
BRANCH   1  14
HETATM   14  C   UNL     1     -10.361   1.656 -33.185  1.00  0.00     0.087 C 
HETATM   15  C   UNL     1     -11.207   0.379 -33.328  1.00  0.00     0.025 C 
HETATM   16  C   UNL     1     -12.635   0.704 -33.762  1.00  0.00     0.002 C 
HETATM   17  C   UNL     1     -12.653   1.508 -35.059  1.00  0.00     0.000 C 
HETATM   18  C   UNL     1     -11.808   2.774 -34.947  1.00  0.00     0.002 C 
HETATM   19  C   UNL     1     -10.381   2.471 -34.492  1.00  0.00     0.025 C 
ENDBRANCH   1  14
BRANCH   2  20
HETATM   20  C   UNL     1      -6.909   2.533 -31.760  1.00  0.00     0.146 A 
HETATM   21  N   UNL     1      -6.431   2.097 -30.575  1.00  0.00    -0.169 NA
HETATM   22  N   UNL     1      -5.092   2.194 -30.699  1.00  0.00    -0.281 N 
HETATM   23  H   UNL     1      -4.510   1.920 -29.915  1.00  0.00     0.189 HD
HETATM   24  C   UNL     1      -4.690   2.656 -31.913  1.00  0.00     0.034 A 
HETATM   25  C   UNL     1      -5.835   2.861 -32.639  1.00  0.00     0.066 A 
BRANCH  24  26
HETATM   26  C   UNL     1      -3.278   2.900 -32.398  1.00  0.00     0.037 A 
HETATM   27  C   UNL     1      -2.968   4.207 -33.095  1.00  0.00     0.011 A 
HETATM   28  C   UNL     1      -2.445   3.966 -31.721  1.00  0.00     0.011 A 
ENDBRANCH  24  26
ENDBRANCH   2  20
TORSDOF 7
ENDMDL
MODEL 6
REMARK VINA RESULT:      -7.8      3.380      7.300
REMARK  7 active torsions:
REMARK  status: ('A' for Active; 'I' for Inactive)
REMARK    1  A    between atoms: C_4  and  C_5 
REMARK    2  A    between atoms: C_5  and  O_6 
REMARK    3  A    between atoms: C_5  and  C_7 
REMARK    4  A    between atoms: C_7  and  N_8 
REMARK       I    between atoms: N_8  and  C_9 
REMARK    5  A    between atoms: N_8  and  C_20 
REMARK    6  A    between atoms: C_9  and  C_10 
REMARK    7  A    between atoms: C_14  and  C_15 
ROOT
HETATM    1  N   UNL     1      -5.311  -0.455 -33.265  1.00  0.00    -0.339 N 
HETATM    2  C   UNL     1      -4.454  -0.154 -32.179  1.00  0.00     0.274 C 
HETATM    3  O   UNL     1      -3.796  -1.043 -31.632  1.00  0.00    -0.266 OA
ENDROOT
BRANCH   1   4
HETATM    4  C   UNL     1      -6.010   0.568 -34.077  1.00  0.00     0.163 C 
BRANCH   4   5
HETATM    5  C   UNL     1      -7.252   1.195 -33.397  1.00  0.00     0.169 C 
BRANCH   5   6
HETATM    6  C   UNL     1      -7.075   2.690 -33.211  1.00  0.00    -0.028 A 
HETATM    7  C   UNL     1      -7.659   3.363 -32.128  1.00  0.00     0.010 A 
HETATM    8  C   UNL     1      -7.464   4.734 -31.953  1.00  0.00     0.001 A 
HETATM    9  C   UNL     1      -6.677   5.448 -32.854  1.00  0.00     0.000 A 
HETATM   10  C   UNL     1      -6.086   4.793 -33.931  1.00  0.00     0.001 A 
HETATM   11  C   UNL     1      -6.281   3.421 -34.109  1.00  0.00     0.010 A 
ENDBRANCH   5   6
BRANCH   5  12
HETATM   12  O   UNL     1      -7.568   0.598 -32.140  1.00  0.00    -0.389 OA
HETATM   13  H   UNL     1      -6.963  -0.167 -32.027  1.00  0.00     0.210 HD
ENDBRANCH   5  12
ENDBRANCH   4   5
ENDBRANCH   1   4
BRANCH   1  14
HETATM   14  C   UNL     1      -5.523  -1.893 -33.552  1.00  0.00     0.087 C 
HETATM   15  C   UNL     1      -4.343  -2.609 -34.233  1.00  0.00     0.025 C 
HETATM   16  C   UNL     1      -4.626  -4.100 -34.411  1.00  0.00     0.002 C 
HETATM   17  C   UNL     1      -5.917  -4.331 -35.191  1.00  0.00     0.000 C 
HETATM   18  C   UNL     1      -7.101  -3.618 -34.543  1.00  0.00     0.002 C 
HETATM   19  C   UNL     1      -6.827  -2.129 -34.336  1.00  0.00     0.025 C 
ENDBRANCH   1  14
BRANCH   2  20
HETATM   20  C   UNL     1      -4.306   1.237 -31.697  1.00  0.00     0.146 A 
HETATM   21  N   UNL     1      -4.887   1.733 -30.584  1.00  0.00    -0.169 NA
HETATM   22  N   UNL     1      -4.447   3.004 -30.515  1.00  0.00    -0.281 N 
HETATM   23  H   UNL     1      -4.761   3.588 -29.747  1.00  0.00     0.189 HD
HETATM   24  C   UNL     1      -3.600   3.343 -31.525  1.00  0.00     0.034 A 
HETATM   25  C   UNL     1      -3.461   2.217 -32.296  1.00  0.00     0.066 A 
BRANCH  24  26
HETATM   26  C   UNL     1      -2.927   4.675 -31.771  1.00  0.00     0.037 A 
HETATM   27  C   UNL     1      -1.499   4.862 -31.304  1.00  0.00     0.011 A 
HETATM   28  C   UNL     1      -1.786   4.747 -32.762  1.00  0.00     0.011 A 
ENDBRANCH  24  26
ENDBRANCH   2  20
TORSDOF 7
ENDMDL
MODEL 7
REMARK VINA RESULT:      -7.8      2.346      7.101
REMARK  7 active torsions:
REMARK  status: ('A' for Active; 'I' for Inactive)
REMARK    1  A    between atoms: C_4  and  C_5 
REMARK    2  A    between atoms: C_5  and  O_6 
REMARK    3  A    between atoms: C_5  and  C_7 
REMARK    4  A    between atoms: C_7  and  N_8 
REMARK       I    between atoms: N_8  and  C_9 
REMARK    5  A    between atoms: N_8  and  C_20 
REMARK    6  A    between atoms: C_9  and  C_10 
REMARK    7  A    between atoms: C_14  and  C_15 
ROOT
HETATM    1  N   UNL     1      -5.304  -0.079 -33.186  1.00  0.00    -0.339 N 
HETATM    2  C   UNL     1      -4.241   0.239 -32.308  1.00  0.00     0.274 C 
HETATM    3  O   UNL     1      -3.426  -0.624 -31.968  1.00  0.00    -0.266 OA
ENDROOT
BRANCH   1   4
HETATM    4  C   UNL     1      -6.227   0.923 -33.767  1.00  0.00     0.163 C 
BRANCH   4   5
HETATM    5  C   UNL     1      -7.165   1.609 -32.743  1.00  0.00     0.169 C 
BRANCH   5   6
HETATM    6  C   UNL     1      -8.620   1.418 -33.123  1.00  0.00    -0.028 A 
HETATM    7  C   UNL     1      -9.274   2.319 -33.978  1.00  0.00     0.010 A 
HETATM    8  C   UNL     1     -10.606   2.116 -34.342  1.00  0.00     0.001 A 
HETATM    9  C   UNL     1     -11.299   1.006 -33.863  1.00  0.00     0.000 A 
HETATM   10  C   UNL     1     -10.662   0.100 -33.019  1.00  0.00     0.001 A 
HETATM   11  C   UNL     1      -9.330   0.303 -32.652  1.00  0.00     0.010 A 
ENDBRANCH   5   6
BRANCH   5  12
HETATM   12  O   UNL     1      -6.898   3.002 -32.581  1.00  0.00    -0.389 OA
HETATM   13  H   UNL     1      -7.742   3.476 -32.747  1.00  0.00     0.210 HD
ENDBRANCH   5  12
ENDBRANCH   4   5
ENDBRANCH   1   4
BRANCH   1  14
HETATM   14  C   UNL     1      -5.495  -1.518 -33.488  1.00  0.00     0.087 C 
HETATM   15  C   UNL     1      -4.315  -2.202 -34.201  1.00  0.00     0.025 C 
HETATM   16  C   UNL     1      -4.574  -3.695 -34.395  1.00  0.00     0.002 C 
HETATM   17  C   UNL     1      -5.875  -3.941 -35.152  1.00  0.00     0.000 C 
HETATM   18  C   UNL     1      -7.059  -3.259 -34.473  1.00  0.00     0.002 C 
HETATM   19  C   UNL     1      -6.810  -1.768 -34.250  1.00  0.00     0.025 C 
ENDBRANCH   1  14
BRANCH   2  20
HETATM   20  C   UNL     1      -4.064   1.618 -31.804  1.00  0.00     0.146 A 
HETATM   21  N   UNL     1      -4.643   2.111 -30.688  1.00  0.00    -0.169 NA
HETATM   22  N   UNL     1      -4.175   3.371 -30.596  1.00  0.00    -0.281 N 
HETATM   23  H   UNL     1      -4.482   3.949 -29.822  1.00  0.00     0.189 HD
HETATM   24  C   UNL     1      -3.312   3.705 -31.594  1.00  0.00     0.034 A 
HETATM   25  C   UNL     1      -3.192   2.588 -32.380  1.00  0.00     0.066 A 
BRANCH  24  26
HETATM   26  C   UNL     1      -2.607   5.024 -31.815  1.00  0.00     0.037 A 
HETATM   27  C   UNL     1      -1.215   5.205 -31.247  1.00  0.00     0.011 A 
HETATM   28  C   UNL     1      -1.395   5.065 -32.720  1.00  0.00     0.011 A 
ENDBRANCH  24  26
ENDBRANCH   2  20
TORSDOF 7
ENDMDL
MODEL 8
REMARK VINA RESULT:      -7.7     14.067     16.261
REMARK  7 active torsions:
REMARK  status: ('A' for Active; 'I' for Inactive)
REMARK    1  A    between atoms: C_4  and  C_5 
REMARK    2  A    between atoms: C_5  and  O_6 
REMARK    3  A    between atoms: C_5  and  C_7 
REMARK    4  A    between atoms: C_7  and  N_8 
REMARK       I    between atoms: N_8  and  C_9 
REMARK    5  A    between atoms: N_8  and  C_20 
REMARK    6  A    between atoms: C_9  and  C_10 
REMARK    7  A    between atoms: C_14  and  C_15 
ROOT
HETATM    1  N   UNL     1      -3.733 -13.863 -39.381  1.00  0.00    -0.339 N 
HETATM    2  C   UNL     1      -4.449 -12.666 -39.139  1.00  0.00     0.274 C 
HETATM    3  O   UNL     1      -3.925 -11.733 -38.524  1.00  0.00    -0.266 OA
ENDROOT
BRANCH   1   4
HETATM    4  C   UNL     1      -4.225 -14.963 -40.242  1.00  0.00     0.163 C 
BRANCH   4   5
HETATM    5  C   UNL     1      -3.992 -14.751 -41.758  1.00  0.00     0.169 C 
BRANCH   5   6
HETATM    6  C   UNL     1      -3.108 -15.841 -42.332  1.00  0.00    -0.028 A 
HETATM    7  C   UNL     1      -2.261 -16.601 -41.510  1.00  0.00     0.010 A 
HETATM    8  C   UNL     1      -1.475 -17.620 -42.047  1.00  0.00     0.001 A 
HETATM    9  C   UNL     1      -1.528 -17.899 -43.412  1.00  0.00     0.000 A 
HETATM   10  C   UNL     1      -2.368 -17.157 -44.240  1.00  0.00     0.001 A 
HETATM   11  C   UNL     1      -3.155 -16.135 -43.704  1.00  0.00     0.010 A 
ENDBRANCH   5   6
BRANCH   5  12
HETATM   12  O   UNL     1      -3.430 -13.476 -42.069  1.00  0.00    -0.389 OA
HETATM   13  H   UNL     1      -3.865 -13.164 -42.892  1.00  0.00     0.210 HD
ENDBRANCH   5  12
ENDBRANCH   4   5
ENDBRANCH   1   4
BRANCH   1  14
HETATM   14  C   UNL     1      -2.434 -14.000 -38.681  1.00  0.00     0.087 C 
HETATM   15  C   UNL     1      -1.189 -13.768 -39.556  1.00  0.00     0.025 C 
HETATM   16  C   UNL     1       0.094 -13.851 -38.730  1.00  0.00     0.002 C 
HETATM   17  C   UNL     1       0.195 -15.184 -37.992  1.00  0.00     0.000 C 
HETATM   18  C   UNL     1      -1.035 -15.444 -37.129  1.00  0.00     0.002 C 
HETATM   19  C   UNL     1      -2.331 -15.343 -37.934  1.00  0.00     0.025 C 
ENDBRANCH   1  14
BRANCH   2  20
HETATM   20  C   UNL     1      -5.828 -12.495 -39.646  1.00  0.00     0.146 A 
HETATM   21  N   UNL     1      -6.146 -12.130 -40.907  1.00  0.00    -0.169 NA
HETATM   22  N   UNL     1      -7.493 -12.142 -40.928  1.00  0.00    -0.281 N 
HETATM   23  H   UNL     1      -7.968 -11.891 -41.789  1.00  0.00     0.189 HD
HETATM   24  C   UNL     1      -8.053 -12.512 -39.745  1.00  0.00     0.034 A 
HETATM   25  C   UNL     1      -7.009 -12.776 -38.898  1.00  0.00     0.066 A 
BRANCH  24  26
HETATM   26  C   UNL     1      -9.522 -12.626 -39.404  1.00  0.00     0.037 A 
HETATM   27  C   UNL     1     -10.522 -11.857 -40.242  1.00  0.00     0.011 A 
HETATM   28  C   UNL     1     -10.445 -13.340 -40.367  1.00  0.00     0.011 A 
ENDBRANCH  24  26
ENDBRANCH   2  20
TORSDOF 7
ENDMDL
MODEL 9
REMARK VINA RESULT:      -7.7      1.788      6.865
REMARK  7 active torsions:
REMARK  status: ('A' for Active; 'I' for Inactive)
REMARK    1  A    between atoms: C_4  and  C_5 
REMARK    2  A    between atoms: C_5  and  O_6 
REMARK    3  A    between atoms: C_5  and  C_7 
REMARK    4  A    between atoms: C_7  and  N_8 
REMARK       I    between atoms: N_8  and  C_9 
REMARK    5  A    between atoms: N_8  and  C_20 
REMARK    6  A    between atoms: C_9  and  C_10 
REMARK    7  A    between atoms: C_14  and  C_15 
ROOT
HETATM    1  N   UNL     1      -7.947   0.423 -33.562  1.00  0.00    -0.339 N 
HETATM    2  C   UNL     1      -7.151  -0.082 -34.617  1.00  0.00     0.274 C 
HETATM    3  O   UNL     1      -7.456   0.132 -35.794  1.00  0.00    -0.266 OA
ENDROOT
BRANCH   1   4
HETATM    4  C   UNL     1      -7.571   0.349 -32.131  1.00  0.00     0.163 C 
BRANCH   4   5
HETATM    5  C   UNL     1      -7.302   1.719 -31.461  1.00  0.00     0.169 C 
BRANCH   5   6
HETATM    6  C   UNL     1      -5.900   2.209 -31.765  1.00  0.00    -0.028 A 
HETATM    7  C   UNL     1      -5.657   3.127 -32.799  1.00  0.00     0.010 A 
HETATM    8  C   UNL     1      -4.366   3.591 -33.050  1.00  0.00     0.001 A 
HETATM    9  C   UNL     1      -3.300   3.150 -32.267  1.00  0.00     0.000 A 
HETATM   10  C   UNL     1      -3.527   2.244 -31.233  1.00  0.00     0.001 A 
HETATM   11  C   UNL     1      -4.818   1.777 -30.982  1.00  0.00     0.010 A 
ENDBRANCH   5   6
BRANCH   5  12
HETATM   12  O   UNL     1      -7.501   1.704 -30.048  1.00  0.00    -0.389 OA
HETATM   13  H   UNL     1      -6.659   2.000 -29.637  1.00  0.00     0.210 HD
ENDBRANCH   5  12
ENDBRANCH   4   5
ENDBRANCH   1   4
BRANCH   1  14
HETATM   14  C   UNL     1      -9.246   1.022 -33.951  1.00  0.00     0.087 C 
HETATM   15  C   UNL     1      -9.298   2.560 -33.911  1.00  0.00     0.025 C 
HETATM   16  C   UNL     1     -10.646   3.083 -34.405  1.00  0.00     0.002 C 
HETATM   17  C   UNL     1     -11.801   2.484 -33.608  1.00  0.00     0.000 C 
HETATM   18  C   UNL     1     -11.763   0.959 -33.620  1.00  0.00     0.002 C 
HETATM   19  C   UNL     1     -10.413   0.417 -33.149  1.00  0.00     0.025 C 
ENDBRANCH   1  14
BRANCH   2  20
HETATM   20  C   UNL     1      -5.920  -0.852 -34.333  1.00  0.00     0.146 A 
HETATM   21  N   UNL     1      -4.843  -0.368 -33.677  1.00  0.00    -0.169 NA
HETATM   22  N   UNL     1      -3.994  -1.412 -33.613  1.00  0.00    -0.281 N 
HETATM   23  H   UNL     1      -3.096  -1.282 -33.159  1.00  0.00     0.189 HD
HETATM   24  C   UNL     1      -4.482  -2.547 -34.183  1.00  0.00     0.034 A 
HETATM   25  C   UNL     1      -5.737  -2.233 -34.636  1.00  0.00     0.066 A 
BRANCH  24  26
HETATM   26  C   UNL     1      -3.807  -3.895 -34.304  1.00  0.00     0.037 A 
HETATM   27  C   UNL     1      -3.664  -4.746 -33.061  1.00  0.00     0.011 A 
HETATM   28  C   UNL     1      -4.635  -5.147 -34.118  1.00  0.00     0.011 A 
ENDBRANCH  24  26
ENDBRANCH   2  20
TORSDOF 7
ENDMDL
MODEL 10
REMARK VINA RESULT:      -7.6      3.582      6.879
REMARK  7 active torsions:
REMARK  status: ('A' for Active; 'I' for Inactive)
REMARK    1  A    between atoms: C_4  and  C_5 
REMARK    2  A    between atoms: C_5  and  O_6 
REMARK    3  A    between atoms: C_5  and  C_7 
REMARK    4  A    between atoms: C_7  and  N_8 
REMARK       I    between atoms: N_8  and  C_9 
REMARK    5  A    between atoms: N_8  and  C_20 
REMARK    6  A    between atoms: C_9  and  C_10 
REMARK    7  A    between atoms: C_14  and  C_15 
ROOT
HETATM    1  N   UNL     1      -6.380   2.341 -32.128  1.00  0.00    -0.339 N 
HETATM    2  C   UNL     1      -6.834   1.010 -31.969  1.00  0.00     0.274 C 
HETATM    3  O   UNL     1      -7.873   0.770 -31.347  1.00  0.00    -0.266 OA
ENDROOT
BRANCH   1   4
HETATM    4  C   UNL     1      -5.239   2.730 -32.988  1.00  0.00     0.163 C 
BRANCH   4   5
HETATM    5  C   UNL     1      -3.919   3.003 -32.226  1.00  0.00     0.169 C 
BRANCH   5   6
HETATM    6  C   UNL     1      -3.106   4.083 -32.913  1.00  0.00    -0.028 A 
HETATM    7  C   UNL     1      -3.569   4.713 -34.079  1.00  0.00     0.010 A 
HETATM    8  C   UNL     1      -2.824   5.725 -34.685  1.00  0.00     0.001 A 
HETATM    9  C   UNL     1      -1.609   6.125 -34.132  1.00  0.00     0.000 A 
HETATM   10  C   UNL     1      -1.139   5.513 -32.972  1.00  0.00     0.001 A 
HETATM   11  C   UNL     1      -1.883   4.500 -32.365  1.00  0.00     0.010 A 
ENDBRANCH   5   6
BRANCH   5  12
HETATM   12  O   UNL     1      -3.112   1.838 -32.060  1.00  0.00    -0.389 OA
HETATM   13  H   UNL     1      -2.759   1.861 -31.144  1.00  0.00     0.210 HD
ENDBRANCH   5  12
ENDBRANCH   4   5
ENDBRANCH   1   4
BRANCH   1  14
HETATM   14  C   UNL     1      -7.095   3.374 -31.341  1.00  0.00     0.087 C 
HETATM   15  C   UNL     1      -7.285   4.726 -32.051  1.00  0.00     0.025 C 
HETATM   16  C   UNL     1      -8.099   5.694 -31.194  1.00  0.00     0.002 C 
HETATM   17  C   UNL     1      -7.462   5.892 -29.821  1.00  0.00     0.000 C 
HETATM   18  C   UNL     1      -7.249   4.563 -29.103  1.00  0.00     0.002 C 
HETATM   19  C   UNL     1      -6.455   3.574 -29.954  1.00  0.00     0.025 C 
ENDBRANCH   1  14
BRANCH   2  20
HETATM   20  C   UNL     1      -6.091  -0.119 -32.570  1.00  0.00     0.146 A 
HETATM   21  N   UNL     1      -4.928  -0.615 -32.095  1.00  0.00    -0.169 NA
HETATM   22  N   UNL     1      -4.644  -1.644 -32.917  1.00  0.00    -0.281 N 
HETATM   23  H   UNL     1      -3.796  -2.177 -32.756  1.00  0.00     0.189 HD
HETATM   24  C   UNL     1      -5.577  -1.840 -33.887  1.00  0.00     0.034 A 
HETATM   25  C   UNL     1      -6.544  -0.891 -33.680  1.00  0.00     0.066 A 
BRANCH  24  26
HETATM   26  C   UNL     1      -5.581  -2.885 -34.981  1.00  0.00     0.037 A 
HETATM   27  C   UNL     1      -5.279  -4.321 -34.611  1.00  0.00     0.011 A 
HETATM   28  C   UNL     1      -6.669  -3.937 -34.985  1.00  0.00     0.011 A 
ENDBRANCH  24  26
ENDBRANCH   2  20
TORSDOF 7
ENDMDL
