MODEL 1
REMARK VINA RESULT:      -9.3      0.000      0.000
REMARK  3 active torsions:
REMARK  status: ('A' for Active; 'I' for Inactive)
REMARK    1  A    between atoms: C_2  and  C_3 
REMARK    2  A    between atoms: C_5  and  N_6 
REMARK       I    between atoms: N_6  and  C_7 
REMARK    3  A    between atoms: C_7  and  C_8 
ROOT
HETATM    1  C   UNL     1      -3.448   0.545 -31.813  1.00  0.00     0.155 A 
HETATM    2  N   UNL     1      -2.469  -0.156 -31.189  1.00  0.00    -0.168 NA
HETATM    3  N   UNL     1      -2.611  -1.414 -31.666  1.00  0.00    -0.276 N 
HETATM    4  H   UNL     1      -1.977  -2.131 -31.334  1.00  0.00     0.189 HD
HETATM    5  C   UNL     1      -3.631  -1.537 -32.555  1.00  0.00     0.074 A 
HETATM    6  C   UNL     1      -4.184  -0.292 -32.683  1.00  0.00     0.031 A 
HETATM    7  C   UNL     1      -5.336  -0.040 -33.576  1.00  0.00     0.219 A 
HETATM    8  O   UNL     1      -5.778  -1.182 -34.365  1.00  0.00    -0.346 OA
HETATM    9  C   UNL     1      -5.209  -2.421 -34.156  1.00  0.00     0.081 A 
HETATM   10  C   UNL     1      -4.137  -2.675 -33.277  1.00  0.00     0.026 A 
HETATM   11  C   UNL     1      -5.761  -3.468 -34.894  1.00  0.00     0.038 A 
HETATM   12  C   UNL     1      -5.257  -4.762 -34.757  1.00  0.00     0.003 A 
HETATM   13  C   UNL     1      -4.197  -5.013 -33.884  1.00  0.00     0.001 A 
HETATM   14  C   UNL     1      -3.633  -3.971 -33.142  1.00  0.00     0.016 A 
ENDROOT
BRANCH   1  15
HETATM   15  C   UNL     1      -3.667   1.981 -31.556  1.00  0.00     0.277 C 
HETATM   16  N   UNL     1      -2.956   2.770 -32.435  1.00  0.00    -0.322 N 
HETATM   17  H   UNL     1      -2.420   2.232 -33.114  1.00  0.00     0.169 HD
HETATM   18  O   UNL     1      -4.401   2.359 -30.650  1.00  0.00    -0.266 OA
BRANCH  16  19
HETATM   19  C   UNL     1      -2.874   4.171 -32.490  1.00  0.00     0.035 A 
HETATM   20  C   UNL     1      -1.735   4.899 -32.137  1.00  0.00     0.036 A 
HETATM   21  C   UNL     1      -1.718   6.301 -32.227  1.00  0.00    -0.056 A 
HETATM   22  C   UNL     1      -2.865   6.973 -32.665  1.00  0.00     0.007 A 
HETATM   23  C   UNL     1      -4.005   6.255 -33.018  1.00  0.00     0.003 A 
HETATM   24  C   UNL     1      -4.009   4.861 -32.932  1.00  0.00     0.029 A 
BRANCH  21  25
HETATM   25  C   UNL     1      -0.483   7.071 -31.833  1.00  0.00     0.034 C 
HETATM   26  C   UNL     1       0.470   6.226 -31.002  1.00  0.00     0.010 C 
ENDBRANCH  21  25
ENDBRANCH  16  19
ENDBRANCH   1  15
TORSDOF 3
ENDMDL
MODEL 2
REMARK VINA RESULT:      -9.3      1.848      2.421
REMARK  3 active torsions:
REMARK  status: ('A' for Active; 'I' for Inactive)
REMARK    1  A    between atoms: C_2  and  C_3 
REMARK    2  A    between atoms: C_5  and  N_6 
REMARK       I    between atoms: N_6  and  C_7 
REMARK    3  A    between atoms: C_7  and  C_8 
ROOT
HETATM    1  C   UNL     1      -5.130   2.097 -32.712  1.00  0.00     0.155 A 
HETATM    2  N   UNL     1      -6.420   2.275 -33.087  1.00  0.00    -0.168 NA
HETATM    3  N   UNL     1      -6.793   1.066 -33.566  1.00  0.00    -0.276 N 
HETATM    4  H   UNL     1      -7.739   0.955 -33.915  1.00  0.00     0.189 HD
HETATM    5  C   UNL     1      -5.801   0.141 -33.512  1.00  0.00     0.074 A 
HETATM    6  C   UNL     1      -4.719   0.766 -32.956  1.00  0.00     0.031 A 
HETATM    7  C   UNL     1      -3.437   0.060 -32.742  1.00  0.00     0.219 A 
HETATM    8  O   UNL     1      -3.438  -1.357 -33.082  1.00  0.00    -0.346 OA
HETATM    9  C   UNL     1      -4.546  -1.917 -33.682  1.00  0.00     0.081 A 
HETATM   10  C   UNL     1      -5.758  -1.238 -33.925  1.00  0.00     0.026 A 
HETATM   11  C   UNL     1      -4.418  -3.255 -34.051  1.00  0.00     0.038 A 
HETATM   12  C   UNL     1      -5.482  -3.918 -34.665  1.00  0.00     0.003 A 
HETATM   13  C   UNL     1      -6.680  -3.243 -34.908  1.00  0.00     0.001 A 
HETATM   14  C   UNL     1      -6.822  -1.903 -34.538  1.00  0.00     0.016 A 
ENDROOT
BRANCH   1  15
HETATM   15  C   UNL     1      -4.320   3.193 -32.148  1.00  0.00     0.277 C 
HETATM   16  N   UNL     1      -3.562   3.817 -33.117  1.00  0.00    -0.322 N 
HETATM   17  H   UNL     1      -3.702   3.429 -34.048  1.00  0.00     0.169 HD
HETATM   18  O   UNL     1      -4.357   3.460 -30.953  1.00  0.00    -0.266 OA
BRANCH  16  19
HETATM   19  C   UNL     1      -2.644   4.870 -32.972  1.00  0.00     0.035 A 
HETATM   20  C   UNL     1      -1.566   4.846 -32.082  1.00  0.00     0.036 A 
HETATM   21  C   UNL     1      -0.678   5.931 -31.996  1.00  0.00    -0.056 A 
HETATM   22  C   UNL     1      -0.888   7.053 -32.806  1.00  0.00     0.007 A 
HETATM   23  C   UNL     1      -1.960   7.085 -33.694  1.00  0.00     0.003 A 
HETATM   24  C   UNL     1      -2.832   5.998 -33.778  1.00  0.00     0.029 A 
BRANCH  21  25
HETATM   25  C   UNL     1       0.474   5.892 -31.024  1.00  0.00     0.034 C 
HETATM   26  C   UNL     1       0.425   7.051 -30.040  1.00  0.00     0.010 C 
ENDBRANCH  21  25
ENDBRANCH  16  19
ENDBRANCH   1  15
TORSDOF 3
ENDMDL
MODEL 3
REMARK VINA RESULT:      -8.5      2.321      8.511
REMARK  3 active torsions:
REMARK  status: ('A' for Active; 'I' for Inactive)
REMARK    1  A    between atoms: C_2  and  C_3 
REMARK    2  A    between atoms: C_5  and  N_6 
REMARK       I    between atoms: N_6  and  C_7 
REMARK    3  A    between atoms: C_7  and  C_8 
ROOT
HETATM    1  C   UNL     1      -4.879   4.152 -32.195  1.00  0.00     0.155 A 
HETATM    2  N   UNL     1      -5.582   4.798 -31.232  1.00  0.00    -0.168 NA
HETATM    3  N   UNL     1      -4.661   5.577 -30.620  1.00  0.00    -0.276 N 
HETATM    4  H   UNL     1      -4.959   6.162 -29.848  1.00  0.00     0.189 HD
HETATM    5  C   UNL     1      -3.417   5.450 -31.150  1.00  0.00     0.074 A 
HETATM    6  C   UNL     1      -3.523   4.550 -32.174  1.00  0.00     0.031 A 
HETATM    7  C   UNL     1      -2.352   4.157 -32.988  1.00  0.00     0.219 A 
HETATM    8  O   UNL     1      -1.111   4.854 -32.679  1.00  0.00    -0.346 OA
HETATM    9  C   UNL     1      -1.059   5.716 -31.604  1.00  0.00     0.081 A 
HETATM   10  C   UNL     1      -2.163   6.065 -30.800  1.00  0.00     0.026 A 
HETATM   11  C   UNL     1       0.194   6.265 -31.335  1.00  0.00     0.038 A 
HETATM   12  C   UNL     1       0.355   7.151 -30.268  1.00  0.00     0.003 A 
HETATM   13  C   UNL     1      -0.738   7.493 -29.470  1.00  0.00     0.001 A 
HETATM   14  C   UNL     1      -2.000   6.953 -29.734  1.00  0.00     0.016 A 
ENDROOT
BRANCH   1  15
HETATM   15  C   UNL     1      -5.508   3.168 -33.096  1.00  0.00     0.277 C 
HETATM   16  N   UNL     1      -5.550   1.912 -32.529  1.00  0.00    -0.322 N 
HETATM   17  H   UNL     1      -5.160   1.883 -31.589  1.00  0.00     0.169 HD
HETATM   18  O   UNL     1      -5.916   3.493 -34.205  1.00  0.00    -0.266 OA
BRANCH  16  19
HETATM   19  C   UNL     1      -6.034   0.714 -33.080  1.00  0.00     0.035 A 
HETATM   20  C   UNL     1      -5.213  -0.329 -33.517  1.00  0.00     0.036 A 
HETATM   21  C   UNL     1      -5.765  -1.507 -34.049  1.00  0.00    -0.056 A 
HETATM   22  C   UNL     1      -7.156  -1.625 -34.152  1.00  0.00     0.007 A 
HETATM   23  C   UNL     1      -7.980  -0.589 -33.721  1.00  0.00     0.003 A 
HETATM   24  C   UNL     1      -7.422   0.573 -33.186  1.00  0.00     0.029 A 
BRANCH  21  25
HETATM   25  C   UNL     1      -4.864  -2.619 -34.523  1.00  0.00     0.034 C 
HETATM   26  C   UNL     1      -5.653  -3.857 -34.922  1.00  0.00     0.010 C 
ENDBRANCH  21  25
ENDBRANCH  16  19
ENDBRANCH   1  15
TORSDOF 3
ENDMDL
MODEL 4
REMARK VINA RESULT:      -8.4      1.929      8.245
REMARK  3 active torsions:
REMARK  status: ('A' for Active; 'I' for Inactive)
REMARK    1  A    between atoms: C_2  and  C_3 
REMARK    2  A    between atoms: C_5  and  N_6 
REMARK       I    between atoms: N_6  and  C_7 
REMARK    3  A    between atoms: C_7  and  C_8 
ROOT
HETATM    1  C   UNL     1      -4.488   2.589 -31.162  1.00  0.00     0.155 A 
HETATM    2  N   UNL     1      -5.206   3.166 -30.167  1.00  0.00    -0.168 NA
HETATM    3  N   UNL     1      -4.800   4.456 -30.174  1.00  0.00    -0.276 N 
HETATM    4  H   UNL     1      -5.206   5.094 -29.499  1.00  0.00     0.189 HD
HETATM    5  C   UNL     1      -3.862   4.716 -31.121  1.00  0.00     0.074 A 
HETATM    6  C   UNL     1      -3.646   3.539 -31.785  1.00  0.00     0.031 A 
HETATM    7  C   UNL     1      -2.674   3.439 -32.895  1.00  0.00     0.219 A 
HETATM    8  O   UNL     1      -2.034   4.689 -33.281  1.00  0.00    -0.346 OA
HETATM    9  C   UNL     1      -2.259   5.831 -32.543  1.00  0.00     0.081 A 
HETATM   10  C   UNL     1      -3.155   5.924 -31.459  1.00  0.00     0.026 A 
HETATM   11  C   UNL     1      -1.532   6.954 -32.937  1.00  0.00     0.038 A 
HETATM   12  C   UNL     1      -1.687   8.163 -32.256  1.00  0.00     0.003 A 
HETATM   13  C   UNL     1      -2.573   8.252 -31.180  1.00  0.00     0.001 A 
HETATM   14  C   UNL     1      -3.310   7.134 -30.779  1.00  0.00     0.016 A 
ENDROOT
BRANCH   1  15
HETATM   15  C   UNL     1      -4.609   1.155 -31.484  1.00  0.00     0.277 C 
HETATM   16  N   UNL     1      -5.106   0.958 -32.756  1.00  0.00    -0.322 N 
HETATM   17  H   UNL     1      -5.287   1.827 -33.254  1.00  0.00     0.169 HD
HETATM   18  O   UNL     1      -4.293   0.293 -30.672  1.00  0.00    -0.266 OA
BRANCH  16  19
HETATM   19  C   UNL     1      -5.396  -0.251 -33.408  1.00  0.00     0.035 A 
HETATM   20  C   UNL     1      -4.552  -1.365 -33.394  1.00  0.00     0.036 A 
HETATM   21  C   UNL     1      -4.911  -2.550 -34.060  1.00  0.00    -0.056 A 
HETATM   22  C   UNL     1      -6.124  -2.604 -34.755  1.00  0.00     0.007 A 
HETATM   23  C   UNL     1      -6.970  -1.497 -34.775  1.00  0.00     0.003 A 
HETATM   24  C   UNL     1      -6.608  -0.328 -34.104  1.00  0.00     0.029 A 
BRANCH  21  25
HETATM   25  C   UNL     1      -3.984  -3.740 -34.042  1.00  0.00     0.034 C 
HETATM   26  C   UNL     1      -3.340  -3.935 -32.678  1.00  0.00     0.010 C 
ENDBRANCH  21  25
ENDBRANCH  16  19
ENDBRANCH   1  15
TORSDOF 3
ENDMDL
MODEL 5
REMARK VINA RESULT:      -8.4      8.165     10.610
REMARK  3 active torsions:
REMARK  status: ('A' for Active; 'I' for Inactive)
REMARK    1  A    between atoms: C_2  and  C_3 
REMARK    2  A    between atoms: C_5  and  N_6 
REMARK       I    between atoms: N_6  and  C_7 
REMARK    3  A    between atoms: C_7  and  C_8 
ROOT
HETATM    1  C   UNL     1     -12.230   1.243 -33.450  1.00  0.00     0.155 A 
HETATM    2  N   UNL     1     -13.027   0.156 -33.598  1.00  0.00    -0.168 NA
HETATM    3  N   UNL     1     -14.258   0.604 -33.262  1.00  0.00    -0.276 N 
HETATM    4  H   UNL     1     -15.034  -0.047 -33.296  1.00  0.00     0.189 HD
HETATM    5  C   UNL     1     -14.273   1.915 -32.910  1.00  0.00     0.074 A 
HETATM    6  C   UNL     1     -12.986   2.362 -33.031  1.00  0.00     0.031 A 
HETATM    7  C   UNL     1     -12.616   3.761 -32.724  1.00  0.00     0.219 A 
HETATM    8  O   UNL     1     -13.724   4.638 -32.369  1.00  0.00    -0.346 OA
HETATM    9  C   UNL     1     -14.991   4.116 -32.220  1.00  0.00     0.081 A 
HETATM   10  C   UNL     1     -15.343   2.775 -32.474  1.00  0.00     0.026 A 
HETATM   11  C   UNL     1     -15.966   5.017 -31.792  1.00  0.00     0.038 A 
HETATM   12  C   UNL     1     -17.282   4.590 -31.610  1.00  0.00     0.003 A 
HETATM   13  C   UNL     1     -17.628   3.260 -31.859  1.00  0.00     0.001 A 
HETATM   14  C   UNL     1     -16.660   2.350 -32.292  1.00  0.00     0.016 A 
ENDROOT
BRANCH   1  15
HETATM   15  C   UNL     1     -10.776   1.188 -33.694  1.00  0.00     0.277 C 
HETATM   16  N   UNL     1     -10.153   0.286 -32.857  1.00  0.00    -0.322 N 
HETATM   17  H   UNL     1     -10.798  -0.193 -32.232  1.00  0.00     0.169 HD
HETATM   18  O   UNL     1     -10.249   1.890 -34.549  1.00  0.00    -0.266 OA
BRANCH  16  19
HETATM   19  C   UNL     1      -8.786  -0.021 -32.759  1.00  0.00     0.035 A 
HETATM   20  C   UNL     1      -8.089  -0.778 -33.705  1.00  0.00     0.036 A 
HETATM   21  C   UNL     1      -6.716  -1.039 -33.550  1.00  0.00    -0.056 A 
HETATM   22  C   UNL     1      -6.048  -0.541 -32.426  1.00  0.00     0.007 A 
HETATM   23  C   UNL     1      -6.736   0.213 -31.479  1.00  0.00     0.003 A 
HETATM   24  C   UNL     1      -8.097   0.473 -31.645  1.00  0.00     0.029 A 
BRANCH  21  25
HETATM   25  C   UNL     1      -5.982  -1.865 -34.576  1.00  0.00     0.034 C 
HETATM   26  C   UNL     1      -6.607  -3.241 -34.748  1.00  0.00     0.010 C 
ENDBRANCH  21  25
ENDBRANCH  16  19
ENDBRANCH   1  15
TORSDOF 3
ENDMDL
MODEL 6
REMARK VINA RESULT:      -8.4      2.272      3.357
REMARK  3 active torsions:
REMARK  status: ('A' for Active; 'I' for Inactive)
REMARK    1  A    between atoms: C_2  and  C_3 
REMARK    2  A    between atoms: C_5  and  N_6 
REMARK       I    between atoms: N_6  and  C_7 
REMARK    3  A    between atoms: C_7  and  C_8 
ROOT
HETATM    1  C   UNL     1      -3.634   2.658 -31.659  1.00  0.00     0.155 A 
HETATM    2  N   UNL     1      -3.104   1.530 -31.125  1.00  0.00    -0.168 NA
HETATM    3  N   UNL     1      -3.797   0.530 -31.717  1.00  0.00    -0.276 N 
HETATM    4  H   UNL     1      -3.574  -0.427 -31.467  1.00  0.00     0.189 HD
HETATM    5  C   UNL     1      -4.735   0.975 -32.592  1.00  0.00     0.074 A 
HETATM    6  C   UNL     1      -4.649   2.340 -32.590  1.00  0.00     0.031 A 
HETATM    7  C   UNL     1      -5.531   3.177 -33.432  1.00  0.00     0.219 A 
HETATM    8  O   UNL     1      -6.429   2.447 -34.317  1.00  0.00    -0.346 OA
HETATM    9  C   UNL     1      -6.500   1.073 -34.239  1.00  0.00     0.081 A 
HETATM   10  C   UNL     1      -5.689   0.272 -33.410  1.00  0.00     0.026 A 
HETATM   11  C   UNL     1      -7.452   0.472 -35.063  1.00  0.00     0.038 A 
HETATM   12  C   UNL     1      -7.605  -0.915 -35.061  1.00  0.00     0.003 A 
HETATM   13  C   UNL     1      -6.803  -1.707 -34.236  1.00  0.00     0.001 A 
HETATM   14  C   UNL     1      -5.843  -1.116 -33.410  1.00  0.00     0.016 A 
ENDROOT
BRANCH   1  15
HETATM   15  C   UNL     1      -3.174   4.002 -31.262  1.00  0.00     0.277 C 
HETATM   16  N   UNL     1      -1.799   4.106 -31.310  1.00  0.00    -0.322 N 
HETATM   17  H   UNL     1      -1.344   3.251 -31.625  1.00  0.00     0.169 HD
HETATM   18  O   UNL     1      -3.970   4.874 -30.933  1.00  0.00    -0.266 OA
BRANCH  16  19
HETATM   19  C   UNL     1      -0.988   5.201 -30.974  1.00  0.00     0.035 A 
HETATM   20  C   UNL     1      -0.525   5.460 -29.681  1.00  0.00     0.036 A 
HETATM   21  C   UNL     1       0.295   6.571 -29.417  1.00  0.00    -0.056 A 
HETATM   22  C   UNL     1       0.638   7.432 -30.465  1.00  0.00     0.007 A 
HETATM   23  C   UNL     1       0.179   7.182 -31.756  1.00  0.00     0.003 A 
HETATM   24  C   UNL     1      -0.628   6.072 -32.009  1.00  0.00     0.029 A 
BRANCH  21  25
HETATM   25  C   UNL     1       0.778   6.839 -28.014  1.00  0.00     0.034 C 
HETATM   26  C   UNL     1       1.286   8.264 -27.853  1.00  0.00     0.010 C 
ENDBRANCH  21  25
ENDBRANCH  16  19
ENDBRANCH   1  15
TORSDOF 3
ENDMDL
MODEL 7
REMARK VINA RESULT:      -8.3      3.262      9.452
REMARK  3 active torsions:
REMARK  status: ('A' for Active; 'I' for Inactive)
REMARK    1  A    between atoms: C_2  and  C_3 
REMARK    2  A    between atoms: C_5  and  N_6 
REMARK       I    between atoms: N_6  and  C_7 
REMARK    3  A    between atoms: C_7  and  C_8 
ROOT
HETATM    1  C   UNL     1      -0.987   5.098 -30.845  1.00  0.00     0.155 A 
HETATM    2  N   UNL     1       0.174   4.509 -30.466  1.00  0.00    -0.168 NA
HETATM    3  N   UNL     1       0.705   5.374 -29.572  1.00  0.00    -0.276 N 
HETATM    4  H   UNL     1       1.595   5.143 -29.146  1.00  0.00     0.189 HD
HETATM    5  C   UNL     1      -0.063   6.476 -29.374  1.00  0.00     0.074 A 
HETATM    6  C   UNL     1      -1.167   6.326 -30.168  1.00  0.00     0.031 A 
HETATM    7  C   UNL     1      -2.235   7.348 -30.217  1.00  0.00     0.219 A 
HETATM    8  O   UNL     1      -2.070   8.471 -29.304  1.00  0.00    -0.346 OA
HETATM    9  C   UNL     1      -0.914   8.587 -28.563  1.00  0.00     0.081 A 
HETATM   10  C   UNL     1       0.127   7.636 -28.542  1.00  0.00     0.026 A 
HETATM   11  C   UNL     1      -0.811   9.741 -27.787  1.00  0.00     0.038 A 
HETATM   12  C   UNL     1       0.321   9.956 -26.999  1.00  0.00     0.003 A 
HETATM   13  C   UNL     1       1.352   9.015 -26.982  1.00  0.00     0.001 A 
HETATM   14  C   UNL     1       1.258   7.853 -27.752  1.00  0.00     0.016 A 
ENDROOT
BRANCH   1  15
HETATM   15  C   UNL     1      -1.883   4.489 -31.846  1.00  0.00     0.277 C 
HETATM   16  N   UNL     1      -2.763   3.598 -31.267  1.00  0.00    -0.322 N 
HETATM   17  H   UNL     1      -2.655   3.527 -30.257  1.00  0.00     0.169 HD
HETATM   18  O   UNL     1      -1.799   4.779 -33.034  1.00  0.00    -0.266 OA
BRANCH  16  19
HETATM   19  C   UNL     1      -3.738   2.799 -31.886  1.00  0.00     0.035 A 
HETATM   20  C   UNL     1      -3.562   1.444 -32.178  1.00  0.00     0.036 A 
HETATM   21  C   UNL     1      -4.586   0.699 -32.788  1.00  0.00    -0.056 A 
HETATM   22  C   UNL     1      -5.790   1.332 -33.117  1.00  0.00     0.007 A 
HETATM   23  C   UNL     1      -5.972   2.683 -32.831  1.00  0.00     0.003 A 
HETATM   24  C   UNL     1      -4.952   3.412 -32.217  1.00  0.00     0.029 A 
BRANCH  21  25
HETATM   25  C   UNL     1      -4.377  -0.761 -33.104  1.00  0.00     0.034 C 
HETATM   26  C   UNL     1      -5.504  -1.323 -33.957  1.00  0.00     0.010 C 
ENDBRANCH  21  25
ENDBRANCH  16  19
ENDBRANCH   1  15
TORSDOF 3
ENDMDL
MODEL 8
REMARK VINA RESULT:      -8.1      2.790      9.358
REMARK  3 active torsions:
REMARK  status: ('A' for Active; 'I' for Inactive)
REMARK    1  A    between atoms: C_2  and  C_3 
REMARK    2  A    between atoms: C_5  and  N_6 
REMARK       I    between atoms: N_6  and  C_7 
REMARK    3  A    between atoms: C_7  and  C_8 
ROOT
HETATM    1  C   UNL     1      -2.859   5.135 -31.294  1.00  0.00     0.155 A 
HETATM    2  N   UNL     1      -3.930   5.941 -31.092  1.00  0.00    -0.168 NA
HETATM    3  N   UNL     1      -3.451   6.933 -30.306  1.00  0.00    -0.276 N 
HETATM    4  H   UNL     1      -4.085   7.668 -30.016  1.00  0.00     0.189 HD
HETATM    5  C   UNL     1      -2.135   6.787 -30.005  1.00  0.00     0.074 A 
HETATM    6  C   UNL     1      -1.718   5.646 -30.634  1.00  0.00     0.031 A 
HETATM    7  C   UNL     1      -0.325   5.163 -30.528  1.00  0.00     0.219 A 
HETATM    8  O   UNL     1       0.582   6.026 -29.783  1.00  0.00    -0.346 OA
HETATM    9  C   UNL     1       0.090   7.138 -29.133  1.00  0.00     0.081 A 
HETATM   10  C   UNL     1      -1.246   7.583 -29.199  1.00  0.00     0.026 A 
HETATM   11  C   UNL     1       1.019   7.850 -28.374  1.00  0.00     0.038 A 
HETATM   12  C   UNL     1       0.624   8.993 -27.677  1.00  0.00     0.003 A 
HETATM   13  C   UNL     1      -0.701   9.430 -27.740  1.00  0.00     0.001 A 
HETATM   14  C   UNL     1      -1.639   8.727 -28.502  1.00  0.00     0.016 A 
ENDROOT
BRANCH   1  15
HETATM   15  C   UNL     1      -2.951   3.898 -32.093  1.00  0.00     0.277 C 
HETATM   16  N   UNL     1      -3.671   2.920 -31.438  1.00  0.00    -0.322 N 
HETATM   17  H   UNL     1      -4.026   3.223 -30.533  1.00  0.00     0.169 HD
HETATM   18  O   UNL     1      -2.422   3.813 -33.195  1.00  0.00    -0.266 OA
BRANCH  16  19
HETATM   19  C   UNL     1      -3.945   1.606 -31.850  1.00  0.00     0.035 A 
HETATM   20  C   UNL     1      -4.918   1.274 -32.796  1.00  0.00     0.036 A 
HETATM   21  C   UNL     1      -5.132  -0.064 -33.172  1.00  0.00    -0.056 A 
HETATM   22  C   UNL     1      -4.365  -1.072 -32.578  1.00  0.00     0.007 A 
HETATM   23  C   UNL     1      -3.394  -0.749 -31.633  1.00  0.00     0.003 A 
HETATM   24  C   UNL     1      -3.184   0.583 -31.273  1.00  0.00     0.029 A 
BRANCH  21  25
HETATM   25  C   UNL     1      -6.193  -0.405 -34.188  1.00  0.00     0.034 C 
HETATM   26  C   UNL     1      -6.121  -1.863 -34.614  1.00  0.00     0.010 C 
ENDBRANCH  21  25
ENDBRANCH  16  19
ENDBRANCH   1  15
TORSDOF 3
ENDMDL
MODEL 9
REMARK VINA RESULT:      -8.0      3.430      9.474
REMARK  3 active torsions:
REMARK  status: ('A' for Active; 'I' for Inactive)
REMARK    1  A    between atoms: C_2  and  C_3 
REMARK    2  A    between atoms: C_5  and  N_6 
REMARK       I    between atoms: N_6  and  C_7 
REMARK    3  A    between atoms: C_7  and  C_8 
ROOT
HETATM    1  C   UNL     1      -0.995   5.114 -30.846  1.00  0.00     0.155 A 
HETATM    2  N   UNL     1       0.186   4.557 -30.482  1.00  0.00    -0.168 NA
HETATM    3  N   UNL     1       0.707   5.438 -29.599  1.00  0.00    -0.276 N 
HETATM    4  H   UNL     1       1.609   5.231 -29.184  1.00  0.00     0.189 HD
HETATM    5  C   UNL     1      -0.086   6.520 -29.392  1.00  0.00     0.074 A 
HETATM    6  C   UNL     1      -1.197   6.339 -30.169  1.00  0.00     0.031 A 
HETATM    7  C   UNL     1      -2.293   7.331 -30.204  1.00  0.00     0.219 A 
HETATM    8  O   UNL     1      -2.144   8.461 -29.296  1.00  0.00    -0.346 OA
HETATM    9  C   UNL     1      -0.980   8.610 -28.573  1.00  0.00     0.081 A 
HETATM   10  C   UNL     1       0.085   7.687 -28.565  1.00  0.00     0.026 A 
HETATM   11  C   UNL     1      -0.897   9.768 -27.801  1.00  0.00     0.038 A 
HETATM   12  C   UNL     1       0.240  10.015 -27.029  1.00  0.00     0.003 A 
HETATM   13  C   UNL     1       1.296   9.101 -27.026  1.00  0.00     0.001 A 
HETATM   14  C   UNL     1       1.221   7.935 -27.792  1.00  0.00     0.016 A 
ENDROOT
BRANCH   1  15
HETATM   15  C   UNL     1      -1.889   4.479 -31.832  1.00  0.00     0.277 C 
HETATM   16  N   UNL     1      -2.717   3.547 -31.243  1.00  0.00    -0.322 N 
HETATM   17  H   UNL     1      -2.582   3.469 -30.237  1.00  0.00     0.169 HD
HETATM   18  O   UNL     1      -1.846   4.785 -33.018  1.00  0.00    -0.266 OA
BRANCH  16  19
HETATM   19  C   UNL     1      -3.673   2.714 -31.847  1.00  0.00     0.035 A 
HETATM   20  C   UNL     1      -4.807   3.187 -32.513  1.00  0.00     0.036 A 
HETATM   21  C   UNL     1      -5.719   2.296 -33.107  1.00  0.00    -0.056 A 
HETATM   22  C   UNL     1      -5.487   0.919 -33.016  1.00  0.00     0.007 A 
HETATM   23  C   UNL     1      -4.360   0.440 -32.354  1.00  0.00     0.003 A 
HETATM   24  C   UNL     1      -3.457   1.333 -31.774  1.00  0.00     0.029 A 
BRANCH  21  25
HETATM   25  C   UNL     1      -6.942   2.824 -33.813  1.00  0.00     0.034 C 
HETATM   26  C   UNL     1      -7.951   1.721 -34.097  1.00  0.00     0.010 C 
ENDBRANCH  21  25
ENDBRANCH  16  19
ENDBRANCH   1  15
TORSDOF 3
ENDMDL
MODEL 10
REMARK VINA RESULT:      -7.9      4.241      5.950
REMARK  3 active torsions:
REMARK  status: ('A' for Active; 'I' for Inactive)
REMARK    1  A    between atoms: C_2  and  C_3 
REMARK    2  A    between atoms: C_5  and  N_6 
REMARK       I    between atoms: N_6  and  C_7 
REMARK    3  A    between atoms: C_7  and  C_8 
ROOT
HETATM    1  C   UNL     1      -5.969   0.736 -33.047  1.00  0.00     0.155 A 
HETATM    2  N   UNL     1      -4.772   0.849 -32.419  1.00  0.00    -0.168 NA
HETATM    3  N   UNL     1      -4.200  -0.366 -32.583  1.00  0.00    -0.276 N 
HETATM    4  H   UNL     1      -3.280  -0.524 -32.187  1.00  0.00     0.189 HD
HETATM    5  C   UNL     1      -4.978  -1.233 -33.280  1.00  0.00     0.074 A 
HETATM    6  C   UNL     1      -6.119  -0.554 -33.606  1.00  0.00     0.031 A 
HETATM    7  C   UNL     1      -7.213  -1.190 -34.372  1.00  0.00     0.219 A 
HETATM    8  O   UNL     1      -6.951  -2.550 -34.823  1.00  0.00    -0.346 OA
HETATM    9  C   UNL     1      -5.801  -3.196 -34.423  1.00  0.00     0.081 A 
HETATM   10  C   UNL     1      -4.773  -2.608 -33.659  1.00  0.00     0.026 A 
HETATM   11  C   UNL     1      -5.684  -4.525 -34.832  1.00  0.00     0.038 A 
HETATM   12  C   UNL     1      -4.557  -5.269 -34.480  1.00  0.00     0.003 A 
HETATM   13  C   UNL     1      -3.541  -4.685 -33.721  1.00  0.00     0.001 A 
HETATM   14  C   UNL     1      -3.646  -3.353 -33.309  1.00  0.00     0.016 A 
ENDROOT
BRANCH   1  15
HETATM   15  C   UNL     1      -6.939   1.847 -33.088  1.00  0.00     0.277 C 
HETATM   16  N   UNL     1      -8.060   1.572 -32.332  1.00  0.00    -0.322 N 
HETATM   17  H   UNL     1      -8.018   0.667 -31.868  1.00  0.00     0.169 HD
HETATM   18  O   UNL     1      -6.717   2.860 -33.740  1.00  0.00    -0.266 OA
BRANCH  16  19
HETATM   19  C   UNL     1      -9.211   2.356 -32.151  1.00  0.00     0.035 A 
HETATM   20  C   UNL     1     -10.268   2.408 -33.063  1.00  0.00     0.036 A 
HETATM   21  C   UNL     1     -11.398   3.207 -32.812  1.00  0.00    -0.056 A 
HETATM   22  C   UNL     1     -11.452   3.966 -31.638  1.00  0.00     0.007 A 
HETATM   23  C   UNL     1     -10.402   3.920 -30.725  1.00  0.00     0.003 A 
HETATM   24  C   UNL     1      -9.288   3.118 -30.979  1.00  0.00     0.029 A 
BRANCH  21  25
HETATM   25  C   UNL     1     -12.526   3.258 -33.812  1.00  0.00     0.034 C 
HETATM   26  C   UNL     1     -12.243   2.393 -35.030  1.00  0.00     0.010 C 
ENDBRANCH  21  25
ENDBRANCH  16  19
ENDBRANCH   1  15
TORSDOF 3
ENDMDL
