MODEL 1
REMARK VINA RESULT:      -9.0      0.000      0.000
REMARK  3 active torsions:
REMARK  status: ('A' for Active; 'I' for Inactive)
REMARK    1  A    between atoms: C_6  and  C_7 
REMARK    2  A    between atoms: C_13  and  C_14 
REMARK    3  A    between atoms: C_14  and  C_15 
ROOT
HETATM    1  C   UNL     1      -3.352  -4.465 -33.241  1.00  0.00     0.070 C 
HETATM    2  C   UNL     1      -3.958  -3.092 -33.181  1.00  0.00     0.033 A 
HETATM    3  N   UNL     1      -3.336  -2.189 -32.405  1.00  0.00    -0.246 NA
HETATM    4  C   UNL     1      -3.901  -0.966 -32.382  1.00  0.00     0.112 A 
HETATM    5  C   UNL     1      -5.045  -0.558 -33.061  1.00  0.00     0.043 A 
HETATM    6  C   UNL     1      -5.685  -1.534 -33.872  1.00  0.00     0.065 A 
HETATM    7  C   UNL     1      -5.101  -2.815 -33.917  1.00  0.00     0.044 A 
HETATM    8  S   UNL     1      -3.200   0.269 -31.447  1.00  0.00    -0.063 SA
HETATM    9  C   UNL     1      -4.368   1.413 -31.946  1.00  0.00     0.085 A 
HETATM   10  C   UNL     1      -5.316   0.825 -32.767  1.00  0.00     0.061 A 
HETATM   11  N   UNL     1      -6.380   1.512 -33.248  1.00  0.00    -0.397 N 
HETATM   12  H   UNL     1      -6.594   2.425 -32.830  1.00  0.00     0.156 HD
HETATM   13  H   UNL     1      -7.242   1.040 -33.519  1.00  0.00     0.156 HD
ENDROOT
BRANCH   9  14
HETATM   14  C   UNL     1      -4.361   2.782 -31.447  1.00  0.00     0.201 C 
HETATM   15  O   UNL     1      -4.854   3.092 -30.359  1.00  0.00    -0.286 OA
BRANCH  14  16
HETATM   16  C   UNL     1      -3.781   3.894 -32.246  1.00  0.00     0.018 A 
HETATM   17  C   UNL     1      -2.552   4.434 -31.841  1.00  0.00     0.055 A 
HETATM   18  C   UNL     1      -2.048   5.491 -32.567  1.00  0.00     0.106 A 
HETATM   19  C   UNL     1      -2.720   6.017 -33.646  1.00  0.00     0.105 A 
HETATM   20  O   UNL     1      -0.877   6.134 -32.322  1.00  0.00    -0.323 OA
HETATM   21  O   UNL     1      -2.053   7.056 -34.215  1.00  0.00    -0.323 OA
HETATM   22  C   UNL     1      -3.937   5.520 -34.060  1.00  0.00     0.040 A 
HETATM   23  C   UNL     1      -0.891   7.135 -33.363  1.00  0.00     0.352 A 
HETATM   24  C   UNL     1      -4.480   4.448 -33.343  1.00  0.00     0.018 A 
ENDBRANCH  14  16
ENDBRANCH   9  14
BRANCH   6  25
HETATM   25  C   UNL     1      -6.902  -1.254 -34.712  1.00  0.00     0.418 C 
HETATM   26  F   UNL     1      -6.706  -0.277 -35.644  1.00  0.00    -0.166 F 
HETATM   27  F   UNL     1      -7.332  -2.349 -35.395  1.00  0.00    -0.166 F 
HETATM   28  F   UNL     1      -7.973  -0.836 -33.977  1.00  0.00    -0.166 F 
ENDBRANCH   6  25
TORSDOF 3
ENDMDL
MODEL 2
REMARK VINA RESULT:      -8.9      5.042      7.293
REMARK  3 active torsions:
REMARK  status: ('A' for Active; 'I' for Inactive)
REMARK    1  A    between atoms: C_6  and  C_7 
REMARK    2  A    between atoms: C_13  and  C_14 
REMARK    3  A    between atoms: C_14  and  C_15 
ROOT
HETATM    1  C   UNL     1      -4.418  -3.441 -34.569  1.00  0.00     0.070 C 
HETATM    2  C   UNL     1      -5.000  -2.155 -34.057  1.00  0.00     0.033 A 
HETATM    3  N   UNL     1      -6.036  -1.643 -34.743  1.00  0.00    -0.246 NA
HETATM    4  C   UNL     1      -6.539  -0.494 -34.252  1.00  0.00     0.112 A 
HETATM    5  C   UNL     1      -6.096   0.204 -33.133  1.00  0.00     0.043 A 
HETATM    6  C   UNL     1      -4.997  -0.357 -32.428  1.00  0.00     0.065 A 
HETATM    7  C   UNL     1      -4.465  -1.565 -32.921  1.00  0.00     0.044 A 
HETATM    8  S   UNL     1      -7.860   0.245 -35.025  1.00  0.00    -0.063 SA
HETATM    9  C   UNL     1      -7.927   1.504 -33.870  1.00  0.00     0.085 A 
HETATM   10  C   UNL     1      -6.901   1.383 -32.948  1.00  0.00     0.061 A 
HETATM   11  N   UNL     1      -6.704   2.294 -31.963  1.00  0.00    -0.397 N 
HETATM   12  H   UNL     1      -7.198   3.191 -32.031  1.00  0.00     0.156 HD
HETATM   13  H   UNL     1      -5.788   2.428 -31.537  1.00  0.00     0.156 HD
ENDROOT
BRANCH   9  14
HETATM   14  C   UNL     1      -8.898   2.586 -33.972  1.00  0.00     0.201 C 
HETATM   15  O   UNL     1      -8.588   3.770 -33.822  1.00  0.00    -0.286 OA
BRANCH  14  16
HETATM   16  C   UNL     1     -10.336   2.311 -34.232  1.00  0.00     0.018 A 
HETATM   17  C   UNL     1     -10.932   1.217 -33.588  1.00  0.00     0.055 A 
HETATM   18  C   UNL     1     -12.254   0.951 -33.872  1.00  0.00     0.106 A 
HETATM   19  C   UNL     1     -12.975   1.714 -34.761  1.00  0.00     0.105 A 
HETATM   20  O   UNL     1     -12.991  -0.061 -33.342  1.00  0.00    -0.323 OA
HETATM   21  O   UNL     1     -14.254   1.278 -34.900  1.00  0.00    -0.323 OA
HETATM   22  C   UNL     1     -12.414   2.786 -35.423  1.00  0.00     0.040 A 
HETATM   23  C   UNL     1     -14.255   0.144 -34.008  1.00  0.00     0.352 A 
HETATM   24  C   UNL     1     -11.072   3.083 -35.162  1.00  0.00     0.018 A 
ENDBRANCH  14  16
ENDBRANCH   9  14
BRANCH   6  25
HETATM   25  C   UNL     1      -4.422   0.237 -31.170  1.00  0.00     0.418 C 
HETATM   26  F   UNL     1      -5.320   0.323 -30.148  1.00  0.00    -0.166 F 
HETATM   27  F   UNL     1      -3.366  -0.474 -30.688  1.00  0.00    -0.166 F 
HETATM   28  F   UNL     1      -3.957   1.508 -31.345  1.00  0.00    -0.166 F 
ENDBRANCH   6  25
TORSDOF 3
ENDMDL
MODEL 3
REMARK VINA RESULT:      -8.7      2.668      3.061
REMARK  3 active torsions:
REMARK  status: ('A' for Active; 'I' for Inactive)
REMARK    1  A    between atoms: C_6  and  C_7 
REMARK    2  A    between atoms: C_13  and  C_14 
REMARK    3  A    between atoms: C_14  and  C_15 
ROOT
HETATM    1  C   UNL     1      -6.299  -3.743 -35.252  1.00  0.00     0.070 C 
HETATM    2  C   UNL     1      -5.846  -2.491 -34.558  1.00  0.00     0.033 A 
HETATM    3  N   UNL     1      -6.513  -1.361 -34.849  1.00  0.00    -0.246 NA
HETATM    4  C   UNL     1      -6.087  -0.259 -34.203  1.00  0.00     0.112 A 
HETATM    5  C   UNL     1      -5.041  -0.176 -33.288  1.00  0.00     0.043 A 
HETATM    6  C   UNL     1      -4.350  -1.384 -33.000  1.00  0.00     0.065 A 
HETATM    7  C   UNL     1      -4.791  -2.549 -33.659  1.00  0.00     0.044 A 
HETATM    8  S   UNL     1      -6.858   1.231 -34.477  1.00  0.00    -0.063 SA
HETATM    9  C   UNL     1      -5.859   2.041 -33.351  1.00  0.00     0.085 A 
HETATM   10  C   UNL     1      -4.907   1.182 -32.829  1.00  0.00     0.061 A 
HETATM   11  N   UNL     1      -3.958   1.601 -31.955  1.00  0.00    -0.397 N 
HETATM   12  H   UNL     1      -3.820   2.612 -31.841  1.00  0.00     0.156 HD
HETATM   13  H   UNL     1      -3.068   1.112 -31.860  1.00  0.00     0.156 HD
ENDROOT
BRANCH   9  14
HETATM   14  C   UNL     1      -5.985   3.472 -33.106  1.00  0.00     0.201 C 
HETATM   15  O   UNL     1      -6.998   3.972 -32.610  1.00  0.00    -0.286 OA
BRANCH  14  16
HETATM   16  C   UNL     1      -4.899   4.418 -33.477  1.00  0.00     0.018 A 
HETATM   17  C   UNL     1      -4.318   5.193 -32.463  1.00  0.00     0.055 A 
HETATM   18  C   UNL     1      -3.342   6.095 -32.828  1.00  0.00     0.106 A 
HETATM   19  C   UNL     1      -2.949   6.250 -34.138  1.00  0.00     0.105 A 
HETATM   20  O   UNL     1      -2.671   6.922 -31.985  1.00  0.00    -0.323 OA
HETATM   21  O   UNL     1      -1.981   7.194 -34.280  1.00  0.00    -0.323 OA
HETATM   22  C   UNL     1      -3.512   5.515 -35.159  1.00  0.00     0.040 A 
HETATM   23  C   UNL     1      -1.818   7.626 -32.913  1.00  0.00     0.352 A 
HETATM   24  C   UNL     1      -4.509   4.593 -34.825  1.00  0.00     0.018 A 
ENDBRANCH  14  16
ENDBRANCH   9  14
BRANCH   6  25
HETATM   25  C   UNL     1      -3.229  -1.487 -32.001  1.00  0.00     0.418 C 
HETATM   26  F   UNL     1      -3.534  -0.955 -30.783  1.00  0.00    -0.166 F 
HETATM   27  F   UNL     1      -2.849  -2.772 -31.770  1.00  0.00    -0.166 F 
HETATM   28  F   UNL     1      -2.098  -0.837 -32.401  1.00  0.00    -0.166 F 
ENDBRANCH   6  25
TORSDOF 3
ENDMDL
MODEL 4
REMARK VINA RESULT:      -8.6      5.309      7.988
REMARK  3 active torsions:
REMARK  status: ('A' for Active; 'I' for Inactive)
REMARK    1  A    between atoms: C_6  and  C_7 
REMARK    2  A    between atoms: C_13  and  C_14 
REMARK    3  A    between atoms: C_14  and  C_15 
ROOT
HETATM    1  C   UNL     1     -14.836   0.670 -34.238  1.00  0.00     0.070 C 
HETATM    2  C   UNL     1     -13.430   1.191 -34.156  1.00  0.00     0.033 A 
HETATM    3  N   UNL     1     -12.522   0.396 -33.564  1.00  0.00    -0.246 NA
HETATM    4  C   UNL     1     -11.270   0.890 -33.516  1.00  0.00     0.112 A 
HETATM    5  C   UNL     1     -10.835   2.120 -34.002  1.00  0.00     0.043 A 
HETATM    6  C   UNL     1     -11.815   2.942 -34.619  1.00  0.00     0.065 A 
HETATM    7  C   UNL     1     -13.128   2.436 -34.689  1.00  0.00     0.044 A 
HETATM    8  S   UNL     1     -10.029  -0.027 -32.803  1.00  0.00    -0.063 SA
HETATM    9  C   UNL     1      -8.849   1.158 -33.155  1.00  0.00     0.085 A 
HETATM   10  C   UNL     1      -9.425   2.267 -33.751  1.00  0.00     0.061 A 
HETATM   11  N   UNL     1      -8.705   3.370 -34.074  1.00  0.00    -0.397 N 
HETATM   12  H   UNL     1      -7.760   3.460 -33.682  1.00  0.00     0.156 HD
HETATM   13  H   UNL     1      -9.142   4.287 -34.154  1.00  0.00     0.156 HD
ENDROOT
BRANCH   9  14
HETATM   14  C   UNL     1      -7.458   0.997 -32.752  1.00  0.00     0.201 C 
HETATM   15  O   UNL     1      -6.894   1.785 -31.989  1.00  0.00    -0.286 OA
BRANCH  14  16
HETATM   16  C   UNL     1      -6.627  -0.122 -33.272  1.00  0.00     0.018 A 
HETATM   17  C   UNL     1      -7.278  -1.214 -33.864  1.00  0.00     0.055 A 
HETATM   18  C   UNL     1      -6.498  -2.262 -34.303  1.00  0.00     0.106 A 
HETATM   19  C   UNL     1      -5.129  -2.257 -34.163  1.00  0.00     0.105 A 
HETATM   20  O   UNL     1      -6.954  -3.395 -34.900  1.00  0.00    -0.323 OA
HETATM   21  O   UNL     1      -4.554  -3.386 -34.656  1.00  0.00    -0.323 OA
HETATM   22  C   UNL     1      -4.461  -1.206 -33.572  1.00  0.00     0.040 A 
HETATM   23  C   UNL     1      -5.718  -4.110 -35.110  1.00  0.00     0.352 A 
HETATM   24  C   UNL     1      -5.223  -0.127 -33.110  1.00  0.00     0.018 A 
ENDBRANCH  14  16
ENDBRANCH   9  14
BRANCH   6  25
HETATM   25  C   UNL     1     -11.511   4.278 -35.242  1.00  0.00     0.418 C 
HETATM   26  F   UNL     1     -10.538   4.227 -36.196  1.00  0.00    -0.166 F 
HETATM   27  F   UNL     1     -12.598   4.839 -35.839  1.00  0.00    -0.166 F 
HETATM   28  F   UNL     1     -11.075   5.201 -34.337  1.00  0.00    -0.166 F 
ENDBRANCH   6  25
TORSDOF 3
ENDMDL
MODEL 5
REMARK VINA RESULT:      -8.4      2.123      3.437
REMARK  3 active torsions:
REMARK  status: ('A' for Active; 'I' for Inactive)
REMARK    1  A    between atoms: C_6  and  C_7 
REMARK    2  A    between atoms: C_13  and  C_14 
REMARK    3  A    between atoms: C_14  and  C_15 
ROOT
HETATM    1  C   UNL     1     -10.373   1.637 -34.347  1.00  0.00     0.070 C 
HETATM    2  C   UNL     1      -8.937   1.388 -33.987  1.00  0.00     0.033 A 
HETATM    3  N   UNL     1      -8.236   2.439 -33.527  1.00  0.00    -0.246 NA
HETATM    4  C   UNL     1      -6.955   2.178 -33.206  1.00  0.00     0.112 A 
HETATM    5  C   UNL     1      -6.297   0.956 -33.308  1.00  0.00     0.043 A 
HETATM    6  C   UNL     1      -7.059  -0.137 -33.801  1.00  0.00     0.065 A 
HETATM    7  C   UNL     1      -8.405   0.115 -34.131  1.00  0.00     0.044 A 
HETATM    8  S   UNL     1      -5.968   3.423 -32.600  1.00  0.00    -0.063 SA
HETATM    9  C   UNL     1      -4.634   2.372 -32.405  1.00  0.00     0.085 A 
HETATM   10  C   UNL     1      -4.934   1.101 -32.865  1.00  0.00     0.061 A 
HETATM   11  N   UNL     1      -4.020   0.100 -32.872  1.00  0.00    -0.397 N 
HETATM   12  H   UNL     1      -3.034   0.347 -32.725  1.00  0.00     0.156 HD
HETATM   13  H   UNL     1      -4.093  -0.684 -33.518  1.00  0.00     0.156 HD
ENDROOT
BRANCH   9  14
HETATM   14  C   UNL     1      -3.348   2.850 -31.912  1.00  0.00     0.201 C 
HETATM   15  O   UNL     1      -2.648   2.190 -31.140  1.00  0.00    -0.286 OA
BRANCH  14  16
HETATM   16  C   UNL     1      -2.823   4.189 -32.293  1.00  0.00     0.018 A 
HETATM   17  C   UNL     1      -2.891   5.223 -31.349  1.00  0.00     0.055 A 
HETATM   18  C   UNL     1      -2.439   6.468 -31.730  1.00  0.00     0.106 A 
HETATM   19  C   UNL     1      -1.947   6.706 -32.992  1.00  0.00     0.105 A 
HETATM   20  O   UNL     1      -2.426   7.580 -30.951  1.00  0.00    -0.323 OA
HETATM   21  O   UNL     1      -1.562   7.999 -33.162  1.00  0.00    -0.323 OA
HETATM   22  C   UNL     1      -1.882   5.715 -33.948  1.00  0.00     0.040 A 
HETATM   23  C   UNL     1      -1.881   8.552 -31.868  1.00  0.00     0.352 A 
HETATM   24  C   UNL     1      -2.336   4.440 -33.596  1.00  0.00     0.018 A 
ENDBRANCH  14  16
ENDBRANCH   9  14
BRANCH   6  25
HETATM   25  C   UNL     1      -6.523  -1.538 -33.930  1.00  0.00     0.418 C 
HETATM   26  F   UNL     1      -5.622  -1.685 -34.943  1.00  0.00    -0.166 F 
HETATM   27  F   UNL     1      -5.897  -1.966 -32.800  1.00  0.00    -0.166 F 
HETATM   28  F   UNL     1      -7.496  -2.460 -34.181  1.00  0.00    -0.166 F 
ENDBRANCH   6  25
TORSDOF 3
ENDMDL
MODEL 6
REMARK VINA RESULT:      -8.3      5.026      7.845
REMARK  3 active torsions:
REMARK  status: ('A' for Active; 'I' for Inactive)
REMARK    1  A    between atoms: C_6  and  C_7 
REMARK    2  A    between atoms: C_13  and  C_14 
REMARK    3  A    between atoms: C_14  and  C_15 
ROOT
HETATM    1  C   UNL     1     -10.595   6.489 -35.740  1.00  0.00     0.070 C 
HETATM    2  C   UNL     1     -10.426   5.160 -35.062  1.00  0.00     0.033 A 
HETATM    3  N   UNL     1      -9.197   4.866 -34.602  1.00  0.00    -0.246 NA
HETATM    4  C   UNL     1      -9.083   3.671 -33.991  1.00  0.00     0.112 A 
HETATM    5  C   UNL     1     -10.088   2.728 -33.801  1.00  0.00     0.043 A 
HETATM    6  C   UNL     1     -11.376   3.061 -34.299  1.00  0.00     0.065 A 
HETATM    7  C   UNL     1     -11.517   4.313 -34.931  1.00  0.00     0.044 A 
HETATM    8  S   UNL     1      -7.582   3.190 -33.356  1.00  0.00    -0.063 SA
HETATM    9  C   UNL     1      -8.221   1.722 -32.757  1.00  0.00     0.085 A 
HETATM   10  C   UNL     1      -9.554   1.585 -33.106  1.00  0.00     0.061 A 
HETATM   11  N   UNL     1     -10.272   0.477 -32.797  1.00  0.00    -0.397 N 
HETATM   12  H   UNL     1      -9.761  -0.355 -32.481  1.00  0.00     0.156 HD
HETATM   13  H   UNL     1     -11.089   0.202 -33.341  1.00  0.00     0.156 HD
ENDROOT
BRANCH   9  14
HETATM   14  C   UNL     1      -7.385   0.745 -32.072  1.00  0.00     0.201 C 
HETATM   15  O   UNL     1      -7.286   0.703 -30.843  1.00  0.00    -0.286 OA
BRANCH  14  16
HETATM   16  C   UNL     1      -6.572  -0.244 -32.830  1.00  0.00     0.018 A 
HETATM   17  C   UNL     1      -7.240  -1.266 -33.519  1.00  0.00     0.055 A 
HETATM   18  C   UNL     1      -6.472  -2.199 -34.182  1.00  0.00     0.106 A 
HETATM   19  C   UNL     1      -5.097  -2.148 -34.169  1.00  0.00     0.105 A 
HETATM   20  O   UNL     1      -6.945  -3.251 -34.899  1.00  0.00    -0.323 OA
HETATM   21  O   UNL     1      -4.535  -3.163 -34.879  1.00  0.00    -0.323 OA
HETATM   22  C   UNL     1      -4.410  -1.166 -33.489  1.00  0.00     0.040 A 
HETATM   23  C   UNL     1      -5.712  -3.867 -35.328  1.00  0.00     0.352 A 
HETATM   24  C   UNL     1      -5.159  -0.205 -32.801  1.00  0.00     0.018 A 
ENDBRANCH  14  16
ENDBRANCH   9  14
BRANCH   6  25
HETATM   25  C   UNL     1     -12.587   2.183 -34.137  1.00  0.00     0.418 C 
HETATM   26  F   UNL     1     -12.451   0.955 -34.714  1.00  0.00    -0.166 F 
HETATM   27  F   UNL     1     -12.901   1.956 -32.833  1.00  0.00    -0.166 F 
HETATM   28  F   UNL     1     -13.712   2.717 -34.697  1.00  0.00    -0.166 F 
ENDBRANCH   6  25
TORSDOF 3
ENDMDL
MODEL 7
REMARK VINA RESULT:      -8.2      4.638      6.172
REMARK  3 active torsions:
REMARK  status: ('A' for Active; 'I' for Inactive)
REMARK    1  A    between atoms: C_6  and  C_7 
REMARK    2  A    between atoms: C_13  and  C_14 
REMARK    3  A    between atoms: C_14  and  C_15 
ROOT
HETATM    1  C   UNL     1      -5.929  -4.540 -35.270  1.00  0.00     0.070 C 
HETATM    2  C   UNL     1      -5.795  -3.153 -34.709  1.00  0.00     0.033 A 
HETATM    3  N   UNL     1      -6.730  -2.260 -35.073  1.00  0.00    -0.246 NA
HETATM    4  C   UNL     1      -6.585  -1.029 -34.545  1.00  0.00     0.112 A 
HETATM    5  C   UNL     1      -5.578  -0.599 -33.686  1.00  0.00     0.043 A 
HETATM    6  C   UNL     1      -4.600  -1.563 -33.320  1.00  0.00     0.065 A 
HETATM    7  C   UNL     1      -4.743  -2.859 -33.854  1.00  0.00     0.044 A 
HETATM    8  S   UNL     1      -7.712   0.187 -34.919  1.00  0.00    -0.063 SA
HETATM    9  C   UNL     1      -6.930   1.326 -33.912  1.00  0.00     0.085 A 
HETATM   10  C   UNL     1      -5.783   0.787 -33.355  1.00  0.00     0.061 A 
HETATM   11  N   UNL     1      -4.955   1.512 -32.562  1.00  0.00    -0.397 N 
HETATM   12  H   UNL     1      -5.076   2.531 -32.545  1.00  0.00     0.156 HD
HETATM   13  H   UNL     1      -3.970   1.272 -32.461  1.00  0.00     0.156 HD
ENDROOT
BRANCH   9  14
HETATM   14  C   UNL     1      -7.409   2.697 -33.791  1.00  0.00     0.201 C 
HETATM   15  O   UNL     1      -6.711   3.671 -34.083  1.00  0.00    -0.286 OA
BRANCH  14  16
HETATM   16  C   UNL     1      -8.770   2.997 -33.271  1.00  0.00     0.018 A 
HETATM   17  C   UNL     1      -9.824   3.108 -34.190  1.00  0.00     0.055 A 
HETATM   18  C   UNL     1     -11.070   3.428 -33.698  1.00  0.00     0.106 A 
HETATM   19  C   UNL     1     -11.288   3.645 -32.357  1.00  0.00     0.105 A 
HETATM   20  O   UNL     1     -12.201   3.574 -34.437  1.00  0.00    -0.323 OA
HETATM   21  O   UNL     1     -12.584   3.954 -32.087  1.00  0.00    -0.323 OA
HETATM   22  C   UNL     1     -10.271   3.560 -31.431  1.00  0.00     0.040 A 
HETATM   23  C   UNL     1     -13.156   3.920 -33.411  1.00  0.00     0.352 A 
HETATM   24  C   UNL     1      -8.991   3.241 -31.896  1.00  0.00     0.018 A 
ENDBRANCH  14  16
ENDBRANCH   9  14
BRANCH   6  25
HETATM   25  C   UNL     1      -3.472  -1.285 -32.363  1.00  0.00     0.418 C 
HETATM   26  F   UNL     1      -3.885  -0.792 -31.161  1.00  0.00    -0.166 F 
HETATM   27  F   UNL     1      -2.735  -2.395 -32.084  1.00  0.00    -0.166 F 
HETATM   28  F   UNL     1      -2.583  -0.366 -32.839  1.00  0.00    -0.166 F 
ENDBRANCH   6  25
TORSDOF 3
ENDMDL
MODEL 8
REMARK VINA RESULT:      -8.1      1.528      1.928
REMARK  3 active torsions:
REMARK  status: ('A' for Active; 'I' for Inactive)
REMARK    1  A    between atoms: C_6  and  C_7 
REMARK    2  A    between atoms: C_13  and  C_14 
REMARK    3  A    between atoms: C_14  and  C_15 
ROOT
HETATM    1  C   UNL     1      -3.029  -2.929 -31.965  1.00  0.00     0.070 C 
HETATM    2  C   UNL     1      -3.943  -1.782 -32.286  1.00  0.00     0.033 A 
HETATM    3  N   UNL     1      -3.724  -0.630 -31.630  1.00  0.00    -0.246 NA
HETATM    4  C   UNL     1      -4.556   0.380 -31.948  1.00  0.00     0.112 A 
HETATM    5  C   UNL     1      -5.603   0.347 -32.863  1.00  0.00     0.043 A 
HETATM    6  C   UNL     1      -5.816  -0.884 -33.540  1.00  0.00     0.065 A 
HETATM    7  C   UNL     1      -4.948  -1.949 -33.228  1.00  0.00     0.044 A 
HETATM    8  S   UNL     1      -4.371   1.893 -31.195  1.00  0.00    -0.063 SA
HETATM    9  C   UNL     1      -5.652   2.581 -32.094  1.00  0.00     0.085 A 
HETATM   10  C   UNL     1      -6.248   1.633 -32.909  1.00  0.00     0.061 A 
HETATM   11  N   UNL     1      -7.327   1.918 -33.679  1.00  0.00    -0.397 N 
HETATM   12  H   UNL     1      -7.831   2.794 -33.498  1.00  0.00     0.156 HD
HETATM   13  H   UNL     1      -7.979   1.192 -33.973  1.00  0.00     0.156 HD
ENDROOT
BRANCH   9  14
HETATM   14  C   UNL     1      -6.071   3.962 -31.896  1.00  0.00     0.201 C 
HETATM   15  O   UNL     1      -7.236   4.269 -31.626  1.00  0.00    -0.286 OA
BRANCH  14  16
HETATM   16  C   UNL     1      -5.113   5.090 -32.042  1.00  0.00     0.018 A 
HETATM   17  C   UNL     1      -4.260   5.099 -33.155  1.00  0.00     0.055 A 
HETATM   18  C   UNL     1      -3.349   6.127 -33.255  1.00  0.00     0.106 A 
HETATM   19  C   UNL     1      -3.259   7.113 -32.299  1.00  0.00     0.105 A 
HETATM   20  O   UNL     1      -2.451   6.297 -34.260  1.00  0.00    -0.323 OA
HETATM   21  O   UNL     1      -2.293   8.026 -32.586  1.00  0.00    -0.323 OA
HETATM   22  C   UNL     1      -4.071   7.124 -31.185  1.00  0.00     0.040 A 
HETATM   23  C   UNL     1      -1.775   7.496 -33.825  1.00  0.00     0.352 A 
HETATM   24  C   UNL     1      -5.005   6.092 -31.050  1.00  0.00     0.018 A 
ENDBRANCH  14  16
ENDBRANCH   9  14
BRANCH   6  25
HETATM   25  C   UNL     1      -6.870  -1.085 -34.596  1.00  0.00     0.418 C 
HETATM   26  F   UNL     1      -6.908  -2.354 -35.095  1.00  0.00    -0.166 F 
HETATM   27  F   UNL     1      -8.125  -0.818 -34.143  1.00  0.00    -0.166 F 
HETATM   28  F   UNL     1      -6.696  -0.279 -35.683  1.00  0.00    -0.166 F 
ENDBRANCH   6  25
TORSDOF 3
ENDMDL
MODEL 9
REMARK VINA RESULT:      -7.9      4.614      5.668
REMARK  3 active torsions:
REMARK  status: ('A' for Active; 'I' for Inactive)
REMARK    1  A    between atoms: C_6  and  C_7 
REMARK    2  A    between atoms: C_13  and  C_14 
REMARK    3  A    between atoms: C_14  and  C_15 
ROOT
HETATM    1  C   UNL     1      -5.629  -3.609 -35.059  1.00  0.00     0.070 C 
HETATM    2  C   UNL     1      -5.767  -2.368 -34.226  1.00  0.00     0.033 A 
HETATM    3  N   UNL     1      -6.991  -1.815 -34.159  1.00  0.00    -0.246 NA
HETATM    4  C   UNL     1      -7.081  -0.709 -33.397  1.00  0.00     0.112 A 
HETATM    5  C   UNL     1      -6.052  -0.090 -32.693  1.00  0.00     0.043 A 
HETATM    6  C   UNL     1      -4.768  -0.692 -32.784  1.00  0.00     0.065 A 
HETATM    7  C   UNL     1      -4.658  -1.857 -33.568  1.00  0.00     0.044 A 
HETATM    8  S   UNL     1      -8.579   0.075 -33.223  1.00  0.00    -0.063 SA
HETATM    9  C   UNL     1      -7.928   1.247 -32.162  1.00  0.00     0.085 A 
HETATM   10  C   UNL     1      -6.564   1.067 -32.006  1.00  0.00     0.061 A 
HETATM   11  N   UNL     1      -5.806   1.906 -31.258  1.00  0.00    -0.397 N 
HETATM   12  H   UNL     1      -6.217   2.802 -30.973  1.00  0.00     0.156 HD
HETATM   13  H   UNL     1      -4.806   2.016 -31.427  1.00  0.00     0.156 HD
ENDROOT
BRANCH   9  14
HETATM   14  C   UNL     1      -8.743   2.326 -31.619  1.00  0.00     0.201 C 
HETATM   15  O   UNL     1      -8.818   2.554 -30.409  1.00  0.00    -0.286 OA
BRANCH  14  16
HETATM   16  C   UNL     1      -9.562   3.196 -32.504  1.00  0.00     0.018 A 
HETATM   17  C   UNL     1      -8.898   4.040 -33.407  1.00  0.00     0.055 A 
HETATM   18  C   UNL     1      -9.668   4.871 -34.191  1.00  0.00     0.106 A 
HETATM   19  C   UNL     1     -11.040   4.893 -34.095  1.00  0.00     0.105 A 
HETATM   20  O   UNL     1      -9.199   5.748 -35.116  1.00  0.00    -0.323 OA
HETATM   21  O   UNL     1     -11.605   5.786 -34.951  1.00  0.00    -0.323 OA
HETATM   22  C   UNL     1     -11.722   4.088 -33.207  1.00  0.00     0.040 A 
HETATM   23  C   UNL     1     -10.431   6.335 -35.586  1.00  0.00     0.352 A 
HETATM   24  C   UNL     1     -10.971   3.234 -32.393  1.00  0.00     0.018 A 
ENDBRANCH  14  16
ENDBRANCH   9  14
BRANCH   6  25
HETATM   25  C   UNL     1      -3.555  -0.186 -32.050  1.00  0.00     0.418 C 
HETATM   26  F   UNL     1      -3.240   1.108 -32.346  1.00  0.00    -0.166 F 
HETATM   27  F   UNL     1      -3.699  -0.241 -30.698  1.00  0.00    -0.166 F 
HETATM   28  F   UNL     1      -2.427  -0.901 -32.327  1.00  0.00    -0.166 F 
ENDBRANCH   6  25
TORSDOF 3
ENDMDL
MODEL 10
REMARK VINA RESULT:      -7.9     15.272     16.975
REMARK  3 active torsions:
REMARK  status: ('A' for Active; 'I' for Inactive)
REMARK    1  A    between atoms: C_6  and  C_7 
REMARK    2  A    between atoms: C_13  and  C_14 
REMARK    3  A    between atoms: C_14  and  C_15 
ROOT
HETATM    1  C   UNL     1      -9.745 -13.278 -39.029  1.00  0.00     0.070 C 
HETATM    2  C   UNL     1      -8.352 -13.253 -38.467  1.00  0.00     0.033 A 
HETATM    3  N   UNL     1      -7.374 -12.841 -39.290  1.00  0.00    -0.246 NA
HETATM    4  C   UNL     1      -6.139 -12.822 -38.751  1.00  0.00     0.112 A 
HETATM    5  C   UNL     1      -5.785 -13.188 -37.456  1.00  0.00     0.043 A 
HETATM    6  C   UNL     1      -6.838 -13.624 -36.607  1.00  0.00     0.065 A 
HETATM    7  C   UNL     1      -8.137 -13.639 -37.151  1.00  0.00     0.044 A 
HETATM    8  S   UNL     1      -4.818 -12.306 -39.688  1.00  0.00    -0.063 SA
HETATM    9  C   UNL     1      -3.724 -12.505 -38.389  1.00  0.00     0.085 A 
HETATM   10  C   UNL     1      -4.365 -13.024 -37.278  1.00  0.00     0.061 A 
HETATM   11  N   UNL     1      -3.701 -13.327 -36.136  1.00  0.00    -0.397 N 
HETATM   12  H   UNL     1      -2.675 -13.363 -36.170  1.00  0.00     0.156 HD
HETATM   13  H   UNL     1      -4.055 -14.024 -35.481  1.00  0.00     0.156 HD
ENDROOT
BRANCH   9  14
HETATM   14  C   UNL     1      -2.299 -12.242 -38.542  1.00  0.00     0.201 C 
HETATM   15  O   UNL     1      -1.812 -11.119 -38.384  1.00  0.00    -0.286 OA
BRANCH  14  16
HETATM   16  C   UNL     1      -1.351 -13.320 -38.933  1.00  0.00     0.018 A 
HETATM   17  C   UNL     1      -0.578 -13.922 -37.930  1.00  0.00     0.055 A 
HETATM   18  C   UNL     1       0.325 -14.889 -38.313  1.00  0.00     0.106 A 
HETATM   19  C   UNL     1       0.483 -15.255 -39.630  1.00  0.00     0.105 A 
HETATM   20  O   UNL     1       1.151 -15.577 -37.482  1.00  0.00    -0.323 OA
HETATM   21  O   UNL     1       1.427 -16.220 -39.790  1.00  0.00    -0.323 OA
HETATM   22  C   UNL     1      -0.250 -14.672 -40.641  1.00  0.00     0.040 A 
HETATM   23  C   UNL     1       1.857 -16.411 -38.426  1.00  0.00     0.352 A 
HETATM   24  C   UNL     1      -1.174 -13.682 -40.288  1.00  0.00     0.018 A 
ENDBRANCH  14  16
ENDBRANCH   9  14
BRANCH   6  25
HETATM   25  C   UNL     1      -6.643 -14.009 -35.166  1.00  0.00     0.418 C 
HETATM   26  F   UNL     1      -6.031 -13.044 -34.421  1.00  0.00    -0.166 F 
HETATM   27  F   UNL     1      -7.816 -14.289 -34.534  1.00  0.00    -0.166 F 
HETATM   28  F   UNL     1      -5.870 -15.123 -35.011  1.00  0.00    -0.166 F 
ENDBRANCH   6  25
TORSDOF 3
ENDMDL
