MODEL 1
REMARK VINA RESULT:      -8.4      0.000      0.000
REMARK  6 active torsions:
REMARK  status: ('A' for Active; 'I' for Inactive)
REMARK    1  A    between atoms: C_2  and  S_3 
REMARK    2  A    between atoms: C_2  and  C_18 
REMARK    3  A    between atoms: S_3  and  C_4 
REMARK    4  A    between atoms: C_4  and  C_5 
REMARK       I    between atoms: C_5  and  N_6 
REMARK    5  A    between atoms: N_6  and  C_7 
REMARK    6  A    between atoms: C_10  and  C_11 
REMARK       I    between atoms: C_11  and  N_12 
ROOT
HETATM    1  C   UNL     1      -6.887   2.066 -31.108  1.00  0.00     0.231 C 
HETATM    2  N   UNL     1      -7.336   1.513 -32.300  1.00  0.00    -0.327 N 
HETATM    3  O   UNL     1      -7.589   2.531 -30.214  1.00  0.00    -0.272 OA
HETATM    4  H   UNL     1      -6.628   1.177 -32.941  1.00  0.00     0.169 HD
ENDROOT
BRANCH   1   5
HETATM    5  C   UNL     1      -5.370   2.066 -30.985  1.00  0.00     0.177 C 
BRANCH   5   6
HETATM    6  S   UNL     1      -4.623   2.092 -32.650  1.00  0.00    -0.147 SA
BRANCH   6   7
HETATM    7  C   UNL     1      -3.578   0.595 -32.491  1.00  0.00     0.113 C 
HETATM    8  C   UNL     1      -3.239   0.359 -31.022  1.00  0.00     0.029 C 
BRANCH   7   9
HETATM    9  C   UNL     1      -4.264  -0.582 -33.112  1.00  0.00     0.118 A 
HETATM   10  N   UNL     1      -5.520  -0.629 -33.512  1.00  0.00    -0.232 NA
HETATM   11  C   UNL     1      -5.711  -1.902 -33.990  1.00  0.00     0.085 A 
HETATM   12  C   UNL     1      -4.555  -2.660 -33.858  1.00  0.00     0.062 A 
HETATM   13  C   UNL     1      -6.856  -2.489 -34.547  1.00  0.00     0.034 A 
HETATM   14  N   UNL     1      -3.649  -1.800 -33.294  1.00  0.00    -0.342 N 
HETATM   15  C   UNL     1      -4.463  -3.997 -34.253  1.00  0.00     0.032 A 
HETATM   16  H   UNL     1      -2.698  -2.022 -33.037  1.00  0.00     0.167 HD
HETATM   17  C   UNL     1      -5.615  -4.567 -34.808  1.00  0.00     0.002 A 
HETATM   18  C   UNL     1      -6.792  -3.828 -34.954  1.00  0.00     0.002 A 
ENDBRANCH   7   9
ENDBRANCH   6   7
ENDBRANCH   5   6
ENDBRANCH   1   5
BRANCH   2  19
HETATM   19  C   UNL     1      -8.673   1.373 -32.727  1.00  0.00     0.034 A 
HETATM   20  C   UNL     1      -9.404   0.187 -32.629  1.00  0.00     0.030 A 
HETATM   21  C   UNL     1     -10.735   0.125 -33.067  1.00  0.00     0.019 A 
HETATM   22  C   UNL     1     -11.357   1.260 -33.595  1.00  0.00     0.032 A 
HETATM   23  C   UNL     1     -10.621   2.444 -33.716  1.00  0.00     0.019 A 
HETATM   24  C   UNL     1      -9.290   2.498 -33.286  1.00  0.00     0.030 A 
BRANCH  22  25
HETATM   25  C   UNL     1     -12.774   1.253 -34.064  1.00  0.00     0.251 C 
HETATM   26  N   UNL     1     -13.748   1.179 -33.090  1.00  0.00    -0.361 N 
HETATM   27  C   UNL     1     -15.152   1.230 -33.415  1.00  0.00     0.149 C 
HETATM   28  H   UNL     1     -13.492   1.298 -32.120  1.00  0.00     0.162 HD
HETATM   29  O   UNL     1     -13.020   1.341 -35.262  1.00  0.00    -0.268 OA
ENDBRANCH  22  25
ENDBRANCH   2  19
TORSDOF 6
ENDMDL
MODEL 2
REMARK VINA RESULT:      -7.8      3.504      7.269
REMARK  6 active torsions:
REMARK  status: ('A' for Active; 'I' for Inactive)
REMARK    1  A    between atoms: C_2  and  S_3 
REMARK    2  A    between atoms: C_2  and  C_18 
REMARK    3  A    between atoms: S_3  and  C_4 
REMARK    4  A    between atoms: C_4  and  C_5 
REMARK       I    between atoms: C_5  and  N_6 
REMARK    5  A    between atoms: N_6  and  C_7 
REMARK    6  A    between atoms: C_10  and  C_11 
REMARK       I    between atoms: C_11  and  N_12 
ROOT
HETATM    1  C   UNL     1      -7.460   3.908 -33.487  1.00  0.00     0.231 C 
HETATM    2  N   UNL     1      -6.631   3.312 -32.547  1.00  0.00    -0.327 N 
HETATM    3  O   UNL     1      -7.174   4.864 -34.203  1.00  0.00    -0.272 OA
HETATM    4  H   UNL     1      -7.018   2.533 -32.028  1.00  0.00     0.169 HD
ENDROOT
BRANCH   1   5
HETATM    5  C   UNL     1      -8.836   3.262 -33.565  1.00  0.00     0.177 C 
BRANCH   5   6
HETATM    6  S   UNL     1      -9.364   2.748 -31.895  1.00  0.00    -0.147 SA
BRANCH   6   7
HETATM    7  C   UNL     1      -9.648   0.972 -32.246  1.00  0.00     0.113 C 
HETATM    8  C   UNL     1     -10.610   0.829 -33.422  1.00  0.00     0.029 C 
BRANCH   7   9
HETATM    9  C   UNL     1      -8.344   0.280 -32.491  1.00  0.00     0.118 A 
HETATM   10  N   UNL     1      -7.256   0.382 -31.752  1.00  0.00    -0.232 NA
HETATM   11  C   UNL     1      -6.312  -0.404 -32.366  1.00  0.00     0.085 A 
HETATM   12  C   UNL     1      -6.825  -0.983 -33.521  1.00  0.00     0.062 A 
HETATM   13  C   UNL     1      -4.985  -0.666 -31.998  1.00  0.00     0.034 A 
HETATM   14  N   UNL     1      -8.117  -0.530 -33.581  1.00  0.00    -0.342 N 
HETATM   15  C   UNL     1      -6.083  -1.824 -34.353  1.00  0.00     0.032 A 
HETATM   16  H   UNL     1      -8.786  -0.737 -34.308  1.00  0.00     0.167 HD
HETATM   17  C   UNL     1      -4.760  -2.076 -33.970  1.00  0.00     0.002 A 
HETATM   18  C   UNL     1      -4.218  -1.509 -32.813  1.00  0.00     0.002 A 
ENDBRANCH   7   9
ENDBRANCH   6   7
ENDBRANCH   5   6
ENDBRANCH   1   5
BRANCH   2  19
HETATM   19  C   UNL     1      -5.308   3.675 -32.221  1.00  0.00     0.034 A 
HETATM   20  C   UNL     1      -4.178   2.974 -32.649  1.00  0.00     0.030 A 
HETATM   21  C   UNL     1      -2.891   3.400 -32.293  1.00  0.00     0.019 A 
HETATM   22  C   UNL     1      -2.718   4.548 -31.514  1.00  0.00     0.032 A 
HETATM   23  C   UNL     1      -3.848   5.240 -31.065  1.00  0.00     0.019 A 
HETATM   24  C   UNL     1      -5.131   4.806 -31.416  1.00  0.00     0.030 A 
BRANCH  22  25
HETATM   25  C   UNL     1      -1.370   5.053 -31.118  1.00  0.00     0.251 C 
HETATM   26  N   UNL     1      -1.297   5.757 -29.934  1.00  0.00    -0.361 N 
HETATM   27  C   UNL     1      -0.041   6.239 -29.414  1.00  0.00     0.149 C 
HETATM   28  H   UNL     1      -2.091   5.767 -29.311  1.00  0.00     0.162 HD
HETATM   29  O   UNL     1      -0.396   4.806 -31.820  1.00  0.00    -0.268 OA
ENDBRANCH  22  25
ENDBRANCH   2  19
TORSDOF 6
ENDMDL
MODEL 3
REMARK VINA RESULT:      -7.7      2.862      7.271
REMARK  6 active torsions:
REMARK  status: ('A' for Active; 'I' for Inactive)
REMARK    1  A    between atoms: C_2  and  S_3 
REMARK    2  A    between atoms: C_2  and  C_18 
REMARK    3  A    between atoms: S_3  and  C_4 
REMARK    4  A    between atoms: C_4  and  C_5 
REMARK       I    between atoms: C_5  and  N_6 
REMARK    5  A    between atoms: N_6  and  C_7 
REMARK    6  A    between atoms: C_10  and  C_11 
REMARK       I    between atoms: C_11  and  N_12 
ROOT
HETATM    1  C   UNL     1      -7.026   4.182 -33.939  1.00  0.00     0.231 C 
HETATM    2  N   UNL     1      -7.629   2.969 -33.635  1.00  0.00    -0.327 N 
HETATM    3  O   UNL     1      -5.916   4.334 -34.443  1.00  0.00    -0.272 OA
HETATM    4  H   UNL     1      -8.549   3.011 -33.214  1.00  0.00     0.169 HD
ENDROOT
BRANCH   1   5
HETATM    5  C   UNL     1      -7.884   5.384 -33.569  1.00  0.00     0.177 C 
BRANCH   5   6
HETATM    6  S   UNL     1      -9.049   4.918 -32.245  1.00  0.00    -0.147 SA
BRANCH   6   7
HETATM    7  C   UNL     1     -10.609   5.126 -33.184  1.00  0.00     0.113 C 
HETATM    8  C   UNL     1     -10.308   5.737 -34.549  1.00  0.00     0.029 C 
BRANCH   7   9
HETATM    9  C   UNL     1     -11.324   3.815 -33.292  1.00  0.00     0.118 A 
HETATM   10  N   UNL     1     -10.763   2.622 -33.326  1.00  0.00    -0.232 NA
HETATM   11  C   UNL     1     -11.797   1.727 -33.454  1.00  0.00     0.085 A 
HETATM   12  C   UNL     1     -13.018   2.387 -33.523  1.00  0.00     0.062 A 
HETATM   13  C   UNL     1     -11.769   0.327 -33.525  1.00  0.00     0.034 A 
HETATM   14  N   UNL     1     -12.691   3.714 -33.422  1.00  0.00    -0.342 N 
HETATM   15  C   UNL     1     -14.240   1.727 -33.664  1.00  0.00     0.032 A 
HETATM   16  H   UNL     1     -13.337   4.490 -33.455  1.00  0.00     0.167 HD
HETATM   17  C   UNL     1     -14.194   0.330 -33.733  1.00  0.00     0.002 A 
HETATM   18  C   UNL     1     -12.981  -0.361 -33.665  1.00  0.00     0.002 A 
ENDBRANCH   7   9
ENDBRANCH   6   7
ENDBRANCH   5   6
ENDBRANCH   1   5
BRANCH   2  19
HETATM   19  C   UNL     1      -7.102   1.677 -33.839  1.00  0.00     0.034 A 
HETATM   20  C   UNL     1      -5.939   1.203 -33.227  1.00  0.00     0.030 A 
HETATM   21  C   UNL     1      -5.479  -0.099 -33.471  1.00  0.00     0.019 A 
HETATM   22  C   UNL     1      -6.190  -0.951 -34.321  1.00  0.00     0.032 A 
HETATM   23  C   UNL     1      -7.343  -0.472 -34.953  1.00  0.00     0.019 A 
HETATM   24  C   UNL     1      -7.794   0.831 -34.714  1.00  0.00     0.030 A 
BRANCH  22  25
HETATM   25  C   UNL     1      -5.752  -2.350 -34.605  1.00  0.00     0.251 C 
HETATM   26  N   UNL     1      -6.746  -3.266 -34.877  1.00  0.00    -0.361 N 
HETATM   27  C   UNL     1      -6.444  -4.632 -35.230  1.00  0.00     0.149 C 
HETATM   28  H   UNL     1      -7.690  -2.944 -35.038  1.00  0.00     0.162 HD
HETATM   29  O   UNL     1      -4.557  -2.624 -34.616  1.00  0.00    -0.268 OA
ENDBRANCH  22  25
ENDBRANCH   2  19
TORSDOF 6
ENDMDL
MODEL 4
REMARK VINA RESULT:      -7.5      2.808      6.207
REMARK  6 active torsions:
REMARK  status: ('A' for Active; 'I' for Inactive)
REMARK    1  A    between atoms: C_2  and  S_3 
REMARK    2  A    between atoms: C_2  and  C_18 
REMARK    3  A    between atoms: S_3  and  C_4 
REMARK    4  A    between atoms: C_4  and  C_5 
REMARK       I    between atoms: C_5  and  N_6 
REMARK    5  A    between atoms: N_6  and  C_7 
REMARK    6  A    between atoms: C_10  and  C_11 
REMARK       I    between atoms: C_11  and  N_12 
ROOT
HETATM    1  C   UNL     1     -10.192   2.459 -33.079  1.00  0.00     0.231 C 
HETATM    2  N   UNL     1      -8.822   2.300 -33.240  1.00  0.00    -0.327 N 
HETATM    3  O   UNL     1     -11.051   1.609 -33.297  1.00  0.00    -0.272 OA
HETATM    4  H   UNL     1      -8.243   3.102 -33.023  1.00  0.00     0.169 HD
ENDROOT
BRANCH   1   5
HETATM    5  C   UNL     1     -10.579   3.849 -32.594  1.00  0.00     0.177 C 
BRANCH   5   6
HETATM    6  S   UNL     1     -10.444   3.921 -30.776  1.00  0.00    -0.147 SA
BRANCH   6   7
HETATM    7  C   UNL     1      -8.847   4.812 -30.667  1.00  0.00     0.113 C 
HETATM    8  C   UNL     1      -8.817   5.659 -29.398  1.00  0.00     0.029 C 
BRANCH   7   9
HETATM    9  C   UNL     1      -7.709   3.841 -30.729  1.00  0.00     0.118 A 
HETATM   10  N   UNL     1      -6.685   3.894 -31.559  1.00  0.00    -0.232 NA
HETATM   11  C   UNL     1      -5.914   2.795 -31.269  1.00  0.00     0.085 A 
HETATM   12  C   UNL     1      -6.488   2.039 -30.255  1.00  0.00     0.062 A 
HETATM   13  C   UNL     1      -4.705   2.371 -31.839  1.00  0.00     0.034 A 
HETATM   14  N   UNL     1      -7.632   2.723 -29.930  1.00  0.00    -0.342 N 
HETATM   15  C   UNL     1      -5.926   0.860 -29.762  1.00  0.00     0.032 A 
HETATM   16  H   UNL     1      -8.313   2.448 -29.238  1.00  0.00     0.167 HD
HETATM   17  C   UNL     1      -4.719   0.452 -30.342  1.00  0.00     0.002 A 
HETATM   18  C   UNL     1      -4.116   1.192 -31.362  1.00  0.00     0.002 A 
ENDBRANCH   7   9
ENDBRANCH   6   7
ENDBRANCH   5   6
ENDBRANCH   1   5
BRANCH   2  19
HETATM   19  C   UNL     1      -8.141   1.148 -33.682  1.00  0.00     0.034 A 
HETATM   20  C   UNL     1      -7.629   0.989 -34.972  1.00  0.00     0.030 A 
HETATM   21  C   UNL     1      -6.953  -0.184 -35.337  1.00  0.00     0.019 A 
HETATM   22  C   UNL     1      -6.768  -1.210 -34.406  1.00  0.00     0.032 A 
HETATM   23  C   UNL     1      -7.299  -1.065 -33.120  1.00  0.00     0.019 A 
HETATM   24  C   UNL     1      -7.980   0.104 -32.762  1.00  0.00     0.030 A 
BRANCH  22  25
HETATM   25  C   UNL     1      -6.046  -2.474 -34.739  1.00  0.00     0.251 C 
HETATM   26  N   UNL     1      -6.819  -3.605 -34.896  1.00  0.00    -0.361 N 
HETATM   27  C   UNL     1      -6.244  -4.871 -35.282  1.00  0.00     0.149 C 
HETATM   28  H   UNL     1      -7.824  -3.518 -34.947  1.00  0.00     0.162 HD
HETATM   29  O   UNL     1      -4.829  -2.460 -34.888  1.00  0.00    -0.268 OA
ENDBRANCH  22  25
ENDBRANCH   2  19
TORSDOF 6
ENDMDL
MODEL 5
REMARK VINA RESULT:      -7.5      5.002      8.422
REMARK  6 active torsions:
REMARK  status: ('A' for Active; 'I' for Inactive)
REMARK    1  A    between atoms: C_2  and  S_3 
REMARK    2  A    between atoms: C_2  and  C_18 
REMARK    3  A    between atoms: S_3  and  C_4 
REMARK    4  A    between atoms: C_4  and  C_5 
REMARK       I    between atoms: C_5  and  N_6 
REMARK    5  A    between atoms: N_6  and  C_7 
REMARK    6  A    between atoms: C_10  and  C_11 
REMARK       I    between atoms: C_11  and  N_12 
ROOT
HETATM    1  C   UNL     1      -4.922   2.968 -31.014  1.00  0.00     0.231 C 
HETATM    2  N   UNL     1      -4.769   2.553 -32.330  1.00  0.00    -0.327 N 
HETATM    3  O   UNL     1      -5.237   2.258 -30.062  1.00  0.00    -0.272 OA
HETATM    4  H   UNL     1      -4.511   3.264 -33.004  1.00  0.00     0.169 HD
ENDROOT
BRANCH   1   5
HETATM    5  C   UNL     1      -4.668   4.456 -30.824  1.00  0.00     0.177 C 
BRANCH   5   6
HETATM    6  S   UNL     1      -4.136   5.191 -32.407  1.00  0.00    -0.147 SA
BRANCH   6   7
HETATM    7  C   UNL     1      -2.367   4.718 -32.334  1.00  0.00     0.113 C 
HETATM    8  C   UNL     1      -1.719   4.943 -33.697  1.00  0.00     0.029 C 
BRANCH   7   9
HETATM    9  C   UNL     1      -1.675   5.476 -31.244  1.00  0.00     0.118 A 
HETATM   10  N   UNL     1      -1.809   6.762 -30.983  1.00  0.00    -0.232 NA
HETATM   11  C   UNL     1      -0.974   7.016 -29.923  1.00  0.00     0.085 A 
HETATM   12  C   UNL     1      -0.295   5.865 -29.540  1.00  0.00     0.062 A 
HETATM   13  C   UNL     1      -0.735   8.214 -29.235  1.00  0.00     0.034 A 
HETATM   14  N   UNL     1      -0.755   4.900 -30.397  1.00  0.00    -0.342 N 
HETATM   15  C   UNL     1       0.629   5.831 -28.493  1.00  0.00     0.032 A 
HETATM   16  H   UNL     1      -0.459   3.935 -30.420  1.00  0.00     0.167 HD
HETATM   17  C   UNL     1       0.855   7.036 -27.817  1.00  0.00     0.002 A 
HETATM   18  C   UNL     1       0.185   8.208 -28.179  1.00  0.00     0.002 A 
ENDBRANCH   7   9
ENDBRANCH   6   7
ENDBRANCH   5   6
ENDBRANCH   1   5
BRANCH   2  19
HETATM   19  C   UNL     1      -4.942   1.250 -32.842  1.00  0.00     0.034 A 
HETATM   20  C   UNL     1      -6.096   0.815 -33.497  1.00  0.00     0.030 A 
HETATM   21  C   UNL     1      -6.192  -0.495 -33.988  1.00  0.00     0.019 A 
HETATM   22  C   UNL     1      -5.123  -1.383 -33.843  1.00  0.00     0.032 A 
HETATM   23  C   UNL     1      -3.974  -0.958 -33.167  1.00  0.00     0.019 A 
HETATM   24  C   UNL     1      -3.885   0.348 -32.671  1.00  0.00     0.030 A 
BRANCH  22  25
HETATM   25  C   UNL     1      -5.168  -2.784 -34.358  1.00  0.00     0.251 C 
HETATM   26  N   UNL     1      -6.390  -3.237 -34.810  1.00  0.00    -0.361 N 
HETATM   27  C   UNL     1      -6.545  -4.549 -35.390  1.00  0.00     0.149 C 
HETATM   28  H   UNL     1      -7.150  -2.583 -34.933  1.00  0.00     0.162 HD
HETATM   29  O   UNL     1      -4.143  -3.454 -34.391  1.00  0.00    -0.268 OA
ENDBRANCH  22  25
ENDBRANCH   2  19
TORSDOF 6
ENDMDL
MODEL 6
REMARK VINA RESULT:      -7.4      3.125      6.501
REMARK  6 active torsions:
REMARK  status: ('A' for Active; 'I' for Inactive)
REMARK    1  A    between atoms: C_2  and  S_3 
REMARK    2  A    between atoms: C_2  and  C_18 
REMARK    3  A    between atoms: S_3  and  C_4 
REMARK    4  A    between atoms: C_4  and  C_5 
REMARK       I    between atoms: C_5  and  N_6 
REMARK    5  A    between atoms: N_6  and  C_7 
REMARK    6  A    between atoms: C_10  and  C_11 
REMARK       I    between atoms: C_11  and  N_12 
ROOT
HETATM    1  C   UNL     1      -3.965   3.250 -32.023  1.00  0.00     0.231 C 
HETATM    2  N   UNL     1      -4.849   2.200 -31.814  1.00  0.00    -0.327 N 
HETATM    3  O   UNL     1      -2.976   3.231 -32.750  1.00  0.00    -0.272 OA
HETATM    4  H   UNL     1      -5.616   2.372 -31.175  1.00  0.00     0.169 HD
ENDROOT
BRANCH   1   5
HETATM    5  C   UNL     1      -4.323   4.499 -31.230  1.00  0.00     0.177 C 
BRANCH   5   6
HETATM    6  S   UNL     1      -5.592   4.088 -29.985  1.00  0.00    -0.147 SA
BRANCH   6   7
HETATM    7  C   UNL     1      -7.043   4.805 -30.843  1.00  0.00     0.113 C 
HETATM    8  C   UNL     1      -6.574   5.815 -31.887  1.00  0.00     0.029 C 
BRANCH   7   9
HETATM    9  C   UNL     1      -7.880   3.717 -31.441  1.00  0.00     0.118 A 
HETATM   10  N   UNL     1      -7.928   2.462 -31.039  1.00  0.00    -0.232 NA
HETATM   11  C   UNL     1      -8.803   1.832 -31.888  1.00  0.00     0.085 A 
HETATM   12  C   UNL     1      -9.286   2.714 -32.847  1.00  0.00     0.062 A 
HETATM   13  C   UNL     1      -9.233   0.497 -31.907  1.00  0.00     0.034 A 
HETATM   14  N   UNL     1      -8.681   3.906 -32.545  1.00  0.00    -0.342 N 
HETATM   15  C   UNL     1     -10.186   2.344 -33.848  1.00  0.00     0.032 A 
HETATM   16  H   UNL     1      -8.787   4.772 -33.052  1.00  0.00     0.167 HD
HETATM   17  C   UNL     1     -10.605   1.007 -33.852  1.00  0.00     0.002 A 
HETATM   18  C   UNL     1     -10.138   0.098 -32.899  1.00  0.00     0.002 A 
ENDBRANCH   7   9
ENDBRANCH   6   7
ENDBRANCH   5   6
ENDBRANCH   1   5
BRANCH   2  19
HETATM   19  C   UNL     1      -4.796   0.912 -32.384  1.00  0.00     0.034 A 
HETATM   20  C   UNL     1      -3.818  -0.038 -32.079  1.00  0.00     0.030 A 
HETATM   21  C   UNL     1      -3.835  -1.305 -32.680  1.00  0.00     0.019 A 
HETATM   22  C   UNL     1      -4.846  -1.643 -33.584  1.00  0.00     0.032 A 
HETATM   23  C   UNL     1      -5.815  -0.687 -33.909  1.00  0.00     0.019 A 
HETATM   24  C   UNL     1      -5.789   0.579 -33.314  1.00  0.00     0.030 A 
BRANCH  22  25
HETATM   25  C   UNL     1      -4.918  -2.981 -34.242  1.00  0.00     0.251 C 
HETATM   26  N   UNL     1      -6.127  -3.326 -34.812  1.00  0.00    -0.361 N 
HETATM   27  C   UNL     1      -6.301  -4.564 -35.532  1.00  0.00     0.149 C 
HETATM   28  H   UNL     1      -6.847  -2.626 -34.912  1.00  0.00     0.162 HD
HETATM   29  O   UNL     1      -3.923  -3.696 -34.281  1.00  0.00    -0.268 OA
ENDBRANCH  22  25
ENDBRANCH   2  19
TORSDOF 6
ENDMDL
MODEL 7
REMARK VINA RESULT:      -7.4      2.696      7.803
REMARK  6 active torsions:
REMARK  status: ('A' for Active; 'I' for Inactive)
REMARK    1  A    between atoms: C_2  and  S_3 
REMARK    2  A    between atoms: C_2  and  C_18 
REMARK    3  A    between atoms: S_3  and  C_4 
REMARK    4  A    between atoms: C_4  and  C_5 
REMARK       I    between atoms: C_5  and  N_6 
REMARK    5  A    between atoms: N_6  and  C_7 
REMARK    6  A    between atoms: C_10  and  C_11 
REMARK       I    between atoms: C_11  and  N_12 
ROOT
HETATM    1  C   UNL     1      -8.600   2.161 -32.363  1.00  0.00     0.231 C 
HETATM    2  N   UNL     1      -7.524   1.900 -33.201  1.00  0.00    -0.327 N 
HETATM    3  O   UNL     1      -9.297   1.324 -31.797  1.00  0.00    -0.272 OA
HETATM    4  H   UNL     1      -7.052   2.703 -33.599  1.00  0.00     0.169 HD
ENDROOT
BRANCH   1   5
HETATM    5  C   UNL     1      -8.878   3.648 -32.195  1.00  0.00     0.177 C 
BRANCH   5   6
HETATM    6  S   UNL     1      -8.547   4.513 -33.767  1.00  0.00    -0.147 SA
BRANCH   6   7
HETATM    7  C   UNL     1     -10.217   5.215 -34.036  1.00  0.00     0.113 C 
HETATM    8  C   UNL     1     -10.252   5.961 -35.367  1.00  0.00     0.029 C 
BRANCH   7   9
HETATM    9  C   UNL     1     -11.250   4.133 -33.965  1.00  0.00     0.118 A 
HETATM   10  N   UNL     1     -11.307   3.060 -34.729  1.00  0.00    -0.232 NA
HETATM   11  C   UNL     1     -12.424   2.372 -34.322  1.00  0.00     0.085 A 
HETATM   12  C   UNL     1     -13.079   3.049 -33.300  1.00  0.00     0.062 A 
HETATM   13  C   UNL     1     -12.949   1.157 -34.785  1.00  0.00     0.034 A 
HETATM   14  N   UNL     1     -12.315   4.169 -33.094  1.00  0.00    -0.342 N 
HETATM   15  C   UNL     1     -14.251   2.586 -32.700  1.00  0.00     0.032 A 
HETATM   16  H   UNL     1     -12.507   4.905 -32.430  1.00  0.00     0.167 HD
HETATM   17  C   UNL     1     -14.761   1.371 -33.175  1.00  0.00     0.002 A 
HETATM   18  C   UNL     1     -14.123   0.667 -34.199  1.00  0.00     0.002 A 
ENDBRANCH   7   9
ENDBRANCH   6   7
ENDBRANCH   5   6
ENDBRANCH   1   5
BRANCH   2  19
HETATM   19  C   UNL     1      -7.016   0.638 -33.573  1.00  0.00     0.034 A 
HETATM   20  C   UNL     1      -7.480  -0.101 -34.663  1.00  0.00     0.030 A 
HETATM   21  C   UNL     1      -6.919  -1.347 -34.978  1.00  0.00     0.019 A 
HETATM   22  C   UNL     1      -5.871  -1.862 -34.210  1.00  0.00     0.032 A 
HETATM   23  C   UNL     1      -5.418  -1.135 -33.103  1.00  0.00     0.019 A 
HETATM   24  C   UNL     1      -5.987   0.104 -32.788  1.00  0.00     0.030 A 
BRANCH  22  25
HETATM   25  C   UNL     1      -5.229  -3.177 -34.509  1.00  0.00     0.251 C 
HETATM   26  N   UNL     1      -4.094  -3.488 -33.790  1.00  0.00    -0.361 N 
HETATM   27  C   UNL     1      -3.422  -4.756 -33.943  1.00  0.00     0.149 C 
HETATM   28  H   UNL     1      -3.835  -2.919 -32.997  1.00  0.00     0.162 HD
HETATM   29  O   UNL     1      -5.735  -3.928 -35.335  1.00  0.00    -0.268 OA
ENDBRANCH  22  25
ENDBRANCH   2  19
TORSDOF 6
ENDMDL
MODEL 8
REMARK VINA RESULT:      -7.3      2.750      7.135
REMARK  6 active torsions:
REMARK  status: ('A' for Active; 'I' for Inactive)
REMARK    1  A    between atoms: C_2  and  S_3 
REMARK    2  A    between atoms: C_2  and  C_18 
REMARK    3  A    between atoms: S_3  and  C_4 
REMARK    4  A    between atoms: C_4  and  C_5 
REMARK       I    between atoms: C_5  and  N_6 
REMARK    5  A    between atoms: N_6  and  C_7 
REMARK    6  A    between atoms: C_10  and  C_11 
REMARK       I    between atoms: C_11  and  N_12 
ROOT
HETATM    1  C   UNL     1     -10.747   1.146 -33.709  1.00  0.00     0.231 C 
HETATM    2  N   UNL     1      -9.454   1.432 -34.127  1.00  0.00    -0.327 N 
HETATM    3  O   UNL     1     -11.128   0.095 -33.200  1.00  0.00    -0.272 OA
HETATM    4  H   UNL     1      -9.300   2.345 -34.536  1.00  0.00     0.169 HD
ENDROOT
BRANCH   1   5
HETATM    5  C   UNL     1     -11.720   2.290 -33.953  1.00  0.00     0.177 C 
BRANCH   5   6
HETATM    6  S   UNL     1     -10.823   3.714 -34.658  1.00  0.00    -0.147 SA
BRANCH   6   7
HETATM    7  C   UNL     1     -10.509   4.624 -33.099  1.00  0.00     0.113 C 
HETATM    8  C   UNL     1     -11.658   4.382 -32.124  1.00  0.00     0.029 C 
BRANCH   7   9
HETATM    9  C   UNL     1      -9.185   4.226 -32.527  1.00  0.00     0.118 A 
HETATM   10  N   UNL     1      -8.043   4.154 -33.182  1.00  0.00    -0.232 NA
HETATM   11  C   UNL     1      -7.113   3.729 -32.266  1.00  0.00     0.085 A 
HETATM   12  C   UNL     1      -7.701   3.512 -31.026  1.00  0.00     0.062 A 
HETATM   13  C   UNL     1      -5.739   3.495 -32.423  1.00  0.00     0.034 A 
HETATM   14  N   UNL     1      -9.020   3.832 -31.218  1.00  0.00    -0.342 N 
HETATM   15  C   UNL     1      -6.994   3.066 -29.908  1.00  0.00     0.032 A 
HETATM   16  H   UNL     1      -9.753   3.772 -30.526  1.00  0.00     0.167 HD
HETATM   17  C   UNL     1      -5.624   2.839 -30.082  1.00  0.00     0.002 A 
HETATM   18  C   UNL     1      -5.004   3.049 -31.317  1.00  0.00     0.002 A 
ENDBRANCH   7   9
ENDBRANCH   6   7
ENDBRANCH   5   6
ENDBRANCH   1   5
BRANCH   2  19
HETATM   19  C   UNL     1      -8.326   0.589 -34.055  1.00  0.00     0.034 A 
HETATM   20  C   UNL     1      -7.723  -0.006 -35.166  1.00  0.00     0.030 A 
HETATM   21  C   UNL     1      -6.596  -0.827 -35.018  1.00  0.00     0.019 A 
HETATM   22  C   UNL     1      -6.047  -1.049 -33.752  1.00  0.00     0.032 A 
HETATM   23  C   UNL     1      -6.661  -0.474 -32.634  1.00  0.00     0.019 A 
HETATM   24  C   UNL     1      -7.792   0.337 -32.786  1.00  0.00     0.030 A 
BRANCH  22  25
HETATM   25  C   UNL     1      -4.841  -1.904 -33.540  1.00  0.00     0.251 C 
HETATM   26  N   UNL     1      -4.179  -1.752 -32.340  1.00  0.00    -0.361 N 
HETATM   27  C   UNL     1      -3.040  -2.566 -31.993  1.00  0.00     0.149 C 
HETATM   28  H   UNL     1      -4.606  -1.213 -31.600  1.00  0.00     0.162 HD
HETATM   29  O   UNL     1      -4.507  -2.710 -34.401  1.00  0.00    -0.268 OA
ENDBRANCH  22  25
ENDBRANCH   2  19
TORSDOF 6
ENDMDL
MODEL 9
REMARK VINA RESULT:      -7.3      6.766     10.334
REMARK  6 active torsions:
REMARK  status: ('A' for Active; 'I' for Inactive)
REMARK    1  A    between atoms: C_2  and  S_3 
REMARK    2  A    between atoms: C_2  and  C_18 
REMARK    3  A    between atoms: S_3  and  C_4 
REMARK    4  A    between atoms: C_4  and  C_5 
REMARK       I    between atoms: C_5  and  N_6 
REMARK    5  A    between atoms: N_6  and  C_7 
REMARK    6  A    between atoms: C_10  and  C_11 
REMARK       I    between atoms: C_11  and  N_12 
ROOT
HETATM    1  C   UNL     1      -1.167   5.058 -31.505  1.00  0.00     0.231 C 
HETATM    2  N   UNL     1      -1.637   5.857 -30.472  1.00  0.00    -0.327 N 
HETATM    3  O   UNL     1       0.010   4.791 -31.737  1.00  0.00    -0.272 OA
HETATM    4  H   UNL     1      -2.640   5.988 -30.419  1.00  0.00     0.169 HD
ENDROOT
BRANCH   1   5
HETATM    5  C   UNL     1      -2.277   4.512 -32.391  1.00  0.00     0.177 C 
BRANCH   5   6
HETATM    6  S   UNL     1      -3.731   4.105 -31.366  1.00  0.00    -0.147 SA
BRANCH   6   7
HETATM    7  C   UNL     1      -5.022   4.314 -32.649  1.00  0.00     0.113 C 
HETATM    8  C   UNL     1      -4.492   5.201 -33.771  1.00  0.00     0.029 C 
BRANCH   7   9
HETATM    9  C   UNL     1      -5.475   2.977 -33.147  1.00  0.00     0.118 A 
HETATM   10  N   UNL     1      -6.330   2.760 -34.127  1.00  0.00    -0.232 NA
HETATM   11  C   UNL     1      -6.458   1.395 -34.215  1.00  0.00     0.085 A 
HETATM   12  C   UNL     1      -5.683   0.761 -33.252  1.00  0.00     0.062 A 
HETATM   13  C   UNL     1      -7.230   0.620 -35.093  1.00  0.00     0.034 A 
HETATM   14  N   UNL     1      -5.070   1.788 -32.582  1.00  0.00    -0.342 N 
HETATM   15  C   UNL     1      -5.626  -0.626 -33.102  1.00  0.00     0.032 A 
HETATM   16  H   UNL     1      -4.442   1.695 -31.797  1.00  0.00     0.167 HD
HETATM   17  C   UNL     1      -6.402  -1.384 -33.987  1.00  0.00     0.002 A 
HETATM   18  C   UNL     1      -7.191  -0.774 -34.967  1.00  0.00     0.002 A 
ENDBRANCH   7   9
ENDBRANCH   6   7
ENDBRANCH   5   6
ENDBRANCH   1   5
BRANCH   2  19
HETATM   19  C   UNL     1      -0.875   6.521 -29.489  1.00  0.00     0.034 A 
HETATM   20  C   UNL     1       0.119   5.905 -28.724  1.00  0.00     0.030 A 
HETATM   21  C   UNL     1       0.844   6.632 -27.769  1.00  0.00     0.019 A 
HETATM   22  C   UNL     1       0.593   7.994 -27.580  1.00  0.00     0.032 A 
HETATM   23  C   UNL     1      -0.417   8.609 -28.328  1.00  0.00     0.019 A 
HETATM   24  C   UNL     1      -1.144   7.877 -29.274  1.00  0.00     0.030 A 
BRANCH  22  25
HETATM   25  C   UNL     1       1.344   8.818 -26.586  1.00  0.00     0.251 C 
HETATM   26  N   UNL     1       2.122   8.132 -25.677  1.00  0.00    -0.361 N 
HETATM   27  C   UNL     1       2.943   8.820 -24.710  1.00  0.00     0.149 C 
HETATM   28  H   UNL     1       2.288   7.145 -25.808  1.00  0.00     0.162 HD
HETATM   29  O   UNL     1       1.271  10.041 -26.630  1.00  0.00    -0.268 OA
ENDBRANCH  22  25
ENDBRANCH   2  19
TORSDOF 6
ENDMDL
MODEL 10
REMARK VINA RESULT:      -7.3      3.901      7.374
REMARK  6 active torsions:
REMARK  status: ('A' for Active; 'I' for Inactive)
REMARK    1  A    between atoms: C_2  and  S_3 
REMARK    2  A    between atoms: C_2  and  C_18 
REMARK    3  A    between atoms: S_3  and  C_4 
REMARK    4  A    between atoms: C_4  and  C_5 
REMARK       I    between atoms: C_5  and  N_6 
REMARK    5  A    between atoms: N_6  and  C_7 
REMARK    6  A    between atoms: C_10  and  C_11 
REMARK       I    between atoms: C_11  and  N_12 
ROOT
HETATM    1  C   UNL     1      -7.500   2.939 -32.555  1.00  0.00     0.231 C 
HETATM    2  N   UNL     1      -7.608   1.627 -32.114  1.00  0.00    -0.327 N 
HETATM    3  O   UNL     1      -6.903   3.319 -33.559  1.00  0.00    -0.272 OA
HETATM    4  H   UNL     1      -8.130   1.476 -31.259  1.00  0.00     0.169 HD
ENDROOT
BRANCH   1   5
HETATM    5  C   UNL     1      -8.204   3.935 -31.644  1.00  0.00     0.177 C 
BRANCH   5   6
HETATM    6  S   UNL     1      -8.065   5.611 -32.351  1.00  0.00    -0.147 SA
BRANCH   6   7
HETATM    7  C   UNL     1      -6.674   6.215 -31.321  1.00  0.00     0.113 C 
HETATM    8  C   UNL     1      -6.716   5.537 -29.955  1.00  0.00     0.029 C 
BRANCH   7   9
HETATM    9  C   UNL     1      -5.374   5.989 -32.028  1.00  0.00     0.118 A 
HETATM   10  N   UNL     1      -4.173   6.039 -31.484  1.00  0.00    -0.232 NA
HETATM   11  C   UNL     1      -3.290   5.793 -32.506  1.00  0.00     0.085 A 
HETATM   12  C   UNL     1      -3.962   5.612 -33.709  1.00  0.00     0.062 A 
HETATM   13  C   UNL     1      -1.890   5.717 -32.485  1.00  0.00     0.034 A 
HETATM   14  N   UNL     1      -5.286   5.745 -33.380  1.00  0.00    -0.342 N 
HETATM   15  C   UNL     1      -3.315   5.356 -34.919  1.00  0.00     0.032 A 
HETATM   16  H   UNL     1      -6.065   5.692 -34.019  1.00  0.00     0.167 HD
HETATM   17  C   UNL     1      -1.917   5.282 -34.879  1.00  0.00     0.002 A 
HETATM   18  C   UNL     1      -1.215   5.459 -33.684  1.00  0.00     0.002 A 
ENDBRANCH   7   9
ENDBRANCH   6   7
ENDBRANCH   5   6
ENDBRANCH   1   5
BRANCH   2  19
HETATM   19  C   UNL     1      -7.065   0.474 -32.717  1.00  0.00     0.034 A 
HETATM   20  C   UNL     1      -7.638  -0.180 -33.811  1.00  0.00     0.030 A 
HETATM   21  C   UNL     1      -7.034  -1.317 -34.365  1.00  0.00     0.019 A 
HETATM   22  C   UNL     1      -5.835  -1.807 -33.838  1.00  0.00     0.032 A 
HETATM   23  C   UNL     1      -5.270  -1.168 -32.729  1.00  0.00     0.019 A 
HETATM   24  C   UNL     1      -5.881  -0.038 -32.174  1.00  0.00     0.030 A 
BRANCH  22  25
HETATM   25  C   UNL     1      -5.144  -3.006 -34.398  1.00  0.00     0.251 C 
HETATM   26  N   UNL     1      -4.115  -3.533 -33.646  1.00  0.00    -0.361 N 
HETATM   27  C   UNL     1      -3.414  -4.728 -34.050  1.00  0.00     0.149 C 
HETATM   28  H   UNL     1      -3.973  -3.211 -32.699  1.00  0.00     0.162 HD
HETATM   29  O   UNL     1      -5.522  -3.487 -35.460  1.00  0.00    -0.268 OA
ENDBRANCH  22  25
ENDBRANCH   2  19
TORSDOF 6
ENDMDL
