MODEL 1
REMARK VINA RESULT:      -9.4      0.000      0.000
REMARK  5 active torsions:
REMARK  status: ('A' for Active; 'I' for Inactive)
REMARK    1  A    between atoms: C_3  and  N_4 
REMARK       I    between atoms: N_4  and  C_5 
REMARK    2  A    between atoms: C_9  and  N_10 
REMARK       I    between atoms: N_10  and  C_11 
REMARK    3  A    between atoms: C_11  and  C_12 
REMARK    4  A    between atoms: C_17  and  C_18 
REMARK    5  A    between atoms: C_24  and  C_25 
ROOT
HETATM    1  C   UNL     1      -3.048   4.377 -31.960  1.00  0.00     0.148 A 
HETATM    2  N   UNL     1      -1.746   4.503 -32.316  1.00  0.00    -0.165 NA
HETATM    3  N   UNL     1      -1.248   5.310 -31.361  1.00  0.00    -0.240 N 
HETATM    4  C   UNL     1      -2.184   5.807 -30.503  1.00  0.00     0.123 A 
HETATM    5  N   UNL     1      -1.852   6.719 -29.567  1.00  0.00    -0.364 N 
HETATM    6  C   UNL     1      -0.670   7.579 -29.703  1.00  0.00     0.143 C 
HETATM    7  C   UNL     1       0.229   7.183 -30.897  1.00  0.00     0.068 C 
HETATM    8  C   UNL     1       0.145   5.704 -31.305  1.00  0.00     0.221 C 
HETATM    9  C   UNL     1      -3.352   5.167 -30.815  1.00  0.00     0.089 A 
HETATM   10  H   UNL     1      -2.574   7.111 -28.963  1.00  0.00     0.162 HD
ENDROOT
BRANCH   1  11
HETATM   11  C   UNL     1      -4.003   3.545 -32.712  1.00  0.00     0.276 C 
HETATM   12  N   UNL     1      -4.064   2.250 -32.234  1.00  0.00    -0.322 N 
HETATM   13  H   UNL     1      -3.452   2.079 -31.441  1.00  0.00     0.169 HD
HETATM   14  O   UNL     1      -4.624   4.001 -33.666  1.00  0.00    -0.266 OA
BRANCH  12  15
HETATM   15  C   UNL     1      -4.808   1.171 -32.748  1.00  0.00     0.037 A 
HETATM   16  C   UNL     1      -6.183   1.218 -32.985  1.00  0.00     0.059 A 
HETATM   17  C   UNL     1      -6.887   0.132 -33.544  1.00  0.00     0.042 A 
HETATM   18  C   UNL     1      -6.197  -1.063 -33.805  1.00  0.00    -0.035 A 
HETATM   19  C   UNL     1      -6.836  -2.340 -34.277  1.00  0.00     0.050 C 
HETATM   20  C   UNL     1      -4.807  -1.100 -33.577  1.00  0.00     0.011 A 
HETATM   21  C   UNL     1      -4.121  -0.000 -33.053  1.00  0.00     0.030 A 
BRANCH  17  22
HETATM   22  N   UNL     1      -8.269   0.368 -33.739  1.00  0.00    -0.327 N 
HETATM   23  C   UNL     1      -9.267   0.463 -32.788  1.00  0.00     0.218 C 
HETATM   24  C   UNL     1     -10.605   0.785 -33.407  1.00  0.00     0.117 C 
HETATM   25  O   UNL     1      -9.161   0.300 -31.579  1.00  0.00    -0.274 OA
HETATM   26  H   UNL     1      -8.598   0.206 -34.683  1.00  0.00     0.169 HD
ENDBRANCH  17  22
ENDBRANCH  12  15
ENDBRANCH   1  11
BRANCH   8  27
HETATM   27  C   UNL     1       0.906   4.776 -30.387  1.00  0.00     0.409 C 
HETATM   28  F   UNL     1       0.151   3.717 -30.010  1.00  0.00    -0.169 F 
HETATM   29  F   UNL     1       1.983   4.262 -31.037  1.00  0.00    -0.169 F 
HETATM   30  F   UNL     1       1.366   5.361 -29.265  1.00  0.00    -0.169 F 
ENDBRANCH   8  27
BRANCH   6  31
HETATM   31  C   UNL     1       0.112   7.735 -28.438  1.00  0.00     0.075 A 
HETATM   32  O   UNL     1      -0.385   7.093 -27.339  1.00  0.00    -0.325 OA
HETATM   33  C   UNL     1       0.484   7.316 -26.320  1.00  0.00     0.142 A 
HETATM   34  C   UNL     1       1.534   8.094 -26.744  1.00  0.00     0.027 A 
HETATM   35  C   UNL     1       1.297   8.365 -28.112  1.00  0.00     0.037 A 
ENDBRANCH   6  31
TORSDOF 5
ENDMDL
MODEL 2
REMARK VINA RESULT:      -9.3      1.958      2.313
REMARK  5 active torsions:
REMARK  status: ('A' for Active; 'I' for Inactive)
REMARK    1  A    between atoms: C_3  and  N_4 
REMARK       I    between atoms: N_4  and  C_5 
REMARK    2  A    between atoms: C_9  and  N_10 
REMARK       I    between atoms: N_10  and  C_11 
REMARK    3  A    between atoms: C_11  and  C_12 
REMARK    4  A    between atoms: C_17  and  C_18 
REMARK    5  A    between atoms: C_24  and  C_25 
ROOT
HETATM    1  C   UNL     1      -3.085   3.658 -31.555  1.00  0.00     0.148 A 
HETATM    2  N   UNL     1      -1.838   4.121 -31.815  1.00  0.00    -0.165 NA
HETATM    3  N   UNL     1      -1.915   5.416 -31.453  1.00  0.00    -0.240 N 
HETATM    4  C   UNL     1      -3.169   5.826 -31.106  1.00  0.00     0.123 A 
HETATM    5  N   UNL     1      -3.423   7.122 -30.832  1.00  0.00    -0.364 N 
HETATM    6  C   UNL     1      -2.572   8.206 -31.339  1.00  0.00     0.143 C 
HETATM    7  C   UNL     1      -1.284   7.692 -32.021  1.00  0.00     0.068 C 
HETATM    8  C   UNL     1      -0.790   6.326 -31.521  1.00  0.00     0.221 C 
HETATM    9  C   UNL     1      -3.940   4.697 -31.090  1.00  0.00     0.089 A 
HETATM   10  H   UNL     1      -4.375   7.417 -30.617  1.00  0.00     0.162 HD
ENDROOT
BRANCH   1  11
HETATM   11  C   UNL     1      -3.474   2.253 -31.773  1.00  0.00     0.276 C 
HETATM   12  N   UNL     1      -4.506   2.128 -32.684  1.00  0.00    -0.322 N 
HETATM   13  H   UNL     1      -4.825   3.015 -33.062  1.00  0.00     0.169 HD
HETATM   14  O   UNL     1      -2.925   1.343 -31.161  1.00  0.00    -0.266 OA
BRANCH  12  15
HETATM   15  C   UNL     1      -5.174   0.953 -33.079  1.00  0.00     0.037 A 
HETATM   16  C   UNL     1      -6.562   0.847 -33.183  1.00  0.00     0.059 A 
HETATM   17  C   UNL     1      -7.195  -0.332 -33.626  1.00  0.00     0.042 A 
HETATM   18  C   UNL     1      -6.408  -1.462 -33.905  1.00  0.00    -0.035 A 
HETATM   19  C   UNL     1      -6.947  -2.819 -34.260  1.00  0.00     0.050 C 
HETATM   20  C   UNL     1      -5.007  -1.344 -33.812  1.00  0.00     0.011 A 
HETATM   21  C   UNL     1      -4.397  -0.155 -33.402  1.00  0.00     0.030 A 
BRANCH  17  22
HETATM   22  N   UNL     1      -8.606  -0.249 -33.695  1.00  0.00    -0.327 N 
HETATM   23  C   UNL     1      -9.496   0.102 -32.698  1.00  0.00     0.218 C 
HETATM   24  C   UNL     1     -10.920   0.127 -33.198  1.00  0.00     0.117 C 
HETATM   25  O   UNL     1      -9.240   0.355 -31.528  1.00  0.00    -0.274 OA
HETATM   26  H   UNL     1      -9.021  -0.734 -34.482  1.00  0.00     0.169 HD
ENDBRANCH  17  22
ENDBRANCH  12  15
ENDBRANCH   1  11
BRANCH   8  27
HETATM   27  C   UNL     1      -0.093   6.383 -30.181  1.00  0.00     0.409 C 
HETATM   28  F   UNL     1      -0.964   6.221 -29.157  1.00  0.00    -0.169 F 
HETATM   29  F   UNL     1       0.803   5.367 -30.082  1.00  0.00    -0.169 F 
HETATM   30  F   UNL     1       0.582   7.526 -29.957  1.00  0.00    -0.169 F 
ENDBRANCH   8  27
BRANCH   6  31
HETATM   31  C   UNL     1      -2.288   9.273 -30.329  1.00  0.00     0.075 A 
HETATM   32  O   UNL     1      -2.436  10.561 -30.757  1.00  0.00    -0.325 OA
HETATM   33  C   UNL     1      -2.183  11.366 -29.693  1.00  0.00     0.142 A 
HETATM   34  C   UNL     1      -1.871  10.616 -28.585  1.00  0.00     0.027 A 
HETATM   35  C   UNL     1      -1.940   9.263 -28.994  1.00  0.00     0.037 A 
ENDBRANCH   6  31
TORSDOF 5
ENDMDL
MODEL 3
REMARK VINA RESULT:      -9.2      2.848      9.882
REMARK  5 active torsions:
REMARK  status: ('A' for Active; 'I' for Inactive)
REMARK    1  A    between atoms: C_3  and  N_4 
REMARK       I    between atoms: N_4  and  C_5 
REMARK    2  A    between atoms: C_9  and  N_10 
REMARK       I    between atoms: N_10  and  C_11 
REMARK    3  A    between atoms: C_11  and  C_12 
REMARK    4  A    between atoms: C_17  and  C_18 
REMARK    5  A    between atoms: C_24  and  C_25 
ROOT
HETATM    1  C   UNL     1      -3.207   3.449 -31.905  1.00  0.00     0.148 A 
HETATM    2  N   UNL     1      -3.018   2.351 -31.134  1.00  0.00    -0.165 NA
HETATM    3  N   UNL     1      -3.811   1.432 -31.718  1.00  0.00    -0.240 N 
HETATM    4  C   UNL     1      -4.587   1.922 -32.727  1.00  0.00     0.123 A 
HETATM    5  N   UNL     1      -5.513   1.148 -33.327  1.00  0.00    -0.364 N 
HETATM    6  C   UNL     1      -6.088  -0.031 -32.667  1.00  0.00     0.143 C 
HETATM    7  C   UNL     1      -5.379  -0.385 -31.340  1.00  0.00     0.068 C 
HETATM    8  C   UNL     1      -3.912   0.063 -31.253  1.00  0.00     0.221 C 
HETATM    9  C   UNL     1      -4.170   3.209 -32.925  1.00  0.00     0.089 A 
HETATM   10  H   UNL     1      -6.114   1.545 -34.049  1.00  0.00     0.162 HD
ENDROOT
BRANCH   1  11
HETATM   11  C   UNL     1      -2.508   4.723 -31.660  1.00  0.00     0.276 C 
HETATM   12  N   UNL     1      -3.027   5.410 -30.579  1.00  0.00    -0.322 N 
HETATM   13  H   UNL     1      -3.797   4.929 -30.122  1.00  0.00     0.169 HD
HETATM   14  O   UNL     1      -1.593   5.093 -32.389  1.00  0.00    -0.266 OA
BRANCH  12  15
HETATM   15  C   UNL     1      -2.657   6.682 -30.103  1.00  0.00     0.037 A 
HETATM   16  C   UNL     1      -1.497   6.929 -29.366  1.00  0.00     0.059 A 
HETATM   17  C   UNL     1      -1.136   8.225 -28.945  1.00  0.00     0.042 A 
HETATM   18  C   UNL     1      -2.007   9.294 -29.211  1.00  0.00    -0.035 A 
HETATM   19  C   UNL     1      -1.820  10.701 -28.715  1.00  0.00     0.050 C 
HETATM   20  C   UNL     1      -3.170   9.041 -29.967  1.00  0.00     0.011 A 
HETATM   21  C   UNL     1      -3.492   7.753 -30.405  1.00  0.00     0.030 A 
BRANCH  17  22
HETATM   22  N   UNL     1       0.086   8.290 -28.234  1.00  0.00    -0.327 N 
HETATM   23  C   UNL     1       0.318   8.026 -26.897  1.00  0.00     0.218 C 
HETATM   24  C   UNL     1       1.780   8.153 -26.544  1.00  0.00     0.117 C 
HETATM   25  O   UNL     1      -0.509   7.738 -26.041  1.00  0.00    -0.274 OA
HETATM   26  H   UNL     1       0.816   8.821 -28.693  1.00  0.00     0.169 HD
ENDBRANCH  17  22
ENDBRANCH  12  15
ENDBRANCH   1  11
BRANCH   8  27
HETATM   27  C   UNL     1      -2.960  -0.815 -32.030  1.00  0.00     0.409 C 
HETATM   28  F   UNL     1      -1.748  -0.890 -31.433  1.00  0.00    -0.169 F 
HETATM   29  F   UNL     1      -3.438  -2.086 -32.079  1.00  0.00    -0.169 F 
HETATM   30  F   UNL     1      -2.757  -0.423 -33.302  1.00  0.00    -0.169 F 
ENDBRANCH   8  27
BRANCH   6  31
HETATM   31  C   UNL     1      -6.226  -1.219 -33.566  1.00  0.00     0.075 A 
HETATM   32  O   UNL     1      -5.118  -1.560 -34.288  1.00  0.00    -0.325 OA
HETATM   33  C   UNL     1      -5.429  -2.677 -34.993  1.00  0.00     0.142 A 
HETATM   34  C   UNL     1      -6.724  -3.062 -34.739  1.00  0.00     0.027 A 
HETATM   35  C   UNL     1      -7.240  -2.121 -33.817  1.00  0.00     0.037 A 
ENDBRANCH   6  31
TORSDOF 5
ENDMDL
MODEL 4
REMARK VINA RESULT:      -9.1      1.731      2.658
REMARK  5 active torsions:
REMARK  status: ('A' for Active; 'I' for Inactive)
REMARK    1  A    between atoms: C_3  and  N_4 
REMARK       I    between atoms: N_4  and  C_5 
REMARK    2  A    between atoms: C_9  and  N_10 
REMARK       I    between atoms: N_10  and  C_11 
REMARK    3  A    between atoms: C_11  and  C_12 
REMARK    4  A    between atoms: C_17  and  C_18 
REMARK    5  A    between atoms: C_24  and  C_25 
ROOT
HETATM    1  C   UNL     1      -4.508   5.275 -31.507  1.00  0.00     0.148 A 
HETATM    2  N   UNL     1      -3.433   5.736 -32.190  1.00  0.00    -0.165 NA
HETATM    3  N   UNL     1      -2.672   6.284 -31.224  1.00  0.00    -0.240 N 
HETATM    4  C   UNL     1      -3.264   6.314 -29.995  1.00  0.00     0.123 A 
HETATM    5  N   UNL     1      -2.671   6.936 -28.956  1.00  0.00    -0.364 N 
HETATM    6  C   UNL     1      -1.672   7.993 -29.148  1.00  0.00     0.143 C 
HETATM    7  C   UNL     1      -1.242   8.155 -30.625  1.00  0.00     0.068 C 
HETATM    8  C   UNL     1      -1.379   6.886 -31.479  1.00  0.00     0.221 C 
HETATM    9  C   UNL     1      -4.424   5.603 -30.124  1.00  0.00     0.089 A 
HETATM   10  H   UNL     1      -3.149   6.985 -28.056  1.00  0.00     0.162 HD
ENDROOT
BRANCH   1  11
HETATM   11  C   UNL     1      -5.619   4.558 -32.158  1.00  0.00     0.276 C 
HETATM   12  N   UNL     1      -6.038   3.461 -31.429  1.00  0.00    -0.322 N 
HETATM   13  H   UNL     1      -5.524   3.328 -30.563  1.00  0.00     0.169 HD
HETATM   14  O   UNL     1      -6.059   4.927 -33.242  1.00  0.00    -0.266 OA
BRANCH  12  15
HETATM   15  C   UNL     1      -7.019   2.514 -31.777  1.00  0.00     0.037 A 
HETATM   16  C   UNL     1      -6.734   1.284 -32.374  1.00  0.00     0.059 A 
HETATM   17  C   UNL     1      -7.741   0.341 -32.667  1.00  0.00     0.042 A 
HETATM   18  C   UNL     1      -9.081   0.676 -32.417  1.00  0.00    -0.035 A 
HETATM   19  C   UNL     1     -10.265  -0.170 -32.793  1.00  0.00     0.050 C 
HETATM   20  C   UNL     1      -9.361   1.913 -31.802  1.00  0.00     0.011 A 
HETATM   21  C   UNL     1      -8.345   2.821 -31.488  1.00  0.00     0.030 A 
BRANCH  17  22
HETATM   22  N   UNL     1      -7.265  -0.861 -33.245  1.00  0.00    -0.327 N 
HETATM   23  C   UNL     1      -6.874  -1.091 -34.549  1.00  0.00     0.218 C 
HETATM   24  C   UNL     1      -6.371  -2.501 -34.746  1.00  0.00     0.117 C 
HETATM   25  O   UNL     1      -6.918  -0.307 -35.489  1.00  0.00    -0.274 OA
HETATM   26  H   UNL     1      -7.465  -1.697 -32.710  1.00  0.00     0.169 HD
ENDBRANCH  17  22
ENDBRANCH  12  15
ENDBRANCH   1  11
BRANCH   8  27
HETATM   27  C   UNL     1      -0.284   5.871 -31.241  1.00  0.00     0.409 C 
HETATM   28  F   UNL     1      -0.228   4.954 -32.236  1.00  0.00    -0.169 F 
HETATM   29  F   UNL     1       0.925   6.490 -31.226  1.00  0.00    -0.169 F 
HETATM   30  F   UNL     1      -0.396   5.198 -30.080  1.00  0.00    -0.169 F 
ENDBRANCH   8  27
BRANCH   6  31
HETATM   31  C   UNL     1      -0.496   7.888 -28.229  1.00  0.00     0.075 A 
HETATM   32  O   UNL     1      -0.752   7.406 -26.977  1.00  0.00    -0.325 OA
HETATM   33  C   UNL     1       0.436   7.342 -26.323  1.00  0.00     0.142 A 
HETATM   34  C   UNL     1       1.455   7.779 -27.134  1.00  0.00     0.027 A 
HETATM   35  C   UNL     1       0.856   8.131 -28.366  1.00  0.00     0.037 A 
ENDBRANCH   6  31
TORSDOF 5
ENDMDL
MODEL 5
REMARK VINA RESULT:      -9.0      3.457      4.672
REMARK  5 active torsions:
REMARK  status: ('A' for Active; 'I' for Inactive)
REMARK    1  A    between atoms: C_3  and  N_4 
REMARK       I    between atoms: N_4  and  C_5 
REMARK    2  A    between atoms: C_9  and  N_10 
REMARK       I    between atoms: N_10  and  C_11 
REMARK    3  A    between atoms: C_11  and  C_12 
REMARK    4  A    between atoms: C_17  and  C_18 
REMARK    5  A    between atoms: C_24  and  C_25 
ROOT
HETATM    1  C   UNL     1      -6.277   5.138 -33.282  1.00  0.00     0.148 A 
HETATM    2  N   UNL     1      -5.339   5.545 -34.172  1.00  0.00    -0.165 NA
HETATM    3  N   UNL     1      -4.263   5.771 -33.395  1.00  0.00    -0.240 N 
HETATM    4  C   UNL     1      -4.505   5.659 -32.057  1.00  0.00     0.123 A 
HETATM    5  N   UNL     1      -3.555   5.970 -31.153  1.00  0.00    -0.364 N 
HETATM    6  C   UNL     1      -2.442   6.872 -31.472  1.00  0.00     0.143 C 
HETATM    7  C   UNL     1      -2.377   7.241 -32.972  1.00  0.00     0.068 C 
HETATM    8  C   UNL     1      -2.982   6.196 -33.921  1.00  0.00     0.221 C 
HETATM    9  C   UNL     1      -5.781   5.179 -31.948  1.00  0.00     0.089 A 
HETATM   10  H   UNL     1      -3.768   5.921 -30.157  1.00  0.00     0.162 HD
ENDROOT
BRANCH   1  11
HETATM   11  C   UNL     1      -7.639   4.745 -33.684  1.00  0.00     0.276 C 
HETATM   12  N   UNL     1      -8.081   3.618 -33.017  1.00  0.00    -0.322 N 
HETATM   13  H   UNL     1      -7.406   3.247 -32.354  1.00  0.00     0.169 HD
HETATM   14  O   UNL     1      -8.250   5.371 -34.544  1.00  0.00    -0.266 OA
BRANCH  12  15
HETATM   15  C   UNL     1      -9.293   2.925 -33.196  1.00  0.00     0.037 A 
HETATM   16  C   UNL     1     -10.499   3.300 -32.601  1.00  0.00     0.059 A 
HETATM   17  C   UNL     1     -11.703   2.607 -32.841  1.00  0.00     0.042 A 
HETATM   18  C   UNL     1     -11.677   1.458 -33.648  1.00  0.00    -0.035 A 
HETATM   19  C   UNL     1     -12.849   0.548 -33.888  1.00  0.00     0.050 C 
HETATM   20  C   UNL     1     -10.460   1.092 -34.257  1.00  0.00     0.011 A 
HETATM   21  C   UNL     1      -9.283   1.813 -34.033  1.00  0.00     0.030 A 
BRANCH  17  22
HETATM   22  N   UNL     1     -12.830   3.145 -32.175  1.00  0.00    -0.327 N 
HETATM   23  C   UNL     1     -13.677   4.152 -32.596  1.00  0.00     0.218 C 
HETATM   24  C   UNL     1     -14.800   4.389 -31.616  1.00  0.00     0.117 C 
HETATM   25  O   UNL     1     -13.583   4.827 -33.614  1.00  0.00    -0.274 OA
HETATM   26  H   UNL     1     -12.874   2.942 -31.184  1.00  0.00     0.169 HD
ENDBRANCH  17  22
ENDBRANCH  12  15
ENDBRANCH   1  11
BRANCH   8  27
HETATM   27  C   UNL     1      -2.095   4.995 -34.149  1.00  0.00     0.409 C 
HETATM   28  F   UNL     1      -2.119   4.593 -35.441  1.00  0.00    -0.169 F 
HETATM   29  F   UNL     1      -0.803   5.314 -33.875  1.00  0.00    -0.169 F 
HETATM   30  F   UNL     1      -2.405   3.926 -33.390  1.00  0.00    -0.169 F 
ENDBRANCH   8  27
BRANCH   6  31
HETATM   31  C   UNL     1      -1.119   6.408 -30.949  1.00  0.00     0.075 A 
HETATM   32  O   UNL     1      -1.066   5.118 -30.503  1.00  0.00    -0.325 OA
HETATM   33  C   UNL     1       0.215   4.880 -30.121  1.00  0.00     0.142 A 
HETATM   34  C   UNL     1       0.990   5.999 -30.312  1.00  0.00     0.027 A 
HETATM   35  C   UNL     1       0.130   6.987 -30.848  1.00  0.00     0.037 A 
ENDBRANCH   6  31
TORSDOF 5
ENDMDL
MODEL 6
REMARK VINA RESULT:      -8.7      3.017      9.628
REMARK  5 active torsions:
REMARK  status: ('A' for Active; 'I' for Inactive)
REMARK    1  A    between atoms: C_3  and  N_4 
REMARK       I    between atoms: N_4  and  C_5 
REMARK    2  A    between atoms: C_9  and  N_10 
REMARK       I    between atoms: N_10  and  C_11 
REMARK    3  A    between atoms: C_11  and  C_12 
REMARK    4  A    between atoms: C_17  and  C_18 
REMARK    5  A    between atoms: C_24  and  C_25 
ROOT
HETATM    1  C   UNL     1      -4.733   3.731 -31.880  1.00  0.00     0.148 A 
HETATM    2  N   UNL     1      -4.503   2.716 -31.013  1.00  0.00    -0.165 NA
HETATM    3  N   UNL     1      -4.933   1.635 -31.691  1.00  0.00    -0.240 N 
HETATM    4  C   UNL     1      -5.541   1.925 -32.878  1.00  0.00     0.123 A 
HETATM    5  N   UNL     1      -6.124   0.956 -33.611  1.00  0.00    -0.364 N 
HETATM    6  C   UNL     1      -6.578  -0.306 -33.015  1.00  0.00     0.143 C 
HETATM    7  C   UNL     1      -6.134  -0.471 -31.543  1.00  0.00     0.068 C 
HETATM    8  C   UNL     1      -4.852   0.287 -31.167  1.00  0.00     0.221 C 
HETATM    9  C   UNL     1      -5.366   3.267 -33.068  1.00  0.00     0.089 A 
HETATM   10  H   UNL     1      -6.611   1.198 -34.474  1.00  0.00     0.162 HD
ENDROOT
BRANCH   1  11
HETATM   11  C   UNL     1      -4.389   5.132 -31.576  1.00  0.00     0.276 C 
HETATM   12  N   UNL     1      -3.573   5.245 -30.467  1.00  0.00    -0.322 N 
HETATM   13  H   UNL     1      -3.335   4.352 -30.043  1.00  0.00     0.169 HD
HETATM   14  O   UNL     1      -4.833   6.053 -32.253  1.00  0.00    -0.266 OA
BRANCH  12  15
HETATM   15  C   UNL     1      -3.107   6.422 -29.850  1.00  0.00     0.037 A 
HETATM   16  C   UNL     1      -3.678   6.976 -28.703  1.00  0.00     0.059 A 
HETATM   17  C   UNL     1      -3.155   8.132 -28.087  1.00  0.00     0.042 A 
HETATM   18  C   UNL     1      -2.070   8.790 -28.686  1.00  0.00    -0.035 A 
HETATM   19  C   UNL     1      -1.491  10.097 -28.220  1.00  0.00     0.050 C 
HETATM   20  C   UNL     1      -1.490   8.219 -29.837  1.00  0.00     0.011 A 
HETATM   21  C   UNL     1      -2.002   7.052 -30.413  1.00  0.00     0.030 A 
BRANCH  17  22
HETATM   22  N   UNL     1      -3.845   8.534 -26.918  1.00  0.00    -0.327 N 
HETATM   23  C   UNL     1      -3.529   8.269 -25.599  1.00  0.00     0.218 C 
HETATM   24  C   UNL     1      -4.491   8.934 -24.645  1.00  0.00     0.117 C 
HETATM   25  O   UNL     1      -2.611   7.575 -25.179  1.00  0.00    -0.274 OA
HETATM   26  H   UNL     1      -4.799   8.836 -27.071  1.00  0.00     0.169 HD
ENDBRANCH  17  22
ENDBRANCH  12  15
ENDBRANCH   1  11
BRANCH   8  27
HETATM   27  C   UNL     1      -3.586  -0.379 -31.654  1.00  0.00     0.409 C 
HETATM   28  F   UNL     1      -3.246   0.039 -32.896  1.00  0.00    -0.169 F 
HETATM   29  F   UNL     1      -2.547  -0.047 -30.844  1.00  0.00    -0.169 F 
HETATM   30  F   UNL     1      -3.645  -1.724 -31.686  1.00  0.00    -0.169 F 
ENDBRANCH   8  27
BRANCH   6  31
HETATM   31  C   UNL     1      -6.256  -1.514 -33.838  1.00  0.00     0.075 A 
HETATM   32  O   UNL     1      -4.973  -1.605 -34.298  1.00  0.00    -0.325 OA
HETATM   33  C   UNL     1      -4.874  -2.780 -34.972  1.00  0.00     0.142 A 
HETATM   34  C   UNL     1      -6.075  -3.447 -34.955  1.00  0.00     0.027 A 
HETATM   35  C   UNL     1      -6.969  -2.632 -34.223  1.00  0.00     0.037 A 
ENDBRANCH   6  31
TORSDOF 5
ENDMDL
MODEL 7
REMARK VINA RESULT:      -8.7      2.805      3.930
REMARK  5 active torsions:
REMARK  status: ('A' for Active; 'I' for Inactive)
REMARK    1  A    between atoms: C_3  and  N_4 
REMARK       I    between atoms: N_4  and  C_5 
REMARK    2  A    between atoms: C_9  and  N_10 
REMARK       I    between atoms: N_10  and  C_11 
REMARK    3  A    between atoms: C_11  and  C_12 
REMARK    4  A    between atoms: C_17  and  C_18 
REMARK    5  A    between atoms: C_24  and  C_25 
ROOT
HETATM    1  C   UNL     1      -3.595   2.961 -31.858  1.00  0.00     0.148 A 
HETATM    2  N   UNL     1      -2.547   3.551 -32.482  1.00  0.00    -0.165 NA
HETATM    3  N   UNL     1      -2.618   4.825 -32.054  1.00  0.00    -0.240 N 
HETATM    4  C   UNL     1      -3.723   5.104 -31.305  1.00  0.00     0.123 A 
HETATM    5  N   UNL     1      -3.989   6.363 -30.904  1.00  0.00    -0.364 N 
HETATM    6  C   UNL     1      -3.449   7.534 -31.605  1.00  0.00     0.143 C 
HETATM    7  C   UNL     1      -2.410   7.161 -32.687  1.00  0.00     0.068 C 
HETATM    8  C   UNL     1      -1.661   5.844 -32.437  1.00  0.00     0.221 C 
HETATM    9  C   UNL     1      -4.343   3.903 -31.095  1.00  0.00     0.089 A 
HETATM   10  H   UNL     1      -4.843   6.558 -30.381  1.00  0.00     0.162 HD
ENDROOT
BRANCH   1  11
HETATM   11  C   UNL     1      -3.907   1.529 -32.005  1.00  0.00     0.276 C 
HETATM   12  N   UNL     1      -4.811   1.288 -33.023  1.00  0.00    -0.322 N 
HETATM   13  H   UNL     1      -5.109   2.129 -33.510  1.00  0.00     0.169 HD
HETATM   14  O   UNL     1      -3.410   0.693 -31.257  1.00  0.00    -0.266 OA
BRANCH  12  15
HETATM   15  C   UNL     1      -5.385   0.059 -33.399  1.00  0.00     0.037 A 
HETATM   16  C   UNL     1      -4.643  -1.085 -33.700  1.00  0.00     0.059 A 
HETATM   17  C   UNL     1      -5.254  -2.312 -34.029  1.00  0.00     0.042 A 
HETATM   18  C   UNL     1      -6.654  -2.370 -34.127  1.00  0.00    -0.035 A 
HETATM   19  C   UNL     1      -7.436  -3.567 -34.590  1.00  0.00     0.050 C 
HETATM   20  C   UNL     1      -7.398  -1.216 -33.808  1.00  0.00     0.011 A 
HETATM   21  C   UNL     1      -6.773  -0.017 -33.451  1.00  0.00     0.030 A 
BRANCH  17  22
HETATM   22  N   UNL     1      -4.347  -3.370 -34.277  1.00  0.00    -0.327 N 
HETATM   23  C   UNL     1      -3.548  -4.047 -33.376  1.00  0.00     0.218 C 
HETATM   24  C   UNL     1      -2.765  -5.154 -34.039  1.00  0.00     0.117 C 
HETATM   25  O   UNL     1      -3.421  -3.822 -32.179  1.00  0.00    -0.274 OA
HETATM   26  H   UNL     1      -4.074  -3.475 -35.247  1.00  0.00     0.169 HD
ENDBRANCH  17  22
ENDBRANCH  12  15
ENDBRANCH   1  11
BRANCH   8  27
HETATM   27  C   UNL     1      -0.576   5.950 -31.390  1.00  0.00     0.409 C 
HETATM   28  F   UNL     1      -0.030   7.188 -31.359  1.00  0.00    -0.169 F 
HETATM   29  F   UNL     1      -1.101   5.736 -30.156  1.00  0.00    -0.169 F 
HETATM   30  F   UNL     1       0.431   5.070 -31.546  1.00  0.00    -0.169 F 
ENDBRANCH   8  27
BRANCH   6  31
HETATM   31  C   UNL     1      -2.950   8.608 -30.691  1.00  0.00     0.075 A 
HETATM   32  O   UNL     1      -2.818   9.852 -31.239  1.00  0.00    -0.325 OA
HETATM   33  C   UNL     1      -2.405  10.683 -30.248  1.00  0.00     0.142 A 
HETATM   34  C   UNL     1      -2.266   9.993 -29.068  1.00  0.00     0.027 A 
HETATM   35  C   UNL     1      -2.619   8.653 -29.352  1.00  0.00     0.037 A 
ENDBRANCH   6  31
TORSDOF 5
ENDMDL
MODEL 8
REMARK VINA RESULT:      -8.7      2.376      2.791
REMARK  5 active torsions:
REMARK  status: ('A' for Active; 'I' for Inactive)
REMARK    1  A    between atoms: C_3  and  N_4 
REMARK       I    between atoms: N_4  and  C_5 
REMARK    2  A    between atoms: C_9  and  N_10 
REMARK       I    between atoms: N_10  and  C_11 
REMARK    3  A    between atoms: C_11  and  C_12 
REMARK    4  A    between atoms: C_17  and  C_18 
REMARK    5  A    between atoms: C_24  and  C_25 
ROOT
HETATM    1  C   UNL     1      -4.639   4.827 -32.106  1.00  0.00     0.148 A 
HETATM    2  N   UNL     1      -3.638   5.492 -32.732  1.00  0.00    -0.165 NA
HETATM    3  N   UNL     1      -2.941   6.021 -31.708  1.00  0.00    -0.240 N 
HETATM    4  C   UNL     1      -3.517   5.840 -30.486  1.00  0.00     0.123 A 
HETATM    5  N   UNL     1      -2.995   6.413 -29.382  1.00  0.00    -0.364 N 
HETATM    6  C   UNL     1      -2.138   7.602 -29.453  1.00  0.00     0.143 C 
HETATM    7  C   UNL     1      -1.749   7.978 -30.902  1.00  0.00     0.068 C 
HETATM    8  C   UNL     1      -1.736   6.805 -31.892  1.00  0.00     0.221 C 
HETATM    9  C   UNL     1      -4.581   5.008 -30.695  1.00  0.00     0.089 A 
HETATM   10  H   UNL     1      -3.464   6.301 -28.484  1.00  0.00     0.162 HD
ENDROOT
BRANCH   1  11
HETATM   11  C   UNL     1      -5.659   4.053 -32.836  1.00  0.00     0.276 C 
HETATM   12  N   UNL     1      -6.617   3.519 -31.995  1.00  0.00    -0.322 N 
HETATM   13  H   UNL     1      -6.472   3.748 -31.015  1.00  0.00     0.169 HD
HETATM   14  O   UNL     1      -5.594   3.910 -34.052  1.00  0.00    -0.266 OA
BRANCH  12  15
HETATM   15  C   UNL     1      -7.691   2.674 -32.332  1.00  0.00     0.037 A 
HETATM   16  C   UNL     1      -8.620   2.961 -33.334  1.00  0.00     0.059 A 
HETATM   17  C   UNL     1      -9.657   2.068 -33.674  1.00  0.00     0.042 A 
HETATM   18  C   UNL     1      -9.806   0.884 -32.934  1.00  0.00    -0.035 A 
HETATM   19  C   UNL     1     -10.934  -0.096 -33.096  1.00  0.00     0.050 C 
HETATM   20  C   UNL     1      -8.857   0.594 -31.933  1.00  0.00     0.011 A 
HETATM   21  C   UNL     1      -7.815   1.477 -31.634  1.00  0.00     0.030 A 
BRANCH  17  22
HETATM   22  N   UNL     1     -10.487   2.511 -34.732  1.00  0.00    -0.327 N 
HETATM   23  C   UNL     1     -11.740   3.088 -34.657  1.00  0.00     0.218 C 
HETATM   24  C   UNL     1     -12.264   3.475 -36.019  1.00  0.00     0.117 C 
HETATM   25  O   UNL     1     -12.414   3.276 -33.652  1.00  0.00    -0.274 OA
HETATM   26  H   UNL     1     -10.244   2.145 -35.644  1.00  0.00     0.169 HD
ENDBRANCH  17  22
ENDBRANCH  12  15
ENDBRANCH   1  11
BRANCH   8  27
HETATM   27  C   UNL     1      -0.520   5.916 -31.766  1.00  0.00     0.409 C 
HETATM   28  F   UNL     1      -0.651   5.030 -30.751  1.00  0.00    -0.169 F 
HETATM   29  F   UNL     1      -0.368   5.178 -32.896  1.00  0.00    -0.169 F 
HETATM   30  F   UNL     1       0.634   6.581 -31.573  1.00  0.00    -0.169 F 
ENDBRANCH   8  27
BRANCH   6  31
HETATM   31  C   UNL     1      -0.948   7.544 -28.549  1.00  0.00     0.075 A 
HETATM   32  O   UNL     1      -1.128   6.901 -27.357  1.00  0.00    -0.325 OA
HETATM   33  C   UNL     1       0.067   6.915 -26.712  1.00  0.00     0.142 A 
HETATM   34  C   UNL     1       1.015   7.560 -27.469  1.00  0.00     0.027 A 
HETATM   35  C   UNL     1       0.362   7.966 -28.656  1.00  0.00     0.037 A 
ENDBRANCH   6  31
TORSDOF 5
ENDMDL
MODEL 9
REMARK VINA RESULT:      -8.7      4.709     10.719
REMARK  5 active torsions:
REMARK  status: ('A' for Active; 'I' for Inactive)
REMARK    1  A    between atoms: C_3  and  N_4 
REMARK       I    between atoms: N_4  and  C_5 
REMARK    2  A    between atoms: C_9  and  N_10 
REMARK       I    between atoms: N_10  and  C_11 
REMARK    3  A    between atoms: C_11  and  C_12 
REMARK    4  A    between atoms: C_17  and  C_18 
REMARK    5  A    between atoms: C_24  and  C_25 
ROOT
HETATM    1  C   UNL     1      -6.962   3.114 -31.638  1.00  0.00     0.148 A 
HETATM    2  N   UNL     1      -7.194   3.262 -32.965  1.00  0.00    -0.165 NA
HETATM    3  N   UNL     1      -8.421   2.731 -33.119  1.00  0.00    -0.240 N 
HETATM    4  C   UNL     1      -8.920   2.139 -31.996  1.00  0.00     0.123 A 
HETATM    5  N   UNL     1     -10.086   1.463 -32.029  1.00  0.00    -0.364 N 
HETATM    6  C   UNL     1     -10.628   0.905 -33.273  1.00  0.00     0.143 C 
HETATM    7  C   UNL     1      -9.838   1.348 -34.526  1.00  0.00     0.068 C 
HETATM    8  C   UNL     1      -9.116   2.696 -34.390  1.00  0.00     0.221 C 
HETATM    9  C   UNL     1      -8.034   2.430 -30.996  1.00  0.00     0.089 A 
HETATM   10  H   UNL     1     -10.421   0.990 -31.189  1.00  0.00     0.162 HD
ENDROOT
BRANCH   1  11
HETATM   11  C   UNL     1      -5.727   3.586 -30.987  1.00  0.00     0.276 C 
HETATM   12  N   UNL     1      -4.994   4.432 -31.798  1.00  0.00    -0.322 N 
HETATM   13  H   UNL     1      -5.423   4.600 -32.704  1.00  0.00     0.169 HD
HETATM   14  O   UNL     1      -5.423   3.209 -29.860  1.00  0.00    -0.266 OA
BRANCH  12  15
HETATM   15  C   UNL     1      -3.738   5.011 -31.535  1.00  0.00     0.037 A 
HETATM   16  C   UNL     1      -3.569   6.268 -30.953  1.00  0.00     0.059 A 
HETATM   17  C   UNL     1      -2.295   6.796 -30.662  1.00  0.00     0.042 A 
HETATM   18  C   UNL     1      -1.155   6.067 -31.035  1.00  0.00    -0.035 A 
HETATM   19  C   UNL     1       0.261   6.556 -30.909  1.00  0.00     0.050 C 
HETATM   20  C   UNL     1      -1.332   4.792 -31.611  1.00  0.00     0.011 A 
HETATM   21  C   UNL     1      -2.605   4.271 -31.859  1.00  0.00     0.030 A 
BRANCH  17  22
HETATM   22  N   UNL     1      -2.316   8.071 -30.047  1.00  0.00    -0.327 N 
HETATM   23  C   UNL     1      -2.256   9.315 -30.646  1.00  0.00     0.218 C 
HETATM   24  C   UNL     1      -2.368  10.432 -29.636  1.00  0.00     0.117 C 
HETATM   25  O   UNL     1      -2.110   9.562 -31.836  1.00  0.00    -0.274 OA
HETATM   26  H   UNL     1      -2.106   8.068 -29.057  1.00  0.00     0.169 HD
ENDBRANCH  17  22
ENDBRANCH  12  15
ENDBRANCH   1  11
BRANCH   8  27
HETATM   27  C   UNL     1     -10.031   3.893 -34.509  1.00  0.00     0.409 C 
HETATM   28  F   UNL     1     -11.143   3.603 -35.225  1.00  0.00    -0.169 F 
HETATM   29  F   UNL     1     -10.461   4.270 -33.277  1.00  0.00    -0.169 F 
HETATM   30  F   UNL     1      -9.460   4.973 -35.074  1.00  0.00    -0.169 F 
ENDBRANCH   8  27
BRANCH   6  31
HETATM   31  C   UNL     1     -12.101   1.109 -33.435  1.00  0.00     0.075 A 
HETATM   32  O   UNL     1     -12.610   2.267 -32.920  1.00  0.00    -0.325 OA
HETATM   33  C   UNL     1     -13.936   2.284 -33.210  1.00  0.00     0.142 A 
HETATM   34  C   UNL     1     -14.292   1.152 -33.904  1.00  0.00     0.027 A 
HETATM   35  C   UNL     1     -13.108   0.392 -34.051  1.00  0.00     0.037 A 
ENDBRANCH   6  31
TORSDOF 5
ENDMDL
MODEL 10
REMARK VINA RESULT:      -8.6     17.824     20.798
REMARK  5 active torsions:
REMARK  status: ('A' for Active; 'I' for Inactive)
REMARK    1  A    between atoms: C_3  and  N_4 
REMARK       I    between atoms: N_4  and  C_5 
REMARK    2  A    between atoms: C_9  and  N_10 
REMARK       I    between atoms: N_10  and  C_11 
REMARK    3  A    between atoms: C_11  and  C_12 
REMARK    4  A    between atoms: C_17  and  C_18 
REMARK    5  A    between atoms: C_24  and  C_25 
ROOT
HETATM    1  C   UNL     1      -4.906 -15.234 -32.600  1.00  0.00     0.148 A 
HETATM    2  N   UNL     1      -4.233 -15.582 -33.723  1.00  0.00    -0.165 NA
HETATM    3  N   UNL     1      -5.098 -15.264 -34.705  1.00  0.00    -0.240 N 
HETATM    4  C   UNL     1      -6.324 -14.862 -34.262  1.00  0.00     0.123 A 
HETATM    5  N   UNL     1      -7.329 -14.623 -35.128  1.00  0.00    -0.364 N 
HETATM    6  C   UNL     1      -7.359 -15.217 -36.470  1.00  0.00     0.143 C 
HETATM    7  C   UNL     1      -6.048 -15.951 -36.833  1.00  0.00     0.068 C 
HETATM    8  C   UNL     1      -4.795 -15.429 -36.112  1.00  0.00     0.221 C 
HETATM    9  C   UNL     1      -6.214 -14.761 -32.903  1.00  0.00     0.089 A 
HETATM   10  H   UNL     1      -8.251 -14.365 -34.775  1.00  0.00     0.162 HD
ENDROOT
BRANCH   1  11
HETATM   11  C   UNL     1      -4.331 -15.378 -31.250  1.00  0.00     0.276 C 
HETATM   12  N   UNL     1      -2.951 -15.439 -31.269  1.00  0.00    -0.322 N 
HETATM   13  H   UNL     1      -2.553 -15.368 -32.202  1.00  0.00     0.169 HD
HETATM   14  O   UNL     1      -5.052 -15.459 -30.262  1.00  0.00    -0.266 OA
BRANCH  12  15
HETATM   15  C   UNL     1      -2.078 -15.644 -30.184  1.00  0.00     0.037 A 
HETATM   16  C   UNL     1      -1.142 -14.702 -29.752  1.00  0.00     0.059 A 
HETATM   17  C   UNL     1      -0.316 -14.924 -28.631  1.00  0.00     0.042 A 
HETATM   18  C   UNL     1      -0.384 -16.161 -27.970  1.00  0.00    -0.035 A 
HETATM   19  C   UNL     1       0.520 -16.588 -26.848  1.00  0.00     0.050 C 
HETATM   20  C   UNL     1      -1.340 -17.102 -28.403  1.00  0.00     0.011 A 
HETATM   21  C   UNL     1      -2.174 -16.849 -29.495  1.00  0.00     0.030 A 
BRANCH  17  22
HETATM   22  N   UNL     1       0.552 -13.850 -28.322  1.00  0.00    -0.327 N 
HETATM   23  C   UNL     1       1.928 -13.795 -28.439  1.00  0.00     0.218 C 
HETATM   24  C   UNL     1       2.472 -12.439 -28.061  1.00  0.00     0.117 C 
HETATM   25  O   UNL     1       2.682 -14.698 -28.781  1.00  0.00    -0.274 OA
HETATM   26  H   UNL     1       0.150 -13.138 -27.724  1.00  0.00     0.169 HD
ENDBRANCH  17  22
ENDBRANCH  12  15
ENDBRANCH   1  11
BRANCH   8  27
HETATM   27  C   UNL     1      -4.262 -14.134 -36.679  1.00  0.00     0.409 C 
HETATM   28  F   UNL     1      -4.763 -13.059 -36.027  1.00  0.00    -0.169 F 
HETATM   29  F   UNL     1      -2.914 -14.080 -36.520  1.00  0.00    -0.169 F 
HETATM   30  F   UNL     1      -4.510 -13.960 -37.991  1.00  0.00    -0.169 F 
ENDBRANCH   8  27
BRANCH   6  31
HETATM   31  C   UNL     1      -7.787 -14.265 -37.542  1.00  0.00     0.075 A 
HETATM   32  O   UNL     1      -8.632 -14.767 -38.491  1.00  0.00    -0.325 OA
HETATM   33  C   UNL     1      -8.937 -13.747 -39.333  1.00  0.00     0.142 A 
HETATM   34  C   UNL     1      -8.298 -12.594 -38.944  1.00  0.00     0.027 A 
HETATM   35  C   UNL     1      -7.556 -12.926 -37.786  1.00  0.00     0.037 A 
ENDBRANCH   6  31
TORSDOF 5
ENDMDL
