MODEL 1
REMARK VINA RESULT:      -8.0      0.000      0.000
REMARK  6 active torsions:
REMARK  status: ('A' for Active; 'I' for Inactive)
REMARK    1  A    between atoms: C_2  and  N_3 
REMARK    2  A    between atoms: C_2  and  C_16 
REMARK    3  A    between atoms: N_3  and  C_5 
REMARK    4  A    between atoms: C_5  and  C_6 
REMARK       I    between atoms: C_16  and  N_17 
REMARK    5  A    between atoms: N_17  and  C_18 
REMARK    6  A    between atoms: C_19  and  C_20 
ROOT
HETATM    1  C   UNL     1      -8.987   0.845 -33.177  1.00  0.00     0.253 C 
HETATM    2  N   UNL     1      -7.805   0.889 -33.877  1.00  0.00    -0.325 N 
HETATM    3  O   UNL     1      -9.545  -0.172 -32.760  1.00  0.00    -0.271 OA
HETATM    4  H   UNL     1      -7.636   1.664 -34.509  1.00  0.00     0.169 HD
ENDROOT
BRANCH   1   5
HETATM    5  C   UNL     1      -9.737   2.183 -33.018  1.00  0.00     0.275 C 
HETATM    6  C   UNL     1     -10.046   2.906 -34.320  1.00  0.00     0.050 C 
BRANCH   5   7
HETATM    7  N   UNL     1      -8.965   3.084 -32.015  1.00  0.00    -0.059 N 
HETATM    8  H   UNL     1      -8.003   2.703 -32.084  1.00  0.00     0.280 HD
HETATM    9  C   UNL     1      -9.409   2.867 -30.600  1.00  0.00     0.271 C 
BRANCH   7  10
HETATM   10  C   UNL     1      -8.808   4.556 -32.333  1.00  0.00     0.274 C 
BRANCH  10  11
HETATM   11  C   UNL     1      -7.426   5.025 -32.707  1.00  0.00    -0.030 A 
HETATM   12  C   UNL     1      -6.775   4.521 -33.846  1.00  0.00     0.048 A 
HETATM   13  C   UNL     1      -5.505   4.978 -34.134  1.00  0.00     0.105 A 
HETATM   14  C   UNL     1      -4.857   5.877 -33.326  1.00  0.00     0.105 A 
HETATM   15  O   UNL     1      -4.759   4.614 -35.209  1.00  0.00    -0.323 OA
HETATM   16  O   UNL     1      -3.620   6.193 -33.788  1.00  0.00    -0.323 OA
HETATM   17  C   UNL     1      -5.441   6.367 -32.180  1.00  0.00     0.040 A 
HETATM   18  C   UNL     1      -3.562   5.394 -34.989  1.00  0.00     0.352 A 
HETATM   19  C   UNL     1      -6.735   5.933 -31.869  1.00  0.00     0.012 A 
ENDBRANCH  10  11
ENDBRANCH   7  10
ENDBRANCH   5   7
ENDBRANCH   1   5
BRANCH   2  20
HETATM   20  C   UNL     1      -6.849  -0.158 -33.955  1.00  0.00     0.045 A 
HETATM   21  C   UNL     1      -5.829  -0.231 -32.976  1.00  0.00     0.001 A 
HETATM   22  C   UNL     1      -4.942  -1.323 -33.005  1.00  0.00     0.014 A 
HETATM   23  C   UNL     1      -5.051  -2.315 -33.978  1.00  0.00     0.001 A 
HETATM   24  C   UNL     1      -6.047  -2.229 -34.943  1.00  0.00     0.002 A 
HETATM   25  C   UNL     1      -6.942  -1.158 -34.935  1.00  0.00     0.030 A 
BRANCH  21  26
HETATM   26  C   UNL     1      -5.616   0.827 -31.975  1.00  0.00    -0.024 A 
HETATM   27  C   UNL     1      -4.743   1.896 -32.222  1.00  0.00     0.012 A 
HETATM   28  C   UNL     1      -4.559   2.899 -31.267  1.00  0.00     0.001 A 
HETATM   29  C   UNL     1      -5.245   2.846 -30.055  1.00  0.00     0.000 A 
HETATM   30  C   UNL     1      -6.120   1.793 -29.796  1.00  0.00     0.001 A 
HETATM   31  C   UNL     1      -6.304   0.792 -30.750  1.00  0.00     0.012 A 
ENDBRANCH  21  26
ENDBRANCH   2  20
TORSDOF 6
ENDMDL
MODEL 2
REMARK VINA RESULT:      -7.6      1.922      3.862
REMARK  6 active torsions:
REMARK  status: ('A' for Active; 'I' for Inactive)
REMARK    1  A    between atoms: C_2  and  N_3 
REMARK    2  A    between atoms: C_2  and  C_16 
REMARK    3  A    between atoms: N_3  and  C_5 
REMARK    4  A    between atoms: C_5  and  C_6 
REMARK       I    between atoms: C_16  and  N_17 
REMARK    5  A    between atoms: N_17  and  C_18 
REMARK    6  A    between atoms: C_19  and  C_20 
ROOT
HETATM    1  C   UNL     1      -4.953   1.382 -32.010  1.00  0.00     0.253 C 
HETATM    2  N   UNL     1      -5.711   0.236 -31.989  1.00  0.00    -0.325 N 
HETATM    3  O   UNL     1      -3.919   1.557 -32.658  1.00  0.00    -0.271 OA
HETATM    4  H   UNL     1      -6.269   0.031 -31.168  1.00  0.00     0.169 HD
ENDROOT
BRANCH   1   5
HETATM    5  C   UNL     1      -5.372   2.496 -31.029  1.00  0.00     0.275 C 
HETATM    6  C   UNL     1      -5.918   2.009 -29.696  1.00  0.00     0.050 C 
BRANCH   5   7
HETATM    7  N   UNL     1      -6.353   3.464 -31.747  1.00  0.00    -0.059 N 
HETATM    8  H   UNL     1      -6.181   4.353 -31.244  1.00  0.00     0.280 HD
HETATM    9  C   UNL     1      -7.787   3.104 -31.500  1.00  0.00     0.271 C 
BRANCH   7  10
HETATM   10  C   UNL     1      -6.104   3.802 -33.202  1.00  0.00     0.274 C 
BRANCH  10  11
HETATM   11  C   UNL     1      -4.915   4.678 -33.500  1.00  0.00    -0.030 A 
HETATM   12  C   UNL     1      -4.433   5.591 -32.547  1.00  0.00     0.048 A 
HETATM   13  C   UNL     1      -3.348   6.377 -32.879  1.00  0.00     0.105 A 
HETATM   14  C   UNL     1      -2.757   6.313 -34.115  1.00  0.00     0.105 A 
HETATM   15  O   UNL     1      -2.746   7.281 -32.061  1.00  0.00    -0.323 OA
HETATM   16  O   UNL     1      -1.709   7.169 -34.234  1.00  0.00    -0.323 OA
HETATM   17  C   UNL     1      -3.220   5.462 -35.091  1.00  0.00     0.040 A 
HETATM   18  C   UNL     1      -1.700   7.779 -32.925  1.00  0.00     0.352 A 
HETATM   19  C   UNL     1      -4.310   4.642 -34.780  1.00  0.00     0.012 A 
ENDBRANCH  10  11
ENDBRANCH   7  10
ENDBRANCH   5   7
ENDBRANCH   1   5
BRANCH   2  20
HETATM   20  C   UNL     1      -5.649  -0.814 -32.943  1.00  0.00     0.045 A 
HETATM   21  C   UNL     1      -6.707  -0.959 -33.873  1.00  0.00     0.001 A 
HETATM   22  C   UNL     1      -6.597  -1.942 -34.874  1.00  0.00     0.014 A 
HETATM   23  C   UNL     1      -5.476  -2.768 -34.953  1.00  0.00     0.001 A 
HETATM   24  C   UNL     1      -4.449  -2.628 -34.027  1.00  0.00     0.002 A 
HETATM   25  C   UNL     1      -4.532  -1.658 -33.027  1.00  0.00     0.030 A 
BRANCH  21  26
HETATM   26  C   UNL     1      -7.947  -0.170 -33.791  1.00  0.00    -0.024 A 
HETATM   27  C   UNL     1      -8.969  -0.515 -32.896  1.00  0.00     0.012 A 
HETATM   28  C   UNL     1     -10.137   0.249 -32.820  1.00  0.00     0.001 A 
HETATM   29  C   UNL     1     -10.296   1.367 -33.637  1.00  0.00     0.000 A 
HETATM   30  C   UNL     1      -9.287   1.726 -34.529  1.00  0.00     0.001 A 
HETATM   31  C   UNL     1      -8.121   0.964 -34.604  1.00  0.00     0.012 A 
ENDBRANCH  21  26
ENDBRANCH   2  20
TORSDOF 6
ENDMDL
MODEL 3
REMARK VINA RESULT:      -7.5      2.514      4.406
REMARK  6 active torsions:
REMARK  status: ('A' for Active; 'I' for Inactive)
REMARK    1  A    between atoms: C_2  and  N_3 
REMARK    2  A    between atoms: C_2  and  C_16 
REMARK    3  A    between atoms: N_3  and  C_5 
REMARK    4  A    between atoms: C_5  and  C_6 
REMARK       I    between atoms: C_16  and  N_17 
REMARK    5  A    between atoms: N_17  and  C_18 
REMARK    6  A    between atoms: C_19  and  C_20 
ROOT
HETATM    1  C   UNL     1      -4.779   1.067 -32.121  1.00  0.00     0.253 C 
HETATM    2  N   UNL     1      -5.296   0.631 -33.317  1.00  0.00    -0.325 N 
HETATM    3  O   UNL     1      -4.612   0.382 -31.110  1.00  0.00    -0.271 OA
HETATM    4  H   UNL     1      -5.765   1.297 -33.922  1.00  0.00     0.169 HD
ENDROOT
BRANCH   1   5
HETATM    5  C   UNL     1      -4.508   2.581 -32.005  1.00  0.00     0.275 C 
HETATM    6  C   UNL     1      -3.172   2.951 -31.382  1.00  0.00     0.050 C 
BRANCH   5   7
HETATM    7  N   UNL     1      -5.703   3.256 -31.275  1.00  0.00    -0.059 N 
HETATM    8  H   UNL     1      -5.808   4.138 -31.809  1.00  0.00     0.280 HD
HETATM    9  C   UNL     1      -5.362   3.647 -29.869  1.00  0.00     0.271 C 
BRANCH   7  10
HETATM   10  C   UNL     1      -7.067   2.603 -31.359  1.00  0.00     0.274 C 
BRANCH  10  11
HETATM   11  C   UNL     1      -8.174   3.423 -31.970  1.00  0.00    -0.030 A 
HETATM   12  C   UNL     1      -7.996   4.073 -33.203  1.00  0.00     0.048 A 
HETATM   13  C   UNL     1      -9.041   4.820 -33.710  1.00  0.00     0.105 A 
HETATM   14  C   UNL     1     -10.223   4.968 -33.030  1.00  0.00     0.105 A 
HETATM   15  O   UNL     1      -9.038   5.479 -34.898  1.00  0.00    -0.323 OA
HETATM   16  O   UNL     1     -11.114   5.742 -33.702  1.00  0.00    -0.323 OA
HETATM   17  C   UNL     1     -10.426   4.382 -31.802  1.00  0.00     0.040 A 
HETATM   18  C   UNL     1     -10.361   6.060 -34.892  1.00  0.00     0.352 A 
HETATM   19  C   UNL     1      -9.390   3.606 -31.269  1.00  0.00     0.012 A 
ENDBRANCH  10  11
ENDBRANCH   7  10
ENDBRANCH   5   7
ENDBRANCH   1   5
BRANCH   2  20
HETATM   20  C   UNL     1      -5.413  -0.724 -33.724  1.00  0.00     0.045 A 
HETATM   21  C   UNL     1      -6.686  -1.222 -34.094  1.00  0.00     0.001 A 
HETATM   22  C   UNL     1      -6.780  -2.538 -34.585  1.00  0.00     0.014 A 
HETATM   23  C   UNL     1      -5.650  -3.346 -34.701  1.00  0.00     0.001 A 
HETATM   24  C   UNL     1      -4.406  -2.854 -34.322  1.00  0.00     0.002 A 
HETATM   25  C   UNL     1      -4.286  -1.551 -33.836  1.00  0.00     0.030 A 
BRANCH  21  26
HETATM   26  C   UNL     1      -7.922  -0.443 -33.919  1.00  0.00    -0.024 A 
HETATM   27  C   UNL     1      -8.356   0.460 -34.901  1.00  0.00     0.012 A 
HETATM   28  C   UNL     1      -9.537   1.186 -34.726  1.00  0.00     0.001 A 
HETATM   29  C   UNL     1     -10.297   1.019 -33.570  1.00  0.00     0.000 A 
HETATM   30  C   UNL     1      -9.882   0.123 -32.587  1.00  0.00     0.001 A 
HETATM   31  C   UNL     1      -8.703  -0.602 -32.762  1.00  0.00     0.012 A 
ENDBRANCH  21  26
ENDBRANCH   2  20
TORSDOF 6
ENDMDL
MODEL 4
REMARK VINA RESULT:      -7.3      2.938      7.251
REMARK  6 active torsions:
REMARK  status: ('A' for Active; 'I' for Inactive)
REMARK    1  A    between atoms: C_2  and  N_3 
REMARK    2  A    between atoms: C_2  and  C_16 
REMARK    3  A    between atoms: N_3  and  C_5 
REMARK    4  A    between atoms: C_5  and  C_6 
REMARK       I    between atoms: C_16  and  N_17 
REMARK    5  A    between atoms: N_17  and  C_18 
REMARK    6  A    between atoms: C_19  and  C_20 
ROOT
HETATM    1  C   UNL     1      -8.847   2.116 -32.534  1.00  0.00     0.253 C 
HETATM    2  N   UNL     1      -9.597   2.051 -33.684  1.00  0.00    -0.325 N 
HETATM    3  O   UNL     1      -9.283   2.288 -31.394  1.00  0.00    -0.271 OA
HETATM    4  H   UNL     1      -9.169   2.314 -34.566  1.00  0.00     0.169 HD
ENDROOT
BRANCH   1   5
HETATM    5  C   UNL     1      -7.316   2.103 -32.715  1.00  0.00     0.275 C 
HETATM    6  C   UNL     1      -6.803   2.872 -33.922  1.00  0.00     0.050 C 
BRANCH   5   7
HETATM    7  N   UNL     1      -6.815   0.632 -32.700  1.00  0.00    -0.059 N 
HETATM    8  H   UNL     1      -7.684   0.109 -32.912  1.00  0.00     0.280 HD
HETATM    9  C   UNL     1      -6.377   0.195 -31.334  1.00  0.00     0.271 C 
BRANCH   7  10
HETATM   10  C   UNL     1      -5.839   0.187 -33.769  1.00  0.00     0.274 C 
BRANCH  10  11
HETATM   11  C   UNL     1      -5.716  -1.297 -33.999  1.00  0.00    -0.030 A 
HETATM   12  C   UNL     1      -4.534  -1.984 -33.674  1.00  0.00     0.048 A 
HETATM   13  C   UNL     1      -4.473  -3.341 -33.917  1.00  0.00     0.105 A 
HETATM   14  C   UNL     1      -5.515  -4.022 -34.493  1.00  0.00     0.105 A 
HETATM   15  O   UNL     1      -3.419  -4.149 -33.631  1.00  0.00    -0.323 OA
HETATM   16  O   UNL     1      -5.249  -5.345 -34.645  1.00  0.00    -0.323 OA
HETATM   17  C   UNL     1      -6.676  -3.383 -34.863  1.00  0.00     0.040 A 
HETATM   18  C   UNL     1      -3.918  -5.425 -34.090  1.00  0.00     0.352 A 
HETATM   19  C   UNL     1      -6.773  -2.009 -34.616  1.00  0.00     0.012 A 
ENDBRANCH  10  11
ENDBRANCH   7  10
ENDBRANCH   5   7
ENDBRANCH   1   5
BRANCH   2  20
HETATM   20  C   UNL     1     -10.997   1.827 -33.748  1.00  0.00     0.045 A 
HETATM   21  C   UNL     1     -11.850   2.909 -34.076  1.00  0.00     0.001 A 
HETATM   22  C   UNL     1     -13.227   2.661 -34.230  1.00  0.00     0.014 A 
HETATM   23  C   UNL     1     -13.752   1.381 -34.057  1.00  0.00     0.001 A 
HETATM   24  C   UNL     1     -12.910   0.328 -33.722  1.00  0.00     0.002 A 
HETATM   25  C   UNL     1     -11.540   0.547 -33.568  1.00  0.00     0.030 A 
BRANCH  21  26
HETATM   26  C   UNL     1     -11.364   4.293 -34.192  1.00  0.00    -0.024 A 
HETATM   27  C   UNL     1     -10.797   4.766 -35.384  1.00  0.00     0.012 A 
HETATM   28  C   UNL     1     -10.348   6.086 -35.484  1.00  0.00     0.001 A 
HETATM   29  C   UNL     1     -10.461   6.948 -34.394  1.00  0.00     0.000 A 
HETATM   30  C   UNL     1     -11.026   6.495 -33.204  1.00  0.00     0.001 A 
HETATM   31  C   UNL     1     -11.475   5.177 -33.105  1.00  0.00     0.012 A 
ENDBRANCH  21  26
ENDBRANCH   2  20
TORSDOF 6
ENDMDL
MODEL 5
REMARK VINA RESULT:      -7.1      1.622      3.775
REMARK  6 active torsions:
REMARK  status: ('A' for Active; 'I' for Inactive)
REMARK    1  A    between atoms: C_2  and  N_3 
REMARK    2  A    between atoms: C_2  and  C_16 
REMARK    3  A    between atoms: N_3  and  C_5 
REMARK    4  A    between atoms: C_5  and  C_6 
REMARK       I    between atoms: C_16  and  N_17 
REMARK    5  A    between atoms: N_17  and  C_18 
REMARK    6  A    between atoms: C_19  and  C_20 
ROOT
HETATM    1  C   UNL     1      -7.449   0.345 -32.401  1.00  0.00     0.253 C 
HETATM    2  N   UNL     1      -6.301   0.025 -33.085  1.00  0.00    -0.325 N 
HETATM    3  O   UNL     1      -7.644   0.181 -31.195  1.00  0.00    -0.271 OA
HETATM    4  H   UNL     1      -6.362  -0.190 -34.075  1.00  0.00     0.169 HD
ENDROOT
BRANCH   1   5
HETATM    5  C   UNL     1      -8.639   0.831 -33.253  1.00  0.00     0.275 C 
HETATM    6  C   UNL     1      -8.496   0.603 -34.749  1.00  0.00     0.050 C 
BRANCH   5   7
HETATM    7  N   UNL     1      -8.935   2.318 -32.911  1.00  0.00    -0.059 N 
HETATM    8  H   UNL     1      -8.485   2.417 -31.983  1.00  0.00     0.280 HD
HETATM    9  C   UNL     1     -10.398   2.572 -32.704  1.00  0.00     0.271 C 
BRANCH   7  10
HETATM   10  C   UNL     1      -8.293   3.398 -33.756  1.00  0.00     0.274 C 
BRANCH  10  11
HETATM   11  C   UNL     1      -7.018   4.002 -33.229  1.00  0.00    -0.030 A 
HETATM   12  C   UNL     1      -6.133   4.683 -34.083  1.00  0.00     0.048 A 
HETATM   13  C   UNL     1      -4.973   5.206 -33.548  1.00  0.00     0.105 A 
HETATM   14  C   UNL     1      -4.651   5.049 -32.224  1.00  0.00     0.105 A 
HETATM   15  O   UNL     1      -4.037   5.914 -34.231  1.00  0.00    -0.323 OA
HETATM   16  O   UNL     1      -3.468   5.637 -31.905  1.00  0.00    -0.323 OA
HETATM   17  C   UNL     1      -5.467   4.357 -31.360  1.00  0.00     0.040 A 
HETATM   18  C   UNL     1      -3.083   6.192 -33.181  1.00  0.00     0.352 A 
HETATM   19  C   UNL     1      -6.658   3.827 -31.871  1.00  0.00     0.012 A 
ENDBRANCH  10  11
ENDBRANCH   7  10
ENDBRANCH   5   7
ENDBRANCH   1   5
BRANCH   2  20
HETATM   20  C   UNL     1      -5.031  -0.226 -32.501  1.00  0.00     0.045 A 
HETATM   21  C   UNL     1      -4.343  -1.417 -32.840  1.00  0.00     0.001 A 
HETATM   22  C   UNL     1      -3.046  -1.616 -32.331  1.00  0.00     0.014 A 
HETATM   23  C   UNL     1      -2.445  -0.670 -31.502  1.00  0.00     0.001 A 
HETATM   24  C   UNL     1      -3.132   0.490 -31.163  1.00  0.00     0.002 A 
HETATM   25  C   UNL     1      -4.418   0.712 -31.658  1.00  0.00     0.030 A 
BRANCH  21  26
HETATM   26  C   UNL     1      -4.958  -2.484 -33.644  1.00  0.00    -0.024 A 
HETATM   27  C   UNL     1      -4.332  -3.729 -33.800  1.00  0.00     0.012 A 
HETATM   28  C   UNL     1      -4.933  -4.738 -34.558  1.00  0.00     0.001 A 
HETATM   29  C   UNL     1      -6.166  -4.514 -35.170  1.00  0.00     0.000 A 
HETATM   30  C   UNL     1      -6.803  -3.284 -35.022  1.00  0.00     0.001 A 
HETATM   31  C   UNL     1      -6.203  -2.277 -34.264  1.00  0.00     0.012 A 
ENDBRANCH  21  26
ENDBRANCH   2  20
TORSDOF 6
ENDMDL
MODEL 6
REMARK VINA RESULT:      -7.1     15.793     18.406
REMARK  6 active torsions:
REMARK  status: ('A' for Active; 'I' for Inactive)
REMARK    1  A    between atoms: C_2  and  N_3 
REMARK    2  A    between atoms: C_2  and  C_16 
REMARK    3  A    between atoms: N_3  and  C_5 
REMARK    4  A    between atoms: C_5  and  C_6 
REMARK       I    between atoms: C_16  and  N_17 
REMARK    5  A    between atoms: N_17  and  C_18 
REMARK    6  A    between atoms: C_19  and  C_20 
ROOT
HETATM    1  C   UNL     1      -3.919 -13.207 -37.416  1.00  0.00     0.253 C 
HETATM    2  N   UNL     1      -3.938 -14.256 -38.303  1.00  0.00    -0.325 N 
HETATM    3  O   UNL     1      -3.662 -12.032 -37.688  1.00  0.00    -0.271 OA
HETATM    4  H   UNL     1      -3.753 -15.193 -37.961  1.00  0.00     0.169 HD
ENDROOT
BRANCH   1   5
HETATM    5  C   UNL     1      -4.108 -13.566 -35.929  1.00  0.00     0.275 C 
HETATM    6  C   UNL     1      -3.597 -14.941 -35.527  1.00  0.00     0.050 C 
BRANCH   5   7
HETATM    7  N   UNL     1      -5.599 -13.358 -35.541  1.00  0.00    -0.059 N 
HETATM    8  H   UNL     1      -5.860 -12.545 -36.129  1.00  0.00     0.280 HD
HETATM    9  C   UNL     1      -5.760 -12.923 -34.116  1.00  0.00     0.271 C 
BRANCH   7  10
HETATM   10  C   UNL     1      -6.602 -14.429 -35.916  1.00  0.00     0.274 C 
BRANCH  10  11
HETATM   11  C   UNL     1      -7.477 -14.150 -37.111  1.00  0.00    -0.030 A 
HETATM   12  C   UNL     1      -8.171 -15.186 -37.757  1.00  0.00     0.048 A 
HETATM   13  C   UNL     1      -8.949 -14.874 -38.854  1.00  0.00     0.105 A 
HETATM   14  C   UNL     1      -9.032 -13.596 -39.344  1.00  0.00     0.105 A 
HETATM   15  O   UNL     1      -9.702 -15.754 -39.565  1.00  0.00    -0.323 OA
HETATM   16  O   UNL     1      -9.846 -13.507 -40.427  1.00  0.00    -0.323 OA
HETATM   17  C   UNL     1      -8.338 -12.557 -38.767  1.00  0.00     0.040 A 
HETATM   18  C   UNL     1     -10.277 -14.879 -40.561  1.00  0.00     0.352 A 
HETATM   19  C   UNL     1      -7.553 -12.840 -37.644  1.00  0.00     0.012 A 
ENDBRANCH  10  11
ENDBRANCH   7  10
ENDBRANCH   5   7
ENDBRANCH   1   5
BRANCH   2  20
HETATM   20  C   UNL     1      -4.006 -14.145 -39.717  1.00  0.00     0.045 A 
HETATM   21  C   UNL     1      -2.871 -14.494 -40.489  1.00  0.00     0.001 A 
HETATM   22  C   UNL     1      -2.974 -14.471 -41.892  1.00  0.00     0.014 A 
HETATM   23  C   UNL     1      -4.163 -14.104 -42.520  1.00  0.00     0.001 A 
HETATM   24  C   UNL     1      -5.269 -13.749 -41.756  1.00  0.00     0.002 A 
HETATM   25  C   UNL     1      -5.193 -13.768 -40.362  1.00  0.00     0.030 A 
BRANCH  21  26
HETATM   26  C   UNL     1      -1.569 -14.811 -39.881  1.00  0.00    -0.024 A 
HETATM   27  C   UNL     1      -0.728 -13.799 -39.396  1.00  0.00     0.012 A 
HETATM   28  C   UNL     1       0.502 -14.116 -38.811  1.00  0.00     0.001 A 
HETATM   29  C   UNL     1       0.905 -15.446 -38.704  1.00  0.00     0.000 A 
HETATM   30  C   UNL     1       0.079 -16.463 -39.178  1.00  0.00     0.001 A 
HETATM   31  C   UNL     1      -1.149 -16.148 -39.760  1.00  0.00     0.012 A 
ENDBRANCH  21  26
ENDBRANCH   2  20
TORSDOF 6
ENDMDL
MODEL 7
REMARK VINA RESULT:      -7.1      2.484      6.462
REMARK  6 active torsions:
REMARK  status: ('A' for Active; 'I' for Inactive)
REMARK    1  A    between atoms: C_2  and  N_3 
REMARK    2  A    between atoms: C_2  and  C_16 
REMARK    3  A    between atoms: N_3  and  C_5 
REMARK    4  A    between atoms: C_5  and  C_6 
REMARK       I    between atoms: C_16  and  N_17 
REMARK    5  A    between atoms: N_17  and  C_18 
REMARK    6  A    between atoms: C_19  and  C_20 
ROOT
HETATM    1  C   UNL     1      -8.530   3.011 -32.566  1.00  0.00     0.253 C 
HETATM    2  N   UNL     1      -8.327   2.803 -31.223  1.00  0.00    -0.325 N 
HETATM    3  O   UNL     1      -8.636   4.105 -33.123  1.00  0.00    -0.271 OA
HETATM    4  H   UNL     1      -8.651   1.938 -30.804  1.00  0.00     0.169 HD
ENDROOT
BRANCH   1   5
HETATM    5  C   UNL     1      -8.778   1.752 -33.422  1.00  0.00     0.275 C 
HETATM    6  C   UNL     1      -9.673   0.703 -32.782  1.00  0.00     0.050 C 
BRANCH   5   7
HETATM    7  N   UNL     1      -7.410   1.164 -33.868  1.00  0.00    -0.059 N 
HETATM    8  H   UNL     1      -7.066   0.736 -32.989  1.00  0.00     0.280 HD
HETATM    9  C   UNL     1      -6.426   2.232 -34.236  1.00  0.00     0.271 C 
BRANCH   7  10
HETATM   10  C   UNL     1      -7.400   0.026 -34.868  1.00  0.00     0.274 C 
BRANCH  10  11
HETATM   11  C   UNL     1      -6.432  -1.098 -34.606  1.00  0.00    -0.030 A 
HETATM   12  C   UNL     1      -6.779  -2.431 -34.885  1.00  0.00     0.048 A 
HETATM   13  C   UNL     1      -5.856  -3.421 -34.614  1.00  0.00     0.105 A 
HETATM   14  C   UNL     1      -4.636  -3.142 -34.054  1.00  0.00     0.105 A 
HETATM   15  O   UNL     1      -6.027  -4.747 -34.855  1.00  0.00    -0.323 OA
HETATM   16  O   UNL     1      -3.882  -4.257 -33.869  1.00  0.00    -0.323 OA
HETATM   17  C   UNL     1      -4.270  -1.856 -33.729  1.00  0.00     0.040 A 
HETATM   18  C   UNL     1      -4.766  -5.276 -34.385  1.00  0.00     0.352 A 
HETATM   19  C   UNL     1      -5.179  -0.828 -34.005  1.00  0.00     0.012 A 
ENDBRANCH  10  11
ENDBRANCH   7  10
ENDBRANCH   5   7
ENDBRANCH   1   5
BRANCH   2  20
HETATM   20  C   UNL     1      -7.866   3.775 -30.295  1.00  0.00     0.045 A 
HETATM   21  C   UNL     1      -6.498   3.783 -29.933  1.00  0.00     0.001 A 
HETATM   22  C   UNL     1      -6.029   4.805 -29.086  1.00  0.00     0.014 A 
HETATM   23  C   UNL     1      -6.889   5.790 -28.602  1.00  0.00     0.001 A 
HETATM   24  C   UNL     1      -8.234   5.767 -28.952  1.00  0.00     0.002 A 
HETATM   25  C   UNL     1      -8.722   4.766 -29.793  1.00  0.00     0.030 A 
BRANCH  21  26
HETATM   26  C   UNL     1      -5.563   2.726 -30.349  1.00  0.00    -0.024 A 
HETATM   27  C   UNL     1      -5.797   1.381 -30.026  1.00  0.00     0.012 A 
HETATM   28  C   UNL     1      -4.906   0.386 -30.436  1.00  0.00     0.001 A 
HETATM   29  C   UNL     1      -3.772   0.722 -31.174  1.00  0.00     0.000 A 
HETATM   30  C   UNL     1      -3.527   2.053 -31.506  1.00  0.00     0.001 A 
HETATM   31  C   UNL     1      -4.417   3.046 -31.097  1.00  0.00     0.012 A 
ENDBRANCH  21  26
ENDBRANCH   2  20
TORSDOF 6
ENDMDL
MODEL 8
REMARK VINA RESULT:      -7.1      3.254      5.426
REMARK  6 active torsions:
REMARK  status: ('A' for Active; 'I' for Inactive)
REMARK    1  A    between atoms: C_2  and  N_3 
REMARK    2  A    between atoms: C_2  and  C_16 
REMARK    3  A    between atoms: N_3  and  C_5 
REMARK    4  A    between atoms: C_5  and  C_6 
REMARK       I    between atoms: C_16  and  N_17 
REMARK    5  A    between atoms: N_17  and  C_18 
REMARK    6  A    between atoms: C_19  and  C_20 
ROOT
HETATM    1  C   UNL     1      -5.734   2.876 -32.458  1.00  0.00     0.253 C 
HETATM    2  N   UNL     1      -6.412   2.245 -33.473  1.00  0.00    -0.325 N 
HETATM    3  O   UNL     1      -6.226   3.299 -31.410  1.00  0.00    -0.271 OA
HETATM    4  H   UNL     1      -6.047   2.302 -34.418  1.00  0.00     0.169 HD
ENDROOT
BRANCH   1   5
HETATM    5  C   UNL     1      -4.248   3.194 -32.723  1.00  0.00     0.275 C 
HETATM    6  C   UNL     1      -3.265   2.508 -31.787  1.00  0.00     0.050 C 
BRANCH   5   7
HETATM    7  N   UNL     1      -4.055   4.736 -32.749  1.00  0.00    -0.059 N 
HETATM    8  H   UNL     1      -4.155   4.980 -31.747  1.00  0.00     0.280 HD
HETATM    9  C   UNL     1      -5.168   5.434 -33.471  1.00  0.00     0.271 C 
BRANCH   7  10
HETATM   10  C   UNL     1      -2.701   5.291 -33.138  1.00  0.00     0.274 C 
BRANCH  10  11
HETATM   11  C   UNL     1      -1.845   5.831 -32.022  1.00  0.00    -0.030 A 
HETATM   12  C   UNL     1      -2.412   6.206 -30.792  1.00  0.00     0.048 A 
HETATM   13  C   UNL     1      -1.581   6.706 -29.809  1.00  0.00     0.105 A 
HETATM   14  C   UNL     1      -0.235   6.875 -30.015  1.00  0.00     0.105 A 
HETATM   15  O   UNL     1      -1.968   7.080 -28.562  1.00  0.00    -0.323 OA
HETATM   16  O   UNL     1       0.396   7.381 -28.924  1.00  0.00    -0.323 OA
HETATM   17  C   UNL     1       0.355   6.559 -31.216  1.00  0.00     0.040 A 
HETATM   18  C   UNL     1      -0.706   7.504 -27.999  1.00  0.00     0.352 A 
HETATM   19  C   UNL     1      -0.459   6.036 -32.228  1.00  0.00     0.012 A 
ENDBRANCH  10  11
ENDBRANCH   7  10
ENDBRANCH   5   7
ENDBRANCH   1   5
BRANCH   2  20
HETATM   20  C   UNL     1      -7.704   1.664 -33.371  1.00  0.00     0.045 A 
HETATM   21  C   UNL     1      -7.818   0.255 -33.292  1.00  0.00     0.001 A 
HETATM   22  C   UNL     1      -9.093  -0.309 -33.097  1.00  0.00     0.014 A 
HETATM   23  C   UNL     1     -10.227   0.494 -32.989  1.00  0.00     0.001 A 
HETATM   24  C   UNL     1     -10.108   1.876 -33.081  1.00  0.00     0.002 A 
HETATM   25  C   UNL     1      -8.854   2.460 -33.271  1.00  0.00     0.030 A 
BRANCH  21  26
HETATM   26  C   UNL     1      -6.668  -0.644 -33.478  1.00  0.00    -0.024 A 
HETATM   27  C   UNL     1      -5.620  -0.684 -32.547  1.00  0.00     0.012 A 
HETATM   28  C   UNL     1      -4.538  -1.549 -32.730  1.00  0.00     0.001 A 
HETATM   29  C   UNL     1      -4.492  -2.385 -33.845  1.00  0.00     0.000 A 
HETATM   30  C   UNL     1      -5.527  -2.360 -34.777  1.00  0.00     0.001 A 
HETATM   31  C   UNL     1      -6.607  -1.496 -34.594  1.00  0.00     0.012 A 
ENDBRANCH  21  26
ENDBRANCH   2  20
TORSDOF 6
ENDMDL
MODEL 9
REMARK VINA RESULT:      -7.0     16.433     18.361
REMARK  6 active torsions:
REMARK  status: ('A' for Active; 'I' for Inactive)
REMARK    1  A    between atoms: C_2  and  N_3 
REMARK    2  A    between atoms: C_2  and  C_16 
REMARK    3  A    between atoms: N_3  and  C_5 
REMARK    4  A    between atoms: C_5  and  C_6 
REMARK       I    between atoms: C_16  and  N_17 
REMARK    5  A    between atoms: N_17  and  C_18 
REMARK    6  A    between atoms: C_19  and  C_20 
ROOT
HETATM    1  C   UNL     1      -4.208 -14.621 -36.613  1.00  0.00     0.253 C 
HETATM    2  N   UNL     1      -3.746 -13.716 -37.539  1.00  0.00    -0.325 N 
HETATM    3  O   UNL     1      -3.912 -15.816 -36.556  1.00  0.00    -0.271 OA
HETATM    4  H   UNL     1      -4.318 -12.910 -37.766  1.00  0.00     0.169 HD
ENDROOT
BRANCH   1   5
HETATM    5  C   UNL     1      -5.294 -14.112 -35.643  1.00  0.00     0.275 C 
HETATM    6  C   UNL     1      -4.878 -14.056 -34.182  1.00  0.00     0.050 C 
BRANCH   5   7
HETATM    7  N   UNL     1      -6.591 -14.942 -35.853  1.00  0.00    -0.059 N 
HETATM    8  H   UNL     1      -7.326 -14.256 -35.598  1.00  0.00     0.280 HD
HETATM    9  C   UNL     1      -6.706 -16.073 -34.876  1.00  0.00     0.271 C 
BRANCH   7  10
HETATM   10  C   UNL     1      -6.955 -15.376 -37.257  1.00  0.00     0.274 C 
BRANCH  10  11
HETATM   11  C   UNL     1      -7.858 -14.458 -38.038  1.00  0.00    -0.030 A 
HETATM   12  C   UNL     1      -8.993 -14.952 -38.703  1.00  0.00     0.048 A 
HETATM   13  C   UNL     1      -9.778 -14.066 -39.413  1.00  0.00     0.105 A 
HETATM   14  C   UNL     1      -9.461 -12.735 -39.512  1.00  0.00     0.105 A 
HETATM   15  O   UNL     1     -10.919 -14.380 -40.080  1.00  0.00    -0.323 OA
HETATM   16  O   UNL     1     -10.361 -12.042 -40.257  1.00  0.00    -0.323 OA
HETATM   17  C   UNL     1      -8.339 -12.215 -38.911  1.00  0.00     0.040 A 
HETATM   18  C   UNL     1     -11.291 -13.088 -40.611  1.00  0.00     0.352 A 
HETATM   19  C   UNL     1      -7.531 -13.086 -38.171  1.00  0.00     0.012 A 
ENDBRANCH  10  11
ENDBRANCH   7  10
ENDBRANCH   5   7
ENDBRANCH   1   5
BRANCH   2  20
HETATM   20  C   UNL     1      -2.609 -13.891 -38.371  1.00  0.00     0.045 A 
HETATM   21  C   UNL     1      -2.800 -14.085 -39.761  1.00  0.00     0.001 A 
HETATM   22  C   UNL     1      -1.668 -14.164 -40.594  1.00  0.00     0.014 A 
HETATM   23  C   UNL     1      -0.380 -14.062 -40.070  1.00  0.00     0.001 A 
HETATM   24  C   UNL     1      -0.201 -13.885 -38.703  1.00  0.00     0.002 A 
HETATM   25  C   UNL     1      -1.308 -13.800 -37.856  1.00  0.00     0.030 A 
BRANCH  21  26
HETATM   26  C   UNL     1      -4.131 -14.279 -40.357  1.00  0.00    -0.024 A 
HETATM   27  C   UNL     1      -4.841 -13.205 -40.913  1.00  0.00     0.012 A 
HETATM   28  C   UNL     1      -6.100 -13.404 -41.485  1.00  0.00     0.001 A 
HETATM   29  C   UNL     1      -6.664 -14.679 -41.509  1.00  0.00     0.000 A 
HETATM   30  C   UNL     1      -5.970 -15.758 -40.965  1.00  0.00     0.001 A 
HETATM   31  C   UNL     1      -4.712 -15.558 -40.395  1.00  0.00     0.012 A 
ENDBRANCH  21  26
ENDBRANCH   2  20
TORSDOF 6
ENDMDL
MODEL 10
REMARK VINA RESULT:      -6.9      2.816      7.226
REMARK  6 active torsions:
REMARK  status: ('A' for Active; 'I' for Inactive)
REMARK    1  A    between atoms: C_2  and  N_3 
REMARK    2  A    between atoms: C_2  and  C_16 
REMARK    3  A    between atoms: N_3  and  C_5 
REMARK    4  A    between atoms: C_5  and  C_6 
REMARK       I    between atoms: C_16  and  N_17 
REMARK    5  A    between atoms: N_17  and  C_18 
REMARK    6  A    between atoms: C_19  and  C_20 
ROOT
HETATM    1  C   UNL     1      -4.802   3.028 -32.401  1.00  0.00     0.253 C 
HETATM    2  N   UNL     1      -3.601   3.627 -32.105  1.00  0.00    -0.325 N 
HETATM    3  O   UNL     1      -5.682   3.489 -33.130  1.00  0.00    -0.271 OA
HETATM    4  H   UNL     1      -3.143   3.403 -31.228  1.00  0.00     0.169 HD
ENDROOT
BRANCH   1   5
HETATM    5  C   UNL     1      -5.120   1.723 -31.643  1.00  0.00     0.275 C 
HETATM    6  C   UNL     1      -3.906   0.909 -31.224  1.00  0.00     0.050 C 
BRANCH   5   7
HETATM    7  N   UNL     1      -6.131   0.885 -32.475  1.00  0.00    -0.059 N 
HETATM    8  H   UNL     1      -6.875   1.580 -32.667  1.00  0.00     0.280 HD
HETATM    9  C   UNL     1      -6.763  -0.207 -31.667  1.00  0.00     0.271 C 
BRANCH   7  10
HETATM   10  C   UNL     1      -5.712   0.396 -33.846  1.00  0.00     0.274 C 
BRANCH  10  11
HETATM   11  C   UNL     1      -5.647  -1.096 -34.042  1.00  0.00    -0.030 A 
HETATM   12  C   UNL     1      -4.500  -1.823 -33.683  1.00  0.00     0.048 A 
HETATM   13  C   UNL     1      -4.491  -3.187 -33.897  1.00  0.00     0.105 A 
HETATM   14  C   UNL     1      -5.551  -3.837 -34.475  1.00  0.00     0.105 A 
HETATM   15  O   UNL     1      -3.476  -4.031 -33.577  1.00  0.00    -0.323 OA
HETATM   16  O   UNL     1      -5.338  -5.173 -34.596  1.00  0.00    -0.323 OA
HETATM   17  C   UNL     1      -6.679  -3.160 -34.878  1.00  0.00     0.040 A 
HETATM   18  C   UNL     1      -4.020  -5.295 -34.017  1.00  0.00     0.352 A 
HETATM   19  C   UNL     1      -6.723  -1.777 -34.661  1.00  0.00     0.012 A 
ENDBRANCH  10  11
ENDBRANCH   7  10
ENDBRANCH   5   7
ENDBRANCH   1   5
BRANCH   2  20
HETATM   20  C   UNL     1      -3.008   4.695 -32.828  1.00  0.00     0.045 A 
HETATM   21  C   UNL     1      -3.178   6.020 -32.359  1.00  0.00     0.001 A 
HETATM   22  C   UNL     1      -2.511   7.064 -33.026  1.00  0.00     0.014 A 
HETATM   23  C   UNL     1      -1.702   6.811 -34.133  1.00  0.00     0.001 A 
HETATM   24  C   UNL     1      -1.552   5.509 -34.596  1.00  0.00     0.002 A 
HETATM   25  C   UNL     1      -2.199   4.455 -33.949  1.00  0.00     0.030 A 
BRANCH  21  26
HETATM   26  C   UNL     1      -4.081   6.354 -31.246  1.00  0.00    -0.024 A 
HETATM   27  C   UNL     1      -3.609   6.435 -29.927  1.00  0.00     0.012 A 
HETATM   28  C   UNL     1      -4.475   6.763 -28.881  1.00  0.00     0.001 A 
HETATM   29  C   UNL     1      -5.822   7.016 -29.140  1.00  0.00     0.000 A 
HETATM   30  C   UNL     1      -6.305   6.945 -30.445  1.00  0.00     0.001 A 
HETATM   31  C   UNL     1      -5.440   6.618 -31.489  1.00  0.00     0.012 A 
ENDBRANCH  21  26
ENDBRANCH   2  20
TORSDOF 6
ENDMDL
