MODEL 1
REMARK VINA RESULT:     -10.8      0.000      0.000
REMARK  8 active torsions:
REMARK  status: ('A' for Active; 'I' for Inactive)
REMARK    1  A    between atoms: C_2  and  C_3 
REMARK    2  A    between atoms: C_6  and  N_7 
REMARK       I    between atoms: N_7  and  C_8 
REMARK    3  A    between atoms: C_8  and  O_9 
REMARK    4  A    between atoms: O_9  and  C_10 
REMARK    5  A    between atoms: C_13  and  N_14 
REMARK       I    between atoms: N_14  and  C_15 
REMARK    6  A    between atoms: C_15  and  C_16 
REMARK    7  A    between atoms: N_19  and  C_20 
REMARK    8  A    between atoms: C_22  and  C_23 
ROOT
HETATM    1  C   UNL     1      -8.644   4.556 -32.152  1.00  0.00     0.189 C 
HETATM    2  C   UNL     1      -7.115   4.621 -32.102  1.00  0.00     0.184 C 
HETATM    3  C   UNL     1      -6.699   5.241 -33.434  1.00  0.00     0.177 C 
HETATM    4  C   UNL     1      -5.613   4.319 -33.966  1.00  0.00     0.139 C 
HETATM    5  C   UNL     1      -6.036   2.992 -33.347  1.00  0.00     0.196 C 
HETATM    6  O   UNL     1      -6.499   3.316 -32.025  1.00  0.00    -0.378 OA
HETATM    7  O   UNL     1      -7.858   5.191 -34.289  1.00  0.00    -0.378 OA
HETATM    8  C   UNL     1      -8.994   5.312 -33.424  1.00  0.00     0.203 C 
ENDROOT
BRANCH   4   9
HETATM    9  N   UNL     1      -4.260   4.679 -33.535  1.00  0.00    -0.351 N 
HETATM   10  C   UNL     1      -3.336   5.222 -34.401  1.00  0.00     0.222 C 
HETATM   11  O   UNL     1      -3.635   5.658 -35.507  1.00  0.00    -0.273 OA
HETATM   12  H   UNL     1      -3.911   4.233 -32.695  1.00  0.00     0.163 HD
BRANCH  10  13
HETATM   13  C   UNL     1      -1.907   5.172 -33.867  1.00  0.00     0.081 C 
HETATM   14  C   UNL     1      -1.192   6.524 -33.985  1.00  0.00     0.034 C 
HETATM   15  C   UNL     1      -1.574   7.507 -32.878  1.00  0.00     0.142 C 
HETATM   16  N   UNL     1      -1.415   6.849 -31.583  1.00  0.00    -0.214 N 
HETATM   17  C   UNL     1      -2.229   5.656 -31.386  1.00  0.00     0.142 C 
HETATM   18  C   UNL     1      -1.838   4.618 -32.438  1.00  0.00     0.034 C 
BRANCH  16  19
HETATM   19  C   UNL     1      -1.280   7.693 -30.487  1.00  0.00     0.724 A 
HETATM   20  N   UNL     1      -0.240   7.511 -29.658  1.00  0.00    -0.058 NA
HETATM   21  C   UNL     1      -0.153   8.265 -28.531  1.00  0.00     0.160 A 
HETATM   22  C   UNL     1      -1.106   9.212 -28.219  1.00  0.00     0.057 A 
HETATM   23  C   UNL     1      -2.127   9.347 -29.119  1.00  0.00     0.139 A 
HETATM   24  N   UNL     1      -2.231   8.608 -30.238  1.00  0.00    -0.075 NA
BRANCH  21  25
HETATM   25  C   UNL     1       0.991   8.020 -27.565  1.00  0.00     0.435 C 
HETATM   26  F   UNL     1       0.711   8.327 -26.268  1.00  0.00    -0.165 F 
HETATM   27  F   UNL     1       1.391   6.712 -27.554  1.00  0.00    -0.165 F 
HETATM   28  F   UNL     1       2.109   8.734 -27.888  1.00  0.00    -0.165 F 
ENDBRANCH  21  25
ENDBRANCH  16  19
ENDBRANCH  10  13
ENDBRANCH   4   9
BRANCH   1  29
HETATM   29  O   UNL     1      -9.103   3.196 -32.276  1.00  0.00    -0.293 OA
BRANCH  29  30
HETATM   30  C   UNL     1      -9.451   2.600 -31.110  1.00  0.00     0.365 C 
HETATM   31  N   UNL     1      -9.041   1.303 -30.952  1.00  0.00    -0.303 N 
HETATM   32  H   UNL     1      -9.328   0.951 -30.047  1.00  0.00     0.171 HD
HETATM   33  O   UNL     1     -10.087   3.155 -30.220  1.00  0.00    -0.238 OA
BRANCH  31  34
HETATM   34  C   UNL     1      -8.200   0.476 -31.716  1.00  0.00     0.036 A 
HETATM   35  C   UNL     1      -8.500  -0.024 -32.984  1.00  0.00     0.030 A 
HETATM   36  C   UNL     1      -7.557  -0.775 -33.702  1.00  0.00     0.017 A 
HETATM   37  C   UNL     1      -6.302  -1.045 -33.152  1.00  0.00     0.009 A 
HETATM   38  C   UNL     1      -6.013  -0.590 -31.863  1.00  0.00     0.017 A 
HETATM   39  C   UNL     1      -6.955   0.164 -31.154  1.00  0.00     0.030 A 
BRANCH  37  40
HETATM   40  C   UNL     1      -5.253  -1.800 -33.893  1.00  0.00     0.155 C 
HETATM   41  C   UNL     1      -5.668  -2.959 -34.762  1.00  0.00     0.096 C 
HETATM   42  O   UNL     1      -4.074  -1.466 -33.794  1.00  0.00    -0.293 OA
ENDBRANCH  37  40
ENDBRANCH  31  34
ENDBRANCH  29  30
ENDBRANCH   1  29
TORSDOF 8
ENDMDL
MODEL 2
REMARK VINA RESULT:     -10.0      1.731      2.245
REMARK  8 active torsions:
REMARK  status: ('A' for Active; 'I' for Inactive)
REMARK    1  A    between atoms: C_2  and  C_3 
REMARK    2  A    between atoms: C_6  and  N_7 
REMARK       I    between atoms: N_7  and  C_8 
REMARK    3  A    between atoms: C_8  and  O_9 
REMARK    4  A    between atoms: O_9  and  C_10 
REMARK    5  A    between atoms: C_13  and  N_14 
REMARK       I    between atoms: N_14  and  C_15 
REMARK    6  A    between atoms: C_15  and  C_16 
REMARK    7  A    between atoms: N_19  and  C_20 
REMARK    8  A    between atoms: C_22  and  C_23 
ROOT
HETATM    1  C   UNL     1      -8.052   4.581 -32.065  1.00  0.00     0.189 C 
HETATM    2  C   UNL     1      -6.798   5.458 -32.130  1.00  0.00     0.184 C 
HETATM    3  C   UNL     1      -6.320   5.362 -33.577  1.00  0.00     0.177 C 
HETATM    4  C   UNL     1      -4.836   5.045 -33.472  1.00  0.00     0.139 C 
HETATM    5  C   UNL     1      -4.799   4.289 -32.149  1.00  0.00     0.196 C 
HETATM    6  O   UNL     1      -5.728   4.971 -31.290  1.00  0.00    -0.378 OA
HETATM    7  O   UNL     1      -7.026   4.255 -34.170  1.00  0.00    -0.378 OA
HETATM    8  C   UNL     1      -8.301   4.201 -33.517  1.00  0.00     0.203 C 
ENDROOT
BRANCH   4   9
HETATM    9  N   UNL     1      -3.975   6.229 -33.412  1.00  0.00    -0.351 N 
HETATM   10  C   UNL     1      -2.608   6.148 -33.564  1.00  0.00     0.222 C 
HETATM   11  O   UNL     1      -2.043   5.146 -33.986  1.00  0.00    -0.273 OA
HETATM   12  H   UNL     1      -4.349   7.046 -32.944  1.00  0.00     0.163 HD
BRANCH  10  13
HETATM   13  C   UNL     1      -1.875   7.404 -33.099  1.00  0.00     0.081 C 
HETATM   14  C   UNL     1      -2.610   8.120 -31.959  1.00  0.00     0.034 C 
HETATM   15  C   UNL     1      -2.378   7.476 -30.593  1.00  0.00     0.142 C 
HETATM   16  N   UNL     1      -0.940   7.318 -30.381  1.00  0.00    -0.214 N 
HETATM   17  C   UNL     1      -0.253   6.486 -31.361  1.00  0.00     0.142 C 
HETATM   18  C   UNL     1      -0.410   7.125 -32.741  1.00  0.00     0.034 C 
BRANCH  16  19
HETATM   19  C   UNL     1      -0.534   7.179 -29.059  1.00  0.00     0.724 A 
HETATM   20  N   UNL     1      -1.436   6.787 -28.146  1.00  0.00    -0.058 NA
HETATM   21  C   UNL     1      -1.076   6.743 -26.836  1.00  0.00     0.160 A 
HETATM   22  C   UNL     1       0.193   7.093 -26.423  1.00  0.00     0.057 A 
HETATM   23  C   UNL     1       1.058   7.470 -27.414  1.00  0.00     0.139 A 
HETATM   24  N   UNL     1       0.718   7.520 -28.714  1.00  0.00    -0.075 NA
BRANCH  21  25
HETATM   25  C   UNL     1      -2.112   6.355 -25.798  1.00  0.00     0.435 C 
HETATM   26  F   UNL     1      -2.270   7.260 -24.792  1.00  0.00    -0.165 F 
HETATM   27  F   UNL     1      -3.356   6.189 -26.341  1.00  0.00    -0.165 F 
HETATM   28  F   UNL     1      -1.823   5.166 -25.193  1.00  0.00    -0.165 F 
ENDBRANCH  21  25
ENDBRANCH  16  19
ENDBRANCH  10  13
ENDBRANCH   4   9
BRANCH   1  29
HETATM   29  O   UNL     1      -7.808   3.381 -31.305  1.00  0.00    -0.293 OA
BRANCH  29  30
HETATM   30  C   UNL     1      -8.919   2.758 -30.845  1.00  0.00     0.365 C 
HETATM   31  N   UNL     1      -9.084   1.456 -31.238  1.00  0.00    -0.303 N 
HETATM   32  H   UNL     1      -9.927   1.070 -30.831  1.00  0.00     0.171 HD
HETATM   33  O   UNL     1      -9.749   3.287 -30.112  1.00  0.00    -0.238 OA
BRANCH  31  34
HETATM   34  C   UNL     1      -8.253   0.566 -31.938  1.00  0.00     0.036 A 
HETATM   35  C   UNL     1      -8.533   0.019 -33.191  1.00  0.00     0.030 A 
HETATM   36  C   UNL     1      -7.597  -0.797 -33.845  1.00  0.00     0.017 A 
HETATM   37  C   UNL     1      -6.370  -1.086 -33.244  1.00  0.00     0.009 A 
HETATM   38  C   UNL     1      -6.102  -0.582 -31.968  1.00  0.00     0.017 A 
HETATM   39  C   UNL     1      -7.037   0.236 -31.324  1.00  0.00     0.030 A 
BRANCH  37  40
HETATM   40  C   UNL     1      -5.327  -1.910 -33.917  1.00  0.00     0.155 C 
HETATM   41  C   UNL     1      -5.760  -3.001 -34.861  1.00  0.00     0.096 C 
HETATM   42  O   UNL     1      -4.137  -1.687 -33.702  1.00  0.00    -0.293 OA
ENDBRANCH  37  40
ENDBRANCH  31  34
ENDBRANCH  29  30
ENDBRANCH   1  29
TORSDOF 8
ENDMDL
MODEL 3
REMARK VINA RESULT:      -9.8      5.094      9.471
REMARK  8 active torsions:
REMARK  status: ('A' for Active; 'I' for Inactive)
REMARK    1  A    between atoms: C_2  and  C_3 
REMARK    2  A    between atoms: C_6  and  N_7 
REMARK       I    between atoms: N_7  and  C_8 
REMARK    3  A    between atoms: C_8  and  O_9 
REMARK    4  A    between atoms: O_9  and  C_10 
REMARK    5  A    between atoms: C_13  and  N_14 
REMARK       I    between atoms: N_14  and  C_15 
REMARK    6  A    between atoms: C_15  and  C_16 
REMARK    7  A    between atoms: N_19  and  C_20 
REMARK    8  A    between atoms: C_22  and  C_23 
ROOT
HETATM    1  C   UNL     1      -4.607   7.537 -29.250  1.00  0.00     0.189 C 
HETATM    2  C   UNL     1      -5.290   6.674 -30.316  1.00  0.00     0.184 C 
HETATM    3  C   UNL     1      -6.709   6.450 -29.797  1.00  0.00     0.177 C 
HETATM    4  C   UNL     1      -6.931   4.950 -29.920  1.00  0.00     0.139 C 
HETATM    5  C   UNL     1      -5.505   4.436 -29.758  1.00  0.00     0.196 C 
HETATM    6  O   UNL     1      -4.676   5.374 -30.464  1.00  0.00    -0.378 OA
HETATM    7  O   UNL     1      -6.706   6.842 -28.411  1.00  0.00    -0.378 OA
HETATM    8  C   UNL     1      -5.739   7.894 -28.299  1.00  0.00     0.203 C 
ENDROOT
BRANCH   4   9
HETATM    9  N   UNL     1      -7.485   4.531 -31.209  1.00  0.00    -0.351 N 
HETATM   10  C   UNL     1      -8.269   3.405 -31.338  1.00  0.00     0.222 C 
HETATM   11  O   UNL     1      -8.751   2.816 -30.378  1.00  0.00    -0.273 OA
HETATM   12  H   UNL     1      -7.029   4.885 -32.042  1.00  0.00     0.163 HD
BRANCH  10  13
HETATM   13  C   UNL     1      -8.425   2.942 -32.785  1.00  0.00     0.081 C 
HETATM   14  C   UNL     1      -7.122   3.075 -33.583  1.00  0.00     0.034 C 
HETATM   15  C   UNL     1      -6.136   1.937 -33.322  1.00  0.00     0.142 C 
HETATM   16  N   UNL     1      -6.826   0.661 -33.498  1.00  0.00    -0.214 N 
HETATM   17  C   UNL     1      -7.965   0.441 -32.615  1.00  0.00     0.142 C 
HETATM   18  C   UNL     1      -9.008   1.527 -32.884  1.00  0.00     0.034 C 
BRANCH  16  19
HETATM   19  C   UNL     1      -6.013  -0.439 -33.742  1.00  0.00     0.724 A 
HETATM   20  N   UNL     1      -6.582  -1.582 -34.156  1.00  0.00    -0.058 NA
HETATM   21  C   UNL     1      -5.810  -2.691 -34.303  1.00  0.00     0.160 A 
HETATM   22  C   UNL     1      -4.456  -2.670 -34.036  1.00  0.00     0.057 A 
HETATM   23  C   UNL     1      -3.949  -1.465 -33.631  1.00  0.00     0.139 A 
HETATM   24  N   UNL     1      -4.699  -0.359 -33.479  1.00  0.00    -0.075 NA
BRANCH  21  25
HETATM   25  C   UNL     1      -6.463  -3.996 -34.716  1.00  0.00     0.435 C 
HETATM   26  F   UNL     1      -6.686  -4.117 -36.054  1.00  0.00    -0.165 F 
HETATM   27  F   UNL     1      -5.712  -5.085 -34.370  1.00  0.00    -0.165 F 
HETATM   28  F   UNL     1      -7.672  -4.188 -34.113  1.00  0.00    -0.165 F 
ENDBRANCH  21  25
ENDBRANCH  16  19
ENDBRANCH  10  13
ENDBRANCH   4   9
BRANCH   1  29
HETATM   29  O   UNL     1      -3.613   6.782 -28.530  1.00  0.00    -0.293 OA
BRANCH  29  30
HETATM   30  C   UNL     1      -2.456   7.444 -28.288  1.00  0.00     0.365 C 
HETATM   31  N   UNL     1      -1.501   7.364 -29.267  1.00  0.00    -0.303 N 
HETATM   32  H   UNL     1      -0.685   7.903 -29.008  1.00  0.00     0.171 HD
HETATM   33  O   UNL     1      -2.239   8.096 -27.271  1.00  0.00    -0.238 OA
BRANCH  31  34
HETATM   34  C   UNL     1      -1.518   6.824 -30.565  1.00  0.00     0.036 A 
HETATM   35  C   UNL     1      -1.289   5.485 -30.883  1.00  0.00     0.030 A 
HETATM   36  C   UNL     1      -1.411   5.029 -32.204  1.00  0.00     0.017 A 
HETATM   37  C   UNL     1      -1.755   5.914 -33.228  1.00  0.00     0.009 A 
HETATM   38  C   UNL     1      -1.939   7.266 -32.924  1.00  0.00     0.017 A 
HETATM   39  C   UNL     1      -1.821   7.714 -31.604  1.00  0.00     0.030 A 
BRANCH  37  40
HETATM   40  C   UNL     1      -1.941   5.469 -34.638  1.00  0.00     0.155 C 
HETATM   41  C   UNL     1      -3.341   5.276 -35.161  1.00  0.00     0.096 C 
HETATM   42  O   UNL     1      -0.960   5.275 -35.352  1.00  0.00    -0.293 OA
ENDBRANCH  37  40
ENDBRANCH  31  34
ENDBRANCH  29  30
ENDBRANCH   1  29
TORSDOF 8
ENDMDL
MODEL 4
REMARK VINA RESULT:      -9.7      5.818     10.906
REMARK  8 active torsions:
REMARK  status: ('A' for Active; 'I' for Inactive)
REMARK    1  A    between atoms: C_2  and  C_3 
REMARK    2  A    between atoms: C_6  and  N_7 
REMARK       I    between atoms: N_7  and  C_8 
REMARK    3  A    between atoms: C_8  and  O_9 
REMARK    4  A    between atoms: O_9  and  C_10 
REMARK    5  A    between atoms: C_13  and  N_14 
REMARK       I    between atoms: N_14  and  C_15 
REMARK    6  A    between atoms: C_15  and  C_16 
REMARK    7  A    between atoms: N_19  and  C_20 
REMARK    8  A    between atoms: C_22  and  C_23 
ROOT
HETATM    1  C   UNL     1      -3.945   6.282 -32.588  1.00  0.00     0.189 C 
HETATM    2  C   UNL     1      -4.688   5.049 -33.110  1.00  0.00     0.184 C 
HETATM    3  C   UNL     1      -5.318   4.411 -31.874  1.00  0.00     0.177 C 
HETATM    4  C   UNL     1      -4.937   2.941 -31.962  1.00  0.00     0.139 C 
HETATM    5  C   UNL     1      -3.616   3.034 -32.716  1.00  0.00     0.196 C 
HETATM    6  O   UNL     1      -3.805   4.067 -33.697  1.00  0.00    -0.378 OA
HETATM    7  O   UNL     1      -4.689   5.022 -30.731  1.00  0.00    -0.378 OA
HETATM    8  C   UNL     1      -4.360   6.360 -31.127  1.00  0.00     0.203 C 
ENDROOT
BRANCH   4   9
HETATM    9  N   UNL     1      -5.895   2.119 -32.704  1.00  0.00    -0.351 N 
HETATM   10  C   UNL     1      -5.999   0.758 -32.507  1.00  0.00     0.222 C 
HETATM   11  O   UNL     1      -5.485   0.182 -31.557  1.00  0.00    -0.273 OA
HETATM   12  H   UNL     1      -6.247   2.496 -33.576  1.00  0.00     0.163 HD
BRANCH  10  13
HETATM   13  C   UNL     1      -6.767   0.046 -33.619  1.00  0.00     0.081 C 
HETATM   14  C   UNL     1      -8.013  -0.680 -33.094  1.00  0.00     0.034 C 
HETATM   15  C   UNL     1      -9.203   0.252 -32.866  1.00  0.00     0.142 C 
HETATM   16  N   UNL     1      -9.426   1.042 -34.075  1.00  0.00    -0.214 N 
HETATM   17  C   UNL     1      -8.308   1.881 -34.487  1.00  0.00     0.142 C 
HETATM   18  C   UNL     1      -7.107   0.983 -34.785  1.00  0.00     0.034 C 
BRANCH  16  19
HETATM   19  C   UNL     1     -10.695   1.591 -34.214  1.00  0.00     0.724 A 
HETATM   20  N   UNL     1     -11.757   0.866 -33.829  1.00  0.00    -0.058 NA
HETATM   21  C   UNL     1     -13.006   1.352 -34.052  1.00  0.00     0.160 A 
HETATM   22  C   UNL     1     -13.209   2.572 -34.663  1.00  0.00     0.057 A 
HETATM   23  C   UNL     1     -12.078   3.257 -35.014  1.00  0.00     0.139 A 
HETATM   24  N   UNL     1     -10.834   2.790 -34.803  1.00  0.00    -0.075 NA
BRANCH  21  25
HETATM   25  C   UNL     1     -14.207   0.507 -33.669  1.00  0.00     0.435 C 
HETATM   26  F   UNL     1     -15.147   0.387 -34.647  1.00  0.00    -0.165 F 
HETATM   27  F   UNL     1     -13.857  -0.773 -33.338  1.00  0.00    -0.165 F 
HETATM   28  F   UNL     1     -14.861   0.995 -32.575  1.00  0.00    -0.165 F 
ENDBRANCH  21  25
ENDBRANCH  16  19
ENDBRANCH  10  13
ENDBRANCH   4   9
BRANCH   1  29
HETATM   29  O   UNL     1      -2.518   6.097 -32.658  1.00  0.00    -0.293 OA
BRANCH  29  30
HETATM   30  C   UNL     1      -1.819   7.182 -33.070  1.00  0.00     0.365 C 
HETATM   31  N   UNL     1      -1.042   7.792 -32.121  1.00  0.00    -0.303 N 
HETATM   32  H   UNL     1      -0.545   8.576 -32.525  1.00  0.00     0.171 HD
HETATM   33  O   UNL     1      -1.845   7.619 -34.216  1.00  0.00    -0.238 OA
BRANCH  31  34
HETATM   34  C   UNL     1      -0.712   7.444 -30.801  1.00  0.00     0.036 A 
HETATM   35  C   UNL     1       0.262   6.514 -30.434  1.00  0.00     0.030 A 
HETATM   36  C   UNL     1       0.577   6.297 -29.083  1.00  0.00     0.017 A 
HETATM   37  C   UNL     1      -0.093   7.003 -28.080  1.00  0.00     0.009 A 
HETATM   38  C   UNL     1      -1.103   7.899 -28.438  1.00  0.00     0.017 A 
HETATM   39  C   UNL     1      -1.408   8.116 -29.787  1.00  0.00     0.030 A 
BRANCH  37  40
HETATM   40  C   UNL     1       0.236   6.840 -26.636  1.00  0.00     0.155 C 
HETATM   41  C   UNL     1       1.329   7.688 -26.039  1.00  0.00     0.096 C 
HETATM   42  O   UNL     1      -0.387   6.029 -25.954  1.00  0.00    -0.293 OA
ENDBRANCH  37  40
ENDBRANCH  31  34
ENDBRANCH  29  30
ENDBRANCH   1  29
TORSDOF 8
ENDMDL
MODEL 5
REMARK VINA RESULT:      -9.6      5.260     10.612
REMARK  8 active torsions:
REMARK  status: ('A' for Active; 'I' for Inactive)
REMARK    1  A    between atoms: C_2  and  C_3 
REMARK    2  A    between atoms: C_6  and  N_7 
REMARK       I    between atoms: N_7  and  C_8 
REMARK    3  A    between atoms: C_8  and  O_9 
REMARK    4  A    between atoms: O_9  and  C_10 
REMARK    5  A    between atoms: C_13  and  N_14 
REMARK       I    between atoms: N_14  and  C_15 
REMARK    6  A    between atoms: C_15  and  C_16 
REMARK    7  A    between atoms: N_19  and  C_20 
REMARK    8  A    between atoms: C_22  and  C_23 
ROOT
HETATM    1  C   UNL     1      -3.052   6.399 -31.449  1.00  0.00     0.189 C 
HETATM    2  C   UNL     1      -4.183   5.513 -31.981  1.00  0.00     0.184 C 
HETATM    3  C   UNL     1      -5.459   6.089 -31.372  1.00  0.00     0.177 C 
HETATM    4  C   UNL     1      -6.185   4.887 -30.788  1.00  0.00     0.139 C 
HETATM    5  C   UNL     1      -5.008   3.978 -30.454  1.00  0.00     0.196 C 
HETATM    6  O   UNL     1      -4.077   4.141 -31.537  1.00  0.00    -0.378 OA
HETATM    7  O   UNL     1      -5.045   6.982 -30.320  1.00  0.00    -0.378 OA
HETATM    8  C   UNL     1      -3.783   7.523 -30.732  1.00  0.00     0.203 C 
ENDROOT
BRANCH   4   9
HETATM    9  N   UNL     1      -7.096   4.226 -31.725  1.00  0.00    -0.351 N 
HETATM   10  C   UNL     1      -8.063   3.339 -31.303  1.00  0.00     0.222 C 
HETATM   11  O   UNL     1      -8.389   3.218 -30.128  1.00  0.00    -0.273 OA
HETATM   12  H   UNL     1      -6.803   4.176 -32.693  1.00  0.00     0.163 HD
BRANCH  10  13
HETATM   13  C   UNL     1      -8.638   2.492 -32.435  1.00  0.00     0.081 C 
HETATM   14  C   UNL     1      -7.793   2.575 -33.713  1.00  0.00     0.034 C 
HETATM   15  C   UNL     1      -6.551   1.685 -33.674  1.00  0.00     0.142 C 
HETATM   16  N   UNL     1      -6.950   0.329 -33.299  1.00  0.00    -0.214 N 
HETATM   17  C   UNL     1      -7.596   0.207 -31.998  1.00  0.00     0.142 C 
HETATM   18  C   UNL     1      -8.880   1.037 -32.010  1.00  0.00     0.034 C 
BRANCH  16  19
HETATM   19  C   UNL     1      -6.061  -0.681 -33.645  1.00  0.00     0.724 A 
HETATM   20  N   UNL     1      -6.553  -1.852 -34.077  1.00  0.00    -0.058 NA
HETATM   21  C   UNL     1      -5.697  -2.879 -34.323  1.00  0.00     0.160 A 
HETATM   22  C   UNL     1      -4.337  -2.747 -34.139  1.00  0.00     0.057 A 
HETATM   23  C   UNL     1      -3.912  -1.519 -33.709  1.00  0.00     0.139 A 
HETATM   24  N   UNL     1      -4.744  -0.493 -33.459  1.00  0.00    -0.075 NA
BRANCH  21  25
HETATM   25  C   UNL     1      -6.259  -4.220 -34.757  1.00  0.00     0.435 C 
HETATM   26  F   UNL     1      -5.489  -5.291 -34.417  1.00  0.00    -0.165 F 
HETATM   27  F   UNL     1      -7.490  -4.468 -34.217  1.00  0.00    -0.165 F 
HETATM   28  F   UNL     1      -6.437  -4.298 -36.108  1.00  0.00    -0.165 F 
ENDBRANCH  21  25
ENDBRANCH  16  19
ENDBRANCH  10  13
ENDBRANCH   4   9
BRANCH   1  29
HETATM   29  O   UNL     1      -2.239   5.688 -30.496  1.00  0.00    -0.293 OA
BRANCH  29  30
HETATM   30  C   UNL     1      -1.061   5.226 -30.979  1.00  0.00     0.365 C 
HETATM   31  N   UNL     1       0.066   5.659 -30.331  1.00  0.00    -0.303 N 
HETATM   32  H   UNL     1       0.891   5.248 -30.748  1.00  0.00     0.171 HD
HETATM   33  O   UNL     1      -0.964   4.458 -31.931  1.00  0.00    -0.238 OA
BRANCH  31  34
HETATM   34  C   UNL     1       0.254   6.407 -29.156  1.00  0.00     0.036 A 
HETATM   35  C   UNL     1       0.174   5.900 -27.859  1.00  0.00     0.030 A 
HETATM   36  C   UNL     1       0.462   6.711 -26.750  1.00  0.00     0.017 A 
HETATM   37  C   UNL     1       0.822   8.049 -26.930  1.00  0.00     0.009 A 
HETATM   38  C   UNL     1       0.856   8.576 -28.223  1.00  0.00     0.017 A 
HETATM   39  C   UNL     1       0.575   7.761 -29.324  1.00  0.00     0.030 A 
BRANCH  37  40
HETATM   40  C   UNL     1       1.179   8.938 -25.788  1.00  0.00     0.155 C 
HETATM   41  C   UNL     1       2.354   8.568 -24.919  1.00  0.00     0.096 C 
HETATM   42  O   UNL     1       0.523   9.955 -25.576  1.00  0.00    -0.293 OA
ENDBRANCH  37  40
ENDBRANCH  31  34
ENDBRANCH  29  30
ENDBRANCH   1  29
TORSDOF 8
ENDMDL
MODEL 6
REMARK VINA RESULT:      -9.1      4.054      9.747
REMARK  8 active torsions:
REMARK  status: ('A' for Active; 'I' for Inactive)
REMARK    1  A    between atoms: C_2  and  C_3 
REMARK    2  A    between atoms: C_6  and  N_7 
REMARK       I    between atoms: N_7  and  C_8 
REMARK    3  A    between atoms: C_8  and  O_9 
REMARK    4  A    between atoms: O_9  and  C_10 
REMARK    5  A    between atoms: C_13  and  N_14 
REMARK       I    between atoms: N_14  and  C_15 
REMARK    6  A    between atoms: C_15  and  C_16 
REMARK    7  A    between atoms: N_19  and  C_20 
REMARK    8  A    between atoms: C_22  and  C_23 
ROOT
HETATM    1  C   UNL     1      -2.813   6.658 -31.763  1.00  0.00     0.189 C 
HETATM    2  C   UNL     1      -4.095   5.908 -32.140  1.00  0.00     0.184 C 
HETATM    3  C   UNL     1      -5.233   6.852 -31.759  1.00  0.00     0.177 C 
HETATM    4  C   UNL     1      -6.195   5.989 -30.956  1.00  0.00     0.139 C 
HETATM    5  C   UNL     1      -5.232   4.974 -30.351  1.00  0.00     0.196 C 
HETATM    6  O   UNL     1      -4.275   4.689 -31.386  1.00  0.00    -0.378 OA
HETATM    7  O   UNL     1      -4.658   7.871 -30.919  1.00  0.00    -0.378 OA
HETATM    8  C   UNL     1      -3.308   8.041 -31.370  1.00  0.00     0.203 C 
ENDROOT
BRANCH   4   9
HETATM    9  N   UNL     1      -7.211   5.314 -31.766  1.00  0.00    -0.351 N 
HETATM   10  C   UNL     1      -8.306   4.696 -31.201  1.00  0.00     0.222 C 
HETATM   11  O   UNL     1      -8.635   4.861 -30.032  1.00  0.00    -0.273 OA
HETATM   12  H   UNL     1      -6.940   5.029 -32.700  1.00  0.00     0.163 HD
BRANCH  10  13
HETATM   13  C   UNL     1      -9.024   3.748 -32.159  1.00  0.00     0.081 C 
HETATM   14  C   UNL     1      -8.276   3.588 -33.489  1.00  0.00     0.034 C 
HETATM   15  C   UNL     1      -7.098   2.617 -33.407  1.00  0.00     0.142 C 
HETATM   16  N   UNL     1      -7.558   1.362 -32.816  1.00  0.00    -0.214 N 
HETATM   17  C   UNL     1      -8.109   1.471 -31.471  1.00  0.00     0.142 C 
HETATM   18  C   UNL     1      -9.330   2.390 -31.516  1.00  0.00     0.034 C 
BRANCH  16  19
HETATM   19  C   UNL     1      -6.770   0.247 -33.072  1.00  0.00     0.724 A 
HETATM   20  N   UNL     1      -5.651   0.069 -32.352  1.00  0.00    -0.058 NA
HETATM   21  C   UNL     1      -4.822  -0.962 -32.661  1.00  0.00     0.160 A 
HETATM   22  C   UNL     1      -5.102  -1.830 -33.697  1.00  0.00     0.057 A 
HETATM   23  C   UNL     1      -6.266  -1.591 -34.374  1.00  0.00     0.139 A 
HETATM   24  N   UNL     1      -7.097  -0.574 -34.083  1.00  0.00    -0.075 NA
BRANCH  21  25
HETATM   25  C   UNL     1      -3.529  -1.129 -31.885  1.00  0.00     0.435 C 
HETATM   26  F   UNL     1      -3.477  -0.429 -30.718  1.00  0.00    -0.165 F 
HETATM   27  F   UNL     1      -3.292  -2.431 -31.542  1.00  0.00    -0.165 F 
HETATM   28  F   UNL     1      -2.435  -0.743 -32.605  1.00  0.00    -0.165 F 
ENDBRANCH  21  25
ENDBRANCH  16  19
ENDBRANCH  10  13
ENDBRANCH   4   9
BRANCH   1  29
HETATM   29  O   UNL     1      -2.172   6.050 -30.624  1.00  0.00    -0.293 OA
BRANCH  29  30
HETATM   30  C   UNL     1      -1.068   5.320 -30.911  1.00  0.00     0.365 C 
HETATM   31  N   UNL     1       0.037   5.573 -30.141  1.00  0.00    -0.303 N 
HETATM   32  H   UNL     1       0.801   4.969 -30.414  1.00  0.00     0.171 HD
HETATM   33  O   UNL     1      -1.019   4.466 -31.791  1.00  0.00    -0.238 OA
BRANCH  31  34
HETATM   34  C   UNL     1       0.233   6.369 -29.000  1.00  0.00     0.036 A 
HETATM   35  C   UNL     1      -0.037   5.976 -27.688  1.00  0.00     0.030 A 
HETATM   36  C   UNL     1       0.273   6.816 -26.608  1.00  0.00     0.017 A 
HETATM   37  C   UNL     1       0.848   8.069 -26.830  1.00  0.00     0.009 A 
HETATM   38  C   UNL     1       1.076   8.490 -28.143  1.00  0.00     0.017 A 
HETATM   39  C   UNL     1       0.771   7.645 -29.216  1.00  0.00     0.030 A 
BRANCH  37  40
HETATM   40  C   UNL     1       1.235   8.977 -25.714  1.00  0.00     0.155 C 
HETATM   41  C   UNL     1       2.458   8.645 -24.897  1.00  0.00     0.096 C 
HETATM   42  O   UNL     1       0.564   9.980 -25.479  1.00  0.00    -0.293 OA
ENDBRANCH  37  40
ENDBRANCH  31  34
ENDBRANCH  29  30
ENDBRANCH   1  29
TORSDOF 8
ENDMDL
MODEL 7
REMARK VINA RESULT:      -9.1      4.018      8.830
REMARK  8 active torsions:
REMARK  status: ('A' for Active; 'I' for Inactive)
REMARK    1  A    between atoms: C_2  and  C_3 
REMARK    2  A    between atoms: C_6  and  N_7 
REMARK       I    between atoms: N_7  and  C_8 
REMARK    3  A    between atoms: C_8  and  O_9 
REMARK    4  A    between atoms: O_9  and  C_10 
REMARK    5  A    between atoms: C_13  and  N_14 
REMARK       I    between atoms: N_14  and  C_15 
REMARK    6  A    between atoms: C_15  and  C_16 
REMARK    7  A    between atoms: N_19  and  C_20 
REMARK    8  A    between atoms: C_22  and  C_23 
ROOT
HETATM    1  C   UNL     1      -4.403   7.900 -29.014  1.00  0.00     0.189 C 
HETATM    2  C   UNL     1      -5.208   7.181 -30.102  1.00  0.00     0.184 C 
HETATM    3  C   UNL     1      -6.580   6.931 -29.481  1.00  0.00     0.177 C 
HETATM    4  C   UNL     1      -6.862   5.460 -29.749  1.00  0.00     0.139 C 
HETATM    5  C   UNL     1      -5.445   4.899 -29.780  1.00  0.00     0.196 C 
HETATM    6  O   UNL     1      -4.653   5.893 -30.451  1.00  0.00    -0.378 OA
HETATM    7  O   UNL     1      -6.439   7.161 -28.065  1.00  0.00    -0.378 OA
HETATM    8  C   UNL     1      -5.431   8.172 -27.927  1.00  0.00     0.203 C 
ENDROOT
BRANCH   4   9
HETATM    9  N   UNL     1      -7.544   5.205 -31.019  1.00  0.00    -0.351 N 
HETATM   10  C   UNL     1      -8.710   4.473 -31.090  1.00  0.00     0.222 C 
HETATM   11  O   UNL     1      -9.379   4.189 -30.104  1.00  0.00    -0.273 OA
HETATM   12  H   UNL     1      -6.991   5.291 -31.863  1.00  0.00     0.163 HD
BRANCH  10  13
HETATM   13  C   UNL     1      -9.045   4.009 -32.505  1.00  0.00     0.081 C 
HETATM   14  C   UNL     1      -7.808   3.966 -33.413  1.00  0.00     0.034 C 
HETATM   15  C   UNL     1      -6.949   2.720 -33.204  1.00  0.00     0.142 C 
HETATM   16  N   UNL     1      -7.802   1.535 -33.287  1.00  0.00    -0.214 N 
HETATM   17  C   UNL     1      -8.879   1.473 -32.307  1.00  0.00     0.142 C 
HETATM   18  C   UNL     1      -9.801   2.674 -32.518  1.00  0.00     0.034 C 
BRANCH  16  19
HETATM   19  C   UNL     1      -7.152   0.340 -33.569  1.00  0.00     0.724 A 
HETATM   20  N   UNL     1      -5.963   0.102 -32.995  1.00  0.00    -0.058 NA
HETATM   21  C   UNL     1      -5.274  -1.018 -33.340  1.00  0.00     0.160 A 
HETATM   22  C   UNL     1      -5.766  -1.914 -34.266  1.00  0.00     0.057 A 
HETATM   23  C   UNL     1      -6.990  -1.608 -34.796  1.00  0.00     0.139 A 
HETATM   24  N   UNL     1      -7.684  -0.504 -34.468  1.00  0.00    -0.075 NA
BRANCH  21  25
HETATM   25  C   UNL     1      -3.903  -1.258 -32.734  1.00  0.00     0.435 C 
HETATM   26  F   UNL     1      -2.910  -0.489 -33.262  1.00  0.00    -0.165 F 
HETATM   27  F   UNL     1      -3.880  -1.014 -31.389  1.00  0.00    -0.165 F 
HETATM   28  F   UNL     1      -3.492  -2.552 -32.872  1.00  0.00    -0.165 F 
ENDBRANCH  21  25
ENDBRANCH  16  19
ENDBRANCH  10  13
ENDBRANCH   4   9
BRANCH   1  29
HETATM   29  O   UNL     1      -3.373   7.046 -28.480  1.00  0.00    -0.293 OA
BRANCH  29  30
HETATM   30  C   UNL     1      -2.173   7.645 -28.294  1.00  0.00     0.365 C 
HETATM   31  N   UNL     1      -1.256   7.481 -29.299  1.00  0.00    -0.303 N 
HETATM   32  H   UNL     1      -0.402   7.978 -29.081  1.00  0.00     0.171 HD
HETATM   33  O   UNL     1      -1.884   8.311 -27.304  1.00  0.00    -0.238 OA
BRANCH  31  34
HETATM   34  C   UNL     1      -1.348   6.907 -30.578  1.00  0.00     0.036 A 
HETATM   35  C   UNL     1      -1.269   5.542 -30.856  1.00  0.00     0.030 A 
HETATM   36  C   UNL     1      -1.457   5.062 -32.161  1.00  0.00     0.017 A 
HETATM   37  C   UNL     1      -1.713   5.949 -33.210  1.00  0.00     0.009 A 
HETATM   38  C   UNL     1      -1.744   7.321 -32.948  1.00  0.00     0.017 A 
HETATM   39  C   UNL     1      -1.563   7.793 -31.643  1.00  0.00     0.030 A 
BRANCH  37  40
HETATM   40  C   UNL     1      -1.963   5.484 -34.603  1.00  0.00     0.155 C 
HETATM   41  C   UNL     1      -3.385   5.303 -35.066  1.00  0.00     0.096 C 
HETATM   42  O   UNL     1      -1.015   5.263 -35.354  1.00  0.00    -0.293 OA
ENDBRANCH  37  40
ENDBRANCH  31  34
ENDBRANCH  29  30
ENDBRANCH   1  29
TORSDOF 8
ENDMDL
MODEL 8
REMARK VINA RESULT:      -9.1      5.240      9.560
REMARK  8 active torsions:
REMARK  status: ('A' for Active; 'I' for Inactive)
REMARK    1  A    between atoms: C_2  and  C_3 
REMARK    2  A    between atoms: C_6  and  N_7 
REMARK       I    between atoms: N_7  and  C_8 
REMARK    3  A    between atoms: C_8  and  O_9 
REMARK    4  A    between atoms: O_9  and  C_10 
REMARK    5  A    between atoms: C_13  and  N_14 
REMARK       I    between atoms: N_14  and  C_15 
REMARK    6  A    between atoms: C_15  and  C_16 
REMARK    7  A    between atoms: N_19  and  C_20 
REMARK    8  A    between atoms: C_22  and  C_23 
ROOT
HETATM    1  C   UNL     1      -6.842   7.479 -29.170  1.00  0.00     0.189 C 
HETATM    2  C   UNL     1      -7.006   6.610 -30.421  1.00  0.00     0.184 C 
HETATM    3  C   UNL     1      -8.420   6.042 -30.328  1.00  0.00     0.177 C 
HETATM    4  C   UNL     1      -8.253   4.550 -30.574  1.00  0.00     0.139 C 
HETATM    5  C   UNL     1      -6.842   4.330 -30.044  1.00  0.00     0.196 C 
HETATM    6  O   UNL     1      -6.094   5.489 -30.449  1.00  0.00    -0.378 OA
HETATM    7  O   UNL     1      -8.870   6.278 -28.980  1.00  0.00    -0.378 OA
HETATM    8  C   UNL     1      -8.234   7.491 -28.556  1.00  0.00     0.203 C 
ENDROOT
BRANCH   4   9
HETATM    9  N   UNL     1      -8.339   4.163 -31.984  1.00  0.00    -0.351 N 
HETATM   10  C   UNL     1      -8.925   2.981 -32.384  1.00  0.00     0.222 C 
HETATM   11  O   UNL     1      -9.612   2.293 -31.640  1.00  0.00    -0.273 OA
HETATM   12  H   UNL     1      -7.690   4.607 -32.622  1.00  0.00     0.163 HD
BRANCH  10  13
HETATM   13  C   UNL     1      -8.581   2.596 -33.821  1.00  0.00     0.081 C 
HETATM   14  C   UNL     1      -7.088   2.764 -34.129  1.00  0.00     0.034 C 
HETATM   15  C   UNL     1      -6.231   1.609 -33.611  1.00  0.00     0.142 C 
HETATM   16  N   UNL     1      -6.806   0.347 -34.073  1.00  0.00    -0.214 N 
HETATM   17  C   UNL     1      -8.172   0.087 -33.636  1.00  0.00     0.142 C 
HETATM   18  C   UNL     1      -9.078   1.190 -34.182  1.00  0.00     0.034 C 
BRANCH  16  19
HETATM   19  C   UNL     1      -5.943  -0.742 -34.087  1.00  0.00     0.724 A 
HETATM   20  N   UNL     1      -6.412  -1.930 -34.501  1.00  0.00    -0.058 NA
HETATM   21  C   UNL     1      -5.606  -3.022 -34.425  1.00  0.00     0.160 A 
HETATM   22  C   UNL     1      -4.320  -2.939 -33.933  1.00  0.00     0.057 A 
HETATM   23  C   UNL     1      -3.912  -1.693 -33.543  1.00  0.00     0.139 A 
HETATM   24  N   UNL     1      -4.696  -0.602 -33.609  1.00  0.00    -0.075 NA
BRANCH  21  25
HETATM   25  C   UNL     1      -6.155  -4.375 -34.839  1.00  0.00     0.435 C 
HETATM   26  F   UNL     1      -7.387  -4.662 -34.335  1.00  0.00    -0.165 F 
HETATM   27  F   UNL     1      -6.277  -4.493 -36.196  1.00  0.00    -0.165 F 
HETATM   28  F   UNL     1      -5.343  -5.404 -34.461  1.00  0.00    -0.165 F 
ENDBRANCH  21  25
ENDBRANCH  16  19
ENDBRANCH  10  13
ENDBRANCH   4   9
BRANCH   1  29
HETATM   29  O   UNL     1      -5.926   6.876 -28.235  1.00  0.00    -0.293 OA
BRANCH  29  30
HETATM   30  C   UNL     1      -5.153   7.750 -27.547  1.00  0.00     0.365 C 
HETATM   31  N   UNL     1      -3.933   8.039 -28.099  1.00  0.00    -0.303 N 
HETATM   32  H   UNL     1      -3.439   8.712 -27.528  1.00  0.00     0.171 HD
HETATM   33  O   UNL     1      -5.491   8.282 -26.493  1.00  0.00    -0.238 OA
BRANCH  31  34
HETATM   34  C   UNL     1      -3.349   7.703 -29.332  1.00  0.00     0.036 A 
HETATM   35  C   UNL     1      -2.769   6.472 -29.639  1.00  0.00     0.030 A 
HETATM   36  C   UNL     1      -2.286   6.206 -30.930  1.00  0.00     0.017 A 
HETATM   37  C   UNL     1      -2.369   7.179 -31.929  1.00  0.00     0.009 A 
HETATM   38  C   UNL     1      -2.904   8.432 -31.615  1.00  0.00     0.017 A 
HETATM   39  C   UNL     1      -3.389   8.688 -30.328  1.00  0.00     0.030 A 
BRANCH  37  40
HETATM   40  C   UNL     1      -1.911   6.930 -33.324  1.00  0.00     0.155 C 
HETATM   41  C   UNL     1      -1.807   5.507 -33.812  1.00  0.00     0.096 C 
HETATM   42  O   UNL     1      -1.635   7.877 -34.057  1.00  0.00    -0.293 OA
ENDBRANCH  37  40
ENDBRANCH  31  34
ENDBRANCH  29  30
ENDBRANCH   1  29
TORSDOF 8
ENDMDL
MODEL 9
REMARK VINA RESULT:      -9.1      5.139     10.378
REMARK  8 active torsions:
REMARK  status: ('A' for Active; 'I' for Inactive)
REMARK    1  A    between atoms: C_2  and  C_3 
REMARK    2  A    between atoms: C_6  and  N_7 
REMARK       I    between atoms: N_7  and  C_8 
REMARK    3  A    between atoms: C_8  and  O_9 
REMARK    4  A    between atoms: O_9  and  C_10 
REMARK    5  A    between atoms: C_13  and  N_14 
REMARK       I    between atoms: N_14  and  C_15 
REMARK    6  A    between atoms: C_15  and  C_16 
REMARK    7  A    between atoms: N_19  and  C_20 
REMARK    8  A    between atoms: C_22  and  C_23 
ROOT
HETATM    1  C   UNL     1      -1.792   6.673 -31.742  1.00  0.00     0.189 C 
HETATM    2  C   UNL     1      -3.044   5.909 -32.185  1.00  0.00     0.184 C 
HETATM    3  C   UNL     1      -4.177   6.930 -32.119  1.00  0.00     0.177 C 
HETATM    4  C   UNL     1      -5.282   6.230 -31.343  1.00  0.00     0.139 C 
HETATM    5  C   UNL     1      -4.463   5.296 -30.459  1.00  0.00     0.196 C 
HETATM    6  O   UNL     1      -3.387   4.828 -31.289  1.00  0.00    -0.378 OA
HETATM    7  O   UNL     1      -3.675   8.053 -31.368  1.00  0.00    -0.378 OA
HETATM    8  C   UNL     1      -2.269   8.113 -31.638  1.00  0.00     0.203 C 
ENDROOT
BRANCH   4   9
HETATM    9  N   UNL     1      -6.208   5.463 -32.181  1.00  0.00    -0.351 N 
HETATM   10  C   UNL     1      -7.241   4.726 -31.645  1.00  0.00     0.222 C 
HETATM   11  O   UNL     1      -7.606   4.839 -30.481  1.00  0.00    -0.273 OA
HETATM   12  H   UNL     1      -5.892   5.223 -33.113  1.00  0.00     0.163 HD
BRANCH  10  13
HETATM   13  C   UNL     1      -7.839   3.722 -32.629  1.00  0.00     0.081 C 
HETATM   14  C   UNL     1      -6.924   3.474 -33.835  1.00  0.00     0.034 C 
HETATM   15  C   UNL     1      -5.781   2.504 -33.535  1.00  0.00     0.142 C 
HETATM   16  N   UNL     1      -6.332   1.292 -32.933  1.00  0.00    -0.214 N 
HETATM   17  C   UNL     1      -7.054   1.490 -31.683  1.00  0.00     0.142 C 
HETATM   18  C   UNL     1      -8.246   2.410 -31.947  1.00  0.00     0.034 C 
BRANCH  16  19
HETATM   19  C   UNL     1      -5.531   0.158 -33.011  1.00  0.00     0.724 A 
HETATM   20  N   UNL     1      -5.917  -0.849 -33.810  1.00  0.00    -0.058 NA
HETATM   21  C   UNL     1      -5.195  -2.000 -33.819  1.00  0.00     0.160 A 
HETATM   22  C   UNL     1      -4.077  -2.159 -33.027  1.00  0.00     0.057 A 
HETATM   23  C   UNL     1      -3.741  -1.083 -32.251  1.00  0.00     0.139 A 
HETATM   24  N   UNL     1      -4.445   0.063 -32.228  1.00  0.00    -0.075 NA
BRANCH  21  25
HETATM   25  C   UNL     1      -5.664  -3.160 -34.678  1.00  0.00     0.435 C 
HETATM   26  F   UNL     1      -7.010  -3.369 -34.658  1.00  0.00    -0.165 F 
HETATM   27  F   UNL     1      -5.338  -2.996 -35.995  1.00  0.00    -0.165 F 
HETATM   28  F   UNL     1      -5.093  -4.344 -34.311  1.00  0.00    -0.165 F 
ENDBRANCH  21  25
ENDBRANCH  16  19
ENDBRANCH  10  13
ENDBRANCH   4   9
BRANCH   1  29
HETATM   29  O   UNL     1      -1.347   6.234 -30.444  1.00  0.00    -0.293 OA
BRANCH  29  30
HETATM   30  C   UNL     1      -0.144   5.610 -30.432  1.00  0.00     0.365 C 
HETATM   31  N   UNL     1       0.735   6.019 -29.465  1.00  0.00    -0.303 N 
HETATM   32  H   UNL     1       1.593   5.485 -29.521  1.00  0.00     0.171 HD
HETATM   33  O   UNL     1       0.176   4.722 -31.216  1.00  0.00    -0.238 OA
BRANCH  31  34
HETATM   34  C   UNL     1       0.600   6.889 -28.370  1.00  0.00     0.036 A 
HETATM   35  C   UNL     1       1.177   8.157 -28.273  1.00  0.00     0.030 A 
HETATM   36  C   UNL     1       0.913   8.985 -27.171  1.00  0.00     0.017 A 
HETATM   37  C   UNL     1       0.075   8.546 -26.143  1.00  0.00     0.009 A 
HETATM   38  C   UNL     1      -0.466   7.259 -26.209  1.00  0.00     0.017 A 
HETATM   39  C   UNL     1      -0.204   6.441 -27.314  1.00  0.00     0.030 A 
BRANCH  37  40
HETATM   40  C   UNL     1      -0.270   9.405 -24.976  1.00  0.00     0.155 C 
HETATM   41  C   UNL     1      -1.696   9.429 -24.487  1.00  0.00     0.096 C 
HETATM   42  O   UNL     1       0.604  10.071 -24.426  1.00  0.00    -0.293 OA
ENDBRANCH  37  40
ENDBRANCH  31  34
ENDBRANCH  29  30
ENDBRANCH   1  29
TORSDOF 8
ENDMDL
MODEL 10
REMARK VINA RESULT:      -9.1      6.640      9.781
REMARK  8 active torsions:
REMARK  status: ('A' for Active; 'I' for Inactive)
REMARK    1  A    between atoms: C_2  and  C_3 
REMARK    2  A    between atoms: C_6  and  N_7 
REMARK       I    between atoms: N_7  and  C_8 
REMARK    3  A    between atoms: C_8  and  O_9 
REMARK    4  A    between atoms: O_9  and  C_10 
REMARK    5  A    between atoms: C_13  and  N_14 
REMARK       I    between atoms: N_14  and  C_15 
REMARK    6  A    between atoms: C_15  and  C_16 
REMARK    7  A    between atoms: N_19  and  C_20 
REMARK    8  A    between atoms: C_22  and  C_23 
ROOT
HETATM    1  C   UNL     1      -6.793   2.250 -31.943  1.00  0.00     0.189 C 
HETATM    2  C   UNL     1      -8.181   2.346 -32.584  1.00  0.00     0.184 C 
HETATM    3  C   UNL     1      -9.025   1.298 -31.863  1.00  0.00     0.177 C 
HETATM    4  C   UNL     1      -9.700   0.513 -32.978  1.00  0.00     0.139 C 
HETATM    5  C   UNL     1      -8.669   0.656 -34.091  1.00  0.00     0.196 C 
HETATM    6  O   UNL     1      -8.176   2.002 -33.987  1.00  0.00    -0.378 OA
HETATM    7  O   UNL     1      -8.105   0.453 -31.144  1.00  0.00    -0.378 OA
HETATM    8  C   UNL     1      -6.999   1.289 -30.782  1.00  0.00     0.203 C 
ENDROOT
BRANCH   4   9
HETATM    9  N   UNL     1     -10.991   1.062 -33.398  1.00  0.00    -0.351 N 
HETATM   10  C   UNL     1     -12.115   0.275 -33.527  1.00  0.00     0.222 C 
HETATM   11  O   UNL     1     -12.183  -0.866 -33.083  1.00  0.00    -0.273 OA
HETATM   12  H   UNL     1     -10.975   1.944 -33.897  1.00  0.00     0.163 HD
BRANCH  10  13
HETATM   13  C   UNL     1     -13.232   0.945 -34.322  1.00  0.00     0.081 C 
HETATM   14  C   UNL     1     -14.069   1.899 -33.460  1.00  0.00     0.034 C 
HETATM   15  C   UNL     1     -13.404   3.258 -33.244  1.00  0.00     0.142 C 
HETATM   16  N   UNL     1     -13.006   3.804 -34.540  1.00  0.00    -0.214 N 
HETATM   17  C   UNL     1     -12.064   2.990 -35.297  1.00  0.00     0.142 C 
HETATM   18  C   UNL     1     -12.712   1.636 -35.589  1.00  0.00     0.034 C 
BRANCH  16  19
HETATM   19  C   UNL     1     -12.810   5.179 -34.584  1.00  0.00     0.724 A 
HETATM   20  N   UNL     1     -13.155   5.845 -35.697  1.00  0.00    -0.058 NA
HETATM   21  C   UNL     1     -12.876   7.172 -35.788  1.00  0.00     0.160 A 
HETATM   22  C   UNL     1     -12.246   7.850 -34.765  1.00  0.00     0.057 A 
HETATM   23  C   UNL     1     -11.937   7.105 -33.660  1.00  0.00     0.139 A 
HETATM   24  N   UNL     1     -12.204   5.791 -33.553  1.00  0.00    -0.075 NA
BRANCH  21  25
HETATM   25  C   UNL     1     -13.215   7.911 -37.068  1.00  0.00     0.435 C 
HETATM   26  F   UNL     1     -13.929   7.181 -37.970  1.00  0.00    -0.165 F 
HETATM   27  F   UNL     1     -13.957   9.036 -36.838  1.00  0.00    -0.165 F 
HETATM   28  F   UNL     1     -12.102   8.344 -37.730  1.00  0.00    -0.165 F 
ENDBRANCH  21  25
ENDBRANCH  16  19
ENDBRANCH  10  13
ENDBRANCH   4   9
BRANCH   1  29
HETATM   29  O   UNL     1      -5.837   1.679 -32.857  1.00  0.00    -0.293 OA
BRANCH  29  30
HETATM   30  C   UNL     1      -4.547   1.742 -32.450  1.00  0.00     0.365 C 
HETATM   31  N   UNL     1      -3.837   0.572 -32.515  1.00  0.00    -0.303 N 
HETATM   32  H   UNL     1      -2.884   0.722 -32.211  1.00  0.00     0.171 HD
HETATM   33  O   UNL     1      -4.003   2.767 -32.048  1.00  0.00    -0.238 OA
BRANCH  31  34
HETATM   34  C   UNL     1      -4.142  -0.691 -33.050  1.00  0.00     0.036 A 
HETATM   35  C   UNL     1      -3.479  -1.879 -32.738  1.00  0.00     0.030 A 
HETATM   36  C   UNL     1      -3.915  -3.105 -33.263  1.00  0.00     0.017 A 
HETATM   37  C   UNL     1      -5.017  -3.154 -34.120  1.00  0.00     0.009 A 
HETATM   38  C   UNL     1      -5.655  -1.963 -34.476  1.00  0.00     0.017 A 
HETATM   39  C   UNL     1      -5.220  -0.745 -33.944  1.00  0.00     0.030 A 
BRANCH  37  40
HETATM   40  C   UNL     1      -5.544  -4.436 -34.667  1.00  0.00     0.155 C 
HETATM   41  C   UNL     1      -6.812  -4.412 -35.481  1.00  0.00     0.096 C 
HETATM   42  O   UNL     1      -4.940  -5.485 -34.458  1.00  0.00    -0.293 OA
ENDBRANCH  37  40
ENDBRANCH  31  34
ENDBRANCH  29  30
ENDBRANCH   1  29
TORSDOF 8
ENDMDL
