MODEL 1
REMARK VINA RESULT:     -10.1      0.000      0.000
REMARK  8 active torsions:
REMARK  status: ('A' for Active; 'I' for Inactive)
REMARK    1  A    between atoms: C_3  and  S_4 
REMARK    2  A    between atoms: S_4  and  N_5 
REMARK    3  A    between atoms: N_5  and  C_6 
REMARK    4  A    between atoms: C_6  and  C_7 
REMARK    5  A    between atoms: C_20  and  C_21 
REMARK    6  A    between atoms: C_25  and  N_26 
REMARK    7  A    between atoms: N_26  and  C_27 
REMARK    8  A    between atoms: C_27  and  C_28 
ROOT
HETATM    1  C   UNL     1     -13.334   0.225 -33.621  1.00  0.00     0.050 C 
HETATM    2  C   UNL     1     -11.842   0.408 -33.594  1.00  0.00    -0.039 A 
HETATM    3  C   UNL     1     -11.162   1.458 -34.230  1.00  0.00     0.081 A 
HETATM    4  C   UNL     1      -9.755   1.522 -34.191  1.00  0.00     0.039 A 
HETATM    5  C   UNL     1      -8.991   0.598 -33.459  1.00  0.00    -0.003 A 
HETATM    6  C   UNL     1      -9.685  -0.427 -32.799  1.00  0.00     0.014 A 
HETATM    7  C   UNL     1     -11.078  -0.535 -32.885  1.00  0.00     0.009 A 
ENDROOT
BRANCH   5   8
HETATM    8  C   UNL     1      -7.533   0.780 -33.306  1.00  0.00     0.098 C 
HETATM    9  N   UNL     1      -7.211   1.995 -32.817  1.00  0.00    -0.172 NA
HETATM   10  N   UNL     1      -5.956   2.257 -32.509  1.00  0.00    -0.266 N 
HETATM   11  H   UNL     1      -5.740   3.201 -32.202  1.00  0.00     0.190 HD
HETATM   12  C   UNL     1      -4.958   1.358 -32.572  1.00  0.00     0.108 C 
HETATM   13  C   UNL     1      -5.233   0.108 -33.195  1.00  0.00     0.016 A 
HETATM   14  C   UNL     1      -6.558  -0.191 -33.579  1.00  0.00     0.009 A 
HETATM   15  C   UNL     1      -4.228  -0.858 -33.455  1.00  0.00     0.016 A 
HETATM   16  C   UNL     1      -6.822  -1.428 -34.222  1.00  0.00     0.015 A 
HETATM   17  C   UNL     1      -5.813  -2.360 -34.459  1.00  0.00     0.001 A 
HETATM   18  C   UNL     1      -4.515  -2.075 -34.072  1.00  0.00     0.001 A 
BRANCH  12  19
HETATM   19  N   UNL     1      -3.667   1.670 -32.129  1.00  0.00    -0.273 NA
HETATM   20  H   UNL     1      -3.221   0.850 -31.714  1.00  0.00     0.129 HD
BRANCH  19  21
HETATM   21  C   UNL     1      -3.363   2.858 -31.328  1.00  0.00     0.132 C 
BRANCH  21  22
HETATM   22  C   UNL     1      -2.624   3.895 -32.134  1.00  0.00    -0.045 A 
HETATM   23  C   UNL     1      -2.944   4.113 -33.483  1.00  0.00     0.008 A 
HETATM   24  C   UNL     1      -2.265   5.081 -34.223  1.00  0.00     0.001 A 
HETATM   25  C   UNL     1      -1.274   5.855 -33.622  1.00  0.00     0.000 A 
HETATM   26  C   UNL     1      -0.963   5.667 -32.278  1.00  0.00     0.001 A 
HETATM   27  C   UNL     1      -1.637   4.697 -31.536  1.00  0.00     0.008 A 
ENDBRANCH  21  22
ENDBRANCH  19  21
ENDBRANCH  12  19
ENDBRANCH   5   8
BRANCH   3  28
HETATM   28  S   UNL     1     -11.996   2.793 -35.094  1.00  0.00     0.242 S 
HETATM   29  O   UNL     1     -12.714   2.209 -36.206  1.00  0.00    -0.206 OA
HETATM   30  O   UNL     1     -12.649   3.647 -34.133  1.00  0.00    -0.206 OA
BRANCH  28  31
HETATM   31  N   UNL     1     -10.672   3.659 -35.715  1.00  0.00    -0.208 NA
HETATM   32  H   UNL     1     -10.649   3.597 -36.735  1.00  0.00     0.140 HD
BRANCH  31  33
HETATM   33  C   UNL     1     -10.576   5.048 -35.238  1.00  0.00     0.182 C 
BRANCH  33  34
HETATM   34  C   UNL     1      -9.493   5.142 -34.221  1.00  0.00     0.119 A 
HETATM   35  N   UNL     1      -8.230   5.459 -34.438  1.00  0.00    -0.232 NA
HETATM   36  C   UNL     1      -7.641   5.479 -33.194  1.00  0.00     0.085 A 
HETATM   37  C   UNL     1      -8.557   5.140 -32.204  1.00  0.00     0.062 A 
HETATM   38  C   UNL     1      -6.322   5.785 -32.827  1.00  0.00     0.034 A 
HETATM   39  N   UNL     1      -9.725   4.915 -32.885  1.00  0.00    -0.342 N 
HETATM   40  C   UNL     1      -8.236   5.083 -30.847  1.00  0.00     0.032 A 
HETATM   41  H   UNL     1     -10.609   4.639 -32.478  1.00  0.00     0.167 HD
HETATM   42  C   UNL     1      -6.916   5.395 -30.500  1.00  0.00     0.002 A 
HETATM   43  C   UNL     1      -5.973   5.742 -31.471  1.00  0.00     0.002 A 
ENDBRANCH  33  34
ENDBRANCH  31  33
ENDBRANCH  28  31
ENDBRANCH   3  28
TORSDOF 8
ENDMDL
MODEL 2
REMARK VINA RESULT:     -10.0      4.405      8.414
REMARK  8 active torsions:
REMARK  status: ('A' for Active; 'I' for Inactive)
REMARK    1  A    between atoms: C_3  and  S_4 
REMARK    2  A    between atoms: S_4  and  N_5 
REMARK    3  A    between atoms: N_5  and  C_6 
REMARK    4  A    between atoms: C_6  and  C_7 
REMARK    5  A    between atoms: C_20  and  C_21 
REMARK    6  A    between atoms: C_25  and  N_26 
REMARK    7  A    between atoms: N_26  and  C_27 
REMARK    8  A    between atoms: C_27  and  C_28 
ROOT
HETATM    1  C   UNL     1      -2.978   8.289 -31.357  1.00  0.00     0.050 C 
HETATM    2  C   UNL     1      -3.573   6.944 -31.669  1.00  0.00    -0.039 A 
HETATM    3  C   UNL     1      -3.164   6.127 -32.735  1.00  0.00     0.081 A 
HETATM    4  C   UNL     1      -3.813   4.900 -32.981  1.00  0.00     0.039 A 
HETATM    5  C   UNL     1      -4.825   4.415 -32.136  1.00  0.00    -0.003 A 
HETATM    6  C   UNL     1      -5.201   5.225 -31.054  1.00  0.00     0.014 A 
HETATM    7  C   UNL     1      -4.605   6.474 -30.840  1.00  0.00     0.009 A 
ENDROOT
BRANCH   5   8
HETATM    8  C   UNL     1      -5.377   3.058 -32.326  1.00  0.00     0.098 C 
HETATM    9  N   UNL     1      -6.589   3.070 -32.917  1.00  0.00    -0.172 NA
HETATM   10  N   UNL     1      -7.150   1.929 -33.265  1.00  0.00    -0.266 N 
HETATM   11  H   UNL     1      -8.090   1.971 -33.651  1.00  0.00     0.190 HD
HETATM   12  C   UNL     1      -6.559   0.727 -33.146  1.00  0.00     0.108 C 
HETATM   13  C   UNL     1      -5.337   0.661 -32.419  1.00  0.00     0.016 A 
HETATM   14  C   UNL     1      -4.728   1.860 -31.991  1.00  0.00     0.009 A 
HETATM   15  C   UNL     1      -4.700  -0.564 -32.097  1.00  0.00     0.016 A 
HETATM   16  C   UNL     1      -3.522   1.788 -31.246  1.00  0.00     0.015 A 
HETATM   17  C   UNL     1      -2.917   0.568 -30.950  1.00  0.00     0.001 A 
HETATM   18  C   UNL     1      -3.505  -0.610 -31.379  1.00  0.00     0.001 A 
BRANCH  12  19
HETATM   19  N   UNL     1      -7.168  -0.437 -33.633  1.00  0.00    -0.273 NA
HETATM   20  H   UNL     1      -7.190  -1.159 -32.910  1.00  0.00     0.129 HD
BRANCH  19  21
HETATM   21  C   UNL     1      -6.825  -1.037 -34.923  1.00  0.00     0.132 C 
BRANCH  21  22
HETATM   22  C   UNL     1      -6.173  -2.385 -34.752  1.00  0.00    -0.045 A 
HETATM   23  C   UNL     1      -6.916  -3.563 -34.922  1.00  0.00     0.008 A 
HETATM   24  C   UNL     1      -6.307  -4.810 -34.774  1.00  0.00     0.001 A 
HETATM   25  C   UNL     1      -4.949  -4.895 -34.473  1.00  0.00     0.000 A 
HETATM   26  C   UNL     1      -4.195  -3.734 -34.326  1.00  0.00     0.001 A 
HETATM   27  C   UNL     1      -4.800  -2.486 -34.469  1.00  0.00     0.008 A 
ENDBRANCH  21  22
ENDBRANCH  19  21
ENDBRANCH  12  19
ENDBRANCH   5   8
BRANCH   3  28
HETATM   28  S   UNL     1      -1.799   6.538 -33.826  1.00  0.00     0.242 S 
HETATM   29  O   UNL     1      -1.580   5.401 -34.694  1.00  0.00    -0.206 OA
HETATM   30  O   UNL     1      -1.992   7.867 -34.350  1.00  0.00    -0.206 OA
BRANCH  28  31
HETATM   31  N   UNL     1      -0.509   6.617 -32.722  1.00  0.00    -0.208 NA
HETATM   32  H   UNL     1      -0.462   7.543 -32.291  1.00  0.00     0.140 HD
BRANCH  31  33
HETATM   33  C   UNL     1      -0.496   5.536 -31.723  1.00  0.00     0.182 C 
BRANCH  33  34
HETATM   34  C   UNL     1      -0.095   6.095 -30.403  1.00  0.00     0.119 A 
HETATM   35  N   UNL     1       0.636   7.175 -30.192  1.00  0.00    -0.232 NA
HETATM   36  C   UNL     1       0.678   7.323 -28.824  1.00  0.00     0.085 A 
HETATM   37  C   UNL     1      -0.016   6.298 -28.191  1.00  0.00     0.062 A 
HETATM   38  C   UNL     1       1.288   8.318 -28.044  1.00  0.00     0.034 A 
HETATM   39  N   UNL     1      -0.485   5.521 -29.217  1.00  0.00    -0.342 N 
HETATM   40  C   UNL     1      -0.140   6.196 -26.804  1.00  0.00     0.032 A 
HETATM   41  H   UNL     1      -1.032   4.675 -29.124  1.00  0.00     0.167 HD
HETATM   42  C   UNL     1       0.472   7.199 -26.044  1.00  0.00     0.002 A 
HETATM   43  C   UNL     1       1.173   8.245 -26.651  1.00  0.00     0.002 A 
ENDBRANCH  33  34
ENDBRANCH  31  33
ENDBRANCH  28  31
ENDBRANCH   3  28
TORSDOF 8
ENDMDL
MODEL 3
REMARK VINA RESULT:      -9.7      3.192      6.941
REMARK  8 active torsions:
REMARK  status: ('A' for Active; 'I' for Inactive)
REMARK    1  A    between atoms: C_3  and  S_4 
REMARK    2  A    between atoms: S_4  and  N_5 
REMARK    3  A    between atoms: N_5  and  C_6 
REMARK    4  A    between atoms: C_6  and  C_7 
REMARK    5  A    between atoms: C_20  and  C_21 
REMARK    6  A    between atoms: C_25  and  N_26 
REMARK    7  A    between atoms: N_26  and  C_27 
REMARK    8  A    between atoms: C_27  and  C_28 
ROOT
HETATM    1  C   UNL     1     -10.362   4.411 -32.381  1.00  0.00     0.050 C 
HETATM    2  C   UNL     1      -8.890   4.631 -32.166  1.00  0.00    -0.039 A 
HETATM    3  C   UNL     1      -7.928   3.609 -32.179  1.00  0.00     0.081 A 
HETATM    4  C   UNL     1      -6.574   3.903 -31.920  1.00  0.00     0.039 A 
HETATM    5  C   UNL     1      -6.126   5.219 -31.721  1.00  0.00    -0.003 A 
HETATM    6  C   UNL     1      -7.093   6.235 -31.744  1.00  0.00     0.014 A 
HETATM    7  C   UNL     1      -8.448   5.945 -31.937  1.00  0.00     0.009 A 
ENDROOT
BRANCH   5   8
HETATM    8  C   UNL     1      -4.683   5.515 -31.608  1.00  0.00     0.098 C 
HETATM    9  N   UNL     1      -4.311   5.806 -30.345  1.00  0.00    -0.172 NA
HETATM   10  N   UNL     1      -3.032   5.968 -30.068  1.00  0.00    -0.266 N 
HETATM   11  H   UNL     1      -2.793   6.248 -29.120  1.00  0.00     0.190 HD
HETATM   12  C   UNL     1      -2.037   5.782 -30.953  1.00  0.00     0.108 C 
HETATM   13  C   UNL     1      -2.393   5.594 -32.318  1.00  0.00     0.016 A 
HETATM   14  C   UNL     1      -3.756   5.460 -32.659  1.00  0.00     0.009 A 
HETATM   15  C   UNL     1      -1.434   5.539 -33.361  1.00  0.00     0.016 A 
HETATM   16  C   UNL     1      -4.107   5.297 -34.025  1.00  0.00     0.015 A 
HETATM   17  C   UNL     1      -3.141   5.241 -35.027  1.00  0.00     0.001 A 
HETATM   18  C   UNL     1      -1.802   5.359 -34.695  1.00  0.00     0.001 A 
BRANCH  12  19
HETATM   19  N   UNL     1      -0.693   5.867 -30.567  1.00  0.00    -0.273 NA
HETATM   20  H   UNL     1      -0.495   5.210 -29.810  1.00  0.00     0.129 HD
BRANCH  19  21
HETATM   21  C   UNL     1      -0.016   7.139 -30.310  1.00  0.00     0.132 C 
BRANCH  21  22
HETATM   22  C   UNL     1       0.380   7.274 -28.862  1.00  0.00    -0.045 A 
HETATM   23  C   UNL     1       1.275   8.276 -28.457  1.00  0.00     0.008 A 
HETATM   24  C   UNL     1       1.630   8.405 -27.114  1.00  0.00     0.001 A 
HETATM   25  C   UNL     1       1.084   7.549 -26.159  1.00  0.00     0.000 A 
HETATM   26  C   UNL     1       0.175   6.567 -26.543  1.00  0.00     0.001 A 
HETATM   27  C   UNL     1      -0.179   6.432 -27.885  1.00  0.00     0.008 A 
ENDBRANCH  21  22
ENDBRANCH  19  21
ENDBRANCH  12  19
ENDBRANCH   5   8
BRANCH   3  28
HETATM   28  S   UNL     1      -8.313   1.895 -32.551  1.00  0.00     0.242 S 
HETATM   29  O   UNL     1      -9.036   1.357 -31.419  1.00  0.00    -0.206 OA
HETATM   30  O   UNL     1      -8.830   1.804 -33.894  1.00  0.00    -0.206 OA
BRANCH  28  31
HETATM   31  N   UNL     1      -6.760   1.205 -32.564  1.00  0.00    -0.208 NA
HETATM   32  H   UNL     1      -6.743   0.349 -32.006  1.00  0.00     0.140 HD
BRANCH  31  33
HETATM   33  C   UNL     1      -6.194   1.006 -33.908  1.00  0.00     0.182 C 
BRANCH  33  34
HETATM   34  C   UNL     1      -5.868  -0.435 -34.092  1.00  0.00     0.119 A 
HETATM   35  N   UNL     1      -4.744  -1.040 -33.752  1.00  0.00    -0.232 NA
HETATM   36  C   UNL     1      -4.940  -2.368 -34.055  1.00  0.00     0.085 A 
HETATM   37  C   UNL     1      -6.197  -2.570 -34.616  1.00  0.00     0.062 A 
HETATM   38  C   UNL     1      -4.090  -3.469 -33.873  1.00  0.00     0.034 A 
HETATM   39  N   UNL     1      -6.761  -1.321 -34.643  1.00  0.00    -0.342 N 
HETATM   40  C   UNL     1      -6.667  -3.821 -35.018  1.00  0.00     0.032 A 
HETATM   41  H   UNL     1      -7.680  -1.089 -34.997  1.00  0.00     0.167 HD
HETATM   42  C   UNL     1      -5.806  -4.907 -34.826  1.00  0.00     0.002 A 
HETATM   43  C   UNL     1      -4.538  -4.738 -34.261  1.00  0.00     0.002 A 
ENDBRANCH  33  34
ENDBRANCH  31  33
ENDBRANCH  28  31
ENDBRANCH   3  28
TORSDOF 8
ENDMDL
MODEL 4
REMARK VINA RESULT:      -9.6      3.701      8.080
REMARK  8 active torsions:
REMARK  status: ('A' for Active; 'I' for Inactive)
REMARK    1  A    between atoms: C_3  and  S_4 
REMARK    2  A    between atoms: S_4  and  N_5 
REMARK    3  A    between atoms: N_5  and  C_6 
REMARK    4  A    between atoms: C_6  and  C_7 
REMARK    5  A    between atoms: C_20  and  C_21 
REMARK    6  A    between atoms: C_25  and  N_26 
REMARK    7  A    between atoms: N_26  and  C_27 
REMARK    8  A    between atoms: C_27  and  C_28 
ROOT
HETATM    1  C   UNL     1      -1.459   6.935 -33.752  1.00  0.00     0.050 C 
HETATM    2  C   UNL     1      -2.787   6.230 -33.746  1.00  0.00    -0.039 A 
HETATM    3  C   UNL     1      -3.696   6.266 -32.677  1.00  0.00     0.081 A 
HETATM    4  C   UNL     1      -4.899   5.533 -32.741  1.00  0.00     0.039 A 
HETATM    5  C   UNL     1      -5.267   4.812 -33.889  1.00  0.00    -0.003 A 
HETATM    6  C   UNL     1      -4.366   4.812 -34.963  1.00  0.00     0.014 A 
HETATM    7  C   UNL     1      -3.141   5.485 -34.884  1.00  0.00     0.009 A 
ENDROOT
BRANCH   5   8
HETATM    8  C   UNL     1      -6.601   4.184 -33.987  1.00  0.00     0.098 C 
HETATM    9  N   UNL     1      -7.598   5.090 -34.033  1.00  0.00    -0.172 NA
HETATM   10  N   UNL     1      -8.834   4.683 -34.248  1.00  0.00    -0.266 N 
HETATM   11  H   UNL     1      -9.567   5.385 -34.215  1.00  0.00     0.190 HD
HETATM   12  C   UNL     1      -9.175   3.409 -34.509  1.00  0.00     0.108 C 
HETATM   13  C   UNL     1      -8.174   2.410 -34.349  1.00  0.00     0.016 A 
HETATM   14  C   UNL     1      -6.847   2.806 -34.075  1.00  0.00     0.009 A 
HETATM   15  C   UNL     1      -8.451   1.023 -34.448  1.00  0.00     0.016 A 
HETATM   16  C   UNL     1      -5.858   1.805 -33.893  1.00  0.00     0.015 A 
HETATM   17  C   UNL     1      -6.160   0.449 -34.002  1.00  0.00     0.001 A 
HETATM   18  C   UNL     1      -7.458   0.057 -34.282  1.00  0.00     0.001 A 
BRANCH  12  19
HETATM   19  N   UNL     1     -10.493   3.059 -34.833  1.00  0.00    -0.273 NA
HETATM   20  H   UNL     1     -10.754   3.446 -35.741  1.00  0.00     0.129 HD
BRANCH  19  21
HETATM   21  C   UNL     1     -11.608   3.198 -33.895  1.00  0.00     0.132 C 
BRANCH  21  22
HETATM   22  C   UNL     1     -12.476   1.965 -33.879  1.00  0.00    -0.045 A 
HETATM   23  C   UNL     1     -11.941   0.721 -33.514  1.00  0.00     0.008 A 
HETATM   24  C   UNL     1     -12.749  -0.416 -33.490  1.00  0.00     0.001 A 
HETATM   25  C   UNL     1     -14.102  -0.321 -33.812  1.00  0.00     0.000 A 
HETATM   26  C   UNL     1     -14.652   0.912 -34.152  1.00  0.00     0.001 A 
HETATM   27  C   UNL     1     -13.846   2.050 -34.181  1.00  0.00     0.008 A 
ENDBRANCH  21  22
ENDBRANCH  19  21
ENDBRANCH  12  19
ENDBRANCH   5   8
BRANCH   3  28
HETATM   28  S   UNL     1      -3.439   7.245 -31.194  1.00  0.00     0.242 S 
HETATM   29  O   UNL     1      -2.485   6.538 -30.367  1.00  0.00    -0.206 OA
HETATM   30  O   UNL     1      -3.247   8.626 -31.564  1.00  0.00    -0.206 OA
BRANCH  28  31
HETATM   31  N   UNL     1      -4.966   7.131 -30.457  1.00  0.00    -0.208 NA
HETATM   32  H   UNL     1      -5.675   6.860 -31.141  1.00  0.00     0.140 HD
BRANCH  31  33
HETATM   33  C   UNL     1      -4.998   6.284 -29.254  1.00  0.00     0.182 C 
BRANCH  33  34
HETATM   34  C   UNL     1      -5.684   5.002 -29.577  1.00  0.00     0.119 A 
HETATM   35  N   UNL     1      -6.936   4.853 -29.968  1.00  0.00    -0.232 NA
HETATM   36  C   UNL     1      -7.084   3.506 -30.208  1.00  0.00     0.085 A 
HETATM   37  C   UNL     1      -5.906   2.819 -29.931  1.00  0.00     0.062 A 
HETATM   38  C   UNL     1      -8.197   2.790 -30.673  1.00  0.00     0.034 A 
HETATM   39  N   UNL     1      -5.035   3.792 -29.516  1.00  0.00    -0.342 N 
HETATM   40  C   UNL     1      -5.767   1.439 -30.087  1.00  0.00     0.032 A 
HETATM   41  H   UNL     1      -4.077   3.650 -29.224  1.00  0.00     0.167 HD
HETATM   42  C   UNL     1      -6.888   0.743 -30.555  1.00  0.00     0.002 A 
HETATM   43  C   UNL     1      -8.084   1.405 -30.846  1.00  0.00     0.002 A 
ENDBRANCH  33  34
ENDBRANCH  31  33
ENDBRANCH  28  31
ENDBRANCH   3  28
TORSDOF 8
ENDMDL
MODEL 5
REMARK VINA RESULT:      -9.5      4.846      8.622
REMARK  8 active torsions:
REMARK  status: ('A' for Active; 'I' for Inactive)
REMARK    1  A    between atoms: C_3  and  S_4 
REMARK    2  A    between atoms: S_4  and  N_5 
REMARK    3  A    between atoms: N_5  and  C_6 
REMARK    4  A    between atoms: C_6  and  C_7 
REMARK    5  A    between atoms: C_20  and  C_21 
REMARK    6  A    between atoms: C_25  and  N_26 
REMARK    7  A    between atoms: N_26  and  C_27 
REMARK    8  A    between atoms: C_27  and  C_28 
ROOT
HETATM    1  C   UNL     1      -4.640  10.331 -27.666  1.00  0.00     0.050 C 
HETATM    2  C   UNL     1      -4.852   8.976 -28.282  1.00  0.00    -0.039 A 
HETATM    3  C   UNL     1      -3.884   7.960 -28.309  1.00  0.00     0.081 A 
HETATM    4  C   UNL     1      -4.156   6.736 -28.952  1.00  0.00     0.039 A 
HETATM    5  C   UNL     1      -5.413   6.457 -29.514  1.00  0.00    -0.003 A 
HETATM    6  C   UNL     1      -6.382   7.468 -29.450  1.00  0.00     0.014 A 
HETATM    7  C   UNL     1      -6.100   8.710 -28.870  1.00  0.00     0.009 A 
ENDROOT
BRANCH   5   8
HETATM    8  C   UNL     1      -5.719   5.111 -30.041  1.00  0.00     0.098 C 
HETATM    9  N   UNL     1      -5.918   4.204 -29.063  1.00  0.00    -0.172 NA
HETATM   10  N   UNL     1      -6.324   2.990 -29.379  1.00  0.00    -0.266 N 
HETATM   11  H   UNL     1      -6.404   2.315 -28.623  1.00  0.00     0.190 HD
HETATM   12  C   UNL     1      -6.639   2.598 -30.626  1.00  0.00     0.108 C 
HETATM   13  C   UNL     1      -6.327   3.484 -31.695  1.00  0.00     0.016 A 
HETATM   14  C   UNL     1      -5.849   4.778 -31.397  1.00  0.00     0.009 A 
HETATM   15  C   UNL     1      -6.471   3.121 -33.059  1.00  0.00     0.016 A 
HETATM   16  C   UNL     1      -5.517   5.648 -32.468  1.00  0.00     0.015 A 
HETATM   17  C   UNL     1      -5.675   5.265 -33.799  1.00  0.00     0.001 A 
HETATM   18  C   UNL     1      -6.156   4.001 -34.094  1.00  0.00     0.001 A 
BRANCH  12  19
HETATM   19  N   UNL     1      -7.165   1.324 -30.879  1.00  0.00    -0.273 NA
HETATM   20  H   UNL     1      -8.031   1.184 -30.355  1.00  0.00     0.129 HD
BRANCH  19  21
HETATM   21  C   UNL     1      -6.356   0.105 -30.837  1.00  0.00     0.132 C 
BRANCH  21  22
HETATM   22  C   UNL     1      -6.233  -0.526 -32.201  1.00  0.00    -0.045 A 
HETATM   23  C   UNL     1      -5.042  -1.160 -32.588  1.00  0.00     0.008 A 
HETATM   24  C   UNL     1      -4.935  -1.752 -33.847  1.00  0.00     0.001 A 
HETATM   25  C   UNL     1      -6.018  -1.733 -34.725  1.00  0.00     0.000 A 
HETATM   26  C   UNL     1      -7.213  -1.129 -34.343  1.00  0.00     0.001 A 
HETATM   27  C   UNL     1      -7.322  -0.533 -33.087  1.00  0.00     0.008 A 
ENDBRANCH  21  22
ENDBRANCH  19  21
ENDBRANCH  12  19
ENDBRANCH   5   8
BRANCH   3  28
HETATM   28  S   UNL     1      -2.277   8.105 -27.521  1.00  0.00     0.242 S 
HETATM   29  O   UNL     1      -1.556   9.161 -28.199  1.00  0.00    -0.206 OA
HETATM   30  O   UNL     1      -2.448   8.101 -26.089  1.00  0.00    -0.206 OA
BRANCH  28  31
HETATM   31  N   UNL     1      -1.568   6.621 -27.946  1.00  0.00    -0.208 NA
HETATM   32  H   UNL     1      -2.272   5.982 -28.322  1.00  0.00     0.140 HD
BRANCH  31  33
HETATM   33  C   UNL     1      -0.394   6.738 -28.826  1.00  0.00     0.182 C 
BRANCH  33  34
HETATM   34  C   UNL     1      -0.794   6.403 -30.221  1.00  0.00     0.119 A 
HETATM   35  N   UNL     1      -0.568   7.126 -31.303  1.00  0.00    -0.232 NA
HETATM   36  C   UNL     1      -1.059   6.378 -32.349  1.00  0.00     0.085 A 
HETATM   37  C   UNL     1      -1.620   5.190 -31.890  1.00  0.00     0.062 A 
HETATM   38  C   UNL     1      -1.057   6.644 -33.726  1.00  0.00     0.034 A 
HETATM   39  N   UNL     1      -1.452   5.237 -30.531  1.00  0.00    -0.342 N 
HETATM   40  C   UNL     1      -2.192   4.236 -32.733  1.00  0.00     0.032 A 
HETATM   41  H   UNL     1      -1.751   4.534 -29.868  1.00  0.00     0.167 HD
HETATM   42  C   UNL     1      -2.178   4.518 -34.104  1.00  0.00     0.002 A 
HETATM   43  C   UNL     1      -1.619   5.701 -34.595  1.00  0.00     0.002 A 
ENDBRANCH  33  34
ENDBRANCH  31  33
ENDBRANCH  28  31
ENDBRANCH   3  28
TORSDOF 8
ENDMDL
MODEL 6
REMARK VINA RESULT:      -9.5      4.972      8.767
REMARK  8 active torsions:
REMARK  status: ('A' for Active; 'I' for Inactive)
REMARK    1  A    between atoms: C_3  and  S_4 
REMARK    2  A    between atoms: S_4  and  N_5 
REMARK    3  A    between atoms: N_5  and  C_6 
REMARK    4  A    between atoms: C_6  and  C_7 
REMARK    5  A    between atoms: C_20  and  C_21 
REMARK    6  A    between atoms: C_25  and  N_26 
REMARK    7  A    between atoms: N_26  and  C_27 
REMARK    8  A    between atoms: C_27  and  C_28 
ROOT
HETATM    1  C   UNL     1      -6.925   9.971 -27.155  1.00  0.00     0.050 C 
HETATM    2  C   UNL     1      -6.620   8.615 -27.729  1.00  0.00    -0.039 A 
HETATM    3  C   UNL     1      -5.533   7.817 -27.336  1.00  0.00     0.081 A 
HETATM    4  C   UNL     1      -5.296   6.579 -27.965  1.00  0.00     0.039 A 
HETATM    5  C   UNL     1      -6.168   6.063 -28.938  1.00  0.00    -0.003 A 
HETATM    6  C   UNL     1      -7.269   6.854 -29.296  1.00  0.00     0.014 A 
HETATM    7  C   UNL     1      -7.477   8.114 -28.723  1.00  0.00     0.009 A 
ENDROOT
BRANCH   5   8
HETATM    8  C   UNL     1      -5.983   4.695 -29.465  1.00  0.00     0.098 C 
HETATM    9  N   UNL     1      -6.923   3.837 -29.020  1.00  0.00    -0.172 NA
HETATM   10  N   UNL     1      -6.961   2.611 -29.505  1.00  0.00    -0.266 N 
HETATM   11  H   UNL     1      -7.642   1.973 -29.102  1.00  0.00     0.190 HD
HETATM   12  C   UNL     1      -6.164   2.162 -30.490  1.00  0.00     0.108 C 
HETATM   13  C   UNL     1      -5.085   2.994 -30.899  1.00  0.00     0.016 A 
HETATM   14  C   UNL     1      -4.986   4.299 -30.368  1.00  0.00     0.009 A 
HETATM   15  C   UNL     1      -4.092   2.569 -31.817  1.00  0.00     0.016 A 
HETATM   16  C   UNL     1      -3.894   5.116 -30.761  1.00  0.00     0.015 A 
HETATM   17  C   UNL     1      -2.937   4.671 -31.671  1.00  0.00     0.001 A 
HETATM   18  C   UNL     1      -3.037   3.397 -32.202  1.00  0.00     0.001 A 
BRANCH  12  19
HETATM   19  N   UNL     1      -6.327   0.880 -31.032  1.00  0.00    -0.273 NA
HETATM   20  H   UNL     1      -5.433   0.386 -31.060  1.00  0.00     0.129 HD
BRANCH  19  21
HETATM   21  C   UNL     1      -7.073   0.624 -32.265  1.00  0.00     0.132 C 
BRANCH  21  22
HETATM   22  C   UNL     1      -6.467  -0.508 -33.056  1.00  0.00    -0.045 A 
HETATM   23  C   UNL     1      -7.265  -1.295 -33.900  1.00  0.00     0.008 A 
HETATM   24  C   UNL     1      -6.699  -2.335 -34.638  1.00  0.00     0.001 A 
HETATM   25  C   UNL     1      -5.331  -2.589 -34.556  1.00  0.00     0.000 A 
HETATM   26  C   UNL     1      -4.524  -1.800 -33.741  1.00  0.00     0.001 A 
HETATM   27  C   UNL     1      -5.086  -0.762 -32.999  1.00  0.00     0.008 A 
ENDBRANCH  21  22
ENDBRANCH  19  21
ENDBRANCH  12  19
ENDBRANCH   5   8
BRANCH   3  28
HETATM   28  S   UNL     1      -4.403   8.269 -26.017  1.00  0.00     0.242 S 
HETATM   29  O   UNL     1      -3.630   9.403 -26.475  1.00  0.00    -0.206 OA
HETATM   30  O   UNL     1      -5.119   8.295 -24.765  1.00  0.00    -0.206 OA
BRANCH  28  31
HETATM   31  N   UNL     1      -3.381   6.912 -25.981  1.00  0.00    -0.208 NA
HETATM   32  H   UNL     1      -3.634   6.253 -26.720  1.00  0.00     0.140 HD
BRANCH  31  33
HETATM   33  C   UNL     1      -1.944   7.232 -25.988  1.00  0.00     0.182 C 
BRANCH  33  34
HETATM   34  C   UNL     1      -1.384   6.934 -27.335  1.00  0.00     0.119 A 
HETATM   35  N   UNL     1      -1.580   7.625 -28.443  1.00  0.00    -0.232 NA
HETATM   36  C   UNL     1      -0.809   7.005 -29.400  1.00  0.00     0.085 A 
HETATM   37  C   UNL     1      -0.153   5.899 -28.870  1.00  0.00     0.062 A 
HETATM   38  C   UNL     1      -0.612   7.334 -30.749  1.00  0.00     0.034 A 
HETATM   39  N   UNL     1      -0.548   5.867 -27.558  1.00  0.00    -0.342 N 
HETATM   40  C   UNL     1       0.700   5.083 -29.614  1.00  0.00     0.032 A 
HETATM   41  H   UNL     1      -0.267   5.182 -26.867  1.00  0.00     0.167 HD
HETATM   42  C   UNL     1       0.887   5.429 -30.957  1.00  0.00     0.002 A 
HETATM   43  C   UNL     1       0.245   6.536 -31.518  1.00  0.00     0.002 A 
ENDBRANCH  33  34
ENDBRANCH  31  33
ENDBRANCH  28  31
ENDBRANCH   3  28
TORSDOF 8
ENDMDL
MODEL 7
REMARK VINA RESULT:      -9.4      4.853      8.955
REMARK  8 active torsions:
REMARK  status: ('A' for Active; 'I' for Inactive)
REMARK    1  A    between atoms: C_3  and  S_4 
REMARK    2  A    between atoms: S_4  and  N_5 
REMARK    3  A    between atoms: N_5  and  C_6 
REMARK    4  A    between atoms: C_6  and  C_7 
REMARK    5  A    between atoms: C_20  and  C_21 
REMARK    6  A    between atoms: C_25  and  N_26 
REMARK    7  A    between atoms: N_26  and  C_27 
REMARK    8  A    between atoms: C_27  and  C_28 
ROOT
HETATM    1  C   UNL     1       1.048   8.188 -28.606  1.00  0.00     0.050 C 
HETATM    2  C   UNL     1       0.014   7.358 -29.315  1.00  0.00    -0.039 A 
HETATM    3  C   UNL     1      -1.173   6.899 -28.723  1.00  0.00     0.081 A 
HETATM    4  C   UNL     1      -2.063   6.084 -29.452  1.00  0.00     0.039 A 
HETATM    5  C   UNL     1      -1.841   5.769 -30.802  1.00  0.00    -0.003 A 
HETATM    6  C   UNL     1      -0.668   6.261 -31.392  1.00  0.00     0.014 A 
HETATM    7  C   UNL     1       0.252   7.018 -30.658  1.00  0.00     0.009 A 
ENDROOT
BRANCH   5   8
HETATM    8  C   UNL     1      -2.866   5.045 -31.584  1.00  0.00     0.098 C 
HETATM    9  N   UNL     1      -2.457   3.818 -31.963  1.00  0.00    -0.172 NA
HETATM   10  N   UNL     1      -3.310   3.007 -32.558  1.00  0.00    -0.266 N 
HETATM   11  H   UNL     1      -2.951   2.114 -32.886  1.00  0.00     0.190 HD
HETATM   12  C   UNL     1      -4.611   3.286 -32.751  1.00  0.00     0.108 C 
HETATM   13  C   UNL     1      -5.050   4.612 -32.476  1.00  0.00     0.016 A 
HETATM   14  C   UNL     1      -4.152   5.522 -31.879  1.00  0.00     0.009 A 
HETATM   15  C   UNL     1      -6.358   5.066 -32.782  1.00  0.00     0.016 A 
HETATM   16  C   UNL     1      -4.587   6.849 -31.629  1.00  0.00     0.015 A 
HETATM   17  C   UNL     1      -5.882   7.264 -31.935  1.00  0.00     0.001 A 
HETATM   18  C   UNL     1      -6.769   6.371 -32.510  1.00  0.00     0.001 A 
BRANCH  12  19
HETATM   19  N   UNL     1      -5.487   2.339 -33.295  1.00  0.00    -0.273 NA
HETATM   20  H   UNL     1      -6.252   2.800 -33.792  1.00  0.00     0.129 HD
BRANCH  19  21
HETATM   21  C   UNL     1      -6.005   1.201 -32.533  1.00  0.00     0.132 C 
BRANCH  21  22
HETATM   22  C   UNL     1      -5.873  -0.089 -33.303  1.00  0.00    -0.045 A 
HETATM   23  C   UNL     1      -4.657  -0.788 -33.319  1.00  0.00     0.008 A 
HETATM   24  C   UNL     1      -4.541  -1.987 -34.023  1.00  0.00     0.001 A 
HETATM   25  C   UNL     1      -5.640  -2.509 -34.703  1.00  0.00     0.000 A 
HETATM   26  C   UNL     1      -6.860  -1.838 -34.675  1.00  0.00     0.001 A 
HETATM   27  C   UNL     1      -6.978  -0.637 -33.976  1.00  0.00     0.008 A 
ENDBRANCH  21  22
ENDBRANCH  19  21
ENDBRANCH  12  19
ENDBRANCH   5   8
BRANCH   3  28
HETATM   28  S   UNL     1      -1.670   7.324 -27.051  1.00  0.00     0.242 S 
HETATM   29  O   UNL     1      -0.671   6.789 -26.152  1.00  0.00    -0.206 OA
HETATM   30  O   UNL     1      -2.065   8.711 -27.010  1.00  0.00    -0.206 OA
BRANCH  28  31
HETATM   31  N   UNL     1      -3.084   6.396 -26.884  1.00  0.00    -0.208 NA
HETATM   32  H   UNL     1      -2.980   5.717 -26.126  1.00  0.00     0.140 HD
BRANCH  31  33
HETATM   33  C   UNL     1      -4.320   7.186 -26.759  1.00  0.00     0.182 C 
BRANCH  33  34
HETATM   34  C   UNL     1      -5.413   6.505 -27.506  1.00  0.00     0.119 A 
HETATM   35  N   UNL     1      -6.612   6.990 -27.768  1.00  0.00    -0.232 NA
HETATM   36  C   UNL     1      -7.235   6.029 -28.532  1.00  0.00     0.085 A 
HETATM   37  C   UNL     1      -6.407   4.925 -28.713  1.00  0.00     0.062 A 
HETATM   38  C   UNL     1      -8.510   6.029 -29.116  1.00  0.00     0.034 A 
HETATM   39  N   UNL     1      -5.260   5.247 -28.037  1.00  0.00    -0.342 N 
HETATM   40  C   UNL     1      -6.779   3.799 -29.450  1.00  0.00     0.032 A 
HETATM   41  H   UNL     1      -4.436   4.665 -27.949  1.00  0.00     0.167 HD
HETATM   42  C   UNL     1      -8.054   3.819 -30.027  1.00  0.00     0.002 A 
HETATM   43  C   UNL     1      -8.907   4.915 -29.866  1.00  0.00     0.002 A 
ENDBRANCH  33  34
ENDBRANCH  31  33
ENDBRANCH  28  31
ENDBRANCH   3  28
TORSDOF 8
ENDMDL
MODEL 8
REMARK VINA RESULT:      -9.3      4.178      7.358
REMARK  8 active torsions:
REMARK  status: ('A' for Active; 'I' for Inactive)
REMARK    1  A    between atoms: C_3  and  S_4 
REMARK    2  A    between atoms: S_4  and  N_5 
REMARK    3  A    between atoms: N_5  and  C_6 
REMARK    4  A    between atoms: C_6  and  C_7 
REMARK    5  A    between atoms: C_20  and  C_21 
REMARK    6  A    between atoms: C_25  and  N_26 
REMARK    7  A    between atoms: N_26  and  C_27 
REMARK    8  A    between atoms: C_27  and  C_28 
ROOT
HETATM    1  C   UNL     1      -9.460   3.430 -32.394  1.00  0.00     0.050 C 
HETATM    2  C   UNL     1      -8.461   4.007 -31.431  1.00  0.00    -0.039 A 
HETATM    3  C   UNL     1      -7.140   3.551 -31.294  1.00  0.00     0.081 A 
HETATM    4  C   UNL     1      -6.287   4.121 -30.328  1.00  0.00     0.039 A 
HETATM    5  C   UNL     1      -6.689   5.204 -29.531  1.00  0.00    -0.003 A 
HETATM    6  C   UNL     1      -8.000   5.674 -29.701  1.00  0.00     0.014 A 
HETATM    7  C   UNL     1      -8.875   5.072 -30.613  1.00  0.00     0.009 A 
ENDROOT
BRANCH   5   8
HETATM    8  C   UNL     1      -5.725   5.883 -28.640  1.00  0.00     0.098 C 
HETATM    9  N   UNL     1      -5.705   5.354 -27.400  1.00  0.00    -0.172 NA
HETATM   10  N   UNL     1      -4.805   5.772 -26.532  1.00  0.00    -0.266 N 
HETATM   11  H   UNL     1      -4.859   5.397 -25.589  1.00  0.00     0.190 HD
HETATM   12  C   UNL     1      -3.829   6.652 -26.819  1.00  0.00     0.108 C 
HETATM   13  C   UNL     1      -3.890   7.320 -28.074  1.00  0.00     0.016 A 
HETATM   14  C   UNL     1      -4.869   6.929 -29.013  1.00  0.00     0.009 A 
HETATM   15  C   UNL     1      -3.009   8.374 -28.426  1.00  0.00     0.016 A 
HETATM   16  C   UNL     1      -4.941   7.616 -30.253  1.00  0.00     0.015 A 
HETATM   17  C   UNL     1      -4.056   8.644 -30.572  1.00  0.00     0.001 A 
HETATM   18  C   UNL     1      -3.087   9.022 -29.659  1.00  0.00     0.001 A 
BRANCH  12  19
HETATM   19  N   UNL     1      -2.840   6.975 -25.881  1.00  0.00    -0.273 NA
HETATM   20  H   UNL     1      -2.704   7.987 -25.837  1.00  0.00     0.129 HD
BRANCH  19  21
HETATM   21  C   UNL     1      -1.544   6.298 -25.824  1.00  0.00     0.132 C 
BRANCH  21  22
HETATM   22  C   UNL     1      -0.473   7.089 -26.531  1.00  0.00    -0.045 A 
HETATM   23  C   UNL     1       0.067   6.634 -27.743  1.00  0.00     0.008 A 
HETATM   24  C   UNL     1       1.051   7.374 -28.401  1.00  0.00     0.001 A 
HETATM   25  C   UNL     1       1.492   8.583 -27.866  1.00  0.00     0.000 A 
HETATM   26  C   UNL     1       0.947   9.059 -26.677  1.00  0.00     0.001 A 
HETATM   27  C   UNL     1      -0.033   8.320 -26.015  1.00  0.00     0.008 A 
ENDBRANCH  21  22
ENDBRANCH  19  21
ENDBRANCH  12  19
ENDBRANCH   5   8
BRANCH   3  28
HETATM   28  S   UNL     1      -6.428   2.266 -32.327  1.00  0.00     0.242 S 
HETATM   29  O   UNL     1      -7.221   1.070 -32.141  1.00  0.00    -0.206 OA
HETATM   30  O   UNL     1      -6.160   2.804 -33.638  1.00  0.00    -0.206 OA
BRANCH  28  31
HETATM   31  N   UNL     1      -4.927   2.029 -31.566  1.00  0.00    -0.208 NA
HETATM   32  H   UNL     1      -4.946   1.185 -30.990  1.00  0.00     0.140 HD
BRANCH  31  33
HETATM   33  C   UNL     1      -3.772   2.055 -32.479  1.00  0.00     0.182 C 
BRANCH  33  34
HETATM   34  C   UNL     1      -3.092   3.375 -32.368  1.00  0.00     0.119 A 
HETATM   35  N   UNL     1      -2.173   3.718 -31.483  1.00  0.00    -0.232 NA
HETATM   36  C   UNL     1      -1.803   5.000 -31.822  1.00  0.00     0.085 A 
HETATM   37  C   UNL     1      -2.531   5.454 -32.917  1.00  0.00     0.062 A 
HETATM   38  C   UNL     1      -0.843   5.843 -31.244  1.00  0.00     0.034 A 
HETATM   39  N   UNL     1      -3.355   4.407 -33.236  1.00  0.00    -0.342 N 
HETATM   40  C   UNL     1      -2.362   6.721 -33.479  1.00  0.00     0.032 A 
HETATM   41  H   UNL     1      -4.035   4.389 -33.984  1.00  0.00     0.167 HD
HETATM   42  C   UNL     1      -1.397   7.546 -32.890  1.00  0.00     0.002 A 
HETATM   43  C   UNL     1      -0.647   7.117 -31.792  1.00  0.00     0.002 A 
ENDBRANCH  33  34
ENDBRANCH  31  33
ENDBRANCH  28  31
ENDBRANCH   3  28
TORSDOF 8
ENDMDL
MODEL 9
REMARK VINA RESULT:      -9.3      3.762      7.707
REMARK  8 active torsions:
REMARK  status: ('A' for Active; 'I' for Inactive)
REMARK    1  A    between atoms: C_3  and  S_4 
REMARK    2  A    between atoms: S_4  and  N_5 
REMARK    3  A    between atoms: N_5  and  C_6 
REMARK    4  A    between atoms: C_6  and  C_7 
REMARK    5  A    between atoms: C_20  and  C_21 
REMARK    6  A    between atoms: C_25  and  N_26 
REMARK    7  A    between atoms: N_26  and  C_27 
REMARK    8  A    between atoms: C_27  and  C_28 
ROOT
HETATM    1  C   UNL     1      -4.286  -3.323 -34.132  1.00  0.00     0.050 C 
HETATM    2  C   UNL     1      -5.214  -2.140 -34.112  1.00  0.00    -0.039 A 
HETATM    3  C   UNL     1      -4.979  -0.965 -33.380  1.00  0.00     0.081 A 
HETATM    4  C   UNL     1      -5.930   0.076 -33.382  1.00  0.00     0.039 A 
HETATM    5  C   UNL     1      -7.094   0.015 -34.166  1.00  0.00    -0.003 A 
HETATM    6  C   UNL     1      -7.300  -1.150 -34.919  1.00  0.00     0.014 A 
HETATM    7  C   UNL     1      -6.392  -2.215 -34.873  1.00  0.00     0.009 A 
ENDROOT
BRANCH   5   8
HETATM    8  C   UNL     1      -7.992   1.183 -34.270  1.00  0.00     0.098 C 
HETATM    9  N   UNL     1      -9.263   0.835 -34.559  1.00  0.00    -0.172 NA
HETATM   10  N   UNL     1     -10.203   1.760 -34.559  1.00  0.00    -0.266 N 
HETATM   11  H   UNL     1     -11.136   1.474 -34.841  1.00  0.00     0.190 HD
HETATM   12  C   UNL     1     -10.003   3.042 -34.208  1.00  0.00     0.108 C 
HETATM   13  C   UNL     1      -8.660   3.473 -34.016  1.00  0.00     0.016 A 
HETATM   14  C   UNL     1      -7.621   2.518 -34.053  1.00  0.00     0.009 A 
HETATM   15  C   UNL     1      -8.313   4.830 -33.795  1.00  0.00     0.016 A 
HETATM   16  C   UNL     1      -6.282   2.957 -33.885  1.00  0.00     0.015 A 
HETATM   17  C   UNL     1      -5.974   4.298 -33.663  1.00  0.00     0.001 A 
HETATM   18  C   UNL     1      -6.991   5.235 -33.614  1.00  0.00     0.001 A 
BRANCH  12  19
HETATM   19  N   UNL     1     -11.066   3.951 -34.128  1.00  0.00    -0.273 NA
HETATM   20  H   UNL     1     -11.230   4.227 -33.158  1.00  0.00     0.129 HD
BRANCH  19  21
HETATM   21  C   UNL     1     -12.346   3.743 -34.808  1.00  0.00     0.132 C 
BRANCH  21  22
HETATM   22  C   UNL     1     -13.364   3.112 -33.892  1.00  0.00    -0.045 A 
HETATM   23  C   UNL     1     -13.841   3.806 -32.769  1.00  0.00     0.008 A 
HETATM   24  C   UNL     1     -14.790   3.223 -31.930  1.00  0.00     0.001 A 
HETATM   25  C   UNL     1     -15.288   1.951 -32.211  1.00  0.00     0.000 A 
HETATM   26  C   UNL     1     -14.842   1.262 -33.335  1.00  0.00     0.001 A 
HETATM   27  C   UNL     1     -13.890   1.840 -34.174  1.00  0.00     0.008 A 
ENDBRANCH  21  22
ENDBRANCH  19  21
ENDBRANCH  12  19
ENDBRANCH   5   8
BRANCH   3  28
HETATM   28  S   UNL     1      -3.481  -0.672 -32.435  1.00  0.00     0.242 S 
HETATM   29  O   UNL     1      -3.374  -1.729 -31.452  1.00  0.00    -0.206 OA
HETATM   30  O   UNL     1      -2.401  -0.365 -33.340  1.00  0.00    -0.206 OA
BRANCH  28  31
HETATM   31  N   UNL     1      -3.880   0.766 -31.624  1.00  0.00    -0.208 NA
HETATM   32  H   UNL     1      -4.314   1.432 -32.267  1.00  0.00     0.140 HD
BRANCH  31  33
HETATM   33  C   UNL     1      -4.675   0.574 -30.400  1.00  0.00     0.182 C 
BRANCH  33  34
HETATM   34  C   UNL     1      -5.657   1.687 -30.276  1.00  0.00     0.119 A 
HETATM   35  N   UNL     1      -5.387   2.954 -30.022  1.00  0.00    -0.232 NA
HETATM   36  C   UNL     1      -6.600   3.602 -30.072  1.00  0.00     0.085 A 
HETATM   37  C   UNL     1      -7.632   2.706 -30.334  1.00  0.00     0.062 A 
HETATM   38  C   UNL     1      -6.903   4.962 -29.910  1.00  0.00     0.034 A 
HETATM   39  N   UNL     1      -7.007   1.492 -30.444  1.00  0.00    -0.342 N 
HETATM   40  C   UNL     1      -8.970   3.087 -30.443  1.00  0.00     0.032 A 
HETATM   41  H   UNL     1      -7.456   0.604 -30.627  1.00  0.00     0.167 HD
HETATM   42  C   UNL     1      -9.251   4.448 -30.281  1.00  0.00     0.002 A 
HETATM   43  C   UNL     1      -8.237   5.373 -30.021  1.00  0.00     0.002 A 
ENDBRANCH  33  34
ENDBRANCH  31  33
ENDBRANCH  28  31
ENDBRANCH   3  28
TORSDOF 8
ENDMDL
MODEL 10
REMARK VINA RESULT:      -9.1      1.856      4.390
REMARK  8 active torsions:
REMARK  status: ('A' for Active; 'I' for Inactive)
REMARK    1  A    between atoms: C_3  and  S_4 
REMARK    2  A    between atoms: S_4  and  N_5 
REMARK    3  A    between atoms: N_5  and  C_6 
REMARK    4  A    between atoms: C_6  and  C_7 
REMARK    5  A    between atoms: C_20  and  C_21 
REMARK    6  A    between atoms: C_25  and  N_26 
REMARK    7  A    between atoms: N_26  and  C_27 
REMARK    8  A    between atoms: C_27  and  C_28 
ROOT
HETATM    1  C   UNL     1     -14.210   1.721 -34.213  1.00  0.00     0.050 C 
HETATM    2  C   UNL     1     -12.776   1.548 -33.795  1.00  0.00    -0.039 A 
HETATM    3  C   UNL     1     -11.844   2.595 -33.716  1.00  0.00     0.081 A 
HETATM    4  C   UNL     1     -10.506   2.331 -33.361  1.00  0.00     0.039 A 
HETATM    5  C   UNL     1     -10.075   1.044 -33.001  1.00  0.00    -0.003 A 
HETATM    6  C   UNL     1     -11.023   0.012 -33.051  1.00  0.00     0.014 A 
HETATM    7  C   UNL     1     -12.339   0.254 -33.464  1.00  0.00     0.009 A 
ENDROOT
BRANCH   5   8
HETATM    8  C   UNL     1      -8.708   0.826 -32.483  1.00  0.00     0.098 C 
HETATM    9  N   UNL     1      -8.167  -0.329 -32.921  1.00  0.00    -0.172 NA
HETATM   10  N   UNL     1      -6.906  -0.598 -32.644  1.00  0.00    -0.266 N 
HETATM   11  H   UNL     1      -6.549  -1.504 -32.936  1.00  0.00     0.190 HD
HETATM   12  C   UNL     1      -6.073   0.246 -32.010  1.00  0.00     0.108 C 
HETATM   13  C   UNL     1      -6.636   1.417 -31.428  1.00  0.00     0.016 A 
HETATM   14  C   UNL     1      -7.995   1.716 -31.666  1.00  0.00     0.009 A 
HETATM   15  C   UNL     1      -5.890   2.302 -30.609  1.00  0.00     0.016 A 
HETATM   16  C   UNL     1      -8.557   2.871 -31.064  1.00  0.00     0.015 A 
HETATM   17  C   UNL     1      -7.796   3.725 -30.268  1.00  0.00     0.001 A 
HETATM   18  C   UNL     1      -6.460   3.442 -30.043  1.00  0.00     0.001 A 
BRANCH  12  19
HETATM   19  N   UNL     1      -4.717  -0.058 -31.840  1.00  0.00    -0.273 NA
HETATM   20  H   UNL     1      -4.255   0.660 -31.279  1.00  0.00     0.129 HD
BRANCH  19  21
HETATM   21  C   UNL     1      -3.845  -0.461 -32.946  1.00  0.00     0.132 C 
BRANCH  21  22
HETATM   22  C   UNL     1      -3.912  -1.947 -33.192  1.00  0.00    -0.045 A 
HETATM   23  C   UNL     1      -4.580  -2.454 -34.317  1.00  0.00     0.008 A 
HETATM   24  C   UNL     1      -4.631  -3.829 -34.548  1.00  0.00     0.001 A 
HETATM   25  C   UNL     1      -4.002  -4.710 -33.670  1.00  0.00     0.000 A 
HETATM   26  C   UNL     1      -3.314  -4.219 -32.564  1.00  0.00     0.001 A 
HETATM   27  C   UNL     1      -3.264  -2.846 -32.328  1.00  0.00     0.008 A 
ENDBRANCH  21  22
ENDBRANCH  19  21
ENDBRANCH  12  19
ENDBRANCH   5   8
BRANCH   3  28
HETATM   28  S   UNL     1     -12.264   4.315 -34.013  1.00  0.00     0.242 S 
HETATM   29  O   UNL     1     -12.146   4.551 -35.436  1.00  0.00    -0.206 OA
HETATM   30  O   UNL     1     -13.466   4.643 -33.286  1.00  0.00    -0.206 OA
BRANCH  28  31
HETATM   31  N   UNL     1     -10.977   5.106 -33.236  1.00  0.00    -0.208 NA
HETATM   32  H   UNL     1     -10.442   4.447 -32.667  1.00  0.00     0.140 HD
BRANCH  31  33
HETATM   33  C   UNL     1     -10.117   5.895 -34.134  1.00  0.00     0.182 C 
BRANCH  33  34
HETATM   34  C   UNL     1      -8.690   5.642 -33.790  1.00  0.00     0.119 A 
HETATM   35  N   UNL     1      -7.941   4.640 -34.212  1.00  0.00    -0.232 NA
HETATM   36  C   UNL     1      -6.692   4.872 -33.683  1.00  0.00     0.085 A 
HETATM   37  C   UNL     1      -6.689   6.022 -32.901  1.00  0.00     0.062 A 
HETATM   38  C   UNL     1      -5.502   4.145 -33.833  1.00  0.00     0.034 A 
HETATM   39  N   UNL     1      -7.976   6.485 -32.972  1.00  0.00    -0.342 N 
HETATM   40  C   UNL     1      -5.554   6.499 -32.243  1.00  0.00     0.032 A 
HETATM   41  H   UNL     1      -8.340   7.309 -32.512  1.00  0.00     0.167 HD
HETATM   42  C   UNL     1      -4.376   5.762 -32.406  1.00  0.00     0.002 A 
HETATM   43  C   UNL     1      -4.346   4.605 -33.189  1.00  0.00     0.002 A 
ENDBRANCH  33  34
ENDBRANCH  31  33
ENDBRANCH  28  31
ENDBRANCH   3  28
TORSDOF 8
ENDMDL
