MODEL 1
REMARK VINA RESULT:      -7.6      0.000      0.000
REMARK  7 active torsions:
REMARK  status: ('A' for Active; 'I' for Inactive)
REMARK    1  A    between atoms: O_2  and  C_3 
REMARK    2  A    between atoms: C_4  and  O_5 
REMARK    3  A    between atoms: C_6  and  C_7 
REMARK    4  A    between atoms: C_7  and  N_8 
REMARK    5  A    between atoms: C_11  and  C_12 
REMARK    6  A    between atoms: C_12  and  N_13 
REMARK    7  A    between atoms: N_13  and  C_14 
ROOT
HETATM    1  N   UNL     1      -7.155   1.265 -32.799  1.00  0.00    -0.067 N 
HETATM    2  H   UNL     1      -6.298   1.282 -32.212  1.00  0.00     0.280 HD
HETATM    3  C   UNL     1      -8.172   0.417 -32.076  1.00  0.00     0.241 C 
HETATM    4  C   UNL     1      -9.488   1.180 -32.200  1.00  0.00     0.026 C 
HETATM    5  C   UNL     1      -9.016   2.632 -32.132  1.00  0.00     0.035 C 
HETATM    6  C   UNL     1      -7.698   2.668 -32.894  1.00  0.00     0.235 C 
ENDROOT
BRANCH   1   7
HETATM    7  C   UNL     1      -6.637   0.729 -34.112  1.00  0.00     0.276 C 
BRANCH   7   8
HETATM    8  C   UNL     1      -5.982  -0.615 -34.004  1.00  0.00     0.005 A 
HETATM    9  C   UNL     1      -4.852  -0.796 -33.203  1.00  0.00     0.107 A 
HETATM   10  C   UNL     1      -4.179  -2.024 -33.130  1.00  0.00     0.103 A 
HETATM   11  C   UNL     1      -4.681  -3.113 -33.837  1.00  0.00     0.058 A 
HETATM   12  C   UNL     1      -5.824  -2.954 -34.622  1.00  0.00     0.014 A 
HETATM   13  C   UNL     1      -6.465  -1.717 -34.722  1.00  0.00     0.030 A 
HETATM   14 BR   UNL     1      -6.528  -4.433 -35.567  1.00  0.00    -0.051 Br
BRANCH   9  15
HETATM   15  O   UNL     1      -4.404   0.270 -32.461  1.00  0.00    -0.357 OA
HETATM   16  H   UNL     1      -4.777   0.118 -31.561  1.00  0.00     0.218 HD
ENDBRANCH   9  15
BRANCH  10  17
HETATM   17  O   UNL     1      -3.069  -2.022 -32.329  1.00  0.00    -0.353 OA
HETATM   18  C   UNL     1      -2.745  -3.261 -31.698  1.00  0.00     0.210 C 
ENDBRANCH  10  17
ENDBRANCH   7   8
ENDBRANCH   1   7
BRANCH   4  19
HETATM   19  C   UNL     1     -10.243   0.810 -33.490  1.00  0.00     0.100 C 
BRANCH  19  20
HETATM   20  N   UNL     1     -11.080   1.939 -33.944  1.00  0.00    -0.279 NA
HETATM   21  H   UNL     1     -10.937   2.061 -34.954  1.00  0.00     0.129 HD
BRANCH  20  22
HETATM   22  C   UNL     1     -12.450   1.724 -33.751  1.00  0.00     0.079 A 
HETATM   23  N   UNL     1     -13.039   2.426 -32.772  1.00  0.00    -0.357 N 
HETATM   24  H   UNL     1     -12.442   3.062 -32.247  1.00  0.00     0.166 HD
HETATM   25  C   UNL     1     -14.342   2.329 -32.473  1.00  0.00     0.089 A 
HETATM   26  C   UNL     1     -15.152   1.466 -33.198  1.00  0.00     0.017 A 
HETATM   27  C   UNL     1     -14.590   0.727 -34.235  1.00  0.00     0.005 A 
HETATM   28  C   UNL     1     -13.232   0.863 -34.521  1.00  0.00     0.042 A 
ENDBRANCH  20  22
ENDBRANCH  19  20
ENDBRANCH   4  19
TORSDOF 7
ENDMDL
MODEL 2
REMARK VINA RESULT:      -7.5      3.516      7.663
REMARK  7 active torsions:
REMARK  status: ('A' for Active; 'I' for Inactive)
REMARK    1  A    between atoms: O_2  and  C_3 
REMARK    2  A    between atoms: C_4  and  O_5 
REMARK    3  A    between atoms: C_6  and  C_7 
REMARK    4  A    between atoms: C_7  and  N_8 
REMARK    5  A    between atoms: C_11  and  C_12 
REMARK    6  A    between atoms: C_12  and  N_13 
REMARK    7  A    between atoms: N_13  and  C_14 
ROOT
HETATM    1  N   UNL     1      -7.168   1.461 -32.327  1.00  0.00    -0.067 N 
HETATM    2  H   UNL     1      -7.674   2.369 -32.337  1.00  0.00     0.280 HD
HETATM    3  C   UNL     1      -5.871   1.668 -33.068  1.00  0.00     0.241 C 
HETATM    4  C   UNL     1      -4.813   0.959 -32.226  1.00  0.00     0.026 C 
HETATM    5  C   UNL     1      -5.323   1.208 -30.808  1.00  0.00     0.035 C 
HETATM    6  C   UNL     1      -6.841   1.113 -30.897  1.00  0.00     0.235 C 
ENDROOT
BRANCH   1   7
HETATM    7  C   UNL     1      -8.169   0.526 -32.961  1.00  0.00     0.276 C 
BRANCH   7   8
HETATM    8  C   UNL     1      -9.421   1.203 -33.432  1.00  0.00     0.005 A 
HETATM    9  C   UNL     1     -10.663   0.577 -33.299  1.00  0.00     0.107 A 
HETATM   10  C   UNL     1     -11.844   1.156 -33.785  1.00  0.00     0.103 A 
HETATM   11  C   UNL     1     -11.787   2.416 -34.375  1.00  0.00     0.058 A 
HETATM   12  C   UNL     1     -10.556   3.064 -34.493  1.00  0.00     0.014 A 
HETATM   13  C   UNL     1      -9.378   2.463 -34.042  1.00  0.00     0.030 A 
HETATM   14 BR   UNL     1     -10.471   4.786 -35.269  1.00  0.00    -0.051 Br
BRANCH   9  15
HETATM   15  O   UNL     1     -10.713  -0.636 -32.659  1.00  0.00    -0.357 OA
HETATM   16  H   UNL     1     -10.510  -1.296 -33.362  1.00  0.00     0.218 HD
ENDBRANCH   9  15
BRANCH  10  17
HETATM   17  O   UNL     1     -12.969   0.397 -33.608  1.00  0.00    -0.353 OA
HETATM   18  C   UNL     1     -14.173   1.110 -33.324  1.00  0.00     0.210 C 
ENDBRANCH  10  17
ENDBRANCH   7   8
ENDBRANCH   1   7
BRANCH   4  19
HETATM   19  C   UNL     1      -4.680  -0.527 -32.610  1.00  0.00     0.100 C 
BRANCH  19  20
HETATM   20  N   UNL     1      -5.237  -0.767 -33.956  1.00  0.00    -0.279 NA
HETATM   21  H   UNL     1      -4.570  -0.409 -34.650  1.00  0.00     0.129 HD
BRANCH  20  22
HETATM   22  C   UNL     1      -5.431  -2.124 -34.241  1.00  0.00     0.079 A 
HETATM   23  N   UNL     1      -4.377  -2.934 -34.064  1.00  0.00    -0.357 N 
HETATM   24  H   UNL     1      -3.519  -2.497 -33.734  1.00  0.00     0.166 HD
HETATM   25  C   UNL     1      -4.412  -4.254 -34.293  1.00  0.00     0.089 A 
HETATM   26  C   UNL     1      -5.588  -4.845 -34.736  1.00  0.00     0.017 A 
HETATM   27  C   UNL     1      -6.713  -4.048 -34.920  1.00  0.00     0.005 A 
HETATM   28  C   UNL     1      -6.639  -2.680 -34.662  1.00  0.00     0.042 A 
ENDBRANCH  20  22
ENDBRANCH  19  20
ENDBRANCH   4  19
TORSDOF 7
ENDMDL
MODEL 3
REMARK VINA RESULT:      -7.3      5.347      7.676
REMARK  7 active torsions:
REMARK  status: ('A' for Active; 'I' for Inactive)
REMARK    1  A    between atoms: O_2  and  C_3 
REMARK    2  A    between atoms: C_4  and  O_5 
REMARK    3  A    between atoms: C_6  and  C_7 
REMARK    4  A    between atoms: C_7  and  N_8 
REMARK    5  A    between atoms: C_11  and  C_12 
REMARK    6  A    between atoms: C_12  and  N_13 
REMARK    7  A    between atoms: N_13  and  C_14 
ROOT
HETATM    1  N   UNL     1      -5.054   1.906 -31.066  1.00  0.00    -0.067 N 
HETATM    2  H   UNL     1      -4.313   2.304 -30.455  1.00  0.00     0.280 HD
HETATM    3  C   UNL     1      -4.491   0.651 -31.685  1.00  0.00     0.241 C 
HETATM    4  C   UNL     1      -5.617  -0.377 -31.596  1.00  0.00     0.026 C 
HETATM    5  C   UNL     1      -6.278  -0.002 -30.270  1.00  0.00     0.035 C 
HETATM    6  C   UNL     1      -6.228   1.518 -30.204  1.00  0.00     0.235 C 
ENDROOT
BRANCH   1   7
HETATM    7  C   UNL     1      -5.347   3.051 -32.005  1.00  0.00     0.276 C 
BRANCH   7   8
HETATM    8  C   UNL     1      -4.267   4.090 -32.055  1.00  0.00     0.005 A 
HETATM    9  C   UNL     1      -4.052   4.946 -30.973  1.00  0.00     0.107 A 
HETATM   10  C   UNL     1      -3.093   5.968 -31.012  1.00  0.00     0.103 A 
HETATM   11  C   UNL     1      -2.293   6.104 -32.145  1.00  0.00     0.058 A 
HETATM   12  C   UNL     1      -2.481   5.239 -33.224  1.00  0.00     0.014 A 
HETATM   13  C   UNL     1      -3.466   4.248 -33.193  1.00  0.00     0.030 A 
HETATM   14 BR   UNL     1      -1.385   5.398 -34.757  1.00  0.00    -0.051 Br
BRANCH   9  15
HETATM   15  O   UNL     1      -4.803   4.762 -29.839  1.00  0.00    -0.357 OA
HETATM   16  H   UNL     1      -5.595   5.334 -29.970  1.00  0.00     0.218 HD
ENDBRANCH   9  15
BRANCH  10  17
HETATM   17  O   UNL     1      -3.033   6.742 -29.885  1.00  0.00    -0.353 OA
HETATM   18  C   UNL     1      -1.732   6.975 -29.347  1.00  0.00     0.210 C 
ENDBRANCH  10  17
ENDBRANCH   7   8
ENDBRANCH   1   7
BRANCH   4  19
HETATM   19  C   UNL     1      -6.548  -0.310 -32.820  1.00  0.00     0.100 C 
BRANCH  19  20
HETATM   20  N   UNL     1      -5.813  -0.661 -34.051  1.00  0.00    -0.279 NA
HETATM   21  H   UNL     1      -4.849  -0.320 -33.960  1.00  0.00     0.129 HD
BRANCH  20  22
HETATM   22  C   UNL     1      -5.736  -2.041 -34.275  1.00  0.00     0.079 A 
HETATM   23  N   UNL     1      -4.538  -2.616 -34.095  1.00  0.00    -0.357 N 
HETATM   24  H   UNL     1      -3.779  -2.001 -33.807  1.00  0.00     0.166 HD
HETATM   25  C   UNL     1      -4.312  -3.926 -34.268  1.00  0.00     0.089 A 
HETATM   26  C   UNL     1      -5.354  -4.759 -34.653  1.00  0.00     0.017 A 
HETATM   27  C   UNL     1      -6.620  -4.212 -34.837  1.00  0.00     0.005 A 
HETATM   28  C   UNL     1      -6.817  -2.845 -34.637  1.00  0.00     0.042 A 
ENDBRANCH  20  22
ENDBRANCH  19  20
ENDBRANCH   4  19
TORSDOF 7
ENDMDL
MODEL 4
REMARK VINA RESULT:      -7.2      6.851      9.828
REMARK  7 active torsions:
REMARK  status: ('A' for Active; 'I' for Inactive)
REMARK    1  A    between atoms: O_2  and  C_3 
REMARK    2  A    between atoms: C_4  and  O_5 
REMARK    3  A    between atoms: C_6  and  C_7 
REMARK    4  A    between atoms: C_7  and  N_8 
REMARK    5  A    between atoms: C_11  and  C_12 
REMARK    6  A    between atoms: C_12  and  N_13 
REMARK    7  A    between atoms: N_13  and  C_14 
ROOT
HETATM    1  N   UNL     1      -2.674   4.983 -33.034  1.00  0.00    -0.067 N 
HETATM    2  H   UNL     1      -2.647   4.202 -33.718  1.00  0.00     0.280 HD
HETATM    3  C   UNL     1      -1.303   5.079 -32.414  1.00  0.00     0.241 C 
HETATM    4  C   UNL     1      -0.987   6.572 -32.371  1.00  0.00     0.026 C 
HETATM    5  C   UNL     1      -1.654   7.069 -33.653  1.00  0.00     0.035 C 
HETATM    6  C   UNL     1      -2.941   6.265 -33.783  1.00  0.00     0.235 C 
ENDROOT
BRANCH   1   7
HETATM    7  C   UNL     1      -3.804   4.573 -32.120  1.00  0.00     0.276 C 
BRANCH   7   8
HETATM    8  C   UNL     1      -4.259   3.158 -32.312  1.00  0.00     0.005 A 
HETATM    9  C   UNL     1      -3.574   2.101 -31.711  1.00  0.00     0.107 A 
HETATM   10  C   UNL     1      -3.936   0.763 -31.921  1.00  0.00     0.103 A 
HETATM   11  C   UNL     1      -5.045   0.479 -32.715  1.00  0.00     0.058 A 
HETATM   12  C   UNL     1      -5.755   1.527 -33.302  1.00  0.00     0.014 A 
HETATM   13  C   UNL     1      -5.363   2.856 -33.120  1.00  0.00     0.030 A 
HETATM   14 BR   UNL     1      -7.277   1.154 -34.361  1.00  0.00    -0.051 Br
BRANCH   9  15
HETATM   15  O   UNL     1      -2.521   2.397 -30.880  1.00  0.00    -0.357 OA
HETATM   16  H   UNL     1      -2.468   3.382 -30.890  1.00  0.00     0.218 HD
ENDBRANCH   9  15
BRANCH  10  17
HETATM   17  O   UNL     1      -3.140  -0.154 -31.289  1.00  0.00    -0.353 OA
HETATM   18  C   UNL     1      -3.036  -1.435 -31.911  1.00  0.00     0.210 C 
ENDBRANCH  10  17
ENDBRANCH   7   8
ENDBRANCH   1   7
BRANCH   4  19
HETATM   19  C   UNL     1      -1.508   7.229 -31.079  1.00  0.00     0.100 C 
BRANCH  19  20
HETATM   20  N   UNL     1      -1.448   6.276 -29.953  1.00  0.00    -0.279 NA
HETATM   21  H   UNL     1      -1.063   5.389 -30.300  1.00  0.00     0.129 HD
BRANCH  20  22
HETATM   22  C   UNL     1      -0.614   6.701 -28.912  1.00  0.00     0.079 A 
HETATM   23  N   UNL     1      -0.855   6.188 -27.697  1.00  0.00    -0.357 N 
HETATM   24  H   UNL     1      -1.626   5.528 -27.628  1.00  0.00     0.166 HD
HETATM   25  C   UNL     1      -0.139   6.499 -26.607  1.00  0.00     0.089 A 
HETATM   26  C   UNL     1       0.917   7.395 -26.710  1.00  0.00     0.017 A 
HETATM   27  C   UNL     1       1.216   7.942 -27.953  1.00  0.00     0.005 A 
HETATM   28  C   UNL     1       0.454   7.586 -29.065  1.00  0.00     0.042 A 
ENDBRANCH  20  22
ENDBRANCH  19  20
ENDBRANCH   4  19
TORSDOF 7
ENDMDL
MODEL 5
REMARK VINA RESULT:      -7.0      7.006     10.214
REMARK  7 active torsions:
REMARK  status: ('A' for Active; 'I' for Inactive)
REMARK    1  A    between atoms: O_2  and  C_3 
REMARK    2  A    between atoms: C_4  and  O_5 
REMARK    3  A    between atoms: C_6  and  C_7 
REMARK    4  A    between atoms: C_7  and  N_8 
REMARK    5  A    between atoms: C_11  and  C_12 
REMARK    6  A    between atoms: C_12  and  N_13 
REMARK    7  A    between atoms: N_13  and  C_14 
ROOT
HETATM    1  N   UNL     1      -2.937   5.092 -33.143  1.00  0.00    -0.067 N 
HETATM    2  H   UNL     1      -3.103   4.317 -33.815  1.00  0.00     0.280 HD
HETATM    3  C   UNL     1      -1.664   4.772 -32.402  1.00  0.00     0.241 C 
HETATM    4  C   UNL     1      -0.894   6.089 -32.344  1.00  0.00     0.026 C 
HETATM    5  C   UNL     1      -1.258   6.723 -33.685  1.00  0.00     0.035 C 
HETATM    6  C   UNL     1      -2.718   6.362 -33.924  1.00  0.00     0.235 C 
ENDROOT
BRANCH   1   7
HETATM    7  C   UNL     1      -4.211   5.094 -32.332  1.00  0.00     0.276 C 
BRANCH   7   8
HETATM    8  C   UNL     1      -4.951   3.792 -32.358  1.00  0.00     0.005 A 
HETATM    9  C   UNL     1      -5.622   3.375 -33.510  1.00  0.00     0.107 A 
HETATM   10  C   UNL     1      -6.375   2.193 -33.548  1.00  0.00     0.103 A 
HETATM   11  C   UNL     1      -6.417   1.381 -32.417  1.00  0.00     0.058 A 
HETATM   12  C   UNL     1      -5.732   1.773 -31.266  1.00  0.00     0.014 A 
HETATM   13  C   UNL     1      -5.016   2.972 -31.224  1.00  0.00     0.030 A 
HETATM   14 BR   UNL     1      -5.762   0.665 -29.733  1.00  0.00    -0.051 Br
BRANCH   9  15
HETATM   15  O   UNL     1      -5.520   4.153 -34.638  1.00  0.00    -0.357 OA
HETATM   16  H   UNL     1      -4.878   4.860 -34.393  1.00  0.00     0.218 HD
ENDBRANCH   9  15
BRANCH  10  17
HETATM   17  O   UNL     1      -6.999   1.949 -34.741  1.00  0.00    -0.353 OA
HETATM   18  C   UNL     1      -7.059   0.584 -35.154  1.00  0.00     0.210 C 
ENDBRANCH  10  17
ENDBRANCH   7   8
ENDBRANCH   1   7
BRANCH   4  19
HETATM   19  C   UNL     1      -1.285   6.924 -31.110  1.00  0.00     0.100 C 
BRANCH  19  20
HETATM   20  N   UNL     1      -1.286   6.086 -29.895  1.00  0.00    -0.279 NA
HETATM   21  H   UNL     1      -0.906   5.163 -30.139  1.00  0.00     0.129 HD
BRANCH  20  22
HETATM   22  C   UNL     1      -0.481   6.597 -28.870  1.00  0.00     0.079 A 
HETATM   23  N   UNL     1      -0.646   6.064 -27.650  1.00  0.00    -0.357 N 
HETATM   24  H   UNL     1      -1.344   5.327 -27.568  1.00  0.00     0.166 HD
HETATM   25  C   UNL     1       0.054   6.449 -26.574  1.00  0.00     0.089 A 
HETATM   26  C   UNL     1       1.009   7.449 -26.695  1.00  0.00     0.017 A 
HETATM   27  C   UNL     1       1.227   8.023 -27.944  1.00  0.00     0.005 A 
HETATM   28  C   UNL     1       0.486   7.588 -29.042  1.00  0.00     0.042 A 
ENDBRANCH  20  22
ENDBRANCH  19  20
ENDBRANCH   4  19
TORSDOF 7
ENDMDL
MODEL 6
REMARK VINA RESULT:      -7.0      3.406      7.780
REMARK  7 active torsions:
REMARK  status: ('A' for Active; 'I' for Inactive)
REMARK    1  A    between atoms: O_2  and  C_3 
REMARK    2  A    between atoms: C_4  and  O_5 
REMARK    3  A    between atoms: C_6  and  C_7 
REMARK    4  A    between atoms: C_7  and  N_8 
REMARK    5  A    between atoms: C_11  and  C_12 
REMARK    6  A    between atoms: C_12  and  N_13 
REMARK    7  A    between atoms: N_13  and  C_14 
ROOT
HETATM    1  N   UNL     1      -7.381   1.358 -32.520  1.00  0.00    -0.067 N 
HETATM    2  H   UNL     1      -7.927   2.077 -32.006  1.00  0.00     0.280 HD
HETATM    3  C   UNL     1      -5.977   1.889 -32.670  1.00  0.00     0.241 C 
HETATM    4  C   UNL     1      -5.067   0.704 -32.355  1.00  0.00     0.026 C 
HETATM    5  C   UNL     1      -5.861  -0.021 -31.271  1.00  0.00     0.035 C 
HETATM    6  C   UNL     1      -7.322   0.109 -31.677  1.00  0.00     0.235 C 
ENDROOT
BRANCH   1   7
HETATM    7  C   UNL     1      -8.181   1.192 -33.790  1.00  0.00     0.276 C 
BRANCH   7   8
HETATM    8  C   UNL     1      -9.581   1.718 -33.700  1.00  0.00     0.005 A 
HETATM    9  C   UNL     1      -9.820   3.083 -33.524  1.00  0.00     0.107 A 
HETATM   10  C   UNL     1     -11.114   3.599 -33.374  1.00  0.00     0.103 A 
HETATM   11  C   UNL     1     -12.202   2.733 -33.452  1.00  0.00     0.058 A 
HETATM   12  C   UNL     1     -11.980   1.369 -33.653  1.00  0.00     0.014 A 
HETATM   13  C   UNL     1     -10.684   0.857 -33.762  1.00  0.00     0.030 A 
HETATM   14 BR   UNL     1     -13.450   0.188 -33.786  1.00  0.00    -0.051 Br
BRANCH   9  15
HETATM   15  O   UNL     1      -8.742   3.934 -33.512  1.00  0.00    -0.357 OA
HETATM   16  H   UNL     1      -8.084   3.509 -34.110  1.00  0.00     0.218 HD
ENDBRANCH   9  15
BRANCH  10  17
HETATM   17  O   UNL     1     -11.173   4.952 -33.173  1.00  0.00    -0.353 OA
HETATM   18  C   UNL     1     -11.909   5.702 -34.139  1.00  0.00     0.210 C 
ENDBRANCH  10  17
ENDBRANCH   7   8
ENDBRANCH   1   7
BRANCH   4  19
HETATM   19  C   UNL     1      -4.775  -0.139 -33.611  1.00  0.00     0.100 C 
BRANCH  19  20
HETATM   20  N   UNL     1      -4.232  -1.460 -33.234  1.00  0.00    -0.279 NA
HETATM   21  H   UNL     1      -4.346  -1.578 -32.220  1.00  0.00     0.129 HD
BRANCH  20  22
HETATM   22  C   UNL     1      -4.901  -2.527 -33.846  1.00  0.00     0.079 A 
HETATM   23  N   UNL     1      -4.247  -3.697 -33.902  1.00  0.00    -0.357 N 
HETATM   24  H   UNL     1      -3.315  -3.715 -33.493  1.00  0.00     0.166 HD
HETATM   25  C   UNL     1      -4.760  -4.805 -34.454  1.00  0.00     0.089 A 
HETATM   26  C   UNL     1      -6.035  -4.774 -35.003  1.00  0.00     0.017 A 
HETATM   27  C   UNL     1      -6.760  -3.588 -34.955  1.00  0.00     0.005 A 
HETATM   28  C   UNL     1      -6.195  -2.458 -34.364  1.00  0.00     0.042 A 
ENDBRANCH  20  22
ENDBRANCH  19  20
ENDBRANCH   4  19
TORSDOF 7
ENDMDL
MODEL 7
REMARK VINA RESULT:      -7.0      2.486      3.551
REMARK  7 active torsions:
REMARK  status: ('A' for Active; 'I' for Inactive)
REMARK    1  A    between atoms: O_2  and  C_3 
REMARK    2  A    between atoms: C_4  and  O_5 
REMARK    3  A    between atoms: C_6  and  C_7 
REMARK    4  A    between atoms: C_7  and  N_8 
REMARK    5  A    between atoms: C_11  and  C_12 
REMARK    6  A    between atoms: C_12  and  N_13 
REMARK    7  A    between atoms: N_13  and  C_14 
ROOT
HETATM    1  N   UNL     1      -5.078   3.569 -30.561  1.00  0.00    -0.067 N 
HETATM    2  H   UNL     1      -4.126   3.409 -30.176  1.00  0.00     0.280 HD
HETATM    3  C   UNL     1      -5.984   2.528 -29.953  1.00  0.00     0.241 C 
HETATM    4  C   UNL     1      -7.258   3.279 -29.575  1.00  0.00     0.026 C 
HETATM    5  C   UNL     1      -6.705   4.640 -29.154  1.00  0.00     0.035 C 
HETATM    6  C   UNL     1      -5.554   4.927 -30.108  1.00  0.00     0.235 C 
ENDROOT
BRANCH   1   7
HETATM    7  C   UNL     1      -4.844   3.478 -32.049  1.00  0.00     0.276 C 
BRANCH   7   8
HETATM    8  C   UNL     1      -4.956   2.088 -32.599  1.00  0.00     0.005 A 
HETATM    9  C   UNL     1      -3.980   1.129 -32.318  1.00  0.00     0.107 A 
HETATM   10  C   UNL     1      -4.023  -0.160 -32.867  1.00  0.00     0.103 A 
HETATM   11  C   UNL     1      -5.098  -0.515 -33.678  1.00  0.00     0.058 A 
HETATM   12  C   UNL     1      -6.094   0.425 -33.947  1.00  0.00     0.014 A 
HETATM   13  C   UNL     1      -6.023   1.721 -33.429  1.00  0.00     0.030 A 
HETATM   14 BR   UNL     1      -7.571  -0.054 -35.027  1.00  0.00    -0.051 Br
BRANCH   9  15
HETATM   15  O   UNL     1      -2.959   1.472 -31.466  1.00  0.00    -0.357 OA
HETATM   16  H   UNL     1      -3.337   2.188 -30.903  1.00  0.00     0.218 HD
ENDBRANCH   9  15
BRANCH  10  17
HETATM   17  O   UNL     1      -2.972  -0.966 -32.521  1.00  0.00    -0.353 OA
HETATM   18  C   UNL     1      -3.306  -2.209 -31.905  1.00  0.00     0.210 C 
ENDBRANCH  10  17
ENDBRANCH   7   8
ENDBRANCH   1   7
BRANCH   4  19
HETATM   19  C   UNL     1      -8.260   3.326 -30.743  1.00  0.00     0.100 C 
BRANCH  19  20
HETATM   20  N   UNL     1      -8.843   1.991 -30.981  1.00  0.00    -0.279 NA
HETATM   21  H   UNL     1      -9.508   1.789 -30.224  1.00  0.00     0.129 HD
BRANCH  20  22
HETATM   22  C   UNL     1      -9.558   1.905 -32.182  1.00  0.00     0.079 A 
HETATM   23  N   UNL     1     -10.278   0.791 -32.377  1.00  0.00    -0.357 N 
HETATM   24  H   UNL     1     -10.249   0.096 -31.634  1.00  0.00     0.166 HD
HETATM   25  C   UNL     1     -11.015   0.569 -33.475  1.00  0.00     0.089 A 
HETATM   26  C   UNL     1     -11.056   1.525 -34.481  1.00  0.00     0.017 A 
HETATM   27  C   UNL     1     -10.337   2.705 -34.318  1.00  0.00     0.005 A 
HETATM   28  C   UNL     1      -9.591   2.903 -33.156  1.00  0.00     0.042 A 
ENDBRANCH  20  22
ENDBRANCH  19  20
ENDBRANCH   4  19
TORSDOF 7
ENDMDL
MODEL 8
REMARK VINA RESULT:      -6.9      2.047      2.358
REMARK  7 active torsions:
REMARK  status: ('A' for Active; 'I' for Inactive)
REMARK    1  A    between atoms: O_2  and  C_3 
REMARK    2  A    between atoms: C_4  and  O_5 
REMARK    3  A    between atoms: C_6  and  C_7 
REMARK    4  A    between atoms: C_7  and  N_8 
REMARK    5  A    between atoms: C_11  and  C_12 
REMARK    6  A    between atoms: C_12  and  N_13 
REMARK    7  A    between atoms: N_13  and  C_14 
ROOT
HETATM    1  N   UNL     1      -7.805   1.150 -32.471  1.00  0.00    -0.067 N 
HETATM    2  H   UNL     1      -7.081   0.869 -31.781  1.00  0.00     0.280 HD
HETATM    3  C   UNL     1      -9.112   1.253 -31.725  1.00  0.00     0.241 C 
HETATM    4  C   UNL     1      -9.765   2.534 -32.239  1.00  0.00     0.026 C 
HETATM    5  C   UNL     1      -8.551   3.434 -32.466  1.00  0.00     0.035 C 
HETATM    6  C   UNL     1      -7.457   2.518 -32.998  1.00  0.00     0.235 C 
ENDROOT
BRANCH   1   7
HETATM    7  C   UNL     1      -7.703   0.059 -33.509  1.00  0.00     0.276 C 
BRANCH   7   8
HETATM    8  C   UNL     1      -6.425  -0.721 -33.449  1.00  0.00     0.005 A 
HETATM    9  C   UNL     1      -6.273  -1.899 -34.184  1.00  0.00     0.107 A 
HETATM   10  C   UNL     1      -5.114  -2.685 -34.101  1.00  0.00     0.103 A 
HETATM   11  C   UNL     1      -4.060  -2.254 -33.299  1.00  0.00     0.058 A 
HETATM   12  C   UNL     1      -4.189  -1.066 -32.578  1.00  0.00     0.014 A 
HETATM   13  C   UNL     1      -5.362  -0.309 -32.635  1.00  0.00     0.030 A 
HETATM   14 BR   UNL     1      -2.754  -0.459 -31.505  1.00  0.00    -0.051 Br
BRANCH   9  15
HETATM   15  O   UNL     1      -7.294  -2.279 -35.020  1.00  0.00    -0.357 OA
HETATM   16  H   UNL     1      -6.845  -2.747 -35.762  1.00  0.00     0.218 HD
ENDBRANCH   9  15
BRANCH  10  17
HETATM   17  O   UNL     1      -5.140  -3.825 -34.857  1.00  0.00    -0.353 OA
HETATM   18  C   UNL     1      -4.617  -5.002 -34.241  1.00  0.00     0.210 C 
ENDBRANCH  10  17
ENDBRANCH   7   8
ENDBRANCH   1   7
BRANCH   4  19
HETATM   19  C   UNL     1     -10.617   2.276 -33.495  1.00  0.00     0.100 C 
BRANCH  19  20
HETATM   20  N   UNL     1     -11.328   0.987 -33.383  1.00  0.00    -0.279 NA
HETATM   21  H   UNL     1     -11.104   0.573 -32.470  1.00  0.00     0.129 HD
BRANCH  20  22
HETATM   22  C   UNL     1     -12.721   1.117 -33.441  1.00  0.00     0.079 A 
HETATM   23  N   UNL     1     -13.275   2.040 -32.641  1.00  0.00    -0.357 N 
HETATM   24  H   UNL     1     -12.635   2.575 -32.056  1.00  0.00     0.166 HD
HETATM   25  C   UNL     1     -14.592   2.280 -32.589  1.00  0.00     0.089 A 
HETATM   26  C   UNL     1     -15.456   1.551 -33.395  1.00  0.00     0.017 A 
HETATM   27  C   UNL     1     -14.928   0.592 -34.253  1.00  0.00     0.005 A 
HETATM   28  C   UNL     1     -13.550   0.379 -34.285  1.00  0.00     0.042 A 
ENDBRANCH  20  22
ENDBRANCH  19  20
ENDBRANCH   4  19
TORSDOF 7
ENDMDL
MODEL 9
REMARK VINA RESULT:      -6.7      4.838      7.690
REMARK  7 active torsions:
REMARK  status: ('A' for Active; 'I' for Inactive)
REMARK    1  A    between atoms: O_2  and  C_3 
REMARK    2  A    between atoms: C_4  and  O_5 
REMARK    3  A    between atoms: C_6  and  C_7 
REMARK    4  A    between atoms: C_7  and  N_8 
REMARK    5  A    between atoms: C_11  and  C_12 
REMARK    6  A    between atoms: C_12  and  N_13 
REMARK    7  A    between atoms: N_13  and  C_14 
ROOT
HETATM    1  N   UNL     1      -6.239   2.312 -31.961  1.00  0.00    -0.067 N 
HETATM    2  H   UNL     1      -6.582   2.944 -31.211  1.00  0.00     0.280 HD
HETATM    3  C   UNL     1      -5.438   1.223 -31.292  1.00  0.00     0.241 C 
HETATM    4  C   UNL     1      -5.868  -0.070 -31.981  1.00  0.00     0.026 C 
HETATM    5  C   UNL     1      -7.347   0.200 -32.256  1.00  0.00     0.035 C 
HETATM    6  C   UNL     1      -7.431   1.674 -32.629  1.00  0.00     0.235 C 
ENDROOT
BRANCH   1   7
HETATM    7  C   UNL     1      -5.479   3.257 -32.860  1.00  0.00     0.276 C 
BRANCH   7   8
HETATM    8  C   UNL     1      -4.621   4.240 -32.122  1.00  0.00     0.005 A 
HETATM    9  C   UNL     1      -3.254   4.006 -31.953  1.00  0.00     0.107 A 
HETATM   10  C   UNL     1      -2.436   4.874 -31.216  1.00  0.00     0.103 A 
HETATM   11  C   UNL     1      -2.991   6.032 -30.675  1.00  0.00     0.058 A 
HETATM   12  C   UNL     1      -4.350   6.290 -30.857  1.00  0.00     0.014 A 
HETATM   13  C   UNL     1      -5.167   5.400 -31.560  1.00  0.00     0.030 A 
HETATM   14 BR   UNL     1      -5.109   7.871 -30.149  1.00  0.00    -0.051 Br
BRANCH   9  15
HETATM   15  O   UNL     1      -2.707   2.895 -32.545  1.00  0.00    -0.357 OA
HETATM   16  H   UNL     1      -2.511   2.286 -31.794  1.00  0.00     0.218 HD
ENDBRANCH   9  15
BRANCH  10  17
HETATM   17  O   UNL     1      -1.128   4.482 -31.115  1.00  0.00    -0.353 OA
HETATM   18  C   UNL     1      -0.153   5.407 -31.595  1.00  0.00     0.210 C 
ENDBRANCH  10  17
ENDBRANCH   7   8
ENDBRANCH   1   7
BRANCH   4  19
HETATM   19  C   UNL     1      -5.022  -0.356 -33.235  1.00  0.00     0.100 C 
BRANCH  19  20
HETATM   20  N   UNL     1      -5.853  -0.966 -34.293  1.00  0.00    -0.279 NA
HETATM   21  H   UNL     1      -5.580  -0.555 -35.194  1.00  0.00     0.129 HD
BRANCH  20  22
HETATM   22  C   UNL     1      -5.675  -2.350 -34.407  1.00  0.00     0.079 A 
HETATM   23  N   UNL     1      -4.457  -2.829 -34.111  1.00  0.00    -0.357 N 
HETATM   24  H   UNL     1      -3.759  -2.145 -33.824  1.00  0.00     0.166 HD
HETATM   25  C   UNL     1      -4.139  -4.129 -34.171  1.00  0.00     0.089 A 
HETATM   26  C   UNL     1      -5.099  -5.056 -34.555  1.00  0.00     0.017 A 
HETATM   27  C   UNL     1      -6.381  -4.609 -34.858  1.00  0.00     0.005 A 
HETATM   28  C   UNL     1      -6.676  -3.249 -34.774  1.00  0.00     0.042 A 
ENDBRANCH  20  22
ENDBRANCH  19  20
ENDBRANCH   4  19
TORSDOF 7
ENDMDL
MODEL 10
REMARK VINA RESULT:      -6.7     14.443     15.614
REMARK  7 active torsions:
REMARK  status: ('A' for Active; 'I' for Inactive)
REMARK    1  A    between atoms: O_2  and  C_3 
REMARK    2  A    between atoms: C_4  and  O_5 
REMARK    3  A    between atoms: C_6  and  C_7 
REMARK    4  A    between atoms: C_7  and  N_8 
REMARK    5  A    between atoms: C_11  and  C_12 
REMARK    6  A    between atoms: C_12  and  N_13 
REMARK    7  A    between atoms: N_13  and  C_14 
ROOT
HETATM    1  N   UNL     1      -4.099 -13.882 -36.638  1.00  0.00    -0.067 N 
HETATM    2  H   UNL     1      -3.284 -14.498 -36.448  1.00  0.00     0.280 HD
HETATM    3  C   UNL     1      -5.168 -14.739 -37.268  1.00  0.00     0.241 C 
HETATM    4  C   UNL     1      -6.468 -14.321 -36.585  1.00  0.00     0.026 C 
HETATM    5  C   UNL     1      -5.992 -14.019 -35.165  1.00  0.00     0.035 C 
HETATM    6  C   UNL     1      -4.625 -13.368 -35.321  1.00  0.00     0.235 C 
ENDROOT
BRANCH   1   7
HETATM    7  C   UNL     1      -3.494 -12.806 -37.507  1.00  0.00     0.276 C 
BRANCH   7   8
HETATM    8  C   UNL     1      -2.549 -13.324 -38.549  1.00  0.00     0.005 A 
HETATM    9  C   UNL     1      -2.962 -13.474 -39.875  1.00  0.00     0.107 A 
HETATM   10  C   UNL     1      -2.124 -14.014 -40.860  1.00  0.00     0.103 A 
HETATM   11  C   UNL     1      -0.820 -14.368 -40.519  1.00  0.00     0.058 A 
HETATM   12  C   UNL     1      -0.386 -14.201 -39.203  1.00  0.00     0.014 A 
HETATM   13  C   UNL     1      -1.241 -13.699 -38.219  1.00  0.00     0.030 A 
HETATM   14 BR   UNL     1       1.389 -14.655 -38.736  1.00  0.00    -0.051 Br
BRANCH   9  15
HETATM   15  O   UNL     1      -4.229 -13.062 -40.211  1.00  0.00    -0.357 OA
HETATM   16  H   UNL     1      -4.102 -12.166 -40.603  1.00  0.00     0.218 HD
ENDBRANCH   9  15
BRANCH  10  17
HETATM   17  O   UNL     1      -2.694 -14.127 -42.099  1.00  0.00    -0.353 OA
HETATM   18  C   UNL     1      -2.765 -15.444 -42.643  1.00  0.00     0.210 C 
ENDBRANCH  10  17
ENDBRANCH   7   8
ENDBRANCH   1   7
BRANCH   4  19
HETATM   19  C   UNL     1      -7.135 -13.134 -37.306  1.00  0.00     0.100 C 
BRANCH  19  20
HETATM   20  N   UNL     1      -7.122 -13.342 -38.768  1.00  0.00    -0.279 NA
HETATM   21  H   UNL     1      -6.724 -14.269 -38.959  1.00  0.00     0.129 HD
BRANCH  20  22
HETATM   22  C   UNL     1      -8.399 -13.321 -39.340  1.00  0.00     0.079 A 
HETATM   23  N   UNL     1      -8.998 -14.508 -39.524  1.00  0.00    -0.357 N 
HETATM   24  H   UNL     1      -8.474 -15.330 -39.229  1.00  0.00     0.166 HD
HETATM   25  C   UNL     1     -10.220 -14.645 -40.057  1.00  0.00     0.089 A 
HETATM   26  C   UNL     1     -10.930 -13.519 -40.450  1.00  0.00     0.017 A 
HETATM   27  C   UNL     1     -10.357 -12.264 -40.266  1.00  0.00     0.005 A 
HETATM   28  C   UNL     1      -9.088 -12.162 -39.698  1.00  0.00     0.042 A 
ENDBRANCH  20  22
ENDBRANCH  19  20
ENDBRANCH   4  19
TORSDOF 7
ENDMDL
