MODEL 1
REMARK VINA RESULT:      -9.0      0.000      0.000
REMARK  2 active torsions:
REMARK  status: ('A' for Active; 'I' for Inactive)
REMARK    1  A    between atoms: C_9  and  C_10 
REMARK       I    between atoms: C_10  and  N_11 
REMARK    2  A    between atoms: N_11  and  C_12 
ROOT
HETATM    1  C   UNL     1      -5.564   1.602 -30.381  1.00  0.00     0.267 C 
HETATM    2  N   UNL     1      -4.813   2.727 -30.234  1.00  0.00    -0.156 N 
HETATM    3  O   UNL     1      -6.139   1.128 -29.391  1.00  0.00    -0.270 OA
HETATM    4  H   UNL     1      -4.737   3.090 -29.290  1.00  0.00     0.187 HD
ENDROOT
BRANCH   1   5
HETATM    5  C   UNL     1      -5.732   0.876 -31.734  1.00  0.00     0.282 C 
HETATM    6  N   UNL     1      -7.167   0.341 -31.810  1.00  0.00    -0.058 N 
HETATM    7  C   UNL     1      -7.476  -0.294 -33.111  1.00  0.00     0.272 C 
HETATM    8  H   UNL     1      -7.293  -0.328 -31.038  1.00  0.00     0.278 HD
HETATM    9  H   UNL     1      -7.817   1.108 -31.597  1.00  0.00     0.278 HD
HETATM   10  C   UNL     1      -6.427  -1.276 -33.543  1.00  0.00    -0.026 A 
HETATM   11  C   UNL     1      -5.140  -1.269 -32.968  1.00  0.00    -0.048 A 
HETATM   12  C   UNL     1      -6.713  -2.180 -34.576  1.00  0.00     0.009 A 
HETATM   13  C   UNL     1      -4.177  -2.186 -33.415  1.00  0.00     0.008 A 
HETATM   14  C   UNL     1      -4.792  -0.334 -31.832  1.00  0.00     0.082 C 
HETATM   15  C   UNL     1      -4.479  -3.084 -34.437  1.00  0.00     0.001 A 
HETATM   16  C   UNL     1      -5.744  -3.080 -35.018  1.00  0.00     0.001 A 
ENDBRANCH   1   5
BRANCH   2  17
HETATM   17  C   UNL     1      -4.250   3.418 -31.272  1.00  0.00     0.708 A 
HETATM   18  N   UNL     1      -4.870   3.913 -32.315  1.00  0.00    -0.062 NA
HETATM   19  C   UNL     1      -3.892   4.497 -33.086  1.00  0.00     0.103 A 
HETATM   20  C   UNL     1      -2.647   4.359 -32.486  1.00  0.00     0.078 A 
HETATM   21  C   UNL     1      -3.995   5.160 -34.316  1.00  0.00     0.034 A 
HETATM   22  N   UNL     1      -2.904   3.681 -31.322  1.00  0.00    -0.188 N 
HETATM   23  C   UNL     1      -1.466   4.847 -33.049  1.00  0.00     0.032 A 
HETATM   24  H   UNL     1      -2.212   3.409 -30.639  1.00  0.00     0.184 HD
HETATM   25  C   UNL     1      -1.585   5.503 -34.280  1.00  0.00     0.002 A 
HETATM   26  C   UNL     1      -2.825   5.661 -34.903  1.00  0.00     0.002 A 
ENDBRANCH   2  17
TORSDOF 2
ENDMDL
MODEL 2
REMARK VINA RESULT:      -8.6      3.079      4.887
REMARK  2 active torsions:
REMARK  status: ('A' for Active; 'I' for Inactive)
REMARK    1  A    between atoms: C_9  and  C_10 
REMARK       I    between atoms: C_10  and  N_11 
REMARK    2  A    between atoms: N_11  and  C_12 
ROOT
HETATM    1  C   UNL     1      -3.599   0.497 -31.449  1.00  0.00     0.267 C 
HETATM    2  N   UNL     1      -4.459   1.524 -31.686  1.00  0.00    -0.156 N 
HETATM    3  O   UNL     1      -2.475   0.747 -30.989  1.00  0.00    -0.270 OA
HETATM    4  H   UNL     1      -4.100   2.455 -31.506  1.00  0.00     0.187 HD
ENDROOT
BRANCH   1   5
HETATM    5  C   UNL     1      -3.955  -0.978 -31.732  1.00  0.00     0.282 C 
HETATM    6  N   UNL     1      -2.665  -1.803 -31.648  1.00  0.00    -0.058 N 
HETATM    7  C   UNL     1      -2.898  -3.256 -31.807  1.00  0.00     0.272 C 
HETATM    8  H   UNL     1      -2.023  -1.454 -32.373  1.00  0.00     0.278 HD
HETATM    9  H   UNL     1      -2.193  -1.589 -30.761  1.00  0.00     0.278 HD
HETATM   10  C   UNL     1      -3.762  -3.580 -32.991  1.00  0.00    -0.026 A 
HETATM   11  C   UNL     1      -4.559  -2.592 -33.604  1.00  0.00    -0.048 A 
HETATM   12  C   UNL     1      -3.821  -4.900 -33.460  1.00  0.00     0.009 A 
HETATM   13  C   UNL     1      -5.373  -2.939 -34.693  1.00  0.00     0.008 A 
HETATM   14  C   UNL     1      -4.510  -1.150 -33.153  1.00  0.00     0.082 C 
HETATM   15  C   UNL     1      -5.415  -4.254 -35.153  1.00  0.00     0.001 A 
HETATM   16  C   UNL     1      -4.641  -5.233 -34.538  1.00  0.00     0.001 A 
ENDBRANCH   1   5
BRANCH   2  17
HETATM   17  C   UNL     1      -5.766   1.363 -32.056  1.00  0.00     0.708 A 
HETATM   18  N   UNL     1      -6.740   0.888 -31.318  1.00  0.00    -0.062 NA
HETATM   19  C   UNL     1      -7.855   0.899 -32.123  1.00  0.00     0.103 A 
HETATM   20  C   UNL     1      -7.549   1.406 -33.380  1.00  0.00     0.078 A 
HETATM   21  C   UNL     1      -9.166   0.488 -31.847  1.00  0.00     0.034 A 
HETATM   22  N   UNL     1      -6.213   1.709 -33.307  1.00  0.00    -0.188 N 
HETATM   23  C   UNL     1      -8.486   1.525 -34.407  1.00  0.00     0.032 A 
HETATM   24  H   UNL     1      -5.661   2.098 -34.057  1.00  0.00     0.184 HD
HETATM   25  C   UNL     1      -9.789   1.106 -34.118  1.00  0.00     0.002 A 
HETATM   26  C   UNL     1     -10.127   0.597 -32.860  1.00  0.00     0.002 A 
ENDBRANCH   2  17
TORSDOF 2
ENDMDL
MODEL 3
REMARK VINA RESULT:      -8.1      3.379      5.511
REMARK  2 active torsions:
REMARK  status: ('A' for Active; 'I' for Inactive)
REMARK    1  A    between atoms: C_9  and  C_10 
REMARK       I    between atoms: C_10  and  N_11 
REMARK    2  A    between atoms: N_11  and  C_12 
ROOT
HETATM    1  C   UNL     1      -6.731   2.096 -32.187  1.00  0.00     0.267 C 
HETATM    2  N   UNL     1      -7.753   2.992 -32.133  1.00  0.00    -0.156 N 
HETATM    3  O   UNL     1      -5.777   2.222 -31.406  1.00  0.00    -0.270 OA
HETATM    4  H   UNL     1      -7.644   3.750 -31.468  1.00  0.00     0.187 HD
ENDROOT
BRANCH   1   5
HETATM    5  C   UNL     1      -6.699   0.919 -33.187  1.00  0.00     0.282 C 
HETATM    6  N   UNL     1      -7.892   0.005 -32.883  1.00  0.00    -0.058 N 
HETATM    7  C   UNL     1      -8.021  -1.112 -33.845  1.00  0.00     0.272 C 
HETATM    8  H   UNL     1      -7.778  -0.350 -31.924  1.00  0.00     0.278 HD
HETATM    9  H   UNL     1      -8.745   0.577 -32.848  1.00  0.00     0.278 HD
HETATM   10  C   UNL     1      -6.727  -1.840 -34.068  1.00  0.00    -0.026 A 
HETATM   11  C   UNL     1      -5.493  -1.259 -33.712  1.00  0.00    -0.048 A 
HETATM   12  C   UNL     1      -6.741  -3.094 -34.695  1.00  0.00     0.009 A 
HETATM   13  C   UNL     1      -4.303  -1.959 -33.960  1.00  0.00     0.008 A 
HETATM   14  C   UNL     1      -5.427   0.077 -33.009  1.00  0.00     0.082 C 
HETATM   15  C   UNL     1      -4.334  -3.209 -34.576  1.00  0.00     0.001 A 
HETATM   16  C   UNL     1      -5.551  -3.775 -34.944  1.00  0.00     0.001 A 
ENDBRANCH   1   5
BRANCH   2  17
HETATM   17  C   UNL     1      -8.918   2.875 -32.841  1.00  0.00     0.708 A 
HETATM   18  N   UNL     1      -9.914   2.063 -32.588  1.00  0.00    -0.062 NA
HETATM   19  C   UNL     1     -10.842   2.293 -33.577  1.00  0.00     0.103 A 
HETATM   20  C   UNL     1     -10.397   3.280 -34.448  1.00  0.00     0.078 A 
HETATM   21  C   UNL     1     -12.088   1.691 -33.797  1.00  0.00     0.034 A 
HETATM   22  N   UNL     1      -9.174   3.646 -33.948  1.00  0.00    -0.188 N 
HETATM   23  C   UNL     1     -11.128   3.713 -35.555  1.00  0.00     0.032 A 
HETATM   24  H   UNL     1      -8.566   4.348 -34.345  1.00  0.00     0.184 HD
HETATM   25  C   UNL     1     -12.369   3.098 -35.764  1.00  0.00     0.002 A 
HETATM   26  C   UNL     1     -12.844   2.107 -34.901  1.00  0.00     0.002 A 
ENDBRANCH   2  17
TORSDOF 2
ENDMDL
MODEL 4
REMARK VINA RESULT:      -8.0     15.485     16.911
REMARK  2 active torsions:
REMARK  status: ('A' for Active; 'I' for Inactive)
REMARK    1  A    between atoms: C_9  and  C_10 
REMARK       I    between atoms: C_10  and  N_11 
REMARK    2  A    between atoms: N_11  and  C_12 
ROOT
HETATM    1  C   UNL     1      -4.606 -13.647 -35.580  1.00  0.00     0.267 C 
HETATM    2  N   UNL     1      -3.309 -14.035 -35.444  1.00  0.00    -0.156 N 
HETATM    3  O   UNL     1      -5.237 -13.289 -34.575  1.00  0.00    -0.270 OA
HETATM    4  H   UNL     1      -2.947 -14.046 -34.497  1.00  0.00     0.187 HD
ENDROOT
BRANCH   1   5
HETATM    5  C   UNL     1      -5.340 -13.635 -36.939  1.00  0.00     0.282 C 
HETATM    6  N   UNL     1      -4.962 -12.343 -37.673  1.00  0.00    -0.058 N 
HETATM    7  C   UNL     1      -5.532 -12.265 -39.036  1.00  0.00     0.272 C 
HETATM    8  H   UNL     1      -5.281 -11.551 -37.097  1.00  0.00     0.278 HD
HETATM    9  H   UNL     1      -3.938 -12.258 -37.684  1.00  0.00     0.278 HD
HETATM   10  C   UNL     1      -6.998 -12.589 -39.071  1.00  0.00    -0.026 A 
HETATM   11  C   UNL     1      -7.622 -13.266 -38.005  1.00  0.00    -0.048 A 
HETATM   12  C   UNL     1      -7.748 -12.262 -40.211  1.00  0.00     0.009 A 
HETATM   13  C   UNL     1      -8.988 -13.574 -38.086  1.00  0.00     0.008 A 
HETATM   14  C   UNL     1      -6.864 -13.614 -36.744  1.00  0.00     0.082 C 
HETATM   15  C   UNL     1      -9.722 -13.235 -39.221  1.00  0.00     0.001 A 
HETATM   16  C   UNL     1      -9.103 -12.582 -40.282  1.00  0.00     0.001 A 
ENDBRANCH   1   5
BRANCH   2  17
HETATM   17  C   UNL     1      -2.475 -14.313 -36.492  1.00  0.00     0.708 A 
HETATM   18  N   UNL     1      -1.865 -13.447 -37.263  1.00  0.00    -0.062 NA
HETATM   19  C   UNL     1      -1.161 -14.196 -38.178  1.00  0.00     0.103 A 
HETATM   20  C   UNL     1      -1.345 -15.553 -37.947  1.00  0.00     0.078 A 
HETATM   21  C   UNL     1      -0.346 -13.782 -39.240  1.00  0.00     0.034 A 
HETATM   22  N   UNL     1      -2.175 -15.602 -36.857  1.00  0.00    -0.188 N 
HETATM   23  C   UNL     1      -0.759 -16.550 -38.728  1.00  0.00     0.032 A 
HETATM   24  H   UNL     1      -2.516 -16.446 -36.419  1.00  0.00     0.184 HD
HETATM   25  C   UNL     1       0.049 -16.121 -39.788  1.00  0.00     0.002 A 
HETATM   26  C   UNL     1       0.256 -14.762 -40.040  1.00  0.00     0.002 A 
ENDBRANCH   2  17
TORSDOF 2
ENDMDL
MODEL 5
REMARK VINA RESULT:      -8.0      2.184      2.981
REMARK  2 active torsions:
REMARK  status: ('A' for Active; 'I' for Inactive)
REMARK    1  A    between atoms: C_9  and  C_10 
REMARK       I    between atoms: C_10  and  N_11 
REMARK    2  A    between atoms: N_11  and  C_12 
ROOT
HETATM    1  C   UNL     1      -3.354   1.048 -31.404  1.00  0.00     0.267 C 
HETATM    2  N   UNL     1      -3.496   2.322 -30.946  1.00  0.00    -0.156 N 
HETATM    3  O   UNL     1      -2.415   0.357 -30.984  1.00  0.00    -0.270 OA
HETATM    4  H   UNL     1      -2.780   2.644 -30.305  1.00  0.00     0.187 HD
ENDROOT
BRANCH   1   5
HETATM    5  C   UNL     1      -4.313   0.417 -32.437  1.00  0.00     0.282 C 
HETATM    6  N   UNL     1      -5.670   0.202 -31.756  1.00  0.00    -0.058 N 
HETATM    7  C   UNL     1      -6.705  -0.312 -32.681  1.00  0.00     0.272 C 
HETATM    8  H   UNL     1      -5.527  -0.448 -30.970  1.00  0.00     0.278 HD
HETATM    9  H   UNL     1      -5.960   1.083 -31.313  1.00  0.00     0.278 HD
HETATM   10  C   UNL     1      -6.229  -1.482 -33.492  1.00  0.00    -0.026 A 
HETATM   11  C   UNL     1      -4.855  -1.767 -33.626  1.00  0.00    -0.048 A 
HETATM   12  C   UNL     1      -7.165  -2.272 -34.176  1.00  0.00     0.009 A 
HETATM   13  C   UNL     1      -4.448  -2.854 -34.413  1.00  0.00     0.008 A 
HETATM   14  C   UNL     1      -3.810  -0.963 -32.887  1.00  0.00     0.082 C 
HETATM   15  C   UNL     1      -5.390  -3.635 -35.080  1.00  0.00     0.001 A 
HETATM   16  C   UNL     1      -6.746  -3.345 -34.963  1.00  0.00     0.001 A 
ENDBRANCH   1   5
BRANCH   2  17
HETATM   17  C   UNL     1      -4.566   3.126 -31.227  1.00  0.00     0.708 A 
HETATM   18  N   UNL     1      -5.697   3.190 -30.567  1.00  0.00    -0.062 NA
HETATM   19  C   UNL     1      -6.463   4.119 -31.233  1.00  0.00     0.103 A 
HETATM   20  C   UNL     1      -5.770   4.638 -32.321  1.00  0.00     0.078 A 
HETATM   21  C   UNL     1      -7.763   4.567 -30.967  1.00  0.00     0.034 A 
HETATM   22  N   UNL     1      -4.558   3.999 -32.286  1.00  0.00    -0.188 N 
HETATM   23  C   UNL     1      -6.307   5.593 -33.185  1.00  0.00     0.032 A 
HETATM   24  H   UNL     1      -3.805   4.140 -32.943  1.00  0.00     0.184 HD
HETATM   25  C   UNL     1      -7.608   6.027 -32.909  1.00  0.00     0.002 A 
HETATM   26  C   UNL     1      -8.325   5.527 -31.819  1.00  0.00     0.002 A 
ENDBRANCH   2  17
TORSDOF 2
ENDMDL
MODEL 6
REMARK VINA RESULT:      -8.0      1.446      6.725
REMARK  2 active torsions:
REMARK  status: ('A' for Active; 'I' for Inactive)
REMARK    1  A    between atoms: C_9  and  C_10 
REMARK       I    between atoms: C_10  and  N_11 
REMARK    2  A    between atoms: N_11  and  C_12 
ROOT
HETATM    1  C   UNL     1      -6.741   2.498 -30.570  1.00  0.00     0.267 C 
HETATM    2  N   UNL     1      -7.293   1.278 -30.809  1.00  0.00    -0.156 N 
HETATM    3  O   UNL     1      -7.224   3.215 -29.681  1.00  0.00    -0.270 OA
HETATM    4  H   UNL     1      -8.111   1.045 -30.257  1.00  0.00     0.187 HD
ENDROOT
BRANCH   1   5
HETATM    5  C   UNL     1      -5.534   3.043 -31.364  1.00  0.00     0.282 C 
HETATM    6  N   UNL     1      -4.254   2.539 -30.687  1.00  0.00    -0.058 N 
HETATM    7  C   UNL     1      -3.025   2.919 -31.420  1.00  0.00     0.272 C 
HETATM    8  H   UNL     1      -4.239   2.914 -29.728  1.00  0.00     0.278 HD
HETATM    9  H   UNL     1      -4.324   1.521 -30.565  1.00  0.00     0.278 HD
HETATM   10  C   UNL     1      -2.997   4.374 -31.790  1.00  0.00    -0.026 A 
HETATM   11  C   UNL     1      -4.172   5.151 -31.786  1.00  0.00    -0.048 A 
HETATM   12  C   UNL     1      -1.789   4.956 -32.201  1.00  0.00     0.009 A 
HETATM   13  C   UNL     1      -4.110   6.501 -32.162  1.00  0.00     0.008 A 
HETATM   14  C   UNL     1      -5.492   4.578 -31.324  1.00  0.00     0.082 C 
HETATM   15  C   UNL     1      -2.901   7.068 -32.561  1.00  0.00     0.001 A 
HETATM   16  C   UNL     1      -1.742   6.297 -32.582  1.00  0.00     0.001 A 
ENDBRANCH   1   5
BRANCH   2  17
HETATM   17  C   UNL     1      -6.763   0.347 -31.660  1.00  0.00     0.708 A 
HETATM   18  N   UNL     1      -5.573  -0.195 -31.590  1.00  0.00    -0.062 NA
HETATM   19  C   UNL     1      -5.490  -1.050 -32.666  1.00  0.00     0.103 A 
HETATM   20  C   UNL     1      -6.669  -1.029 -33.400  1.00  0.00     0.078 A 
HETATM   21  C   UNL     1      -4.434  -1.873 -33.079  1.00  0.00     0.034 A 
HETATM   22  N   UNL     1      -7.471  -0.142 -32.730  1.00  0.00    -0.188 N 
HETATM   23  C   UNL     1      -6.867  -1.791 -34.553  1.00  0.00     0.032 A 
HETATM   24  H   UNL     1      -8.410   0.114 -32.998  1.00  0.00     0.184 HD
HETATM   25  C   UNL     1      -5.801  -2.604 -34.956  1.00  0.00     0.002 A 
HETATM   26  C   UNL     1      -4.606  -2.648 -34.234  1.00  0.00     0.002 A 
ENDBRANCH   2  17
TORSDOF 2
ENDMDL
MODEL 7
REMARK VINA RESULT:      -7.8     15.290     16.898
REMARK  2 active torsions:
REMARK  status: ('A' for Active; 'I' for Inactive)
REMARK    1  A    between atoms: C_9  and  C_10 
REMARK       I    between atoms: C_10  and  N_11 
REMARK    2  A    between atoms: N_11  and  C_12 
ROOT
HETATM    1  C   UNL     1      -4.884 -12.510 -38.022  1.00  0.00     0.267 C 
HETATM    2  N   UNL     1      -4.116 -12.658 -36.908  1.00  0.00    -0.156 N 
HETATM    3  O   UNL     1      -4.410 -11.924 -39.006  1.00  0.00    -0.270 OA
HETATM    4  H   UNL     1      -3.197 -12.231 -36.943  1.00  0.00     0.187 HD
ENDROOT
BRANCH   1   5
HETATM    5  C   UNL     1      -6.332 -13.037 -38.119  1.00  0.00     0.282 C 
HETATM    6  N   UNL     1      -6.287 -14.438 -38.741  1.00  0.00    -0.058 N 
HETATM    7  C   UNL     1      -7.616 -15.087 -38.796  1.00  0.00     0.272 C 
HETATM    8  H   UNL     1      -5.885 -14.348 -39.685  1.00  0.00     0.278 HD
HETATM    9  H   UNL     1      -5.606 -15.007 -38.223  1.00  0.00     0.278 HD
HETATM   10  C   UNL     1      -8.677 -14.192 -39.366  1.00  0.00    -0.026 A 
HETATM   11  C   UNL     1      -8.489 -12.797 -39.447  1.00  0.00    -0.048 A 
HETATM   12  C   UNL     1      -9.900 -14.746 -39.773  1.00  0.00     0.009 A 
HETATM   13  C   UNL     1      -9.514 -11.991 -39.963  1.00  0.00     0.008 A 
HETATM   14  C   UNL     1      -7.179 -12.156 -39.048  1.00  0.00     0.082 C 
HETATM   15  C   UNL     1     -10.721 -12.556 -40.371  1.00  0.00     0.001 A 
HETATM   16  C   UNL     1     -10.914 -13.931 -40.275  1.00  0.00     0.001 A 
ENDBRANCH   1   5
BRANCH   2  17
HETATM   17  C   UNL     1      -4.476 -13.404 -35.819  1.00  0.00     0.708 A 
HETATM   18  N   UNL     1      -4.518 -14.711 -35.741  1.00  0.00    -0.062 NA
HETATM   19  C   UNL     1      -4.953 -14.993 -34.466  1.00  0.00     0.103 A 
HETATM   20  C   UNL     1      -5.169 -13.821 -33.751  1.00  0.00     0.078 A 
HETATM   21  C   UNL     1      -5.190 -16.229 -33.851  1.00  0.00     0.034 A 
HETATM   22  N   UNL     1      -4.843 -12.822 -34.631  1.00  0.00    -0.188 N 
HETATM   23  C   UNL     1      -5.624 -13.801 -32.432  1.00  0.00     0.032 A 
HETATM   24  H   UNL     1      -4.889 -11.833 -34.435  1.00  0.00     0.184 HD
HETATM   25  C   UNL     1      -5.860 -15.044 -31.833  1.00  0.00     0.002 A 
HETATM   26  C   UNL     1      -5.646 -16.238 -32.526  1.00  0.00     0.002 A 
ENDBRANCH   2  17
TORSDOF 2
ENDMDL
MODEL 8
REMARK VINA RESULT:      -7.8      1.873      6.737
REMARK  2 active torsions:
REMARK  status: ('A' for Active; 'I' for Inactive)
REMARK    1  A    between atoms: C_9  and  C_10 
REMARK       I    between atoms: C_10  and  N_11 
REMARK    2  A    between atoms: N_11  and  C_12 
ROOT
HETATM    1  C   UNL     1      -5.997   3.932 -30.141  1.00  0.00     0.267 C 
HETATM    2  N   UNL     1      -6.957   2.988 -30.332  1.00  0.00    -0.156 N 
HETATM    3  O   UNL     1      -5.949   4.532 -29.057  1.00  0.00    -0.270 OA
HETATM    4  H   UNL     1      -7.614   2.863 -29.570  1.00  0.00     0.187 HD
ENDROOT
BRANCH   1   5
HETATM    5  C   UNL     1      -4.956   4.301 -31.221  1.00  0.00     0.282 C 
HETATM    6  N   UNL     1      -3.716   3.425 -31.005  1.00  0.00    -0.058 N 
HETATM    7  C   UNL     1      -2.683   3.622 -32.046  1.00  0.00     0.272 C 
HETATM    8  H   UNL     1      -3.341   3.640 -30.071  1.00  0.00     0.278 HD
HETATM    9  H   UNL     1      -4.013   2.443 -30.945  1.00  0.00     0.278 HD
HETATM   10  C   UNL     1      -2.379   5.071 -32.296  1.00  0.00    -0.026 A 
HETATM   11  C   UNL     1      -3.264   6.085 -31.876  1.00  0.00    -0.048 A 
HETATM   12  C   UNL     1      -1.223   5.419 -33.010  1.00  0.00     0.009 A 
HETATM   13  C   UNL     1      -2.958   7.426 -32.151  1.00  0.00     0.008 A 
HETATM   14  C   UNL     1      -4.507   5.763 -31.079  1.00  0.00     0.082 C 
HETATM   15  C   UNL     1      -1.801   7.757 -32.854  1.00  0.00     0.001 A 
HETATM   16  C   UNL     1      -0.936   6.756 -33.284  1.00  0.00     0.001 A 
ENDBRANCH   1   5
BRANCH   2  17
HETATM   17  C   UNL     1      -7.022   2.166 -31.424  1.00  0.00     0.708 A 
HETATM   18  N   UNL     1      -7.649   2.403 -32.550  1.00  0.00    -0.062 NA
HETATM   19  C   UNL     1      -7.446   1.287 -33.330  1.00  0.00     0.103 A 
HETATM   20  C   UNL     1      -6.665   0.355 -32.658  1.00  0.00     0.078 A 
HETATM   21  C   UNL     1      -7.903   1.000 -34.623  1.00  0.00     0.034 A 
HETATM   22  N   UNL     1      -6.395   0.945 -31.450  1.00  0.00    -0.188 N 
HETATM   23  C   UNL     1      -6.307  -0.879 -33.203  1.00  0.00     0.032 A 
HETATM   24  H   UNL     1      -5.846   0.535 -30.709  1.00  0.00     0.184 HD
HETATM   25  C   UNL     1      -6.775  -1.153 -34.493  1.00  0.00     0.002 A 
HETATM   26  C   UNL     1      -7.557  -0.232 -35.194  1.00  0.00     0.002 A 
ENDBRANCH   2  17
TORSDOF 2
ENDMDL
MODEL 9
REMARK VINA RESULT:      -7.7      3.329      4.049
REMARK  2 active torsions:
REMARK  status: ('A' for Active; 'I' for Inactive)
REMARK    1  A    between atoms: C_9  and  C_10 
REMARK       I    between atoms: C_10  and  N_11 
REMARK    2  A    between atoms: N_11  and  C_12 
ROOT
HETATM    1  C   UNL     1      -6.248   1.152 -30.061  1.00  0.00     0.267 C 
HETATM    2  N   UNL     1      -6.923   2.280 -29.710  1.00  0.00    -0.156 N 
HETATM    3  O   UNL     1      -5.629   0.524 -29.190  1.00  0.00    -0.270 OA
HETATM    4  H   UNL     1      -6.838   2.565 -28.741  1.00  0.00     0.187 HD
ENDROOT
BRANCH   1   5
HETATM    5  C   UNL     1      -6.212   0.611 -31.508  1.00  0.00     0.282 C 
HETATM    6  N   UNL     1      -7.598   0.045 -31.839  1.00  0.00    -0.058 N 
HETATM    7  C   UNL     1      -7.712  -0.417 -33.240  1.00  0.00     0.272 C 
HETATM    8  H   UNL     1      -7.785  -0.726 -31.183  1.00  0.00     0.278 HD
HETATM    9  H   UNL     1      -8.306   0.754 -31.612  1.00  0.00     0.278 HD
HETATM   10  C   UNL     1      -6.570  -1.297 -33.657  1.00  0.00    -0.026 A 
HETATM   11  C   UNL     1      -5.366  -1.326 -32.924  1.00  0.00    -0.048 A 
HETATM   12  C   UNL     1      -6.681  -2.060 -34.828  1.00  0.00     0.009 A 
HETATM   13  C   UNL     1      -4.312  -2.142 -33.360  1.00  0.00     0.008 A 
HETATM   14  C   UNL     1      -5.208  -0.543 -31.641  1.00  0.00     0.082 C 
HETATM   15  C   UNL     1      -4.440  -2.902 -34.521  1.00  0.00     0.001 A 
HETATM   16  C   UNL     1      -5.622  -2.860 -35.255  1.00  0.00     0.001 A 
ENDBRANCH   1   5
BRANCH   2  17
HETATM   17  C   UNL     1      -7.752   2.973 -30.549  1.00  0.00     0.708 A 
HETATM   18  N   UNL     1      -9.016   2.725 -30.788  1.00  0.00    -0.062 NA
HETATM   19  C   UNL     1      -9.414   3.670 -31.706  1.00  0.00     0.103 A 
HETATM   20  C   UNL     1      -8.361   4.520 -32.022  1.00  0.00     0.078 A 
HETATM   21  C   UNL     1     -10.660   3.860 -32.316  1.00  0.00     0.034 A 
HETATM   22  N   UNL     1      -7.316   4.064 -31.260  1.00  0.00    -0.188 N 
HETATM   23  C   UNL     1      -8.471   5.569 -32.936  1.00  0.00     0.032 A 
HETATM   24  H   UNL     1      -6.387   4.458 -31.248  1.00  0.00     0.184 HD
HETATM   25  C   UNL     1      -9.722   5.743 -33.541  1.00  0.00     0.002 A 
HETATM   26  C   UNL     1     -10.799   4.906 -33.237  1.00  0.00     0.002 A 
ENDBRANCH   2  17
TORSDOF 2
ENDMDL
MODEL 10
REMARK VINA RESULT:      -7.7     15.474     17.433
REMARK  2 active torsions:
REMARK  status: ('A' for Active; 'I' for Inactive)
REMARK    1  A    between atoms: C_9  and  C_10 
REMARK       I    between atoms: C_10  and  N_11 
REMARK    2  A    between atoms: N_11  and  C_12 
ROOT
HETATM    1  C   UNL     1      -5.451 -12.393 -39.387  1.00  0.00     0.267 C 
HETATM    2  N   UNL     1      -6.638 -12.693 -38.793  1.00  0.00    -0.156 N 
HETATM    3  O   UNL     1      -5.434 -11.579 -40.322  1.00  0.00    -0.270 OA
HETATM    4  H   UNL     1      -7.459 -12.252 -39.193  1.00  0.00     0.187 HD
ENDROOT
BRANCH   1   5
HETATM    5  C   UNL     1      -4.112 -13.025 -38.951  1.00  0.00     0.282 C 
HETATM    6  N   UNL     1      -3.113 -11.891 -38.691  1.00  0.00    -0.058 N 
HETATM    7  C   UNL     1      -1.814 -12.374 -38.171  1.00  0.00     0.272 C 
HETATM    8  H   UNL     1      -2.986 -11.377 -39.574  1.00  0.00     0.278 HD
HETATM    9  H   UNL     1      -3.547 -11.209 -38.056  1.00  0.00     0.278 HD
HETATM   10  C   UNL     1      -1.257 -13.516 -38.971  1.00  0.00    -0.026 A 
HETATM   11  C   UNL     1      -2.075 -14.266 -39.839  1.00  0.00    -0.048 A 
HETATM   12  C   UNL     1       0.088 -13.878 -38.808  1.00  0.00     0.009 A 
HETATM   13  C   UNL     1      -1.524 -15.342 -40.550  1.00  0.00     0.008 A 
HETATM   14  C   UNL     1      -3.523 -13.898 -40.069  1.00  0.00     0.082 C 
HETATM   15  C   UNL     1      -0.183 -15.685 -40.385  1.00  0.00     0.001 A 
HETATM   16  C   UNL     1       0.621 -14.955 -39.515  1.00  0.00     0.001 A 
ENDBRANCH   1   5
BRANCH   2  17
HETATM   17  C   UNL     1      -6.763 -13.462 -37.669  1.00  0.00     0.708 A 
HETATM   18  N   UNL     1      -6.890 -14.765 -37.617  1.00  0.00    -0.062 NA
HETATM   19  C   UNL     1      -7.001 -15.075 -36.281  1.00  0.00     0.103 A 
HETATM   20  C   UNL     1      -6.929 -13.925 -35.503  1.00  0.00     0.078 A 
HETATM   21  C   UNL     1      -7.170 -16.318 -35.658  1.00  0.00     0.034 A 
HETATM   22  N   UNL     1      -6.762 -12.911 -36.411  1.00  0.00    -0.188 N 
HETATM   23  C   UNL     1      -7.023 -13.935 -34.111  1.00  0.00     0.032 A 
HETATM   24  H   UNL     1      -6.675 -11.932 -36.183  1.00  0.00     0.184 HD
HETATM   25  C   UNL     1      -7.196 -15.184 -33.504  1.00  0.00     0.002 A 
HETATM   26  C   UNL     1      -7.267 -16.357 -34.261  1.00  0.00     0.002 A 
ENDBRANCH   2  17
TORSDOF 2
ENDMDL
