MODEL 1
REMARK VINA RESULT:      -9.6      0.000      0.000
REMARK  4 active torsions:
REMARK  status: ('A' for Active; 'I' for Inactive)
REMARK    1  A    between atoms: C_7  and  C_8 
REMARK    2  A    between atoms: C_8  and  N_9 
REMARK    3  A    between atoms: N_15  and  C_17 
REMARK    4  A    between atoms: C_21  and  C_22 
ROOT
HETATM    1  N   UNL     1      -4.539   4.237 -32.559  1.00  0.00    -0.067 N 
HETATM    2  H   UNL     1      -4.750   5.210 -32.293  1.00  0.00     0.280 HD
HETATM    3  C   UNL     1      -5.580   3.863 -33.575  1.00  0.00     0.236 C 
HETATM    4  C   UNL     1      -5.525   2.368 -33.896  1.00  0.00     0.039 C 
HETATM    5  C   UNL     1      -5.615   1.444 -32.649  1.00  0.00    -0.013 C 
HETATM    6  C   UNL     1      -7.035   1.433 -32.019  1.00  0.00     0.245 C 
HETATM    7  N   UNL     1      -8.042   0.762 -32.923  1.00  0.00    -0.065 N 
HETATM    8  H   UNL     1      -8.095   1.240 -33.833  1.00  0.00     0.280 HD
HETATM    9  C   UNL     1      -7.677  -0.688 -33.219  1.00  0.00     0.244 C 
HETATM   10  C   UNL     1      -6.296  -0.736 -33.885  1.00  0.00     0.045 C 
HETATM   11  C   UNL     1      -5.238  -0.019 -33.027  1.00  0.00     0.022 C 
HETATM   12  C   UNL     1      -4.567   1.939 -31.607  1.00  0.00     0.039 C 
HETATM   13  C   UNL     1      -4.626   3.433 -31.298  1.00  0.00     0.236 C 
ENDROOT
BRANCH   7  14
HETATM   14  C   UNL     1      -9.427   0.830 -32.343  1.00  0.00     0.188 A 
HETATM   15  C   UNL     1     -10.465   1.553 -33.154  1.00  0.00     0.035 A 
HETATM   16  C   UNL     1     -10.499   0.054 -33.053  1.00  0.00     0.035 A 
ENDBRANCH   7  14
BRANCH  10  17
HETATM   17  C   UNL     1      -5.897  -2.167 -34.191  1.00  0.00    -0.052 A 
HETATM   18  C   UNL     1      -6.853  -3.062 -34.697  1.00  0.00     0.007 A 
HETATM   19  C   UNL     1      -6.512  -4.388 -34.968  1.00  0.00     0.001 A 
HETATM   20  C   UNL     1      -5.214  -4.838 -34.740  1.00  0.00     0.000 A 
HETATM   21  C   UNL     1      -4.254  -3.962 -34.242  1.00  0.00     0.001 A 
HETATM   22  C   UNL     1      -4.590  -2.635 -33.969  1.00  0.00     0.007 A 
ENDBRANCH  10  17
BRANCH   1  23
HETATM   23  C   UNL     1      -3.119   4.367 -33.112  1.00  0.00     0.277 C 
BRANCH  23  24
HETATM   24  C   UNL     1      -2.627   5.761 -33.011  1.00  0.00     0.011 A 
HETATM   25  C   UNL     1      -2.570   6.596 -31.901  1.00  0.00     0.035 A 
HETATM   26  C   UNL     1      -2.900   6.364 -30.469  1.00  0.00     0.070 C 
HETATM   27  N   UNL     1      -2.077   7.798 -32.363  1.00  0.00    -0.278 N 
HETATM   28  C   UNL     1      -1.808   9.012 -31.623  1.00  0.00     0.179 C 
HETATM   29  N   UNL     1      -1.840   7.787 -33.684  1.00  0.00    -0.185 NA
HETATM   30  C   UNL     1      -2.111   6.545 -34.065  1.00  0.00     0.149 A 
ENDBRANCH  23  24
ENDBRANCH   1  23
TORSDOF 4
ENDMDL
MODEL 2
REMARK VINA RESULT:      -8.7      3.069      7.397
REMARK  4 active torsions:
REMARK  status: ('A' for Active; 'I' for Inactive)
REMARK    1  A    between atoms: C_7  and  C_8 
REMARK    2  A    between atoms: C_8  and  N_9 
REMARK    3  A    between atoms: N_15  and  C_17 
REMARK    4  A    between atoms: C_21  and  C_22 
ROOT
HETATM    1  N   UNL     1     -10.522   2.963 -32.930  1.00  0.00    -0.067 N 
HETATM    2  H   UNL     1     -10.848   3.889 -32.614  1.00  0.00     0.280 HD
HETATM    3  C   UNL     1      -9.611   2.465 -31.845  1.00  0.00     0.236 C 
HETATM    4  C   UNL     1      -8.877   1.195 -32.282  1.00  0.00     0.039 C 
HETATM    5  C   UNL     1      -8.110   1.331 -33.628  1.00  0.00    -0.013 C 
HETATM    6  C   UNL     1      -6.846   2.226 -33.503  1.00  0.00     0.245 C 
HETATM    7  N   UNL     1      -5.783   1.573 -32.652  1.00  0.00    -0.065 N 
HETATM    8  H   UNL     1      -6.137   1.379 -31.705  1.00  0.00     0.280 HD
HETATM    9  C   UNL     1      -5.324   0.237 -33.224  1.00  0.00     0.244 C 
HETATM   10  C   UNL     1      -6.529  -0.707 -33.329  1.00  0.00     0.045 C 
HETATM   11  C   UNL     1      -7.668  -0.069 -34.146  1.00  0.00     0.022 C 
HETATM   12  C   UNL     1      -9.091   1.928 -34.682  1.00  0.00     0.039 C 
HETATM   13  C   UNL     1      -9.822   3.192 -34.235  1.00  0.00     0.236 C 
ENDROOT
BRANCH   7  14
HETATM   14  C   UNL     1      -4.598   2.481 -32.469  1.00  0.00     0.188 A 
HETATM   15  C   UNL     1      -4.338   2.981 -31.076  1.00  0.00     0.035 A 
HETATM   16  C   UNL     1      -3.442   1.937 -31.679  1.00  0.00     0.035 A 
ENDBRANCH   7  14
BRANCH  10  17
HETATM   17  C   UNL     1      -6.112  -2.049 -33.900  1.00  0.00    -0.052 A 
HETATM   18  C   UNL     1      -7.087  -2.920 -34.411  1.00  0.00     0.007 A 
HETATM   19  C   UNL     1      -6.728  -4.167 -34.924  1.00  0.00     0.001 A 
HETATM   20  C   UNL     1      -5.393  -4.561 -34.936  1.00  0.00     0.000 A 
HETATM   21  C   UNL     1      -4.414  -3.708 -34.436  1.00  0.00     0.001 A 
HETATM   22  C   UNL     1      -4.768  -2.459 -33.922  1.00  0.00     0.007 A 
ENDBRANCH  10  17
BRANCH   1  23
HETATM   23  C   UNL     1     -11.841   2.200 -33.063  1.00  0.00     0.277 C 
BRANCH  23  24
HETATM   24  C   UNL     1     -12.989   3.026 -32.621  1.00  0.00     0.011 A 
HETATM   25  C   UNL     1     -14.347   2.733 -32.650  1.00  0.00     0.035 A 
HETATM   26  C   UNL     1     -15.087   1.505 -33.048  1.00  0.00     0.070 C 
HETATM   27  N   UNL     1     -14.983   3.858 -32.171  1.00  0.00    -0.278 N 
HETATM   28  C   UNL     1     -16.398   4.089 -31.979  1.00  0.00     0.179 C 
HETATM   29  N   UNL     1     -14.126   4.845 -31.862  1.00  0.00    -0.185 NA
HETATM   30  C   UNL     1     -12.923   4.325 -32.073  1.00  0.00     0.149 A 
ENDBRANCH  23  24
ENDBRANCH   1  23
TORSDOF 4
ENDMDL
MODEL 3
REMARK VINA RESULT:      -8.6      4.128      8.221
REMARK  4 active torsions:
REMARK  status: ('A' for Active; 'I' for Inactive)
REMARK    1  A    between atoms: C_7  and  C_8 
REMARK    2  A    between atoms: C_8  and  N_9 
REMARK    3  A    between atoms: N_15  and  C_17 
REMARK    4  A    between atoms: C_21  and  C_22 
ROOT
HETATM    1  N   UNL     1      -6.465   0.108 -33.975  1.00  0.00    -0.067 N 
HETATM    2  H   UNL     1      -5.442   0.231 -33.966  1.00  0.00     0.280 HD
HETATM    3  C   UNL     1      -7.010   1.316 -34.681  1.00  0.00     0.236 C 
HETATM    4  C   UNL     1      -8.535   1.379 -34.571  1.00  0.00     0.039 C 
HETATM    5  C   UNL     1      -9.073   1.302 -33.114  1.00  0.00    -0.013 C 
HETATM    6  C   UNL     1      -8.789   2.599 -32.307  1.00  0.00     0.245 C 
HETATM    7  N   UNL     1      -9.590   3.768 -32.829  1.00  0.00    -0.065 N 
HETATM    8  H   UNL     1      -9.375   3.949 -33.819  1.00  0.00     0.280 HD
HETATM    9  C   UNL     1     -11.092   3.519 -32.752  1.00  0.00     0.244 C 
HETATM   10  C   UNL     1     -11.439   2.270 -33.571  1.00  0.00     0.045 C 
HETATM   11  C   UNL     1     -10.610   1.056 -33.113  1.00  0.00     0.022 C 
HETATM   12  C   UNL     1      -8.405   0.078 -32.418  1.00  0.00     0.039 C 
HETATM   13  C   UNL     1      -6.884   0.022 -32.539  1.00  0.00     0.236 C 
ENDROOT
BRANCH   7  14
HETATM   14  C   UNL     1      -9.246   5.036 -32.096  1.00  0.00     0.188 A 
HETATM   15  C   UNL     1      -8.594   6.125 -32.900  1.00  0.00     0.035 A 
HETATM   16  C   UNL     1     -10.025   6.265 -32.466  1.00  0.00     0.035 A 
ENDBRANCH   7  14
BRANCH  10  17
HETATM   17  C   UNL     1     -12.928   1.987 -33.514  1.00  0.00    -0.052 A 
HETATM   18  C   UNL     1     -13.724   2.643 -32.561  1.00  0.00     0.007 A 
HETATM   19  C   UNL     1     -15.093   2.384 -32.479  1.00  0.00     0.001 A 
HETATM   20  C   UNL     1     -15.686   1.471 -33.346  1.00  0.00     0.000 A 
HETATM   21  C   UNL     1     -14.912   0.815 -34.298  1.00  0.00     0.001 A 
HETATM   22  C   UNL     1     -13.542   1.070 -34.385  1.00  0.00     0.007 A 
ENDBRANCH  10  17
BRANCH   1  23
HETATM   23  C   UNL     1      -6.614  -1.207 -34.741  1.00  0.00     0.277 C 
BRANCH  23  24
HETATM   24  C   UNL     1      -5.566  -2.179 -34.353  1.00  0.00     0.011 A 
HETATM   25  C   UNL     1      -5.517  -3.552 -34.566  1.00  0.00     0.035 A 
HETATM   26  C   UNL     1      -6.427  -4.474 -35.297  1.00  0.00     0.070 C 
HETATM   27  N   UNL     1      -4.354  -3.982 -33.963  1.00  0.00    -0.278 N 
HETATM   28  C   UNL     1      -3.809  -5.321 -33.894  1.00  0.00     0.179 C 
HETATM   29  N   UNL     1      -3.680  -2.985 -33.368  1.00  0.00    -0.185 NA
HETATM   30  C   UNL     1      -4.374  -1.890 -33.654  1.00  0.00     0.149 A 
ENDBRANCH  23  24
ENDBRANCH   1  23
TORSDOF 4
ENDMDL
MODEL 4
REMARK VINA RESULT:      -8.2      1.433      2.176
REMARK  4 active torsions:
REMARK  status: ('A' for Active; 'I' for Inactive)
REMARK    1  A    between atoms: C_7  and  C_8 
REMARK    2  A    between atoms: C_8  and  N_9 
REMARK    3  A    between atoms: N_15  and  C_17 
REMARK    4  A    between atoms: C_21  and  C_22 
ROOT
HETATM    1  N   UNL     1      -5.612   4.814 -30.909  1.00  0.00    -0.067 N 
HETATM    2  H   UNL     1      -5.942   5.731 -30.571  1.00  0.00     0.280 HD
HETATM    3  C   UNL     1      -6.277   4.612 -32.240  1.00  0.00     0.236 C 
HETATM    4  C   UNL     1      -6.052   3.190 -32.758  1.00  0.00     0.039 C 
HETATM    5  C   UNL     1      -6.469   2.074 -31.759  1.00  0.00    -0.013 C 
HETATM    6  C   UNL     1      -8.011   1.960 -31.604  1.00  0.00     0.245 C 
HETATM    7  N   UNL     1      -8.662   1.447 -32.867  1.00  0.00    -0.065 N 
HETATM    8  H   UNL     1      -8.461   2.068 -33.663  1.00  0.00     0.280 HD
HETATM    9  C   UNL     1      -8.153   0.065 -33.259  1.00  0.00     0.244 C 
HETATM   10  C   UNL     1      -6.634   0.126 -33.469  1.00  0.00     0.045 C 
HETATM   11  C   UNL     1      -5.923   0.693 -32.227  1.00  0.00     0.022 C 
HETATM   12  C   UNL     1      -5.811   2.391 -30.382  1.00  0.00     0.039 C 
HETATM   13  C   UNL     1      -6.036   3.815 -29.876  1.00  0.00     0.236 C 
ENDROOT
BRANCH   7  14
HETATM   14  C   UNL     1     -10.159   1.419 -32.736  1.00  0.00     0.188 A 
HETATM   15  C   UNL     1     -10.951   1.519 -34.010  1.00  0.00     0.035 A 
HETATM   16  C   UNL     1     -10.865   0.210 -33.278  1.00  0.00     0.035 A 
ENDBRANCH   7  14
BRANCH  10  17
HETATM   17  C   UNL     1      -6.090  -1.234 -33.857  1.00  0.00    -0.052 A 
HETATM   18  C   UNL     1      -4.772  -1.578 -33.517  1.00  0.00     0.007 A 
HETATM   19  C   UNL     1      -4.244  -2.818 -33.880  1.00  0.00     0.001 A 
HETATM   20  C   UNL     1      -5.023  -3.732 -34.585  1.00  0.00     0.000 A 
HETATM   21  C   UNL     1      -6.333  -3.408 -34.926  1.00  0.00     0.001 A 
HETATM   22  C   UNL     1      -6.866  -2.169 -34.565  1.00  0.00     0.007 A 
ENDBRANCH  10  17
BRANCH   1  23
HETATM   23  C   UNL     1      -4.100   5.033 -30.971  1.00  0.00     0.277 C 
BRANCH  23  24
HETATM   24  C   UNL     1      -3.738   6.415 -30.576  1.00  0.00     0.011 A 
HETATM   25  C   UNL     1      -3.029   7.376 -31.287  1.00  0.00     0.035 A 
HETATM   26  C   UNL     1      -2.475   7.379 -32.667  1.00  0.00     0.070 C 
HETATM   27  N   UNL     1      -2.930   8.464 -30.446  1.00  0.00    -0.278 N 
HETATM   28  C   UNL     1      -2.301   9.744 -30.689  1.00  0.00     0.179 C 
HETATM   29  N   UNL     1      -3.506   8.250 -29.252  1.00  0.00    -0.185 NA
HETATM   30  C   UNL     1      -4.046   7.042 -29.350  1.00  0.00     0.149 A 
ENDBRANCH  23  24
ENDBRANCH   1  23
TORSDOF 4
ENDMDL
MODEL 5
REMARK VINA RESULT:      -8.0      4.418      8.111
REMARK  4 active torsions:
REMARK  status: ('A' for Active; 'I' for Inactive)
REMARK    1  A    between atoms: C_7  and  C_8 
REMARK    2  A    between atoms: C_8  and  N_9 
REMARK    3  A    between atoms: N_15  and  C_17 
REMARK    4  A    between atoms: C_21  and  C_22 
ROOT
HETATM    1  N   UNL     1      -6.577  -0.351 -34.050  1.00  0.00    -0.067 N 
HETATM    2  H   UNL     1      -6.412  -1.226 -34.571  1.00  0.00     0.280 HD
HETATM    3  C   UNL     1      -7.717  -0.646 -33.119  1.00  0.00     0.236 C 
HETATM    4  C   UNL     1      -8.218   0.631 -32.440  1.00  0.00     0.039 C 
HETATM    5  C   UNL     1      -8.593   1.774 -33.426  1.00  0.00    -0.013 C 
HETATM    6  C   UNL     1      -9.898   1.474 -34.215  1.00  0.00     0.245 C 
HETATM    7  N   UNL     1     -11.110   1.489 -33.314  1.00  0.00    -0.065 N 
HETATM    8  H   UNL     1     -11.018   0.791 -32.562  1.00  0.00     0.280 HD
HETATM    9  C   UNL     1     -11.305   2.837 -32.630  1.00  0.00     0.244 C 
HETATM   10  C   UNL     1     -10.060   3.166 -31.797  1.00  0.00     0.045 C 
HETATM   11  C   UNL     1      -8.784   3.114 -32.658  1.00  0.00     0.022 C 
HETATM   12  C   UNL     1      -7.401   1.968 -34.411  1.00  0.00     0.039 C 
HETATM   13  C   UNL     1      -6.904   0.688 -35.079  1.00  0.00     0.236 C 
ENDROOT
BRANCH   7  14
HETATM   14  C   UNL     1     -12.355   1.116 -34.069  1.00  0.00     0.188 A 
HETATM   15  C   UNL     1     -13.103  -0.094 -33.585  1.00  0.00     0.035 A 
HETATM   16  C   UNL     1     -13.662   1.280 -33.346  1.00  0.00     0.035 A 
ENDBRANCH   7  14
BRANCH  10  17
HETATM   17  C   UNL     1     -10.216   4.506 -31.104  1.00  0.00    -0.052 A 
HETATM   18  C   UNL     1     -11.397   5.244 -31.277  1.00  0.00     0.007 A 
HETATM   19  C   UNL     1     -11.555   6.488 -30.663  1.00  0.00     0.001 A 
HETATM   20  C   UNL     1     -10.538   7.010 -29.868  1.00  0.00     0.000 A 
HETATM   21  C   UNL     1      -9.363   6.289 -29.684  1.00  0.00     0.001 A 
HETATM   22  C   UNL     1      -9.200   5.044 -30.295  1.00  0.00     0.007 A 
ENDBRANCH  10  17
BRANCH   1  23
HETATM   23  C   UNL     1      -5.226  -0.138 -33.366  1.00  0.00     0.277 C 
BRANCH  23  24
HETATM   24  C   UNL     1      -4.515  -1.422 -33.164  1.00  0.00     0.011 A 
HETATM   25  C   UNL     1      -4.585  -2.593 -33.909  1.00  0.00     0.035 A 
HETATM   26  C   UNL     1      -5.311  -2.927 -35.164  1.00  0.00     0.070 C 
HETATM   27  N   UNL     1      -3.766  -3.495 -33.265  1.00  0.00    -0.278 N 
HETATM   28  C   UNL     1      -3.464  -4.865 -33.623  1.00  0.00     0.179 C 
HETATM   29  N   UNL     1      -3.203  -2.984 -32.158  1.00  0.00    -0.185 NA
HETATM   30  C   UNL     1      -3.602  -1.719 -32.129  1.00  0.00     0.149 A 
ENDBRANCH  23  24
ENDBRANCH   1  23
TORSDOF 4
ENDMDL
MODEL 6
REMARK VINA RESULT:      -8.0      3.140      8.409
REMARK  4 active torsions:
REMARK  status: ('A' for Active; 'I' for Inactive)
REMARK    1  A    between atoms: C_7  and  C_8 
REMARK    2  A    between atoms: C_8  and  N_9 
REMARK    3  A    between atoms: N_15  and  C_17 
REMARK    4  A    between atoms: C_21  and  C_22 
ROOT
HETATM    1  N   UNL     1      -9.717   2.052 -32.307  1.00  0.00    -0.067 N 
HETATM    2  H   UNL     1     -10.462   1.366 -32.114  1.00  0.00     0.280 HD
HETATM    3  C   UNL     1      -8.729   1.338 -33.184  1.00  0.00     0.236 C 
HETATM    4  C   UNL     1      -7.455   2.166 -33.367  1.00  0.00     0.039 C 
HETATM    5  C   UNL     1      -6.788   2.613 -32.035  1.00  0.00    -0.013 C 
HETATM    6  C   UNL     1      -6.119   1.432 -31.280  1.00  0.00     0.245 C 
HETATM    7  N   UNL     1      -4.913   0.907 -32.022  1.00  0.00    -0.065 N 
HETATM    8  H   UNL     1      -5.172   0.583 -32.964  1.00  0.00     0.280 HD
HETATM    9  C   UNL     1      -3.841   1.974 -32.212  1.00  0.00     0.244 C 
HETATM   10  C   UNL     1      -4.435   3.152 -32.994  1.00  0.00     0.045 C 
HETATM   11  C   UNL     1      -5.702   3.695 -32.307  1.00  0.00     0.022 C 
HETATM   12  C   UNL     1      -7.885   3.270 -31.144  1.00  0.00     0.039 C 
HETATM   13  C   UNL     1      -9.155   2.438 -30.973  1.00  0.00     0.236 C 
ENDROOT
BRANCH   7  14
HETATM   14  C   UNL     1      -4.322  -0.289 -31.326  1.00  0.00     0.188 A 
HETATM   15  C   UNL     1      -4.019  -1.487 -32.181  1.00  0.00     0.035 A 
HETATM   16  C   UNL     1      -2.899  -0.633 -31.660  1.00  0.00     0.035 A 
ENDBRANCH   7  14
BRANCH  10  17
HETATM   17  C   UNL     1      -3.398   4.238 -33.200  1.00  0.00    -0.052 A 
HETATM   18  C   UNL     1      -2.272   4.291 -32.362  1.00  0.00     0.007 A 
HETATM   19  C   UNL     1      -1.313   5.294 -32.522  1.00  0.00     0.001 A 
HETATM   20  C   UNL     1      -1.464   6.254 -33.517  1.00  0.00     0.000 A 
HETATM   21  C   UNL     1      -2.572   6.214 -34.358  1.00  0.00     0.001 A 
HETATM   22  C   UNL     1      -3.534   5.213 -34.203  1.00  0.00     0.007 A 
ENDBRANCH  10  17
BRANCH   1  23
HETATM   23  C   UNL     1     -10.497   3.172 -32.996  1.00  0.00     0.277 C 
BRANCH  23  24
HETATM   24  C   UNL     1     -11.951   3.055 -32.738  1.00  0.00     0.011 A 
HETATM   25  C   UNL     1     -12.850   2.095 -33.187  1.00  0.00     0.035 A 
HETATM   26  C   UNL     1     -12.658   0.856 -33.989  1.00  0.00     0.070 C 
HETATM   27  N   UNL     1     -14.081   2.479 -32.700  1.00  0.00    -0.278 N 
HETATM   28  C   UNL     1     -15.363   1.828 -32.860  1.00  0.00     0.179 C 
HETATM   29  N   UNL     1     -14.025   3.621 -31.996  1.00  0.00    -0.185 NA
HETATM   30  C   UNL     1     -12.737   3.936 -31.964  1.00  0.00     0.149 A 
ENDBRANCH  23  24
ENDBRANCH   1  23
TORSDOF 4
ENDMDL
MODEL 7
REMARK VINA RESULT:      -7.9      2.603      5.453
REMARK  4 active torsions:
REMARK  status: ('A' for Active; 'I' for Inactive)
REMARK    1  A    between atoms: C_7  and  C_8 
REMARK    2  A    between atoms: C_8  and  N_9 
REMARK    3  A    between atoms: N_15  and  C_17 
REMARK    4  A    between atoms: C_21  and  C_22 
ROOT
HETATM    1  N   UNL     1      -5.694   4.848 -31.474  1.00  0.00    -0.067 N 
HETATM    2  H   UNL     1      -4.712   5.025 -31.216  1.00  0.00     0.280 HD
HETATM    3  C   UNL     1      -5.976   3.437 -31.045  1.00  0.00     0.236 C 
HETATM    4  C   UNL     1      -7.334   2.963 -31.568  1.00  0.00     0.039 C 
HETATM    5  C   UNL     1      -7.516   3.119 -33.105  1.00  0.00    -0.013 C 
HETATM    6  C   UNL     1      -6.658   2.106 -33.911  1.00  0.00     0.245 C 
HETATM    7  N   UNL     1      -7.146   0.689 -33.726  1.00  0.00    -0.065 N 
HETATM    8  H   UNL     1      -7.119   0.418 -32.733  1.00  0.00     0.280 HD
HETATM    9  C   UNL     1      -8.588   0.510 -34.184  1.00  0.00     0.244 C 
HETATM   10  C   UNL     1      -9.493   1.458 -33.387  1.00  0.00     0.045 C 
HETATM   11  C   UNL     1      -9.009   2.916 -33.499  1.00  0.00     0.022 C 
HETATM   12  C   UNL     1      -7.129   4.580 -33.488  1.00  0.00     0.039 C 
HETATM   13  C   UNL     1      -5.775   5.045 -32.957  1.00  0.00     0.236 C 
ENDROOT
BRANCH   7  14
HETATM   14  C   UNL     1      -6.259  -0.291 -34.442  1.00  0.00     0.188 A 
HETATM   15  C   UNL     1      -5.587  -1.337 -33.598  1.00  0.00     0.035 A 
HETATM   16  C   UNL     1      -6.729  -1.717 -34.497  1.00  0.00     0.035 A 
ENDBRANCH   7  14
BRANCH  10  17
HETATM   17  C   UNL     1     -10.939   1.312 -33.819  1.00  0.00    -0.052 A 
HETATM   18  C   UNL     1     -11.509   2.269 -34.673  1.00  0.00     0.007 A 
HETATM   19  C   UNL     1     -12.844   2.164 -35.069  1.00  0.00     0.001 A 
HETATM   20  C   UNL     1     -13.625   1.103 -34.620  1.00  0.00     0.000 A 
HETATM   21  C   UNL     1     -13.074   0.144 -33.777  1.00  0.00     0.001 A 
HETATM   22  C   UNL     1     -11.740   0.244 -33.378  1.00  0.00     0.007 A 
ENDBRANCH  10  17
BRANCH   1  23
HETATM   23  C   UNL     1      -6.425   5.923 -30.668  1.00  0.00     0.277 C 
BRANCH  23  24
HETATM   24  C   UNL     1      -5.837   6.076 -29.316  1.00  0.00     0.011 A 
HETATM   25  C   UNL     1      -4.621   6.635 -28.943  1.00  0.00     0.035 A 
HETATM   26  C   UNL     1      -3.561   7.317 -29.733  1.00  0.00     0.070 C 
HETATM   27  N   UNL     1      -4.542   6.479 -27.576  1.00  0.00    -0.278 N 
HETATM   28  C   UNL     1      -3.489   6.894 -26.674  1.00  0.00     0.179 C 
HETATM   29  N   UNL     1      -5.609   5.845 -27.065  1.00  0.00    -0.185 NA
HETATM   30  C   UNL     1      -6.418   5.656 -28.100  1.00  0.00     0.149 A 
ENDBRANCH  23  24
ENDBRANCH   1  23
TORSDOF 4
ENDMDL
MODEL 8
REMARK VINA RESULT:      -7.8     15.980     18.253
REMARK  4 active torsions:
REMARK  status: ('A' for Active; 'I' for Inactive)
REMARK    1  A    between atoms: C_7  and  C_8 
REMARK    2  A    between atoms: C_8  and  N_9 
REMARK    3  A    between atoms: N_15  and  C_17 
REMARK    4  A    between atoms: C_21  and  C_22 
ROOT
HETATM    1  N   UNL     1      -5.124 -15.259 -32.780  1.00  0.00    -0.067 N 
HETATM    2  H   UNL     1      -4.335 -15.394 -32.131  1.00  0.00     0.280 HD
HETATM    3  C   UNL     1      -4.652 -15.790 -34.103  1.00  0.00     0.236 C 
HETATM    4  C   UNL     1      -5.643 -15.450 -35.219  1.00  0.00     0.039 C 
HETATM    5  C   UNL     1      -5.992 -13.938 -35.324  1.00  0.00    -0.013 C 
HETATM    6  C   UNL     1      -4.813 -13.093 -35.878  1.00  0.00     0.245 C 
HETATM    7  N   UNL     1      -4.535 -13.406 -37.329  1.00  0.00    -0.065 N 
HETATM    8  H   UNL     1      -4.307 -14.402 -37.454  1.00  0.00     0.280 HD
HETATM    9  C   UNL     1      -5.739 -13.125 -38.221  1.00  0.00     0.244 C 
HETATM   10  C   UNL     1      -6.928 -13.969 -37.746  1.00  0.00     0.045 C 
HETATM   11  C   UNL     1      -7.223 -13.727 -36.254  1.00  0.00     0.022 C 
HETATM   12  C   UNL     1      -6.393 -13.438 -33.903  1.00  0.00     0.039 C 
HETATM   13  C   UNL     1      -5.400 -13.786 -32.796  1.00  0.00     0.236 C 
ENDROOT
BRANCH   7  14
HETATM   14  C   UNL     1      -3.340 -12.645 -37.833  1.00  0.00     0.188 A 
HETATM   15  C   UNL     1      -1.992 -13.255 -37.572  1.00  0.00     0.035 A 
HETATM   16  C   UNL     1      -2.566 -13.266 -38.960  1.00  0.00     0.035 A 
ENDBRANCH   7  14
BRANCH  10  17
HETATM   17  C   UNL     1      -8.148 -13.713 -38.609  1.00  0.00    -0.052 A 
HETATM   18  C   UNL     1      -8.425 -12.409 -39.050  1.00  0.00     0.007 A 
HETATM   19  C   UNL     1      -9.553 -12.147 -39.830  1.00  0.00     0.001 A 
HETATM   20  C   UNL     1     -10.417 -13.180 -40.180  1.00  0.00     0.000 A 
HETATM   21  C   UNL     1     -10.155 -14.478 -39.754  1.00  0.00     0.001 A 
HETATM   22  C   UNL     1      -9.028 -14.746 -38.974  1.00  0.00     0.007 A 
ENDBRANCH  10  17
BRANCH   1  23
HETATM   23  C   UNL     1      -6.222 -16.086 -32.110  1.00  0.00     0.277 C 
BRANCH  23  24
HETATM   24  C   UNL     1      -5.861 -16.433 -30.716  1.00  0.00     0.011 A 
HETATM   25  C   UNL     1      -6.414 -17.394 -29.877  1.00  0.00     0.035 A 
HETATM   26  C   UNL     1      -7.468 -18.419 -30.103  1.00  0.00     0.070 C 
HETATM   27  N   UNL     1      -5.747 -17.270 -28.677  1.00  0.00    -0.278 N 
HETATM   28  C   UNL     1      -5.919 -18.033 -27.460  1.00  0.00     0.179 C 
HETATM   29  N   UNL     1      -4.831 -16.288 -28.693  1.00  0.00    -0.185 NA
HETATM   30  C   UNL     1      -4.854 -15.825 -29.937  1.00  0.00     0.149 A 
ENDBRANCH  23  24
ENDBRANCH   1  23
TORSDOF 4
ENDMDL
MODEL 9
REMARK VINA RESULT:      -7.7      2.944      6.430
REMARK  4 active torsions:
REMARK  status: ('A' for Active; 'I' for Inactive)
REMARK    1  A    between atoms: C_7  and  C_8 
REMARK    2  A    between atoms: C_8  and  N_9 
REMARK    3  A    between atoms: N_15  and  C_17 
REMARK    4  A    between atoms: C_21  and  C_22 
ROOT
HETATM    1  N   UNL     1      -9.726   3.274 -32.494  1.00  0.00    -0.067 N 
HETATM    2  H   UNL     1      -9.968   4.187 -32.079  1.00  0.00     0.280 HD
HETATM    3  C   UNL     1      -9.018   2.514 -31.409  1.00  0.00     0.236 C 
HETATM    4  C   UNL     1      -8.402   1.223 -31.952  1.00  0.00     0.039 C 
HETATM    5  C   UNL     1      -7.471   1.427 -33.180  1.00  0.00    -0.013 C 
HETATM    6  C   UNL     1      -6.129   2.111 -32.801  1.00  0.00     0.245 C 
HETATM    7  N   UNL     1      -5.263   1.209 -31.954  1.00  0.00    -0.065 N 
HETATM    8  H   UNL     1      -5.747   0.943 -31.086  1.00  0.00     0.280 HD
HETATM    9  C   UNL     1      -4.911  -0.091 -32.667  1.00  0.00     0.244 C 
HETATM   10  C   UNL     1      -6.203  -0.835 -33.028  1.00  0.00     0.045 C 
HETATM   11  C   UNL     1      -7.149   0.059 -33.851  1.00  0.00     0.022 C 
HETATM   12  C   UNL     1      -8.239   2.289 -34.227  1.00  0.00     0.039 C 
HETATM   13  C   UNL     1      -8.854   3.573 -33.675  1.00  0.00     0.236 C 
ENDROOT
BRANCH   7  14
HETATM   14  C   UNL     1      -4.004   1.909 -31.523  1.00  0.00     0.188 A 
HETATM   15  C   UNL     1      -3.411   2.892 -32.494  1.00  0.00     0.035 A 
HETATM   16  C   UNL     1      -4.105   3.384 -31.255  1.00  0.00     0.035 A 
ENDBRANCH   7  14
BRANCH  10  17
HETATM   17  C   UNL     1      -5.893  -2.134 -33.745  1.00  0.00    -0.052 A 
HETATM   18  C   UNL     1      -6.931  -2.856 -34.356  1.00  0.00     0.007 A 
HETATM   19  C   UNL     1      -6.671  -4.064 -35.006  1.00  0.00     0.001 A 
HETATM   20  C   UNL     1      -5.374  -4.567 -35.055  1.00  0.00     0.000 A 
HETATM   21  C   UNL     1      -4.333  -3.862 -34.458  1.00  0.00     0.001 A 
HETATM   22  C   UNL     1      -4.588  -2.653 -33.807  1.00  0.00     0.007 A 
ENDBRANCH  10  17
BRANCH   1  23
HETATM   23  C   UNL     1     -11.105   2.728 -32.866  1.00  0.00     0.277 C 
BRANCH  23  24
HETATM   24  C   UNL     1     -11.772   3.588 -33.872  1.00  0.00     0.011 A 
HETATM   25  C   UNL     1     -12.358   4.838 -33.710  1.00  0.00     0.035 A 
HETATM   26  C   UNL     1     -12.448   5.745 -32.535  1.00  0.00     0.070 C 
HETATM   27  N   UNL     1     -12.874   5.170 -34.944  1.00  0.00    -0.278 N 
HETATM   28  C   UNL     1     -13.578   6.371 -35.340  1.00  0.00     0.179 C 
HETATM   29  N   UNL     1     -12.674   4.213 -35.864  1.00  0.00    -0.185 NA
HETATM   30  C   UNL     1     -11.958   3.287 -35.238  1.00  0.00     0.149 A 
ENDBRANCH  23  24
ENDBRANCH   1  23
TORSDOF 4
ENDMDL
MODEL 10
REMARK VINA RESULT:      -7.7      1.814      4.916
REMARK  4 active torsions:
REMARK  status: ('A' for Active; 'I' for Inactive)
REMARK    1  A    between atoms: C_7  and  C_8 
REMARK    2  A    between atoms: C_8  and  N_9 
REMARK    3  A    between atoms: N_15  and  C_17 
REMARK    4  A    between atoms: C_21  and  C_22 
ROOT
HETATM    1  N   UNL     1      -4.436   4.257 -32.454  1.00  0.00    -0.067 N 
HETATM    2  H   UNL     1      -3.405   4.258 -32.449  1.00  0.00     0.280 HD
HETATM    3  C   UNL     1      -4.840   2.935 -31.868  1.00  0.00     0.236 C 
HETATM    4  C   UNL     1      -6.345   2.701 -32.020  1.00  0.00     0.039 C 
HETATM    5  C   UNL     1      -6.869   2.842 -33.477  1.00  0.00    -0.013 C 
HETATM    6  C   UNL     1      -6.419   1.664 -34.386  1.00  0.00     0.245 C 
HETATM    7  N   UNL     1      -7.081   0.367 -33.986  1.00  0.00    -0.065 N 
HETATM    8  H   UNL     1      -6.858   0.126 -33.011  1.00  0.00     0.280 HD
HETATM    9  C   UNL     1      -8.600   0.441 -34.077  1.00  0.00     0.244 C 
HETATM   10  C   UNL     1      -9.107   1.563 -33.162  1.00  0.00     0.045 C 
HETATM   11  C   UNL     1      -8.425   2.903 -33.493  1.00  0.00     0.022 C 
HETATM   12  C   UNL     1      -6.345   4.194 -34.049  1.00  0.00     0.039 C 
HETATM   13  C   UNL     1      -4.843   4.420 -33.887  1.00  0.00     0.236 C 
ENDROOT
BRANCH   7  14
HETATM   14  C   UNL     1      -6.577  -0.781 -34.817  1.00  0.00     0.188 A 
HETATM   15  C   UNL     1      -5.596  -1.711 -34.161  1.00  0.00     0.035 A 
HETATM   16  C   UNL     1      -7.009  -2.158 -34.404  1.00  0.00     0.035 A 
ENDBRANCH   7  14
BRANCH  10  17
HETATM   17  C   UNL     1     -10.618   1.670 -33.229  1.00  0.00    -0.052 A 
HETATM   18  C   UNL     1     -11.380   0.542 -33.575  1.00  0.00     0.007 A 
HETATM   19  C   UNL     1     -12.771   0.623 -33.661  1.00  0.00     0.001 A 
HETATM   20  C   UNL     1     -13.420   1.827 -33.403  1.00  0.00     0.000 A 
HETATM   21  C   UNL     1     -12.679   2.953 -33.055  1.00  0.00     0.001 A 
HETATM   22  C   UNL     1     -11.288   2.877 -32.968  1.00  0.00     0.007 A 
ENDBRANCH  10  17
BRANCH   1  23
HETATM   23  C   UNL     1      -4.753   5.472 -31.581  1.00  0.00     0.277 C 
BRANCH  23  24
HETATM   24  C   UNL     1      -3.537   5.981 -30.904  1.00  0.00     0.011 A 
HETATM   25  C   UNL     1      -2.200   5.768 -31.219  1.00  0.00     0.035 A 
HETATM   26  C   UNL     1      -1.551   5.045 -32.346  1.00  0.00     0.070 C 
HETATM   27  N   UNL     1      -1.478   6.425 -30.246  1.00  0.00    -0.278 N 
HETATM   28  C   UNL     1      -0.042   6.536 -30.101  1.00  0.00     0.179 C 
HETATM   29  N   UNL     1      -2.261   7.017 -29.331  1.00  0.00    -0.185 NA
HETATM   30  C   UNL     1      -3.500   6.804 -29.759  1.00  0.00     0.149 A 
ENDBRANCH  23  24
ENDBRANCH   1  23
TORSDOF 4
ENDMDL
