MODEL 1
REMARK VINA RESULT:      -9.6      0.000      0.000
REMARK  6 active torsions:
REMARK  status: ('A' for Active; 'I' for Inactive)
REMARK    1  A    between atoms: C_3  and  C_4 
REMARK    2  A    between atoms: C_4  and  C_5 
REMARK    3  A    between atoms: N_8  and  C_10 
REMARK    4  A    between atoms: C_10  and  C_11 
REMARK    5  A    between atoms: N_24  and  C_25 
REMARK    6  A    between atoms: C_25  and  C_26 
ROOT
HETATM    1  C   UNL     1      -6.675   1.969 -32.440  1.00  0.00     0.149 C 
HETATM    2  N   UNL     1      -7.115   3.018 -33.351  1.00  0.00    -0.220 NA
HETATM    3  C   UNL     1      -6.156   3.987 -33.513  1.00  0.00     0.304 C 
HETATM    4  O   UNL     1      -6.237   4.864 -34.353  1.00  0.00    -0.253 OA
HETATM    5  N   UNL     1      -5.181   3.800 -32.592  1.00  0.00    -0.270 N 
HETATM    6  C   UNL     1      -5.345   2.596 -31.966  1.00  0.00     0.257 C 
HETATM    7  O   UNL     1      -4.599   2.109 -31.128  1.00  0.00    -0.270 OA
HETATM    8  H   UNL     1      -7.557   2.735 -34.224  1.00  0.00     0.134 HD
ENDROOT
BRANCH   1   9
HETATM    9  C   UNL     1      -6.493   0.688 -33.251  1.00  0.00     0.067 A 
HETATM   10  C   UNL     1      -5.855  -0.445 -32.755  1.00  0.00     0.030 A 
HETATM   11  C   UNL     1      -5.751  -1.568 -33.571  1.00  0.00     0.003 A 
HETATM   12  C   UNL     1      -6.293  -1.544 -34.852  1.00  0.00     0.019 A 
HETATM   13  C   UNL     1      -6.929  -0.391 -35.270  1.00  0.00     0.117 A 
HETATM   14  N   UNL     1      -7.050   0.716 -34.502  1.00  0.00    -0.263 NA
ENDBRANCH   1   9
BRANCH   1  15
HETATM   15  C   UNL     1      -7.659   1.754 -31.235  1.00  0.00     0.028 C 
HETATM   16  C   UNL     1      -8.737   0.682 -31.467  1.00  0.00     0.035 C 
HETATM   17  C   UNL     1      -9.815   1.096 -32.457  1.00  0.00     0.235 C 
HETATM   18  N   UNL     1     -10.425   2.435 -32.107  1.00  0.00    -0.067 N 
HETATM   19  H   UNL     1     -11.060   2.275 -31.312  1.00  0.00     0.280 HD
HETATM   20  C   UNL     1      -9.458   3.524 -31.694  1.00  0.00     0.235 C 
HETATM   21  C   UNL     1      -8.399   3.010 -30.736  1.00  0.00     0.035 C 
BRANCH  18  22
HETATM   22  C   UNL     1     -11.295   2.978 -33.242  1.00  0.00     0.278 C 
BRANCH  22  23
HETATM   23  C   UNL     1     -12.700   2.456 -33.295  1.00  0.00     0.028 A 
HETATM   24  C   UNL     1     -13.694   2.810 -32.371  1.00  0.00     0.045 A 
HETATM   25 CL   UNL     1     -13.400   3.944 -31.103  1.00  0.00    -0.084 Cl
HETATM   26  C   UNL     1     -14.980   2.268 -32.465  1.00  0.00     0.024 A 
HETATM   27  C   UNL     1     -15.289   1.366 -33.482  1.00  0.00     0.005 A 
HETATM   28  C   UNL     1     -14.316   1.013 -34.413  1.00  0.00     0.043 A 
HETATM   29  C   UNL     1     -13.041   1.559 -34.311  1.00  0.00     0.126 A 
HETATM   30  F   UNL     1     -12.116   1.238 -35.226  1.00  0.00    -0.205 F 
ENDBRANCH  22  23
ENDBRANCH  18  22
ENDBRANCH   1  15
BRANCH   5  31
HETATM   31  C   UNL     1      -4.105   4.746 -32.347  1.00  0.00     0.168 C 
BRANCH  31  32
HETATM   32  C   UNL     1      -2.808   4.317 -33.058  1.00  0.00     0.140 C 
HETATM   33  O   UNL     1      -2.819   4.809 -34.424  1.00  0.00    -0.384 OA
HETATM   34  C   UNL     1      -1.615   5.566 -34.626  1.00  0.00     0.168 C 
HETATM   35  C   UNL     1      -1.192   6.048 -33.260  1.00  0.00     0.029 C 
HETATM   36  C   UNL     1      -1.557   4.874 -32.389  1.00  0.00     0.036 C 
ENDBRANCH  31  32
ENDBRANCH   5  31
TORSDOF 6
ENDMDL
MODEL 2
REMARK VINA RESULT:      -9.6      1.412      1.782
REMARK  6 active torsions:
REMARK  status: ('A' for Active; 'I' for Inactive)
REMARK    1  A    between atoms: C_3  and  C_4 
REMARK    2  A    between atoms: C_4  and  C_5 
REMARK    3  A    between atoms: N_8  and  C_10 
REMARK    4  A    between atoms: C_10  and  C_11 
REMARK    5  A    between atoms: N_24  and  C_25 
REMARK    6  A    between atoms: C_25  and  C_26 
ROOT
HETATM    1  C   UNL     1      -6.918   2.090 -32.522  1.00  0.00     0.149 C 
HETATM    2  N   UNL     1      -7.463   3.135 -33.379  1.00  0.00    -0.220 NA
HETATM    3  C   UNL     1      -6.562   4.153 -33.576  1.00  0.00     0.304 C 
HETATM    4  O   UNL     1      -6.737   5.043 -34.388  1.00  0.00    -0.253 OA
HETATM    5  N   UNL     1      -5.524   3.994 -32.721  1.00  0.00    -0.270 N 
HETATM    6  C   UNL     1      -5.592   2.770 -32.115  1.00  0.00     0.257 C 
HETATM    7  O   UNL     1      -4.773   2.302 -31.336  1.00  0.00    -0.270 OA
HETATM    8  H   UNL     1      -7.944   2.850 -34.230  1.00  0.00     0.134 HD
ENDROOT
BRANCH   1   9
HETATM    9  C   UNL     1      -6.727   0.837 -33.373  1.00  0.00     0.067 A 
HETATM   10  C   UNL     1      -7.216   0.714 -34.671  1.00  0.00     0.030 A 
HETATM   11  C   UNL     1      -6.977  -0.467 -35.369  1.00  0.00     0.003 A 
HETATM   12  C   UNL     1      -6.249  -1.488 -34.769  1.00  0.00     0.019 A 
HETATM   13  C   UNL     1      -5.778  -1.289 -33.486  1.00  0.00     0.117 A 
HETATM   14  N   UNL     1      -5.990  -0.154 -32.781  1.00  0.00    -0.263 NA
ENDBRANCH   1   9
BRANCH   1  15
HETATM   15  C   UNL     1      -7.814   1.803 -31.265  1.00  0.00     0.028 C 
HETATM   16  C   UNL     1      -8.936   0.776 -31.494  1.00  0.00     0.035 C 
HETATM   17  C   UNL     1     -10.074   1.292 -32.364  1.00  0.00     0.235 C 
HETATM   18  N   UNL     1     -10.617   2.612 -31.865  1.00  0.00    -0.067 N 
HETATM   19  H   UNL     1     -11.195   2.404 -31.037  1.00  0.00     0.280 HD
HETATM   20  C   UNL     1      -9.592   3.643 -31.444  1.00  0.00     0.235 C 
HETATM   21  C   UNL     1      -8.478   3.031 -30.614  1.00  0.00     0.035 C 
BRANCH  18  22
HETATM   22  C   UNL     1     -11.555   3.263 -32.883  1.00  0.00     0.278 C 
BRANCH  22  23
HETATM   23  C   UNL     1     -12.915   2.643 -33.008  1.00  0.00     0.028 A 
HETATM   24  C   UNL     1     -13.303   1.835 -34.087  1.00  0.00     0.045 A 
HETATM   25 CL   UNL     1     -12.212   1.428 -35.361  1.00  0.00    -0.084 Cl
HETATM   26  C   UNL     1     -14.596   1.307 -34.152  1.00  0.00     0.024 A 
HETATM   27  C   UNL     1     -15.517   1.577 -33.141  1.00  0.00     0.005 A 
HETATM   28  C   UNL     1     -15.143   2.368 -32.059  1.00  0.00     0.043 A 
HETATM   29  C   UNL     1     -13.855   2.888 -32.004  1.00  0.00     0.126 A 
HETATM   30  F   UNL     1     -13.491   3.626 -30.944  1.00  0.00    -0.205 F 
ENDBRANCH  22  23
ENDBRANCH  18  22
ENDBRANCH   1  15
BRANCH   5  31
HETATM   31  C   UNL     1      -4.481   4.985 -32.519  1.00  0.00     0.168 C 
BRANCH  31  32
HETATM   32  C   UNL     1      -3.476   4.988 -33.686  1.00  0.00     0.140 C 
HETATM   33  O   UNL     1      -3.242   6.353 -34.121  1.00  0.00    -0.384 OA
HETATM   34  C   UNL     1      -1.825   6.586 -34.085  1.00  0.00     0.168 C 
HETATM   35  C   UNL     1      -1.269   5.618 -33.069  1.00  0.00     0.029 C 
HETATM   36  C   UNL     1      -2.124   4.399 -33.302  1.00  0.00     0.036 C 
ENDBRANCH  31  32
ENDBRANCH   5  31
TORSDOF 6
ENDMDL
MODEL 3
REMARK VINA RESULT:      -9.4      3.654      7.815
REMARK  6 active torsions:
REMARK  status: ('A' for Active; 'I' for Inactive)
REMARK    1  A    between atoms: C_3  and  C_4 
REMARK    2  A    between atoms: C_4  and  C_5 
REMARK    3  A    between atoms: N_8  and  C_10 
REMARK    4  A    between atoms: C_10  and  C_11 
REMARK    5  A    between atoms: N_24  and  C_25 
REMARK    6  A    between atoms: C_25  and  C_26 
ROOT
HETATM    1  C   UNL     1      -7.191   2.181 -32.033  1.00  0.00     0.149 C 
HETATM    2  N   UNL     1      -6.981   1.576 -33.343  1.00  0.00    -0.220 NA
HETATM    3  C   UNL     1      -8.165   1.197 -33.924  1.00  0.00     0.304 C 
HETATM    4  O   UNL     1      -8.246   0.829 -35.082  1.00  0.00    -0.253 OA
HETATM    5  N   UNL     1      -9.154   1.280 -33.003  1.00  0.00    -0.270 N 
HETATM    6  C   UNL     1      -8.707   1.925 -31.884  1.00  0.00     0.257 C 
HETATM    7  O   UNL     1      -9.374   2.210 -30.899  1.00  0.00    -0.270 OA
HETATM    8  H   UNL     1      -6.346   2.046 -33.987  1.00  0.00     0.134 HD
ENDROOT
BRANCH   1   9
HETATM    9  C   UNL     1      -6.827   3.660 -32.134  1.00  0.00     0.067 A 
HETATM   10  C   UNL     1      -7.020   4.566 -31.095  1.00  0.00     0.030 A 
HETATM   11  C   UNL     1      -6.643   5.893 -31.284  1.00  0.00     0.003 A 
HETATM   12  C   UNL     1      -6.072   6.285 -32.490  1.00  0.00     0.019 A 
HETATM   13  C   UNL     1      -5.893   5.327 -33.469  1.00  0.00     0.117 A 
HETATM   14  N   UNL     1      -6.245   4.029 -33.318  1.00  0.00    -0.263 NA
ENDBRANCH   1   9
BRANCH   1  15
HETATM   15  C   UNL     1      -6.383   1.464 -30.894  1.00  0.00     0.028 C 
HETATM   16  C   UNL     1      -4.872   1.754 -30.894  1.00  0.00     0.035 C 
HETATM   17  C   UNL     1      -4.119   1.093 -32.039  1.00  0.00     0.235 C 
HETATM   18  N   UNL     1      -4.403  -0.389 -32.126  1.00  0.00    -0.067 N 
HETATM   19  H   UNL     1      -3.871  -0.840 -31.367  1.00  0.00     0.280 HD
HETATM   20  C   UNL     1      -5.849  -0.805 -31.964  1.00  0.00     0.235 C 
HETATM   21  C   UNL     1      -6.528  -0.068 -30.824  1.00  0.00     0.035 C 
BRANCH  18  22
HETATM   22  C   UNL     1      -3.878  -0.994 -33.429  1.00  0.00     0.278 C 
BRANCH  22  23
HETATM   23  C   UNL     1      -4.251  -2.424 -33.683  1.00  0.00     0.028 A 
HETATM   24  C   UNL     1      -3.669  -3.508 -33.009  1.00  0.00     0.045 A 
HETATM   25 CL   UNL     1      -2.494  -3.286 -31.765  1.00  0.00    -0.084 Cl
HETATM   26  C   UNL     1      -4.048  -4.821 -33.310  1.00  0.00     0.024 A 
HETATM   27  C   UNL     1      -5.013  -5.067 -34.287  1.00  0.00     0.005 A 
HETATM   28  C   UNL     1      -5.606  -4.000 -34.956  1.00  0.00     0.043 A 
HETATM   29  C   UNL     1      -5.223  -2.700 -34.648  1.00  0.00     0.126 A 
HETATM   30  F   UNL     1      -5.818  -1.675 -35.276  1.00  0.00    -0.205 F 
ENDBRANCH  22  23
ENDBRANCH  18  22
ENDBRANCH   1  15
BRANCH   5  31
HETATM   31  C   UNL     1     -10.501   0.776 -33.213  1.00  0.00     0.168 C 
BRANCH  31  32
HETATM   32  C   UNL     1     -11.505   1.926 -33.417  1.00  0.00     0.140 C 
HETATM   33  O   UNL     1     -10.862   3.009 -34.139  1.00  0.00    -0.384 OA
HETATM   34  C   UNL     1     -11.666   3.304 -35.292  1.00  0.00     0.168 C 
HETATM   35  C   UNL     1     -12.424   2.038 -35.605  1.00  0.00     0.029 C 
HETATM   36  C   UNL     1     -12.726   1.507 -34.228  1.00  0.00     0.036 C 
ENDBRANCH  31  32
ENDBRANCH   5  31
TORSDOF 6
ENDMDL
MODEL 4
REMARK VINA RESULT:      -8.6      3.449      7.689
REMARK  6 active torsions:
REMARK  status: ('A' for Active; 'I' for Inactive)
REMARK    1  A    between atoms: C_3  and  C_4 
REMARK    2  A    between atoms: C_4  and  C_5 
REMARK    3  A    between atoms: N_8  and  C_10 
REMARK    4  A    between atoms: C_10  and  C_11 
REMARK    5  A    between atoms: N_24  and  C_25 
REMARK    6  A    between atoms: C_25  and  C_26 
ROOT
HETATM    1  C   UNL     1      -6.707   2.490 -31.478  1.00  0.00     0.149 C 
HETATM    2  N   UNL     1      -6.759   2.039 -32.863  1.00  0.00    -0.220 NA
HETATM    3  C   UNL     1      -8.022   2.156 -33.389  1.00  0.00     0.304 C 
HETATM    4  O   UNL     1      -8.262   2.000 -34.573  1.00  0.00    -0.253 OA
HETATM    5  N   UNL     1      -8.892   2.431 -32.389  1.00  0.00    -0.270 N 
HETATM    6  C   UNL     1      -8.215   2.730 -31.240  1.00  0.00     0.257 C 
HETATM    7  O   UNL     1      -8.711   3.078 -30.178  1.00  0.00    -0.270 OA
HETATM    8  H   UNL     1      -6.026   2.358 -33.494  1.00  0.00     0.134 HD
ENDROOT
BRANCH   1   9
HETATM    9  C   UNL     1      -5.869   3.765 -31.430  1.00  0.00     0.067 A 
HETATM   10  C   UNL     1      -5.850   4.625 -30.335  1.00  0.00     0.030 A 
HETATM   11  C   UNL     1      -5.042   5.757 -30.385  1.00  0.00     0.003 A 
HETATM   12  C   UNL     1      -4.265   6.002 -31.512  1.00  0.00     0.019 A 
HETATM   13  C   UNL     1      -4.320   5.095 -32.553  1.00  0.00     0.117 A 
HETATM   14  N   UNL     1      -5.092   3.984 -32.536  1.00  0.00    -0.263 NA
ENDBRANCH   1   9
BRANCH   1  15
HETATM   15  C   UNL     1      -6.149   1.395 -30.501  1.00  0.00     0.028 C 
HETATM   16  C   UNL     1      -4.615   1.292 -30.457  1.00  0.00     0.035 C 
HETATM   17  C   UNL     1      -4.003   0.686 -31.712  1.00  0.00     0.235 C 
HETATM   18  N   UNL     1      -4.642  -0.636 -32.075  1.00  0.00    -0.067 N 
HETATM   19  H   UNL     1      -4.270  -1.337 -31.419  1.00  0.00     0.280 HD
HETATM   20  C   UNL     1      -6.152  -0.697 -31.984  1.00  0.00     0.235 C 
HETATM   21  C   UNL     1      -6.672  -0.037 -30.720  1.00  0.00     0.035 C 
BRANCH  18  22
HETATM   22  C   UNL     1      -4.231  -1.101 -33.474  1.00  0.00     0.278 C 
BRANCH  22  23
HETATM   23  C   UNL     1      -4.528  -2.535 -33.798  1.00  0.00     0.028 A 
HETATM   24  C   UNL     1      -3.879  -3.618 -33.187  1.00  0.00     0.045 A 
HETATM   25 CL   UNL     1      -2.703  -3.395 -31.944  1.00  0.00    -0.084 Cl
HETATM   26  C   UNL     1      -4.189  -4.932 -33.552  1.00  0.00     0.024 A 
HETATM   27  C   UNL     1      -5.150  -5.181 -34.531  1.00  0.00     0.005 A 
HETATM   28  C   UNL     1      -5.810  -4.117 -35.139  1.00  0.00     0.043 A 
HETATM   29  C   UNL     1      -5.495  -2.814 -34.767  1.00  0.00     0.126 A 
HETATM   30  F   UNL     1      -6.154  -1.794 -35.334  1.00  0.00    -0.205 F 
ENDBRANCH  22  23
ENDBRANCH  18  22
ENDBRANCH   1  15
BRANCH   5  31
HETATM   31  C   UNL     1     -10.337   2.433 -32.549  1.00  0.00     0.168 C 
BRANCH  31  32
HETATM   32  C   UNL     1     -10.904   3.864 -32.501  1.00  0.00     0.140 C 
HETATM   33  O   UNL     1     -11.007   4.391 -33.850  1.00  0.00    -0.384 OA
HETATM   34  C   UNL     1     -12.362   4.825 -34.048  1.00  0.00     0.168 C 
HETATM   35  C   UNL     1     -13.202   4.020 -33.087  1.00  0.00     0.029 C 
HETATM   36  C   UNL     1     -12.297   3.926 -31.885  1.00  0.00     0.036 C 
ENDBRANCH  31  32
ENDBRANCH   5  31
TORSDOF 6
ENDMDL
MODEL 5
REMARK VINA RESULT:      -8.6      3.865      7.550
REMARK  6 active torsions:
REMARK  status: ('A' for Active; 'I' for Inactive)
REMARK    1  A    between atoms: C_3  and  C_4 
REMARK    2  A    between atoms: C_4  and  C_5 
REMARK    3  A    between atoms: N_8  and  C_10 
REMARK    4  A    between atoms: C_10  and  C_11 
REMARK    5  A    between atoms: N_24  and  C_25 
REMARK    6  A    between atoms: C_25  and  C_26 
ROOT
HETATM    1  C   UNL     1      -6.810   2.979 -31.079  1.00  0.00     0.149 C 
HETATM    2  N   UNL     1      -5.982   2.890 -32.274  1.00  0.00    -0.220 NA
HETATM    3  C   UNL     1      -6.672   3.263 -33.401  1.00  0.00     0.304 C 
HETATM    4  O   UNL     1      -6.135   3.428 -34.482  1.00  0.00    -0.253 OA
HETATM    5  N   UNL     1      -7.986   3.373 -33.096  1.00  0.00    -0.270 N 
HETATM    6  C   UNL     1      -8.166   3.310 -31.743  1.00  0.00     0.257 C 
HETATM    7  O   UNL     1      -9.227   3.437 -31.147  1.00  0.00    -0.270 OA
HETATM    8  H   UNL     1      -5.040   3.276 -32.230  1.00  0.00     0.134 HD
ENDROOT
BRANCH   1   9
HETATM    9  C   UNL     1      -6.263   4.110 -30.211  1.00  0.00     0.067 A 
HETATM   10  C   UNL     1      -6.855   4.510 -29.016  1.00  0.00     0.030 A 
HETATM   11  C   UNL     1      -6.269   5.545 -28.291  1.00  0.00     0.003 A 
HETATM   12  C   UNL     1      -5.108   6.147 -28.762  1.00  0.00     0.019 A 
HETATM   13  C   UNL     1      -4.565   5.685 -29.945  1.00  0.00     0.117 A 
HETATM   14  N   UNL     1      -5.106   4.680 -30.672  1.00  0.00    -0.263 NA
ENDBRANCH   1   9
BRANCH   1  15
HETATM   15  C   UNL     1      -6.885   1.627 -30.285  1.00  0.00     0.028 C 
HETATM   16  C   UNL     1      -5.535   1.115 -29.755  1.00  0.00     0.035 C 
HETATM   17  C   UNL     1      -4.606   0.591 -30.841  1.00  0.00     0.235 C 
HETATM   18  N   UNL     1      -5.285  -0.433 -31.724  1.00  0.00    -0.067 N 
HETATM   19  H   UNL     1      -5.331  -1.309 -31.184  1.00  0.00     0.280 HD
HETATM   20  C   UNL     1      -6.695  -0.107 -32.166  1.00  0.00     0.235 C 
HETATM   21  C   UNL     1      -7.534   0.443 -31.027  1.00  0.00     0.035 C 
BRANCH  18  22
HETATM   22  C   UNL     1      -4.456  -0.746 -32.971  1.00  0.00     0.278 C 
BRANCH  22  23
HETATM   23  C   UNL     1      -4.451  -2.181 -33.407  1.00  0.00     0.028 A 
HETATM   24  C   UNL     1      -5.324  -2.701 -34.374  1.00  0.00     0.045 A 
HETATM   25 CL   UNL     1      -6.463  -1.706 -35.205  1.00  0.00    -0.084 Cl
HETATM   26  C   UNL     1      -5.280  -4.056 -34.719  1.00  0.00     0.024 A 
HETATM   27  C   UNL     1      -4.364  -4.908 -34.103  1.00  0.00     0.005 A 
HETATM   28  C   UNL     1      -3.484  -4.404 -33.150  1.00  0.00     0.043 A 
HETATM   29  C   UNL     1      -3.536  -3.055 -32.815  1.00  0.00     0.126 A 
HETATM   30  F   UNL     1      -2.666  -2.570 -31.917  1.00  0.00    -0.205 F 
ENDBRANCH  22  23
ENDBRANCH  18  22
ENDBRANCH   1  15
BRANCH   5  31
HETATM   31  C   UNL     1      -9.034   3.566 -34.085  1.00  0.00     0.168 C 
BRANCH  31  32
HETATM   32  C   UNL     1      -9.666   4.965 -33.968  1.00  0.00     0.140 C 
HETATM   33  O   UNL     1      -9.375   5.731 -35.166  1.00  0.00    -0.384 OA
HETATM   34  C   UNL     1     -10.623   6.199 -35.701  1.00  0.00     0.168 C 
HETATM   35  C   UNL     1     -11.674   5.233 -35.210  1.00  0.00     0.029 C 
HETATM   36  C   UNL     1     -11.182   4.917 -33.821  1.00  0.00     0.036 C 
ENDBRANCH  31  32
ENDBRANCH   5  31
TORSDOF 6
ENDMDL
MODEL 6
REMARK VINA RESULT:      -8.6      3.264      7.764
REMARK  6 active torsions:
REMARK  status: ('A' for Active; 'I' for Inactive)
REMARK    1  A    between atoms: C_3  and  C_4 
REMARK    2  A    between atoms: C_4  and  C_5 
REMARK    3  A    between atoms: N_8  and  C_10 
REMARK    4  A    between atoms: C_10  and  C_11 
REMARK    5  A    between atoms: N_24  and  C_25 
REMARK    6  A    between atoms: C_25  and  C_26 
ROOT
HETATM    1  C   UNL     1      -8.239   2.153 -32.370  1.00  0.00     0.149 C 
HETATM    2  N   UNL     1      -7.567   2.352 -33.648  1.00  0.00    -0.220 NA
HETATM    3  C   UNL     1      -7.074   1.174 -34.153  1.00  0.00     0.304 C 
HETATM    4  O   UNL     1      -6.628   1.074 -35.282  1.00  0.00    -0.253 OA
HETATM    5  N   UNL     1      -7.153   0.218 -33.198  1.00  0.00    -0.270 N 
HETATM    6  C   UNL     1      -7.896   0.664 -32.141  1.00  0.00     0.257 C 
HETATM    7  O   UNL     1      -8.201   0.018 -31.147  1.00  0.00    -0.270 OA
HETATM    8  H   UNL     1      -8.034   2.928 -34.346  1.00  0.00     0.134 HD
ENDROOT
BRANCH   1   9
HETATM    9  C   UNL     1      -9.729   2.412 -32.579  1.00  0.00     0.067 A 
HETATM   10  C   UNL     1     -10.400   3.498 -32.022  1.00  0.00     0.030 A 
HETATM   11  C   UNL     1     -11.759   3.653 -32.283  1.00  0.00     0.003 A 
HETATM   12  C   UNL     1     -12.415   2.736 -33.098  1.00  0.00     0.019 A 
HETATM   13  C   UNL     1     -11.681   1.695 -33.631  1.00  0.00     0.117 A 
HETATM   14  N   UNL     1     -10.359   1.516 -33.401  1.00  0.00    -0.263 NA
ENDBRANCH   1   9
BRANCH   1  15
HETATM   15  C   UNL     1      -7.651   3.051 -31.225  1.00  0.00     0.028 C 
HETATM   16  C   UNL     1      -7.197   4.451 -31.672  1.00  0.00     0.035 C 
HETATM   17  C   UNL     1      -5.929   4.447 -32.513  1.00  0.00     0.235 C 
HETATM   18  N   UNL     1      -4.807   3.681 -31.847  1.00  0.00    -0.067 N 
HETATM   19  H   UNL     1      -4.441   4.282 -31.095  1.00  0.00     0.280 HD
HETATM   20  C   UNL     1      -5.182   2.357 -31.216  1.00  0.00     0.235 C 
HETATM   21  C   UNL     1      -6.477   2.449 -30.430  1.00  0.00     0.035 C 
BRANCH  18  22
HETATM   22  C   UNL     1      -3.639   3.437 -32.804  1.00  0.00     0.278 C 
BRANCH  22  23
HETATM   23  C   UNL     1      -2.713   4.599 -33.013  1.00  0.00     0.028 A 
HETATM   24  C   UNL     1      -2.739   5.415 -34.153  1.00  0.00     0.045 A 
HETATM   25 CL   UNL     1      -3.896   5.187 -35.413  1.00  0.00    -0.084 Cl
HETATM   26  C   UNL     1      -1.831   6.470 -34.295  1.00  0.00     0.024 A 
HETATM   27  C   UNL     1      -0.888   6.723 -33.300  1.00  0.00     0.005 A 
HETATM   28  C   UNL     1      -0.857   5.929 -32.158  1.00  0.00     0.043 A 
HETATM   29  C   UNL     1      -1.765   4.883 -32.027  1.00  0.00     0.126 A 
HETATM   30  F   UNL     1      -1.750   4.139 -30.911  1.00  0.00    -0.205 F 
ENDBRANCH  22  23
ENDBRANCH  18  22
ENDBRANCH   1  15
BRANCH   5  31
HETATM   31  C   UNL     1      -6.550  -1.099 -33.318  1.00  0.00     0.168 C 
BRANCH  31  32
HETATM   32  C   UNL     1      -5.018  -1.006 -33.443  1.00  0.00     0.140 C 
HETATM   33  O   UNL     1      -4.422  -1.010 -32.119  1.00  0.00    -0.384 OA
HETATM   34  C   UNL     1      -3.453  -2.069 -32.078  1.00  0.00     0.168 C 
HETATM   35  C   UNL     1      -3.889  -3.072 -33.119  1.00  0.00     0.029 C 
HETATM   36  C   UNL     1      -4.417  -2.178 -34.211  1.00  0.00     0.036 C 
ENDBRANCH  31  32
ENDBRANCH   5  31
TORSDOF 6
ENDMDL
MODEL 7
REMARK VINA RESULT:      -8.5      3.382      6.017
REMARK  6 active torsions:
REMARK  status: ('A' for Active; 'I' for Inactive)
REMARK    1  A    between atoms: C_3  and  C_4 
REMARK    2  A    between atoms: C_4  and  C_5 
REMARK    3  A    between atoms: N_8  and  C_10 
REMARK    4  A    between atoms: C_10  and  C_11 
REMARK    5  A    between atoms: N_24  and  C_25 
REMARK    6  A    between atoms: C_25  and  C_26 
ROOT
HETATM    1  C   UNL     1      -6.583  -0.208 -33.546  1.00  0.00     0.149 C 
HETATM    2  N   UNL     1      -7.519  -0.335 -32.436  1.00  0.00    -0.220 NA
HETATM    3  C   UNL     1      -8.779   0.088 -32.781  1.00  0.00     0.304 C 
HETATM    4  O   UNL     1      -9.752  -0.084 -32.070  1.00  0.00    -0.253 OA
HETATM    5  N   UNL     1      -8.719   0.720 -33.977  1.00  0.00    -0.270 N 
HETATM    6  C   UNL     1      -7.494   0.530 -34.553  1.00  0.00     0.257 C 
HETATM    7  O   UNL     1      -7.145   0.922 -35.658  1.00  0.00    -0.270 OA
HETATM    8  H   UNL     1      -7.515  -1.206 -31.908  1.00  0.00     0.134 HD
ENDROOT
BRANCH   1   9
HETATM    9  C   UNL     1      -6.191  -1.614 -33.993  1.00  0.00     0.067 A 
HETATM   10  C   UNL     1      -7.117  -2.574 -34.393  1.00  0.00     0.030 A 
HETATM   11  C   UNL     1      -6.656  -3.824 -34.796  1.00  0.00     0.003 A 
HETATM   12  C   UNL     1      -5.291  -4.087 -34.804  1.00  0.00     0.019 A 
HETATM   13  C   UNL     1      -4.429  -3.081 -34.413  1.00  0.00     0.117 A 
HETATM   14  N   UNL     1      -4.843  -1.854 -34.019  1.00  0.00    -0.263 NA
ENDBRANCH   1   9
BRANCH   1  15
HETATM   15  C   UNL     1      -5.323   0.656 -33.186  1.00  0.00     0.028 C 
HETATM   16  C   UNL     1      -4.679   0.323 -31.829  1.00  0.00     0.035 C 
HETATM   17  C   UNL     1      -5.504   0.771 -30.631  1.00  0.00     0.235 C 
HETATM   18  N   UNL     1      -5.895   2.230 -30.723  1.00  0.00    -0.067 N 
HETATM   19  H   UNL     1      -5.054   2.779 -30.492  1.00  0.00     0.280 HD
HETATM   20  C   UNL     1      -6.382   2.709 -32.073  1.00  0.00     0.235 C 
HETATM   21  C   UNL     1      -5.522   2.184 -33.208  1.00  0.00     0.035 C 
BRANCH  18  22
HETATM   22  C   UNL     1      -6.947   2.603 -29.677  1.00  0.00     0.278 C 
BRANCH  22  23
HETATM   23  C   UNL     1      -7.692   3.881 -29.928  1.00  0.00     0.028 A 
HETATM   24  C   UNL     1      -7.112   5.153 -29.805  1.00  0.00     0.045 A 
HETATM   25 CL   UNL     1      -5.447   5.362 -29.404  1.00  0.00    -0.084 Cl
HETATM   26  C   UNL     1      -7.871   6.306 -30.033  1.00  0.00     0.024 A 
HETATM   27  C   UNL     1      -9.216   6.204 -30.386  1.00  0.00     0.005 A 
HETATM   28  C   UNL     1      -9.801   4.948 -30.522  1.00  0.00     0.043 A 
HETATM   29  C   UNL     1      -9.038   3.808 -30.295  1.00  0.00     0.126 A 
HETATM   30  F   UNL     1      -9.599   2.601 -30.456  1.00  0.00    -0.205 F 
ENDBRANCH  22  23
ENDBRANCH  18  22
ENDBRANCH   1  15
BRANCH   5  31
HETATM   31  C   UNL     1      -9.826   1.460 -34.560  1.00  0.00     0.168 C 
BRANCH  31  32
HETATM   32  C   UNL     1     -10.042   2.805 -33.841  1.00  0.00     0.140 C 
HETATM   33  O   UNL     1      -9.859   3.893 -34.783  1.00  0.00    -0.384 OA
HETATM   34  C   UNL     1     -11.041   4.710 -34.743  1.00  0.00     0.168 C 
HETATM   35  C   UNL     1     -12.153   3.808 -34.268  1.00  0.00     0.029 C 
HETATM   36  C   UNL     1     -11.443   2.943 -33.258  1.00  0.00     0.036 C 
ENDBRANCH  31  32
ENDBRANCH   5  31
TORSDOF 6
ENDMDL
MODEL 8
REMARK VINA RESULT:      -8.5     16.909     19.447
REMARK  6 active torsions:
REMARK  status: ('A' for Active; 'I' for Inactive)
REMARK    1  A    between atoms: C_3  and  C_4 
REMARK    2  A    between atoms: C_4  and  C_5 
REMARK    3  A    between atoms: N_8  and  C_10 
REMARK    4  A    between atoms: C_10  and  C_11 
REMARK    5  A    between atoms: N_24  and  C_25 
REMARK    6  A    between atoms: C_25  and  C_26 
ROOT
HETATM    1  C   UNL     1      -7.160 -13.678 -38.767  1.00  0.00     0.149 C 
HETATM    2  N   UNL     1      -6.630 -14.960 -39.214  1.00  0.00    -0.220 NA
HETATM    3  C   UNL     1      -6.523 -15.855 -38.178  1.00  0.00     0.304 C 
HETATM    4  O   UNL     1      -6.267 -17.034 -38.347  1.00  0.00    -0.253 OA
HETATM    5  N   UNL     1      -6.718 -15.201 -37.009  1.00  0.00    -0.270 N 
HETATM    6  C   UNL     1      -7.180 -13.937 -37.244  1.00  0.00     0.257 C 
HETATM    7  O   UNL     1      -7.508 -13.117 -36.397  1.00  0.00    -0.270 OA
HETATM    8  H   UNL     1      -7.022 -15.367 -40.062  1.00  0.00     0.134 HD
ENDROOT
BRANCH   1   9
HETATM    9  C   UNL     1      -8.549 -13.505 -39.376  1.00  0.00     0.067 A 
HETATM   10  C   UNL     1      -9.184 -12.272 -39.491  1.00  0.00     0.030 A 
HETATM   11  C   UNL     1     -10.448 -12.220 -40.075  1.00  0.00     0.003 A 
HETATM   12  C   UNL     1     -11.042 -13.387 -40.540  1.00  0.00     0.019 A 
HETATM   13  C   UNL     1     -10.345 -14.572 -40.410  1.00  0.00     0.117 A 
HETATM   14  N   UNL     1      -9.116 -14.658 -39.852  1.00  0.00    -0.263 NA
ENDBRANCH   1   9
BRANCH   1  15
HETATM   15  C   UNL     1      -6.220 -12.472 -39.122  1.00  0.00     0.028 C 
HETATM   16  C   UNL     1      -5.878 -12.339 -40.616  1.00  0.00     0.035 C 
HETATM   17  C   UNL     1      -4.929 -13.414 -41.127  1.00  0.00     0.235 C 
HETATM   18  N   UNL     1      -3.684 -13.525 -40.276  1.00  0.00    -0.067 N 
HETATM   19  H   UNL     1      -3.085 -12.722 -40.518  1.00  0.00     0.280 HD
HETATM   20  C   UNL     1      -3.891 -13.490 -38.778  1.00  0.00     0.235 C 
HETATM   21  C   UNL     1      -4.879 -12.415 -38.365  1.00  0.00     0.035 C 
BRANCH  18  22
HETATM   22  C   UNL     1      -2.873 -14.777 -40.615  1.00  0.00     0.278 C 
BRANCH  22  23
HETATM   23  C   UNL     1      -1.657 -15.015 -39.771  1.00  0.00     0.028 A 
HETATM   24  C   UNL     1      -1.583 -16.005 -38.779  1.00  0.00     0.045 A 
HETATM   25 CL   UNL     1      -2.888 -17.093 -38.477  1.00  0.00    -0.084 Cl
HETATM   26  C   UNL     1      -0.425 -16.159 -38.011  1.00  0.00     0.024 A 
HETATM   27  C   UNL     1       0.675 -15.328 -38.224  1.00  0.00     0.005 A 
HETATM   28  C   UNL     1       0.620 -14.349 -39.212  1.00  0.00     0.043 A 
HETATM   29  C   UNL     1      -0.536 -14.205 -39.970  1.00  0.00     0.126 A 
HETATM   30  F   UNL     1      -0.573 -13.279 -40.939  1.00  0.00    -0.205 F 
ENDBRANCH  22  23
ENDBRANCH  18  22
ENDBRANCH   1  15
BRANCH   5  31
HETATM   31  C   UNL     1      -6.491 -15.794 -35.701  1.00  0.00     0.168 C 
BRANCH  31  32
HETATM   32  C   UNL     1      -5.360 -15.071 -34.946  1.00  0.00     0.140 C 
HETATM   33  O   UNL     1      -5.292 -15.566 -33.583  1.00  0.00    -0.384 OA
HETATM   34  C   UNL     1      -3.947 -16.009 -33.345  1.00  0.00     0.168 C 
HETATM   35  C   UNL     1      -3.377 -16.357 -34.698  1.00  0.00     0.029 C 
HETATM   36  C   UNL     1      -3.991 -15.297 -35.576  1.00  0.00     0.036 C 
ENDBRANCH  31  32
ENDBRANCH   5  31
TORSDOF 6
ENDMDL
MODEL 9
REMARK VINA RESULT:      -8.5      2.399      3.110
REMARK  6 active torsions:
REMARK  status: ('A' for Active; 'I' for Inactive)
REMARK    1  A    between atoms: C_3  and  C_4 
REMARK    2  A    between atoms: C_4  and  C_5 
REMARK    3  A    between atoms: N_8  and  C_10 
REMARK    4  A    between atoms: C_10  and  C_11 
REMARK    5  A    between atoms: N_24  and  C_25 
REMARK    6  A    between atoms: C_25  and  C_26 
ROOT
HETATM    1  C   UNL     1      -5.456   2.066 -32.339  1.00  0.00     0.149 C 
HETATM    2  N   UNL     1      -5.945   3.387 -32.713  1.00  0.00    -0.220 NA
HETATM    3  C   UNL     1      -4.924   4.214 -33.113  1.00  0.00     0.304 C 
HETATM    4  O   UNL     1      -5.116   5.300 -33.628  1.00  0.00    -0.253 OA
HETATM    5  N   UNL     1      -3.741   3.629 -32.812  1.00  0.00    -0.270 N 
HETATM    6  C   UNL     1      -3.936   2.331 -32.430  1.00  0.00     0.257 C 
HETATM    7  O   UNL     1      -3.064   1.519 -32.152  1.00  0.00    -0.270 OA
HETATM    8  H   UNL     1      -6.765   3.437 -33.315  1.00  0.00     0.134 HD
ENDROOT
BRANCH   1   9
HETATM    9  C   UNL     1      -5.966   1.065 -33.373  1.00  0.00     0.067 A 
HETATM   10  C   UNL     1      -6.883   1.396 -34.366  1.00  0.00     0.030 A 
HETATM   11  C   UNL     1      -7.276   0.412 -35.271  1.00  0.00     0.003 A 
HETATM   12  C   UNL     1      -6.740  -0.867 -35.176  1.00  0.00     0.019 A 
HETATM   13  C   UNL     1      -5.819  -1.117 -34.177  1.00  0.00     0.117 A 
HETATM   14  N   UNL     1      -5.414  -0.185 -33.284  1.00  0.00    -0.263 NA
ENDBRANCH   1   9
BRANCH   1  15
HETATM   15  C   UNL     1      -5.870   1.652 -30.882  1.00  0.00     0.028 C 
HETATM   16  C   UNL     1      -7.131   0.776 -30.795  1.00  0.00     0.035 C 
HETATM   17  C   UNL     1      -8.421   1.523 -31.102  1.00  0.00     0.235 C 
HETATM   18  N   UNL     1      -8.558   2.784 -30.278  1.00  0.00    -0.067 N 
HETATM   19  H   UNL     1      -8.822   2.491 -29.326  1.00  0.00     0.280 HD
HETATM   20  C   UNL     1      -7.317   3.641 -30.153  1.00  0.00     0.235 C 
HETATM   21  C   UNL     1      -6.077   2.808 -29.884  1.00  0.00     0.035 C 
BRANCH  18  22
HETATM   22  C   UNL     1      -9.699   3.671 -30.781  1.00  0.00     0.278 C 
BRANCH  22  23
HETATM   23  C   UNL     1      -9.680   3.989 -32.246  1.00  0.00     0.028 A 
HETATM   24  C   UNL     1      -9.022   5.103 -32.790  1.00  0.00     0.045 A 
HETATM   25 CL   UNL     1      -8.111   6.192 -31.809  1.00  0.00    -0.084 Cl
HETATM   26  C   UNL     1      -9.064   5.354 -34.165  1.00  0.00     0.024 A 
HETATM   27  C   UNL     1      -9.762   4.497 -35.015  1.00  0.00     0.005 A 
HETATM   28  C   UNL     1     -10.410   3.382 -34.492  1.00  0.00     0.043 A 
HETATM   29  C   UNL     1     -10.362   3.141 -33.123  1.00  0.00     0.126 A 
HETATM   30  F   UNL     1     -10.964   2.050 -32.628  1.00  0.00    -0.205 F 
ENDBRANCH  22  23
ENDBRANCH  18  22
ENDBRANCH   1  15
BRANCH   5  31
HETATM   31  C   UNL     1      -2.455   4.299 -32.919  1.00  0.00     0.168 C 
BRANCH  31  32
HETATM   32  C   UNL     1      -2.053   4.958 -31.587  1.00  0.00     0.140 C 
HETATM   33  O   UNL     1      -0.787   4.408 -31.136  1.00  0.00    -0.384 OA
HETATM   34  C   UNL     1       0.112   5.506 -30.914  1.00  0.00     0.168 C 
HETATM   35  C   UNL     1      -0.377   6.629 -31.796  1.00  0.00     0.029 C 
HETATM   36  C   UNL     1      -1.872   6.467 -31.707  1.00  0.00     0.036 C 
ENDBRANCH  31  32
ENDBRANCH   5  31
TORSDOF 6
ENDMDL
MODEL 10
REMARK VINA RESULT:      -8.3      1.661      2.161
REMARK  6 active torsions:
REMARK  status: ('A' for Active; 'I' for Inactive)
REMARK    1  A    between atoms: C_3  and  C_4 
REMARK    2  A    between atoms: C_4  and  C_5 
REMARK    3  A    between atoms: N_8  and  C_10 
REMARK    4  A    between atoms: C_10  and  C_11 
REMARK    5  A    between atoms: N_24  and  C_25 
REMARK    6  A    between atoms: C_25  and  C_26 
ROOT
HETATM    1  C   UNL     1      -6.260   1.712 -32.266  1.00  0.00     0.149 C 
HETATM    2  N   UNL     1      -6.701   2.465 -33.433  1.00  0.00    -0.220 NA
HETATM    3  C   UNL     1      -5.920   3.573 -33.649  1.00  0.00     0.304 C 
HETATM    4  O   UNL     1      -5.997   4.251 -34.658  1.00  0.00    -0.253 OA
HETATM    5  N   UNL     1      -5.121   3.766 -32.573  1.00  0.00    -0.270 N 
HETATM    6  C   UNL     1      -5.180   2.684 -31.739  1.00  0.00     0.257 C 
HETATM    7  O   UNL     1      -4.532   2.524 -30.714  1.00  0.00    -0.270 OA
HETATM    8  H   UNL     1      -6.908   1.944 -34.284  1.00  0.00     0.134 HD
ENDROOT
BRANCH   1   9
HETATM    9  C   UNL     1      -5.697   0.378 -32.751  1.00  0.00     0.067 A 
HETATM   10  C   UNL     1      -6.024  -0.184 -33.982  1.00  0.00     0.030 A 
HETATM   11  C   UNL     1      -5.446  -1.400 -34.338  1.00  0.00     0.003 A 
HETATM   12  C   UNL     1      -4.552  -2.020 -33.472  1.00  0.00     0.019 A 
HETATM   13  C   UNL     1      -4.260  -1.394 -32.276  1.00  0.00     0.117 A 
HETATM   14  N   UNL     1      -4.801  -0.211 -31.901  1.00  0.00    -0.263 NA
ENDBRANCH   1   9
BRANCH   1  15
HETATM   15  C   UNL     1      -7.400   1.507 -31.206  1.00  0.00     0.028 C 
HETATM   16  C   UNL     1      -8.371   0.356 -31.519  1.00  0.00     0.035 C 
HETATM   17  C   UNL     1      -9.310   0.643 -32.683  1.00  0.00     0.235 C 
HETATM   18  N   UNL     1     -10.036   1.958 -32.516  1.00  0.00    -0.067 N 
HETATM   19  H   UNL     1     -10.774   1.805 -31.813  1.00  0.00     0.280 HD
HETATM   20  C   UNL     1      -9.203   3.129 -32.040  1.00  0.00     0.235 C 
HETATM   21  C   UNL     1      -8.273   2.740 -30.905  1.00  0.00     0.035 C 
BRANCH  18  22
HETATM   22  C   UNL     1     -10.755   2.378 -33.800  1.00  0.00     0.278 C 
BRANCH  22  23
HETATM   23  C   UNL     1     -11.730   3.510 -33.662  1.00  0.00     0.028 A 
HETATM   24  C   UNL     1     -11.474   4.812 -34.117  1.00  0.00     0.045 A 
HETATM   25 CL   UNL     1     -10.015   5.221 -34.941  1.00  0.00    -0.084 Cl
HETATM   26  C   UNL     1     -12.419   5.827 -33.937  1.00  0.00     0.024 A 
HETATM   27  C   UNL     1     -13.631   5.555 -33.301  1.00  0.00     0.005 A 
HETATM   28  C   UNL     1     -13.902   4.265 -32.854  1.00  0.00     0.043 A 
HETATM   29  C   UNL     1     -12.956   3.263 -33.040  1.00  0.00     0.126 A 
HETATM   30  F   UNL     1     -13.234   2.016 -32.633  1.00  0.00    -0.205 F 
ENDBRANCH  22  23
ENDBRANCH  18  22
ENDBRANCH   1  15
BRANCH   5  31
HETATM   31  C   UNL     1      -4.301   4.949 -32.373  1.00  0.00     0.168 C 
BRANCH  31  32
HETATM   32  C   UNL     1      -3.130   4.996 -33.372  1.00  0.00     0.140 C 
HETATM   33  O   UNL     1      -3.208   6.216 -34.155  1.00  0.00    -0.384 OA
HETATM   34  C   UNL     1      -1.950   6.897 -34.030  1.00  0.00     0.168 C 
HETATM   35  C   UNL     1      -1.354   6.435 -32.723  1.00  0.00     0.029 C 
HETATM   36  C   UNL     1      -1.769   4.986 -32.686  1.00  0.00     0.036 C 
ENDBRANCH  31  32
ENDBRANCH   5  31
TORSDOF 6
ENDMDL
