MODEL 1
REMARK VINA RESULT:      -8.0      0.000      0.000
REMARK  3 active torsions:
REMARK  status: ('A' for Active; 'I' for Inactive)
REMARK    1  A    between atoms: C_2  and  C_3 
REMARK    2  A    between atoms: C_7  and  N_8 
REMARK       I    between atoms: N_8  and  C_9 
REMARK    3  A    between atoms: C_9  and  C_10 
ROOT
HETATM    1  N   UNL     1      -4.754   0.292 -32.395  1.00  0.00    -0.309 N 
HETATM    2  C   UNL     1      -3.760   0.900 -31.651  1.00  0.00     0.234 C 
HETATM    3  O   UNL     1      -2.683   0.414 -31.313  1.00  0.00    -0.272 OA
HETATM    4  H   UNL     1      -5.600   0.808 -32.591  1.00  0.00     0.170 HD
ENDROOT
BRANCH   2   5
HETATM    5  C   UNL     1      -4.094   2.321 -31.210  1.00  0.00     0.138 C 
HETATM    6  C   UNL     1      -3.920   3.347 -32.273  1.00  0.00    -0.008 A 
HETATM    7  C   UNL     1      -5.167   3.754 -32.723  1.00  0.00     0.076 A 
HETATM    8  C   UNL     1      -2.759   3.849 -32.837  1.00  0.00     0.030 A 
HETATM    9  C   UNL     1      -5.313   4.661 -33.751  1.00  0.00     0.039 A 
HETATM   10  O   UNL     1      -6.209   3.126 -32.092  1.00  0.00    -0.349 OA
HETATM   11  C   UNL     1      -4.153   5.187 -34.327  1.00  0.00     0.022 A 
HETATM   12  C   UNL     1      -2.888   4.781 -33.870  1.00  0.00     0.011 A 
HETATM   13 BR   UNL     1      -1.334   5.497 -34.676  1.00  0.00    -0.051 Br
HETATM   14  C   UNL     1      -5.589   2.501 -30.934  1.00  0.00     0.194 C 
ENDBRANCH   2   5
BRANCH   1  15
HETATM   15  C   UNL     1      -4.684  -0.969 -32.952  1.00  0.00     0.158 A 
HETATM   16  N   UNL     1      -3.841  -1.923 -32.564  1.00  0.00    -0.156 NA
HETATM   17  N   UNL     1      -4.085  -2.950 -33.380  1.00  0.00    -0.280 N 
HETATM   18  C   UNL     1      -5.067  -2.703 -34.296  1.00  0.00     0.037 A 
HETATM   19  H   UNL     1      -3.531  -3.792 -33.263  1.00  0.00     0.189 HD
HETATM   20  C   UNL     1      -5.503  -1.414 -34.035  1.00  0.00     0.010 A 
HETATM   21  C   UNL     1      -6.571  -0.664 -34.742  1.00  0.00     0.054 C 
BRANCH  18  22
HETATM   22  C   UNL     1      -5.469  -3.719 -35.308  1.00  0.00     0.055 C 
HETATM   23  C   UNL     1      -6.757  -4.425 -34.913  1.00  0.00     0.011 C 
ENDBRANCH  18  22
ENDBRANCH   1  15
TORSDOF 3
ENDMDL
MODEL 2
REMARK VINA RESULT:      -7.9      1.687      2.405
REMARK  3 active torsions:
REMARK  status: ('A' for Active; 'I' for Inactive)
REMARK    1  A    between atoms: C_2  and  C_3 
REMARK    2  A    between atoms: C_7  and  N_8 
REMARK       I    between atoms: N_8  and  C_9 
REMARK    3  A    between atoms: C_9  and  C_10 
ROOT
HETATM    1  N   UNL     1      -5.558   1.971 -33.457  1.00  0.00    -0.309 N 
HETATM    2  C   UNL     1      -5.553   2.751 -32.315  1.00  0.00     0.234 C 
HETATM    3  O   UNL     1      -5.665   2.366 -31.153  1.00  0.00    -0.272 OA
HETATM    4  H   UNL     1      -5.469   2.423 -34.355  1.00  0.00     0.170 HD
ENDROOT
BRANCH   2   5
HETATM    5  C   UNL     1      -5.411   4.244 -32.583  1.00  0.00     0.138 C 
HETATM    6  C   UNL     1      -4.017   4.687 -32.854  1.00  0.00    -0.008 A 
HETATM    7  C   UNL     1      -3.881   4.964 -34.207  1.00  0.00     0.076 A 
HETATM    8  C   UNL     1      -2.938   4.790 -31.993  1.00  0.00     0.030 A 
HETATM    9  C   UNL     1      -2.675   5.343 -34.757  1.00  0.00     0.039 A 
HETATM   10  O   UNL     1      -5.032   4.767 -34.924  1.00  0.00    -0.349 OA
HETATM   11  C   UNL     1      -1.576   5.462 -33.903  1.00  0.00     0.022 A 
HETATM   12  C   UNL     1      -1.711   5.187 -32.532  1.00  0.00     0.011 A 
HETATM   13 BR   UNL     1      -0.205   5.342 -31.399  1.00  0.00    -0.051 Br
HETATM   14  C   UNL     1      -6.064   4.656 -33.905  1.00  0.00     0.194 C 
ENDBRANCH   2   5
BRANCH   1  15
HETATM   15  C   UNL     1      -5.627   0.593 -33.488  1.00  0.00     0.158 A 
HETATM   16  N   UNL     1      -4.830  -0.223 -32.803  1.00  0.00    -0.156 NA
HETATM   17  N   UNL     1      -5.215  -1.452 -33.149  1.00  0.00    -0.280 N 
HETATM   18  C   UNL     1      -6.247  -1.474 -34.042  1.00  0.00     0.037 A 
HETATM   19  H   UNL     1      -4.718  -2.238 -32.742  1.00  0.00     0.189 HD
HETATM   20  C   UNL     1      -6.563  -0.145 -34.277  1.00  0.00     0.010 A 
HETATM   21  C   UNL     1      -7.625   0.384 -35.169  1.00  0.00     0.054 C 
BRANCH  18  22
HETATM   22  C   UNL     1      -6.804  -2.752 -34.565  1.00  0.00     0.055 C 
HETATM   23  C   UNL     1      -5.706  -3.690 -35.041  1.00  0.00     0.011 C 
ENDBRANCH  18  22
ENDBRANCH   1  15
TORSDOF 3
ENDMDL
MODEL 3
REMARK VINA RESULT:      -7.5      3.252      6.694
REMARK  3 active torsions:
REMARK  status: ('A' for Active; 'I' for Inactive)
REMARK    1  A    between atoms: C_2  and  C_3 
REMARK    2  A    between atoms: C_7  and  N_8 
REMARK       I    between atoms: N_8  and  C_9 
REMARK    3  A    between atoms: C_9  and  C_10 
ROOT
HETATM    1  N   UNL     1      -3.504   2.082 -32.049  1.00  0.00    -0.309 N 
HETATM    2  C   UNL     1      -4.468   1.613 -31.176  1.00  0.00     0.234 C 
HETATM    3  O   UNL     1      -5.007   2.235 -30.263  1.00  0.00    -0.272 OA
HETATM    4  H   UNL     1      -3.136   1.454 -32.750  1.00  0.00     0.170 HD
ENDROOT
BRANCH   2   5
HETATM    5  C   UNL     1      -4.856   0.157 -31.401  1.00  0.00     0.138 C 
HETATM    6  C   UNL     1      -5.994  -0.035 -32.340  1.00  0.00    -0.008 A 
HETATM    7  C   UNL     1      -5.513  -0.523 -33.546  1.00  0.00     0.076 A 
HETATM    8  C   UNL     1      -7.339   0.244 -32.168  1.00  0.00     0.030 A 
HETATM    9  C   UNL     1      -6.340  -0.744 -34.627  1.00  0.00     0.039 A 
HETATM   10  O   UNL     1      -4.154  -0.700 -33.562  1.00  0.00    -0.349 OA
HETATM   11  C   UNL     1      -7.703  -0.477 -34.471  1.00  0.00     0.022 A 
HETATM   12  C   UNL     1      -8.194   0.013 -33.249  1.00  0.00     0.011 A 
HETATM   13 BR   UNL     1     -10.041   0.378 -33.069  1.00  0.00    -0.051 Br
HETATM   14  C   UNL     1      -3.774  -0.616 -32.161  1.00  0.00     0.194 C 
ENDBRANCH   2   5
BRANCH   1  15
HETATM   15  C   UNL     1      -3.013   3.371 -32.089  1.00  0.00     0.158 A 
HETATM   16  N   UNL     1      -1.970   3.808 -31.388  1.00  0.00    -0.156 NA
HETATM   17  N   UNL     1      -1.865   5.101 -31.696  1.00  0.00    -0.280 N 
HETATM   18  C   UNL     1      -2.809   5.534 -32.584  1.00  0.00     0.037 A 
HETATM   19  H   UNL     1      -1.128   5.638 -31.251  1.00  0.00     0.189 HD
HETATM   20  C   UNL     1      -3.574   4.418 -32.884  1.00  0.00     0.010 A 
HETATM   21  C   UNL     1      -4.730   4.343 -33.812  1.00  0.00     0.054 C 
BRANCH  18  22
HETATM   22  C   UNL     1      -2.870   6.951 -33.034  1.00  0.00     0.055 C 
HETATM   23  C   UNL     1      -1.837   7.812 -32.323  1.00  0.00     0.011 C 
ENDBRANCH  18  22
ENDBRANCH   1  15
TORSDOF 3
ENDMDL
MODEL 4
REMARK VINA RESULT:      -7.4     15.246     16.340
REMARK  3 active torsions:
REMARK  status: ('A' for Active; 'I' for Inactive)
REMARK    1  A    between atoms: C_2  and  C_3 
REMARK    2  A    between atoms: C_7  and  N_8 
REMARK       I    between atoms: N_8  and  C_9 
REMARK    3  A    between atoms: C_9  and  C_10 
ROOT
HETATM    1  N   UNL     1      -5.126 -12.186 -38.525  1.00  0.00    -0.309 N 
HETATM    2  C   UNL     1      -4.023 -13.016 -38.608  1.00  0.00     0.234 C 
HETATM    3  O   UNL     1      -3.879 -13.988 -39.347  1.00  0.00    -0.272 OA
HETATM    4  H   UNL     1      -5.114 -11.426 -37.861  1.00  0.00     0.170 HD
ENDROOT
BRANCH   2   5
HETATM    5  C   UNL     1      -2.899 -12.655 -37.644  1.00  0.00     0.138 C 
HETATM    6  C   UNL     1      -2.381 -13.802 -36.851  1.00  0.00    -0.008 A 
HETATM    7  C   UNL     1      -1.136 -14.170 -37.340  1.00  0.00     0.076 A 
HETATM    8  C   UNL     1      -2.976 -14.502 -35.815  1.00  0.00     0.030 A 
HETATM    9  C   UNL     1      -0.440 -15.246 -36.831  1.00  0.00     0.039 A 
HETATM   10  O   UNL     1      -0.714 -13.404 -38.395  1.00  0.00    -0.349 OA
HETATM   11  C   UNL     1      -1.019 -15.959 -35.779  1.00  0.00     0.022 A 
HETATM   12  C   UNL     1      -2.278 -15.586 -35.278  1.00  0.00     0.011 A 
HETATM   13 BR   UNL     1      -3.046 -16.577 -33.862  1.00  0.00    -0.051 Br
HETATM   14  C   UNL     1      -1.615 -12.262 -38.380  1.00  0.00     0.194 C 
ENDBRANCH   2   5
BRANCH   1  15
HETATM   15  C   UNL     1      -6.254 -12.267 -39.316  1.00  0.00     0.158 A 
HETATM   16  N   UNL     1      -6.308 -11.918 -40.599  1.00  0.00    -0.156 NA
HETATM   17  N   UNL     1      -7.576 -12.122 -40.958  1.00  0.00    -0.280 N 
HETATM   18  C   UNL     1      -8.364 -12.599 -39.950  1.00  0.00     0.037 A 
HETATM   19  H   UNL     1      -7.841 -11.902 -41.912  1.00  0.00     0.189 HD
HETATM   20  C   UNL     1      -7.525 -12.729 -38.854  1.00  0.00     0.010 A 
HETATM   21  C   UNL     1      -7.883 -13.219 -37.499  1.00  0.00     0.054 C 
BRANCH  18  22
HETATM   22  C   UNL     1      -9.814 -12.870 -40.149  1.00  0.00     0.055 C 
HETATM   23  C   UNL     1     -10.598 -11.587 -40.378  1.00  0.00     0.011 C 
ENDBRANCH  18  22
ENDBRANCH   1  15
TORSDOF 3
ENDMDL
MODEL 5
REMARK VINA RESULT:      -7.2     15.351     16.775
REMARK  3 active torsions:
REMARK  status: ('A' for Active; 'I' for Inactive)
REMARK    1  A    between atoms: C_2  and  C_3 
REMARK    2  A    between atoms: C_7  and  N_8 
REMARK       I    between atoms: N_8  and  C_9 
REMARK    3  A    between atoms: C_9  and  C_10 
ROOT
HETATM    1  N   UNL     1      -4.995 -13.211 -37.551  1.00  0.00    -0.309 N 
HETATM    2  C   UNL     1      -5.995 -13.633 -38.408  1.00  0.00     0.234 C 
HETATM    3  O   UNL     1      -5.910 -13.800 -39.623  1.00  0.00    -0.272 OA
HETATM    4  H   UNL     1      -5.209 -13.105 -36.570  1.00  0.00     0.170 HD
ENDROOT
BRANCH   2   5
HETATM    5  C   UNL     1      -7.334 -13.886 -37.726  1.00  0.00     0.138 C 
HETATM    6  C   UNL     1      -8.517 -13.681 -38.604  1.00  0.00    -0.008 A 
HETATM    7  C   UNL     1      -9.052 -14.914 -38.945  1.00  0.00     0.076 A 
HETATM    8  C   UNL     1      -9.053 -12.507 -39.106  1.00  0.00     0.030 A 
HETATM    9  C   UNL     1     -10.127 -15.033 -39.801  1.00  0.00     0.039 A 
HETATM   10  O   UNL     1      -8.375 -15.974 -38.401  1.00  0.00    -0.349 OA
HETATM   11  C   UNL     1     -10.688 -13.859 -40.311  1.00  0.00     0.022 A 
HETATM   12  C   UNL     1     -10.151 -12.608 -39.963  1.00  0.00     0.011 A 
HETATM   13 BR   UNL     1     -10.921 -11.035 -40.678  1.00  0.00    -0.051 Br
HETATM   14  C   UNL     1      -7.534 -15.365 -37.383  1.00  0.00     0.194 C 
ENDBRANCH   2   5
BRANCH   1  15
HETATM   15  C   UNL     1      -3.686 -12.959 -37.906  1.00  0.00     0.158 A 
HETATM   16  N   UNL     1      -3.201 -11.759 -38.213  1.00  0.00    -0.156 NA
HETATM   17  N   UNL     1      -1.922 -11.973 -38.524  1.00  0.00    -0.280 N 
HETATM   18  C   UNL     1      -1.544 -13.282 -38.429  1.00  0.00     0.037 A 
HETATM   19  H   UNL     1      -1.361 -11.176 -38.806  1.00  0.00     0.189 HD
HETATM   20  C   UNL     1      -2.674 -13.964 -38.004  1.00  0.00     0.010 A 
HETATM   21  C   UNL     1      -2.800 -15.418 -37.735  1.00  0.00     0.054 C 
BRANCH  18  22
HETATM   22  C   UNL     1      -0.161 -13.725 -38.755  1.00  0.00     0.055 C 
HETATM   23  C   UNL     1      -0.090 -14.379 -40.127  1.00  0.00     0.011 C 
ENDBRANCH  18  22
ENDBRANCH   1  15
TORSDOF 3
ENDMDL
MODEL 6
REMARK VINA RESULT:      -7.2      5.085      8.030
REMARK  3 active torsions:
REMARK  status: ('A' for Active; 'I' for Inactive)
REMARK    1  A    between atoms: C_2  and  C_3 
REMARK    2  A    between atoms: C_7  and  N_8 
REMARK       I    between atoms: N_8  and  C_9 
REMARK    3  A    between atoms: C_9  and  C_10 
ROOT
HETATM    1  N   UNL     1      -1.298   4.738 -31.408  1.00  0.00    -0.309 N 
HETATM    2  C   UNL     1      -1.381   5.268 -32.683  1.00  0.00     0.234 C 
HETATM    3  O   UNL     1      -0.867   6.308 -33.089  1.00  0.00    -0.272 OA
HETATM    4  H   UNL     1      -1.783   3.875 -31.208  1.00  0.00     0.170 HD
ENDROOT
BRANCH   2   5
HETATM    5  C   UNL     1      -2.228   4.444 -33.646  1.00  0.00     0.138 C 
HETATM    6  C   UNL     1      -3.645   4.277 -33.224  1.00  0.00    -0.008 A 
HETATM    7  C   UNL     1      -4.454   5.074 -34.020  1.00  0.00     0.076 A 
HETATM    8  C   UNL     1      -4.178   3.524 -32.191  1.00  0.00     0.030 A 
HETATM    9  C   UNL     1      -5.815   5.164 -33.818  1.00  0.00     0.039 A 
HETATM   10  O   UNL     1      -3.763   5.788 -34.963  1.00  0.00    -0.349 OA
HETATM   11  C   UNL     1      -6.374   4.405 -32.786  1.00  0.00     0.022 A 
HETATM   12  C   UNL     1      -5.557   3.593 -31.982  1.00  0.00     0.011 A 
HETATM   13 BR   UNL     1      -6.337   2.586 -30.584  1.00  0.00    -0.051 Br
HETATM   14  C   UNL     1      -2.449   5.165 -34.978  1.00  0.00     0.194 C 
ENDBRANCH   2   5
BRANCH   1  15
HETATM   15  C   UNL     1      -0.560   5.261 -30.366  1.00  0.00     0.158 A 
HETATM   16  N   UNL     1       0.574   4.741 -29.904  1.00  0.00    -0.156 NA
HETATM   17  N   UNL     1       0.926   5.530 -28.888  1.00  0.00    -0.280 N 
HETATM   18  C   UNL     1       0.059   6.562 -28.667  1.00  0.00     0.037 A 
HETATM   19  H   UNL     1       1.772   5.299 -28.378  1.00  0.00     0.189 HD
HETATM   20  C   UNL     1      -0.925   6.432 -29.634  1.00  0.00     0.010 A 
HETATM   21  C   UNL     1      -2.105   7.309 -29.840  1.00  0.00     0.054 C 
BRANCH  18  22
HETATM   22  C   UNL     1       0.269   7.539 -27.564  1.00  0.00     0.055 C 
HETATM   23  C   UNL     1       1.501   8.399 -27.803  1.00  0.00     0.011 C 
ENDBRANCH  18  22
ENDBRANCH   1  15
TORSDOF 3
ENDMDL
MODEL 7
REMARK VINA RESULT:      -7.1      4.472      6.982
REMARK  3 active torsions:
REMARK  status: ('A' for Active; 'I' for Inactive)
REMARK    1  A    between atoms: C_2  and  C_3 
REMARK    2  A    between atoms: C_7  and  N_8 
REMARK       I    between atoms: N_8  and  C_9 
REMARK    3  A    between atoms: C_9  and  C_10 
ROOT
HETATM    1  N   UNL     1      -5.768   4.138 -32.899  1.00  0.00    -0.309 N 
HETATM    2  C   UNL     1      -6.121   2.809 -32.756  1.00  0.00     0.234 C 
HETATM    3  O   UNL     1      -5.626   1.843 -33.334  1.00  0.00    -0.272 OA
HETATM    4  H   UNL     1      -6.270   4.834 -32.368  1.00  0.00     0.170 HD
ENDROOT
BRANCH   2   5
HETATM    5  C   UNL     1      -7.267   2.571 -31.780  1.00  0.00     0.138 C 
HETATM    6  C   UNL     1      -8.520   2.082 -32.414  1.00  0.00    -0.008 A 
HETATM    7  C   UNL     1      -8.685   0.736 -32.121  1.00  0.00     0.076 A 
HETATM    8  C   UNL     1      -9.420   2.751 -33.227  1.00  0.00     0.030 A 
HETATM    9  C   UNL     1      -9.736   0.002 -32.627  1.00  0.00     0.039 A 
HETATM   10  O   UNL     1      -7.682   0.218 -31.344  1.00  0.00    -0.349 OA
HETATM   11  C   UNL     1     -10.660   0.661 -33.443  1.00  0.00     0.022 A 
HETATM   12  C   UNL     1     -10.499   2.025 -33.737  1.00  0.00     0.011 A 
HETATM   13 BR   UNL     1     -11.756   2.890 -34.854  1.00  0.00    -0.051 Br
HETATM   14  C   UNL     1      -6.987   1.393 -30.842  1.00  0.00     0.194 C 
ENDBRANCH   2   5
BRANCH   1  15
HETATM   15  C   UNL     1      -4.737   4.616 -33.683  1.00  0.00     0.158 A 
HETATM   16  N   UNL     1      -4.876   5.066 -34.927  1.00  0.00    -0.156 NA
HETATM   17  N   UNL     1      -3.642   5.390 -35.316  1.00  0.00    -0.280 N 
HETATM   18  C   UNL     1      -2.689   5.171 -34.362  1.00  0.00     0.037 A 
HETATM   19  H   UNL     1      -3.519   5.749 -36.257  1.00  0.00     0.189 HD
HETATM   20  C   UNL     1      -3.373   4.679 -33.262  1.00  0.00     0.010 A 
HETATM   21  C   UNL     1      -2.802   4.287 -31.949  1.00  0.00     0.054 C 
BRANCH  18  22
HETATM   22  C   UNL     1      -1.249   5.451 -34.614  1.00  0.00     0.055 C 
HETATM   23  C   UNL     1      -0.784   6.700 -33.881  1.00  0.00     0.011 C 
ENDBRANCH  18  22
ENDBRANCH   1  15
TORSDOF 3
ENDMDL
MODEL 8
REMARK VINA RESULT:      -7.0      3.645      6.999
REMARK  3 active torsions:
REMARK  status: ('A' for Active; 'I' for Inactive)
REMARK    1  A    between atoms: C_2  and  C_3 
REMARK    2  A    between atoms: C_7  and  N_8 
REMARK       I    between atoms: N_8  and  C_9 
REMARK    3  A    between atoms: C_9  and  C_10 
ROOT
HETATM    1  N   UNL     1      -4.599   4.090 -32.561  1.00  0.00    -0.309 N 
HETATM    2  C   UNL     1      -5.566   4.121 -33.550  1.00  0.00     0.234 C 
HETATM    3  O   UNL     1      -5.508   4.713 -34.626  1.00  0.00    -0.272 OA
HETATM    4  H   UNL     1      -4.784   3.570 -31.716  1.00  0.00     0.170 HD
ENDROOT
BRANCH   2   5
HETATM    5  C   UNL     1      -6.826   3.335 -33.211  1.00  0.00     0.138 C 
HETATM    6  C   UNL     1      -6.587   1.901 -32.897  1.00  0.00    -0.008 A 
HETATM    7  C   UNL     1      -6.727   1.703 -31.531  1.00  0.00     0.076 A 
HETATM    8  C   UNL     1      -6.225   0.860 -33.735  1.00  0.00     0.030 A 
HETATM    9  C   UNL     1      -6.506   0.475 -30.944  1.00  0.00     0.039 A 
HETATM   10  O   UNL     1      -7.043   2.844 -30.842  1.00  0.00    -0.349 OA
HETATM   11  C   UNL     1      -6.148  -0.591 -31.775  1.00  0.00     0.022 A 
HETATM   12  C   UNL     1      -6.010  -0.395 -33.159  1.00  0.00     0.011 A 
HETATM   13 BR   UNL     1      -5.512  -1.851 -34.259  1.00  0.00    -0.051 Br
HETATM   14  C   UNL     1      -7.442   3.780 -31.881  1.00  0.00     0.194 C 
ENDBRANCH   2   5
BRANCH   1  15
HETATM   15  C   UNL     1      -3.353   4.679 -32.638  1.00  0.00     0.158 A 
HETATM   16  N   UNL     1      -2.288   4.129 -33.216  1.00  0.00    -0.156 NA
HETATM   17  N   UNL     1      -1.303   5.009 -33.033  1.00  0.00    -0.280 N 
HETATM   18  C   UNL     1      -1.686   6.129 -32.352  1.00  0.00     0.037 A 
HETATM   19  H   UNL     1      -0.383   4.775 -33.392  1.00  0.00     0.189 HD
HETATM   20  C   UNL     1      -3.036   5.961 -32.090  1.00  0.00     0.010 A 
HETATM   21  C   UNL     1      -3.940   6.899 -31.378  1.00  0.00     0.054 C 
BRANCH  18  22
HETATM   22  C   UNL     1      -0.724   7.219 -32.030  1.00  0.00     0.055 C 
HETATM   23  C   UNL     1       0.429   6.716 -31.175  1.00  0.00     0.011 C 
ENDBRANCH  18  22
ENDBRANCH   1  15
TORSDOF 3
ENDMDL
MODEL 9
REMARK VINA RESULT:      -7.0      2.089      2.332
REMARK  3 active torsions:
REMARK  status: ('A' for Active; 'I' for Inactive)
REMARK    1  A    between atoms: C_2  and  C_3 
REMARK    2  A    between atoms: C_7  and  N_8 
REMARK       I    between atoms: N_8  and  C_9 
REMARK    3  A    between atoms: C_9  and  C_10 
ROOT
HETATM    1  N   UNL     1      -5.888   0.533 -32.122  1.00  0.00    -0.309 N 
HETATM    2  C   UNL     1      -5.694   1.884 -32.344  1.00  0.00     0.234 C 
HETATM    3  O   UNL     1      -5.675   2.462 -33.429  1.00  0.00    -0.272 OA
HETATM    4  H   UNL     1      -5.867   0.188 -31.174  1.00  0.00     0.170 HD
ENDROOT
BRANCH   2   5
HETATM    5  C   UNL     1      -5.464   2.696 -31.076  1.00  0.00     0.138 C 
HETATM    6  C   UNL     1      -4.573   3.874 -31.257  1.00  0.00    -0.008 A 
HETATM    7  C   UNL     1      -5.336   5.032 -31.233  1.00  0.00     0.076 A 
HETATM    8  C   UNL     1      -3.206   3.924 -31.476  1.00  0.00     0.030 A 
HETATM    9  C   UNL     1      -4.780   6.277 -31.434  1.00  0.00     0.039 A 
HETATM   10  O   UNL     1      -6.675   4.801 -31.053  1.00  0.00    -0.349 OA
HETATM   11  C   UNL     1      -3.401   6.350 -31.648  1.00  0.00     0.022 A 
HETATM   12  C   UNL     1      -2.625   5.180 -31.668  1.00  0.00     0.011 A 
HETATM   13 BR   UNL     1      -0.762   5.305 -31.972  1.00  0.00    -0.051 Br
HETATM   14  C   UNL     1      -6.735   3.415 -30.615  1.00  0.00     0.194 C 
ENDBRANCH   2   5
BRANCH   1  15
HETATM   15  C   UNL     1      -6.162  -0.410 -33.092  1.00  0.00     0.158 A 
HETATM   16  N   UNL     1      -7.301  -0.487 -33.775  1.00  0.00    -0.156 NA
HETATM   17  N   UNL     1      -7.155  -1.548 -34.570  1.00  0.00    -0.280 N 
HETATM   18  C   UNL     1      -5.949  -2.175 -34.435  1.00  0.00     0.037 A 
HETATM   19  H   UNL     1      -7.929  -1.797 -35.177  1.00  0.00     0.189 HD
HETATM   20  C   UNL     1      -5.256  -1.443 -33.484  1.00  0.00     0.010 A 
HETATM   21  C   UNL     1      -3.884  -1.698 -32.977  1.00  0.00     0.054 C 
BRANCH  18  22
HETATM   22  C   UNL     1      -5.606  -3.391 -35.222  1.00  0.00     0.055 C 
HETATM   23  C   UNL     1      -6.639  -4.491 -35.035  1.00  0.00     0.011 C 
ENDBRANCH  18  22
ENDBRANCH   1  15
TORSDOF 3
ENDMDL
MODEL 10
REMARK VINA RESULT:      -7.0      5.055      8.387
REMARK  3 active torsions:
REMARK  status: ('A' for Active; 'I' for Inactive)
REMARK    1  A    between atoms: C_2  and  C_3 
REMARK    2  A    between atoms: C_7  and  N_8 
REMARK       I    between atoms: N_8  and  C_9 
REMARK    3  A    between atoms: C_9  and  C_10 
ROOT
HETATM    1  N   UNL     1      -1.307   5.885 -31.615  1.00  0.00    -0.309 N 
HETATM    2  C   UNL     1      -2.563   5.324 -31.758  1.00  0.00     0.234 C 
HETATM    3  O   UNL     1      -3.471   5.316 -30.929  1.00  0.00    -0.272 OA
HETATM    4  H   UNL     1      -0.650   5.807 -32.377  1.00  0.00     0.170 HD
ENDROOT
BRANCH   2   5
HETATM    5  C   UNL     1      -2.788   4.636 -33.099  1.00  0.00     0.138 C 
HETATM    6  C   UNL     1      -3.962   3.723 -33.128  1.00  0.00    -0.008 A 
HETATM    7  C   UNL     1      -4.984   4.316 -33.854  1.00  0.00     0.076 A 
HETATM    8  C   UNL     1      -4.138   2.489 -32.524  1.00  0.00     0.030 A 
HETATM    9  C   UNL     1      -6.218   3.719 -34.000  1.00  0.00     0.039 A 
HETATM   10  O   UNL     1      -4.660   5.554 -34.344  1.00  0.00    -0.349 OA
HETATM   11  C   UNL     1      -6.413   2.469 -33.405  1.00  0.00     0.022 A 
HETATM   12  C   UNL     1      -5.378   1.863 -32.674  1.00  0.00     0.011 A 
HETATM   13 BR   UNL     1      -5.672   0.178 -31.868  1.00  0.00    -0.051 Br
HETATM   14  C   UNL     1      -3.216   5.625 -34.187  1.00  0.00     0.194 C 
ENDBRANCH   2   5
BRANCH   1  15
HETATM   15  C   UNL     1      -0.867   6.602 -30.521  1.00  0.00     0.158 A 
HETATM   16  N   UNL     1      -1.293   7.819 -30.190  1.00  0.00    -0.156 NA
HETATM   17  N   UNL     1      -0.591   8.145 -29.103  1.00  0.00    -0.280 N 
HETATM   18  C   UNL     1       0.286   7.178 -28.703  1.00  0.00     0.037 A 
HETATM   19  H   UNL     1      -0.754   9.057 -28.688  1.00  0.00     0.189 HD
HETATM   20  C   UNL     1       0.121   6.134 -29.600  1.00  0.00     0.010 A 
HETATM   21  C   UNL     1       0.832   4.832 -29.606  1.00  0.00     0.054 C 
BRANCH  18  22
HETATM   22  C   UNL     1       1.173   7.364 -27.523  1.00  0.00     0.055 C 
HETATM   23  C   UNL     1       1.718   8.782 -27.448  1.00  0.00     0.011 C 
ENDBRANCH  18  22
ENDBRANCH   1  15
TORSDOF 3
ENDMDL
