MODEL 1
REMARK VINA RESULT:      -7.8      0.000      0.000
REMARK  8 active torsions:
REMARK  status: ('A' for Active; 'I' for Inactive)
REMARK    1  A    between atoms: C_2  and  C_3 
REMARK    2  A    between atoms: C_3  and  N_4 
REMARK    3  A    between atoms: C_7  and  C_8 
REMARK       I    between atoms: C_8  and  N_9 
REMARK    4  A    between atoms: N_9  and  N_10 
REMARK       I    between atoms: N_10  and  C_11 
REMARK    5  A    between atoms: C_11  and  C_12 
REMARK    6  A    between atoms: C_12  and  O_13 
REMARK    7  A    between atoms: O_13  and  C_14 
REMARK    8  A    between atoms: C_23  and  C_24 
ROOT
HETATM    1  C   UNL     1      -5.776   2.414 -32.570  1.00  0.00     0.273 C 
HETATM    2  N   UNL     1      -4.751   3.209 -33.054  1.00  0.00    -0.263 N 
HETATM    3  O   UNL     1      -6.519   2.804 -31.671  1.00  0.00    -0.266 OA
HETATM    4  H   UNL     1      -3.971   2.796 -33.566  1.00  0.00     0.190 HD
ENDROOT
BRANCH   2   5
HETATM    5  N   UNL     1      -4.462   4.410 -32.379  1.00  0.00    -0.265 N 
HETATM    6  C   UNL     1      -4.297   5.546 -33.149  1.00  0.00     0.260 C 
HETATM    7  O   UNL     1      -4.540   5.562 -34.356  1.00  0.00    -0.269 OA
HETATM    8  H   UNL     1      -4.033   4.313 -31.459  1.00  0.00     0.190 HD
BRANCH   6   9
HETATM    9  C   UNL     1      -3.809   6.766 -32.380  1.00  0.00     0.280 C 
BRANCH   9  10
HETATM   10  O   UNL     1      -2.482   7.056 -32.803  1.00  0.00    -0.342 OA
BRANCH  10  11
HETATM   11  C   UNL     1      -1.483   6.692 -31.940  1.00  0.00     0.069 A 
HETATM   12  C   UNL     1      -1.331   7.522 -30.826  1.00  0.00     0.043 A 
HETATM   13  C   UNL     1      -0.343   7.266 -29.865  1.00  0.00    -0.059 A 
HETATM   14  C   UNL     1      -0.172   8.160 -28.674  1.00  0.00     0.048 C 
HETATM   15  C   UNL     1       0.479   6.145 -30.023  1.00  0.00     0.007 A 
HETATM   16  C   UNL     1       0.319   5.304 -31.124  1.00  0.00     0.003 A 
HETATM   17  C   UNL     1      -0.660   5.574 -32.081  1.00  0.00     0.037 A 
ENDBRANCH  10  11
ENDBRANCH   9  10
ENDBRANCH   6   9
ENDBRANCH   2   5
BRANCH   1  18
HETATM   18  C   UNL     1      -5.886   1.131 -33.244  1.00  0.00     0.077 A 
HETATM   19  C   UNL     1      -6.580   0.922 -34.464  1.00  0.00     0.158 A 
HETATM   20  N   UNL     1      -6.542  -0.338 -34.883  1.00  0.00    -0.183 NA
HETATM   21  N   UNL     1      -5.830  -0.973 -33.933  1.00  0.00    -0.268 N 
HETATM   22  C   UNL     1      -5.400  -0.133 -32.921  1.00  0.00     0.052 A 
BRANCH  21  23
HETATM   23  C   UNL     1      -5.629  -2.420 -34.042  1.00  0.00     0.106 C 
HETATM   24  C   UNL     1      -4.317  -2.806 -34.739  1.00  0.00     0.034 C 
BRANCH  23  25
HETATM   25  C   UNL     1      -6.850  -3.124 -34.668  1.00  0.00     0.022 C 
HETATM   26  C   UNL     1      -6.555  -4.472 -35.313  1.00  0.00     0.007 C 
ENDBRANCH  23  25
ENDBRANCH  21  23
BRANCH  22  27
HETATM   27  C   UNL     1      -4.538  -0.606 -31.747  1.00  0.00     0.038 A 
HETATM   28  C   UNL     1      -3.055  -0.825 -31.922  1.00  0.00     0.011 A 
HETATM   29  C   UNL     1      -3.541   0.319 -31.096  1.00  0.00     0.011 A 
ENDBRANCH  22  27
ENDBRANCH   1  18
TORSDOF 8
ENDMDL
MODEL 2
REMARK VINA RESULT:      -7.8      2.339      9.573
REMARK  8 active torsions:
REMARK  status: ('A' for Active; 'I' for Inactive)
REMARK    1  A    between atoms: C_2  and  C_3 
REMARK    2  A    between atoms: C_3  and  N_4 
REMARK    3  A    between atoms: C_7  and  C_8 
REMARK       I    between atoms: C_8  and  N_9 
REMARK    4  A    between atoms: N_9  and  N_10 
REMARK       I    between atoms: N_10  and  C_11 
REMARK    5  A    between atoms: C_11  and  C_12 
REMARK    6  A    between atoms: C_12  and  O_13 
REMARK    7  A    between atoms: O_13  and  C_14 
REMARK    8  A    between atoms: C_23  and  C_24 
ROOT
HETATM    1  C   UNL     1      -1.649   4.748 -31.647  1.00  0.00     0.273 C 
HETATM    2  N   UNL     1      -2.671   3.918 -31.214  1.00  0.00    -0.263 N 
HETATM    3  O   UNL     1      -1.430   4.921 -32.844  1.00  0.00    -0.266 OA
HETATM    4  H   UNL     1      -2.669   3.545 -30.265  1.00  0.00     0.190 HD
ENDROOT
BRANCH   2   5
HETATM    5  N   UNL     1      -3.347   3.138 -32.170  1.00  0.00    -0.265 N 
HETATM    6  C   UNL     1      -4.707   2.963 -31.999  1.00  0.00     0.260 C 
HETATM    7  O   UNL     1      -5.346   3.580 -31.145  1.00  0.00    -0.269 OA
HETATM    8  H   UNL     1      -2.776   2.466 -32.682  1.00  0.00     0.190 HD
BRANCH   6   9
HETATM    9  C   UNL     1      -5.343   1.965 -32.956  1.00  0.00     0.280 C 
BRANCH   9  10
HETATM   10  O   UNL     1      -4.636   0.735 -32.849  1.00  0.00    -0.342 OA
BRANCH  10  11
HETATM   11  C   UNL     1      -5.191  -0.335 -33.498  1.00  0.00     0.069 A 
HETATM   12  C   UNL     1      -4.422  -1.502 -33.481  1.00  0.00     0.043 A 
HETATM   13  C   UNL     1      -4.872  -2.671 -34.112  1.00  0.00    -0.059 A 
HETATM   14  C   UNL     1      -4.045  -3.921 -34.102  1.00  0.00     0.048 C 
HETATM   15  C   UNL     1      -6.120  -2.662 -34.742  1.00  0.00     0.007 A 
HETATM   16  C   UNL     1      -6.898  -1.504 -34.747  1.00  0.00     0.003 A 
HETATM   17  C   UNL     1      -6.437  -0.342 -34.126  1.00  0.00     0.037 A 
ENDBRANCH  10  11
ENDBRANCH   9  10
ENDBRANCH   6   9
ENDBRANCH   2   5
BRANCH   1  18
HETATM   18  C   UNL     1      -0.920   5.388 -30.565  1.00  0.00     0.077 A 
HETATM   19  C   UNL     1       0.299   4.907 -30.023  1.00  0.00     0.158 A 
HETATM   20  N   UNL     1       0.774   5.661 -29.040  1.00  0.00    -0.183 NA
HETATM   21  N   UNL     1      -0.137   6.644 -28.918  1.00  0.00    -0.268 N 
HETATM   22  C   UNL     1      -1.181   6.535 -29.820  1.00  0.00     0.052 A 
BRANCH  21  23
HETATM   23  C   UNL     1       0.037   7.652 -27.869  1.00  0.00     0.106 C 
HETATM   24  C   UNL     1       1.355   8.432 -27.983  1.00  0.00     0.034 C 
BRANCH  23  25
HETATM   25  C   UNL     1      -0.167   7.059 -26.461  1.00  0.00     0.022 C 
HETATM   26  C   UNL     1      -1.593   6.623 -26.146  1.00  0.00     0.007 C 
ENDBRANCH  23  25
ENDBRANCH  21  23
BRANCH  22  27
HETATM   27  C   UNL     1      -2.322   7.552 -29.911  1.00  0.00     0.038 A 
HETATM   28  C   UNL     1      -2.115   8.880 -30.599  1.00  0.00     0.011 A 
HETATM   29  C   UNL     1      -2.992   7.849 -31.229  1.00  0.00     0.011 A 
ENDBRANCH  22  27
ENDBRANCH   1  18
TORSDOF 8
ENDMDL
MODEL 3
REMARK VINA RESULT:      -7.7      2.131      8.940
REMARK  8 active torsions:
REMARK  status: ('A' for Active; 'I' for Inactive)
REMARK    1  A    between atoms: C_2  and  C_3 
REMARK    2  A    between atoms: C_3  and  N_4 
REMARK    3  A    between atoms: C_7  and  C_8 
REMARK       I    between atoms: C_8  and  N_9 
REMARK    4  A    between atoms: N_9  and  N_10 
REMARK       I    between atoms: N_10  and  C_11 
REMARK    5  A    between atoms: C_11  and  C_12 
REMARK    6  A    between atoms: C_12  and  O_13 
REMARK    7  A    between atoms: O_13  and  C_14 
REMARK    8  A    between atoms: C_23  and  C_24 
ROOT
HETATM    1  C   UNL     1      -4.280   3.293 -32.674  1.00  0.00     0.273 C 
HETATM    2  N   UNL     1      -5.434   3.537 -33.400  1.00  0.00    -0.263 N 
HETATM    3  O   UNL     1      -3.756   2.181 -32.661  1.00  0.00    -0.266 OA
HETATM    4  H   UNL     1      -6.022   4.342 -33.183  1.00  0.00     0.190 HD
ENDROOT
BRANCH   2   5
HETATM    5  N   UNL     1      -6.098   2.444 -33.986  1.00  0.00    -0.265 N 
HETATM    6  C   UNL     1      -7.316   2.077 -33.445  1.00  0.00     0.260 C 
HETATM    7  O   UNL     1      -7.887   2.757 -32.591  1.00  0.00    -0.269 OA
HETATM    8  H   UNL     1      -5.509   1.782 -34.489  1.00  0.00     0.190 HD
BRANCH   6   9
HETATM    9  C   UNL     1      -7.892   0.783 -34.002  1.00  0.00     0.280 C 
BRANCH   9  10
HETATM   10  O   UNL     1      -7.570  -0.270 -33.102  1.00  0.00    -0.342 OA
BRANCH  10  11
HETATM   11  C   UNL     1      -6.584  -1.128 -33.509  1.00  0.00     0.069 A 
HETATM   12  C   UNL     1      -7.030  -2.250 -34.215  1.00  0.00     0.043 A 
HETATM   13  C   UNL     1      -6.124  -3.211 -34.686  1.00  0.00    -0.059 A 
HETATM   14  C   UNL     1      -6.600  -4.419 -35.435  1.00  0.00     0.048 C 
HETATM   15  C   UNL     1      -4.757  -3.020 -34.461  1.00  0.00     0.007 A 
HETATM   16  C   UNL     1      -4.307  -1.894 -33.773  1.00  0.00     0.003 A 
HETATM   17  C   UNL     1      -5.218  -0.948 -33.297  1.00  0.00     0.037 A 
ENDBRANCH  10  11
ENDBRANCH   9  10
ENDBRANCH   6   9
ENDBRANCH   2   5
BRANCH   1  18
HETATM   18  C   UNL     1      -3.765   4.464 -31.986  1.00  0.00     0.077 A 
HETATM   19  C   UNL     1      -4.374   5.063 -30.854  1.00  0.00     0.158 A 
HETATM   20  N   UNL     1      -3.718   6.126 -30.402  1.00  0.00    -0.183 NA
HETATM   21  N   UNL     1      -2.673   6.242 -31.242  1.00  0.00    -0.268 N 
HETATM   22  C   UNL     1      -2.645   5.259 -32.216  1.00  0.00     0.052 A 
BRANCH  21  23
HETATM   23  C   UNL     1      -1.745   7.362 -31.074  1.00  0.00     0.106 C 
HETATM   24  C   UNL     1      -1.182   7.484 -29.650  1.00  0.00     0.034 C 
BRANCH  23  25
HETATM   25  C   UNL     1      -2.348   8.689 -31.575  1.00  0.00     0.022 C 
HETATM   26  C   UNL     1      -2.398   9.807 -30.541  1.00  0.00     0.007 C 
ENDBRANCH  23  25
ENDBRANCH  21  23
BRANCH  22  27
HETATM   27  C   UNL     1      -1.535   5.149 -33.265  1.00  0.00     0.038 A 
HETATM   28  C   UNL     1      -1.872   4.992 -34.728  1.00  0.00     0.011 A 
HETATM   29  C   UNL     1      -1.275   6.270 -34.239  1.00  0.00     0.011 A 
ENDBRANCH  22  27
ENDBRANCH   1  18
TORSDOF 8
ENDMDL
MODEL 4
REMARK VINA RESULT:      -7.6      1.872      9.284
REMARK  8 active torsions:
REMARK  status: ('A' for Active; 'I' for Inactive)
REMARK    1  A    between atoms: C_2  and  C_3 
REMARK    2  A    between atoms: C_3  and  N_4 
REMARK    3  A    between atoms: C_7  and  C_8 
REMARK       I    between atoms: C_8  and  N_9 
REMARK    4  A    between atoms: N_9  and  N_10 
REMARK       I    between atoms: N_10  and  C_11 
REMARK    5  A    between atoms: C_11  and  C_12 
REMARK    6  A    between atoms: C_12  and  O_13 
REMARK    7  A    between atoms: O_13  and  C_14 
REMARK    8  A    between atoms: C_23  and  C_24 
ROOT
HETATM    1  C   UNL     1      -4.399   3.878 -32.649  1.00  0.00     0.273 C 
HETATM    2  N   UNL     1      -4.498   2.661 -31.995  1.00  0.00    -0.263 N 
HETATM    3  O   UNL     1      -4.895   4.049 -33.761  1.00  0.00    -0.266 OA
HETATM    4  H   UNL     1      -3.857   2.426 -31.237  1.00  0.00     0.190 HD
ENDROOT
BRANCH   2   5
HETATM    5  N   UNL     1      -5.027   1.564 -32.701  1.00  0.00    -0.265 N 
HETATM    6  C   UNL     1      -6.302   1.149 -32.366  1.00  0.00     0.260 C 
HETATM    7  O   UNL     1      -7.020   1.791 -31.597  1.00  0.00    -0.269 OA
HETATM    8  H   UNL     1      -4.345   0.932 -33.120  1.00  0.00     0.190 HD
BRANCH   6   9
HETATM    9  C   UNL     1      -6.742  -0.145 -33.033  1.00  0.00     0.280 C 
BRANCH   9  10
HETATM   10  O   UNL     1      -5.649  -0.647 -33.793  1.00  0.00    -0.342 OA
BRANCH  10  11
HETATM   11  C   UNL     1      -5.714  -1.971 -34.136  1.00  0.00     0.069 A 
HETATM   12  C   UNL     1      -4.556  -2.708 -33.872  1.00  0.00     0.043 A 
HETATM   13  C   UNL     1      -4.486  -4.075 -34.179  1.00  0.00    -0.059 A 
HETATM   14  C   UNL     1      -3.242  -4.865 -33.905  1.00  0.00     0.048 C 
HETATM   15  C   UNL     1      -5.607  -4.702 -34.732  1.00  0.00     0.007 A 
HETATM   16  C   UNL     1      -6.770  -3.974 -34.981  1.00  0.00     0.003 A 
HETATM   17  C   UNL     1      -6.826  -2.611 -34.683  1.00  0.00     0.037 A 
ENDBRANCH  10  11
ENDBRANCH   9  10
ENDBRANCH   6   9
ENDBRANCH   2   5
BRANCH   1  18
HETATM   18  C   UNL     1      -3.700   4.896 -31.883  1.00  0.00     0.077 A 
HETATM   19  C   UNL     1      -4.204   5.500 -30.703  1.00  0.00     0.158 A 
HETATM   20  N   UNL     1      -3.384   6.405 -30.181  1.00  0.00    -0.183 NA
HETATM   21  N   UNL     1      -2.334   6.413 -31.024  1.00  0.00    -0.268 N 
HETATM   22  C   UNL     1      -2.467   5.514 -32.068  1.00  0.00     0.052 A 
BRANCH  21  23
HETATM   23  C   UNL     1      -1.237   7.352 -30.785  1.00  0.00     0.106 C 
HETATM   24  C   UNL     1      -0.031   6.719 -30.077  1.00  0.00     0.034 C 
BRANCH  23  25
HETATM   25  C   UNL     1      -1.720   8.633 -30.077  1.00  0.00     0.022 C 
HETATM   26  C   UNL     1      -1.129   8.866 -28.691  1.00  0.00     0.007 C 
ENDBRANCH  23  25
ENDBRANCH  21  23
BRANCH  22  27
HETATM   27  C   UNL     1      -1.389   5.304 -33.136  1.00  0.00     0.038 A 
HETATM   28  C   UNL     1      -1.765   5.182 -34.593  1.00  0.00     0.011 A 
HETATM   29  C   UNL     1      -1.044   6.398 -34.114  1.00  0.00     0.011 A 
ENDBRANCH  22  27
ENDBRANCH   1  18
TORSDOF 8
ENDMDL
MODEL 5
REMARK VINA RESULT:      -7.4      2.255      9.518
REMARK  8 active torsions:
REMARK  status: ('A' for Active; 'I' for Inactive)
REMARK    1  A    between atoms: C_2  and  C_3 
REMARK    2  A    between atoms: C_3  and  N_4 
REMARK    3  A    between atoms: C_7  and  C_8 
REMARK       I    between atoms: C_8  and  N_9 
REMARK    4  A    between atoms: N_9  and  N_10 
REMARK       I    between atoms: N_10  and  C_11 
REMARK    5  A    between atoms: C_11  and  C_12 
REMARK    6  A    between atoms: C_12  and  O_13 
REMARK    7  A    between atoms: O_13  and  C_14 
REMARK    8  A    between atoms: C_23  and  C_24 
ROOT
HETATM    1  C   UNL     1      -2.849   4.169 -31.871  1.00  0.00     0.273 C 
HETATM    2  N   UNL     1      -3.456   3.130 -31.184  1.00  0.00    -0.263 N 
HETATM    3  O   UNL     1      -2.277   3.980 -32.942  1.00  0.00    -0.266 OA
HETATM    4  H   UNL     1      -3.661   3.217 -30.189  1.00  0.00     0.190 HD
ENDROOT
BRANCH   2   5
HETATM    5  N   UNL     1      -3.256   1.817 -31.649  1.00  0.00    -0.265 N 
HETATM    6  C   UNL     1      -4.068   0.828 -31.124  1.00  0.00     0.260 C 
HETATM    7  O   UNL     1      -5.030   1.085 -30.399  1.00  0.00    -0.269 OA
HETATM    8  H   UNL     1      -2.332   1.613 -32.027  1.00  0.00     0.190 HD
BRANCH   6   9
HETATM    9  C   UNL     1      -3.683  -0.587 -31.527  1.00  0.00     0.280 C 
BRANCH   9  10
HETATM   10  O   UNL     1      -3.574  -0.631 -32.945  1.00  0.00    -0.342 OA
BRANCH  10  11
HETATM   11  C   UNL     1      -4.669  -1.104 -33.617  1.00  0.00     0.069 A 
HETATM   12  C   UNL     1      -4.654  -2.477 -33.882  1.00  0.00     0.043 A 
HETATM   13  C   UNL     1      -5.713  -3.090 -34.567  1.00  0.00    -0.059 A 
HETATM   14  C   UNL     1      -5.695  -4.560 -34.860  1.00  0.00     0.048 C 
HETATM   15  C   UNL     1      -6.804  -2.310 -34.964  1.00  0.00     0.007 A 
HETATM   16  C   UNL     1      -6.830  -0.944 -34.687  1.00  0.00     0.003 A 
HETATM   17  C   UNL     1      -5.766  -0.340 -34.014  1.00  0.00     0.037 A 
ENDBRANCH  10  11
ENDBRANCH   9  10
ENDBRANCH   6   9
ENDBRANCH   2   5
BRANCH   1  18
HETATM   18  C   UNL     1      -2.992   5.460 -31.219  1.00  0.00     0.077 A 
HETATM   19  C   UNL     1      -4.188   6.223 -31.204  1.00  0.00     0.158 A 
HETATM   20  N   UNL     1      -4.072   7.371 -30.546  1.00  0.00    -0.183 NA
HETATM   21  N   UNL     1      -2.792   7.378 -30.130  1.00  0.00    -0.268 N 
HETATM   22  C   UNL     1      -2.092   6.243 -30.502  1.00  0.00     0.052 A 
BRANCH  21  23
HETATM   23  C   UNL     1      -2.286   8.544 -29.402  1.00  0.00     0.106 C 
HETATM   24  C   UNL     1      -2.853   8.672 -27.981  1.00  0.00     0.034 C 
BRANCH  23  25
HETATM   25  C   UNL     1      -2.450   9.844 -30.213  1.00  0.00     0.022 C 
HETATM   26  C   UNL     1      -2.242  11.129 -29.421  1.00  0.00     0.007 C 
ENDBRANCH  23  25
ENDBRANCH  21  23
BRANCH  22  27
HETATM   27  C   UNL     1      -0.632   5.993 -30.114  1.00  0.00     0.038 A 
HETATM   28  C   UNL     1       0.373   5.550 -31.149  1.00  0.00     0.011 A 
HETATM   29  C   UNL     1       0.462   6.924 -30.573  1.00  0.00     0.011 A 
ENDBRANCH  22  27
ENDBRANCH   1  18
TORSDOF 8
ENDMDL
MODEL 6
REMARK VINA RESULT:      -7.4      2.065      3.307
REMARK  8 active torsions:
REMARK  status: ('A' for Active; 'I' for Inactive)
REMARK    1  A    between atoms: C_2  and  C_3 
REMARK    2  A    between atoms: C_3  and  N_4 
REMARK    3  A    between atoms: C_7  and  C_8 
REMARK       I    between atoms: C_8  and  N_9 
REMARK    4  A    between atoms: N_9  and  N_10 
REMARK       I    between atoms: N_10  and  C_11 
REMARK    5  A    between atoms: C_11  and  C_12 
REMARK    6  A    between atoms: C_12  and  O_13 
REMARK    7  A    between atoms: O_13  and  C_14 
REMARK    8  A    between atoms: C_23  and  C_24 
ROOT
HETATM    1  C   UNL     1      -3.574   2.651 -31.604  1.00  0.00     0.273 C 
HETATM    2  N   UNL     1      -3.386   4.012 -31.421  1.00  0.00    -0.263 N 
HETATM    3  O   UNL     1      -2.800   1.828 -31.122  1.00  0.00    -0.266 OA
HETATM    4  H   UNL     1      -3.832   4.685 -32.044  1.00  0.00     0.190 HD
ENDROOT
BRANCH   2   5
HETATM    5  N   UNL     1      -2.191   4.445 -30.817  1.00  0.00    -0.265 N 
HETATM    6  C   UNL     1      -1.230   5.000 -31.641  1.00  0.00     0.260 C 
HETATM    7  O   UNL     1      -1.449   5.257 -32.826  1.00  0.00    -0.269 OA
HETATM    8  H   UNL     1      -1.953   4.002 -29.931  1.00  0.00     0.190 HD
BRANCH   6   9
HETATM    9  C   UNL     1       0.103   5.279 -30.960  1.00  0.00     0.280 C 
BRANCH   9  10
HETATM   10  O   UNL     1       0.369   6.673 -31.058  1.00  0.00    -0.342 OA
BRANCH  10  11
HETATM   11  C   UNL     1      -0.024   7.436 -29.991  1.00  0.00     0.069 A 
HETATM   12  C   UNL     1       0.952   7.627 -29.009  1.00  0.00     0.043 A 
HETATM   13  C   UNL     1       0.680   8.385 -27.861  1.00  0.00    -0.059 A 
HETATM   14  C   UNL     1       1.722   8.584 -26.802  1.00  0.00     0.048 C 
HETATM   15  C   UNL     1      -0.581   8.973 -27.722  1.00  0.00     0.007 A 
HETATM   16  C   UNL     1      -1.552   8.799 -28.708  1.00  0.00     0.003 A 
HETATM   17  C   UNL     1      -1.276   8.032 -29.842  1.00  0.00     0.037 A 
ENDBRANCH  10  11
ENDBRANCH   9  10
ENDBRANCH   6   9
ENDBRANCH   2   5
BRANCH   1  18
HETATM   18  C   UNL     1      -4.764   2.326 -32.372  1.00  0.00     0.077 A 
HETATM   19  C   UNL     1      -5.575   3.280 -33.039  1.00  0.00     0.158 A 
HETATM   20  N   UNL     1      -6.610   2.741 -33.674  1.00  0.00    -0.183 NA
HETATM   21  N   UNL     1      -6.494   1.424 -33.420  1.00  0.00    -0.268 N 
HETATM   22  C   UNL     1      -5.392   1.113 -32.643  1.00  0.00     0.052 A 
BRANCH  21  23
HETATM   23  C   UNL     1      -7.518   0.508 -33.929  1.00  0.00     0.106 C 
HETATM   24  C   UNL     1      -7.391   0.223 -35.432  1.00  0.00     0.034 C 
BRANCH  23  25
HETATM   25  C   UNL     1      -8.939   0.961 -33.541  1.00  0.00     0.022 C 
HETATM   26  C   UNL     1      -9.774  -0.087 -32.816  1.00  0.00     0.007 C 
ENDBRANCH  23  25
ENDBRANCH  21  23
BRANCH  22  27
HETATM   27  C   UNL     1      -5.018  -0.320 -32.252  1.00  0.00     0.038 A 
HETATM   28  C   UNL     1      -4.929  -1.403 -33.299  1.00  0.00     0.011 A 
HETATM   29  C   UNL     1      -3.684  -0.906 -32.642  1.00  0.00     0.011 A 
ENDBRANCH  22  27
ENDBRANCH   1  18
TORSDOF 8
ENDMDL
MODEL 7
REMARK VINA RESULT:      -7.3      2.083      3.352
REMARK  8 active torsions:
REMARK  status: ('A' for Active; 'I' for Inactive)
REMARK    1  A    between atoms: C_2  and  C_3 
REMARK    2  A    between atoms: C_3  and  N_4 
REMARK    3  A    between atoms: C_7  and  C_8 
REMARK       I    between atoms: C_8  and  N_9 
REMARK    4  A    between atoms: N_9  and  N_10 
REMARK       I    between atoms: N_10  and  C_11 
REMARK    5  A    between atoms: C_11  and  C_12 
REMARK    6  A    between atoms: C_12  and  O_13 
REMARK    7  A    between atoms: O_13  and  C_14 
REMARK    8  A    between atoms: C_23  and  C_24 
ROOT
HETATM    1  C   UNL     1      -4.138   3.576 -32.119  1.00  0.00     0.273 C 
HETATM    2  N   UNL     1      -3.409   3.683 -33.292  1.00  0.00    -0.263 N 
HETATM    3  O   UNL     1      -3.952   4.343 -31.177  1.00  0.00    -0.266 OA
HETATM    4  H   UNL     1      -3.345   2.895 -33.937  1.00  0.00     0.190 HD
ENDROOT
BRANCH   2   5
HETATM    5  N   UNL     1      -2.325   4.580 -33.324  1.00  0.00    -0.265 N 
HETATM    6  C   UNL     1      -2.429   5.670 -34.167  1.00  0.00     0.260 C 
HETATM    7  O   UNL     1      -3.476   5.948 -34.755  1.00  0.00    -0.269 OA
HETATM    8  H   UNL     1      -1.423   4.200 -33.041  1.00  0.00     0.190 HD
BRANCH   6   9
HETATM    9  C   UNL     1      -1.158   6.497 -34.293  1.00  0.00     0.280 C 
BRANCH   9  10
HETATM   10  O   UNL     1      -1.354   7.722 -33.596  1.00  0.00    -0.342 OA
BRANCH  10  11
HETATM   11  C   UNL     1      -1.099   7.696 -32.251  1.00  0.00     0.069 A 
HETATM   12  C   UNL     1      -1.973   8.455 -31.468  1.00  0.00     0.043 A 
HETATM   13  C   UNL     1      -1.822   8.519 -30.075  1.00  0.00    -0.059 A 
HETATM   14  C   UNL     1      -2.753   9.340 -29.234  1.00  0.00     0.048 C 
HETATM   15  C   UNL     1      -0.794   7.788 -29.472  1.00  0.00     0.007 A 
HETATM   16  C   UNL     1       0.069   7.015 -30.248  1.00  0.00     0.003 A 
HETATM   17  C   UNL     1      -0.082   6.967 -31.636  1.00  0.00     0.037 A 
ENDBRANCH  10  11
ENDBRANCH   9  10
ENDBRANCH   6   9
ENDBRANCH   2   5
BRANCH   1  18
HETATM   18  C   UNL     1      -5.131   2.515 -32.145  1.00  0.00     0.077 A 
HETATM   19  C   UNL     1      -5.058   1.328 -31.372  1.00  0.00     0.158 A 
HETATM   20  N   UNL     1      -6.083   0.506 -31.568  1.00  0.00    -0.183 NA
HETATM   21  N   UNL     1      -6.837   1.143 -32.483  1.00  0.00    -0.268 N 
HETATM   22  C   UNL     1      -6.314   2.367 -32.864  1.00  0.00     0.052 A 
BRANCH  21  23
HETATM   23  C   UNL     1      -8.047   0.491 -32.988  1.00  0.00     0.106 C 
HETATM   24  C   UNL     1      -9.157   0.359 -31.935  1.00  0.00     0.034 C 
BRANCH  23  25
HETATM   25  C   UNL     1      -7.733  -0.854 -33.672  1.00  0.00     0.022 C 
HETATM   26  C   UNL     1      -6.819  -0.762 -34.888  1.00  0.00     0.007 C 
ENDBRANCH  23  25
ENDBRANCH  21  23
BRANCH  22  27
HETATM   27  C   UNL     1      -7.006   3.302 -33.860  1.00  0.00     0.038 A 
HETATM   28  C   UNL     1      -8.186   4.141 -33.435  1.00  0.00     0.011 A 
HETATM   29  C   UNL     1      -6.880   4.799 -33.734  1.00  0.00     0.011 A 
ENDBRANCH  22  27
ENDBRANCH   1  18
TORSDOF 8
ENDMDL
MODEL 8
REMARK VINA RESULT:      -7.3      1.600      2.940
REMARK  8 active torsions:
REMARK  status: ('A' for Active; 'I' for Inactive)
REMARK    1  A    between atoms: C_2  and  C_3 
REMARK    2  A    between atoms: C_3  and  N_4 
REMARK    3  A    between atoms: C_7  and  C_8 
REMARK       I    between atoms: C_8  and  N_9 
REMARK    4  A    between atoms: N_9  and  N_10 
REMARK       I    between atoms: N_10  and  C_11 
REMARK    5  A    between atoms: C_11  and  C_12 
REMARK    6  A    between atoms: C_12  and  O_13 
REMARK    7  A    between atoms: O_13  and  C_14 
REMARK    8  A    between atoms: C_23  and  C_24 
ROOT
HETATM    1  C   UNL     1      -5.269   1.853 -32.041  1.00  0.00     0.273 C 
HETATM    2  N   UNL     1      -4.242   2.677 -32.471  1.00  0.00    -0.263 N 
HETATM    3  O   UNL     1      -6.176   2.279 -31.329  1.00  0.00    -0.266 OA
HETATM    4  H   UNL     1      -3.360   2.281 -32.797  1.00  0.00     0.190 HD
ENDROOT
BRANCH   2   5
HETATM    5  N   UNL     1      -4.161   3.976 -31.936  1.00  0.00    -0.265 N 
HETATM    6  C   UNL     1      -2.901   4.531 -31.806  1.00  0.00     0.260 C 
HETATM    7  O   UNL     1      -1.896   3.994 -32.274  1.00  0.00    -0.269 OA
HETATM    8  H   UNL     1      -4.942   4.268 -31.350  1.00  0.00     0.190 HD
BRANCH   6   9
HETATM    9  C   UNL     1      -2.867   5.855 -31.056  1.00  0.00     0.280 C 
BRANCH   9  10
HETATM   10  O   UNL     1      -1.557   6.033 -30.529  1.00  0.00    -0.342 OA
BRANCH  10  11
HETATM   11  C   UNL     1      -1.420   7.007 -29.577  1.00  0.00     0.069 A 
HETATM   12  C   UNL     1      -0.102   7.324 -29.240  1.00  0.00     0.043 A 
HETATM   13  C   UNL     1       0.180   8.302 -28.275  1.00  0.00    -0.059 A 
HETATM   14  C   UNL     1       1.594   8.638 -27.905  1.00  0.00     0.048 C 
HETATM   15  C   UNL     1      -0.882   8.979 -27.667  1.00  0.00     0.007 A 
HETATM   16  C   UNL     1      -2.199   8.677 -28.013  1.00  0.00     0.003 A 
HETATM   17  C   UNL     1      -2.470   7.694 -28.967  1.00  0.00     0.037 A 
ENDBRANCH  10  11
ENDBRANCH   9  10
ENDBRANCH   6   9
ENDBRANCH   2   5
BRANCH   1  18
HETATM   18  C   UNL     1      -5.168   0.490 -32.537  1.00  0.00     0.077 A 
HETATM   19  C   UNL     1      -4.444  -0.546 -31.895  1.00  0.00     0.158 A 
HETATM   20  N   UNL     1      -4.498  -1.706 -32.540  1.00  0.00    -0.183 NA
HETATM   21  N   UNL     1      -5.254  -1.439 -33.621  1.00  0.00    -0.268 N 
HETATM   22  C   UNL     1      -5.694  -0.127 -33.668  1.00  0.00     0.052 A 
BRANCH  21  23
HETATM   23  C   UNL     1      -5.485  -2.496 -34.608  1.00  0.00     0.106 C 
HETATM   24  C   UNL     1      -6.869  -3.150 -34.493  1.00  0.00     0.034 C 
BRANCH  23  25
HETATM   25  C   UNL     1      -4.349  -3.538 -34.611  1.00  0.00     0.022 C 
HETATM   26  C   UNL     1      -4.777  -4.961 -34.272  1.00  0.00     0.007 C 
ENDBRANCH  23  25
ENDBRANCH  21  23
BRANCH  22  27
HETATM   27  C   UNL     1      -6.602   0.414 -34.776  1.00  0.00     0.038 A 
HETATM   28  C   UNL     1      -8.088   0.153 -34.747  1.00  0.00     0.011 A 
HETATM   29  C   UNL     1      -7.575   1.533 -34.502  1.00  0.00     0.011 A 
ENDBRANCH  22  27
ENDBRANCH   1  18
TORSDOF 8
ENDMDL
MODEL 9
REMARK VINA RESULT:      -7.2      2.354      3.682
REMARK  8 active torsions:
REMARK  status: ('A' for Active; 'I' for Inactive)
REMARK    1  A    between atoms: C_2  and  C_3 
REMARK    2  A    between atoms: C_3  and  N_4 
REMARK    3  A    between atoms: C_7  and  C_8 
REMARK       I    between atoms: C_8  and  N_9 
REMARK    4  A    between atoms: N_9  and  N_10 
REMARK       I    between atoms: N_10  and  C_11 
REMARK    5  A    between atoms: C_11  and  C_12 
REMARK    6  A    between atoms: C_12  and  O_13 
REMARK    7  A    between atoms: O_13  and  C_14 
REMARK    8  A    between atoms: C_23  and  C_24 
ROOT
HETATM    1  C   UNL     1      -4.758   3.518 -30.937  1.00  0.00     0.273 C 
HETATM    2  N   UNL     1      -3.474   3.218 -31.362  1.00  0.00    -0.263 N 
HETATM    3  O   UNL     1      -5.009   4.568 -30.350  1.00  0.00    -0.266 OA
HETATM    4  H   UNL     1      -3.208   2.256 -31.571  1.00  0.00     0.190 HD
ENDROOT
BRANCH   2   5
HETATM    5  N   UNL     1      -2.423   4.061 -30.956  1.00  0.00    -0.265 N 
HETATM    6  C   UNL     1      -1.628   4.605 -31.946  1.00  0.00     0.260 C 
HETATM    7  O   UNL     1      -1.902   4.497 -33.143  1.00  0.00    -0.269 OA
HETATM    8  H   UNL     1      -2.083   3.924 -30.004  1.00  0.00     0.190 HD
BRANCH   6   9
HETATM    9  C   UNL     1      -0.405   5.355 -31.437  1.00  0.00     0.280 C 
BRANCH   9  10
HETATM   10  O   UNL     1      -0.627   6.747 -31.626  1.00  0.00    -0.342 OA
BRANCH  10  11
HETATM   11  C   UNL     1      -0.760   7.495 -30.487  1.00  0.00     0.069 A 
HETATM   12  C   UNL     1       0.328   7.439 -29.611  1.00  0.00     0.043 A 
HETATM   13  C   UNL     1       0.320   8.154 -28.405  1.00  0.00    -0.059 A 
HETATM   14  C   UNL     1       1.482   8.088 -27.460  1.00  0.00     0.048 C 
HETATM   15  C   UNL     1      -0.787   8.951 -28.099  1.00  0.00     0.007 A 
HETATM   16  C   UNL     1      -1.868   9.024 -28.978  1.00  0.00     0.003 A 
HETATM   17  C   UNL     1      -1.856   8.299 -30.171  1.00  0.00     0.037 A 
ENDBRANCH  10  11
ENDBRANCH   9  10
ENDBRANCH   6   9
ENDBRANCH   2   5
BRANCH   1  18
HETATM   18  C   UNL     1      -5.738   2.502 -31.283  1.00  0.00     0.077 A 
HETATM   19  C   UNL     1      -6.119   1.431 -30.433  1.00  0.00     0.158 A 
HETATM   20  N   UNL     1      -7.032   0.630 -30.970  1.00  0.00    -0.183 NA
HETATM   21  N   UNL     1      -7.253   1.163 -32.187  1.00  0.00    -0.268 N 
HETATM   22  C   UNL     1      -6.504   2.302 -32.428  1.00  0.00     0.052 A 
BRANCH  21  23
HETATM   23  C   UNL     1      -8.183   0.494 -33.099  1.00  0.00     0.106 C 
HETATM   24  C   UNL     1      -9.578   0.269 -32.496  1.00  0.00     0.034 C 
BRANCH  23  25
HETATM   25  C   UNL     1      -7.586  -0.803 -33.680  1.00  0.00     0.022 C 
HETATM   26  C   UNL     1      -6.404  -0.604 -34.621  1.00  0.00     0.007 C 
ENDBRANCH  23  25
ENDBRANCH  21  23
BRANCH  22  27
HETATM   27  C   UNL     1      -6.606   3.115 -33.721  1.00  0.00     0.038 A 
HETATM   28  C   UNL     1      -7.646   4.199 -33.866  1.00  0.00     0.011 A 
HETATM   29  C   UNL     1      -6.204   4.568 -33.756  1.00  0.00     0.011 A 
ENDBRANCH  22  27
ENDBRANCH   1  18
TORSDOF 8
ENDMDL
MODEL 10
REMARK VINA RESULT:      -7.0      2.004      3.230
REMARK  8 active torsions:
REMARK  status: ('A' for Active; 'I' for Inactive)
REMARK    1  A    between atoms: C_2  and  C_3 
REMARK    2  A    between atoms: C_3  and  N_4 
REMARK    3  A    between atoms: C_7  and  C_8 
REMARK       I    between atoms: C_8  and  N_9 
REMARK    4  A    between atoms: N_9  and  N_10 
REMARK       I    between atoms: N_10  and  C_11 
REMARK    5  A    between atoms: C_11  and  C_12 
REMARK    6  A    between atoms: C_12  and  O_13 
REMARK    7  A    between atoms: O_13  and  C_14 
REMARK    8  A    between atoms: C_23  and  C_24 
ROOT
HETATM    1  C   UNL     1      -4.089   3.617 -31.268  1.00  0.00     0.273 C 
HETATM    2  N   UNL     1      -4.826   4.257 -30.285  1.00  0.00    -0.263 N 
HETATM    3  O   UNL     1      -2.946   3.974 -31.544  1.00  0.00    -0.266 OA
HETATM    4  H   UNL     1      -5.842   4.168 -30.259  1.00  0.00     0.190 HD
ENDROOT
BRANCH   2   5
HETATM    5  N   UNL     1      -4.308   5.439 -29.725  1.00  0.00    -0.265 N 
HETATM    6  C   UNL     1      -4.852   6.635 -30.151  1.00  0.00     0.260 C 
HETATM    7  O   UNL     1      -5.851   6.683 -30.871  1.00  0.00    -0.269 OA
HETATM    8  H   UNL     1      -3.360   5.378 -29.353  1.00  0.00     0.190 HD
BRANCH   6   9
HETATM    9  C   UNL     1      -4.128   7.876 -29.648  1.00  0.00     0.280 C 
BRANCH   9  10
HETATM   10  O   UNL     1      -3.319   8.378 -30.705  1.00  0.00    -0.342 OA
BRANCH  10  11
HETATM   11  C   UNL     1      -2.051   7.868 -30.785  1.00  0.00     0.069 A 
HETATM   12  C   UNL     1      -1.279   8.015 -29.629  1.00  0.00     0.043 A 
HETATM   13  C   UNL     1       0.039   7.541 -29.578  1.00  0.00    -0.059 A 
HETATM   14  C   UNL     1       0.872   7.706 -28.342  1.00  0.00     0.048 C 
HETATM   15  C   UNL     1       0.569   6.892 -30.698  1.00  0.00     0.007 A 
HETATM   16  C   UNL     1      -0.203   6.728 -31.847  1.00  0.00     0.003 A 
HETATM   17  C   UNL     1      -1.512   7.214 -31.893  1.00  0.00     0.037 A 
ENDBRANCH  10  11
ENDBRANCH   9  10
ENDBRANCH   6   9
ENDBRANCH   2   5
BRANCH   1  18
HETATM   18  C   UNL     1      -4.785   2.500 -31.885  1.00  0.00     0.077 A 
HETATM   19  C   UNL     1      -4.827   1.187 -31.350  1.00  0.00     0.158 A 
HETATM   20  N   UNL     1      -5.524   0.336 -32.094  1.00  0.00    -0.183 NA
HETATM   21  N   UNL     1      -5.940   1.083 -33.134  1.00  0.00    -0.268 N 
HETATM   22  C   UNL     1      -5.529   2.402 -33.057  1.00  0.00     0.052 A 
BRANCH  21  23
HETATM   23  C   UNL     1      -6.708   0.446 -34.206  1.00  0.00     0.106 C 
HETATM   24  C   UNL     1      -8.217   0.389 -33.929  1.00  0.00     0.034 C 
BRANCH  23  25
HETATM   25  C   UNL     1      -6.134  -0.935 -34.583  1.00  0.00     0.022 C 
HETATM   26  C   UNL     1      -7.030  -2.120 -34.246  1.00  0.00     0.007 C 
ENDBRANCH  23  25
ENDBRANCH  21  23
BRANCH  22  27
HETATM   27  C   UNL     1      -5.908   3.461 -34.096  1.00  0.00     0.038 A 
HETATM   28  C   UNL     1      -6.897   4.550 -33.758  1.00  0.00     0.011 A 
HETATM   29  C   UNL     1      -5.456   4.892 -33.944  1.00  0.00     0.011 A 
ENDBRANCH  22  27
ENDBRANCH   1  18
TORSDOF 8
ENDMDL
