MODEL 1
REMARK VINA RESULT:      -8.2      0.000      0.000
REMARK  4 active torsions:
REMARK  status: ('A' for Active; 'I' for Inactive)
REMARK    1  A    between atoms: C_9  and  C_10 
REMARK       I    between atoms: C_10  and  N_11 
REMARK    2  A    between atoms: N_11  and  C_12 
REMARK    3  A    between atoms: C_12  and  C_13 
REMARK    4  A    between atoms: C_14  and  O_15 
ROOT
HETATM    1  C   UNL     1      -5.003   2.619 -32.347  1.00  0.00     0.273 C 
HETATM    2  N   UNL     1      -4.496   1.408 -32.756  1.00  0.00    -0.347 N 
HETATM    3  O   UNL     1      -5.759   2.771 -31.394  1.00  0.00    -0.266 OA
HETATM    4  H   UNL     1      -3.805   1.477 -33.498  1.00  0.00     0.163 HD
ENDROOT
BRANCH   1   5
HETATM    5  C   UNL     1      -4.520   3.745 -33.166  1.00  0.00     0.157 A 
HETATM    6  C   UNL     1      -3.299   4.467 -33.006  1.00  0.00     0.029 A 
HETATM    7  C   UNL     1      -2.203   4.425 -32.121  1.00  0.00     0.023 A 
HETATM    8  C   UNL     1      -3.302   5.411 -34.025  1.00  0.00     0.063 A 
HETATM    9  C   UNL     1      -1.143   5.332 -32.288  1.00  0.00    -0.061 A 
HETATM   10  C   UNL     1       0.033   5.307 -31.355  1.00  0.00     0.048 C 
HETATM   11  C   UNL     1      -1.184   6.268 -33.330  1.00  0.00     0.009 A 
HETATM   12  C   UNL     1      -2.265   6.327 -34.219  1.00  0.00     0.032 A 
HETATM   13  N   UNL     1      -4.472   5.208 -34.701  1.00  0.00    -0.277 N 
HETATM   14  H   UNL     1      -4.809   5.720 -35.509  1.00  0.00     0.189 HD
HETATM   15  N   UNL     1      -5.233   4.212 -34.216  1.00  0.00    -0.168 NA
ENDBRANCH   1   5
BRANCH   2  16
HETATM   16  C   UNL     1      -4.664   0.118 -32.099  1.00  0.00     0.116 C 
HETATM   17  C   UNL     1      -3.455  -0.336 -31.279  1.00  0.00     0.037 C 
BRANCH  16  18
HETATM   18  C   UNL     1      -5.152  -0.982 -33.034  1.00  0.00    -0.003 A 
HETATM   19  C   UNL     1      -6.515  -1.056 -33.402  1.00  0.00     0.076 A 
HETATM   20  C   UNL     1      -6.957  -2.078 -34.251  1.00  0.00     0.037 A 
HETATM   21  C   UNL     1      -6.064  -3.039 -34.729  1.00  0.00     0.003 A 
HETATM   22  C   UNL     1      -4.727  -2.991 -34.355  1.00  0.00     0.001 A 
HETATM   23  C   UNL     1      -4.277  -1.976 -33.510  1.00  0.00     0.012 A 
BRANCH  19  24
HETATM   24  O   UNL     1      -7.331  -0.084 -32.880  1.00  0.00    -0.355 OA
HETATM   25  C   UNL     1      -8.026   0.753 -33.797  1.00  0.00     0.210 C 
ENDBRANCH  19  24
ENDBRANCH  16  18
ENDBRANCH   2  16
TORSDOF 4
ENDMDL
MODEL 2
REMARK VINA RESULT:      -8.2      2.050      7.241
REMARK  4 active torsions:
REMARK  status: ('A' for Active; 'I' for Inactive)
REMARK    1  A    between atoms: C_9  and  C_10 
REMARK       I    between atoms: C_10  and  N_11 
REMARK    2  A    between atoms: N_11  and  C_12 
REMARK    3  A    between atoms: C_12  and  C_13 
REMARK    4  A    between atoms: C_14  and  O_15 
ROOT
HETATM    1  C   UNL     1      -3.197   0.555 -31.642  1.00  0.00     0.273 C 
HETATM    2  N   UNL     1      -3.806   1.689 -32.127  1.00  0.00    -0.347 N 
HETATM    3  O   UNL     1      -2.372   0.542 -30.735  1.00  0.00    -0.266 OA
HETATM    4  H   UNL     1      -4.538   1.508 -32.809  1.00  0.00     0.163 HD
ENDROOT
BRANCH   1   5
HETATM    5  C   UNL     1      -3.660  -0.672 -32.314  1.00  0.00     0.157 A 
HETATM    6  C   UNL     1      -4.768  -0.804 -33.204  1.00  0.00     0.029 A 
HETATM    7  C   UNL     1      -5.752   0.055 -33.734  1.00  0.00     0.023 A 
HETATM    8  C   UNL     1      -4.778  -2.143 -33.573  1.00  0.00     0.063 A 
HETATM    9  C   UNL     1      -6.714  -0.459 -34.619  1.00  0.00    -0.061 A 
HETATM   10  C   UNL     1      -7.774   0.437 -35.193  1.00  0.00     0.048 C 
HETATM   11  C   UNL     1      -6.688  -1.815 -34.966  1.00  0.00     0.009 A 
HETATM   12  C   UNL     1      -5.720  -2.686 -34.451  1.00  0.00     0.032 A 
HETATM   13  N   UNL     1      -3.725  -2.707 -32.910  1.00  0.00    -0.277 N 
HETATM   14  H   UNL     1      -3.429  -3.677 -32.941  1.00  0.00     0.189 HD
HETATM   15  N   UNL     1      -3.025  -1.854 -32.142  1.00  0.00    -0.168 NA
ENDBRANCH   1   5
BRANCH   2  16
HETATM   16  C   UNL     1      -3.678   3.046 -31.610  1.00  0.00     0.116 C 
HETATM   17  C   UNL     1      -4.963   3.616 -31.006  1.00  0.00     0.037 C 
BRANCH  16  18
HETATM   18  C   UNL     1      -3.044   4.017 -32.600  1.00  0.00    -0.003 A 
HETATM   19  C   UNL     1      -1.793   4.612 -32.316  1.00  0.00     0.076 A 
HETATM   20  C   UNL     1      -1.225   5.513 -33.225  1.00  0.00     0.037 A 
HETATM   21  C   UNL     1      -1.891   5.844 -34.406  1.00  0.00     0.003 A 
HETATM   22  C   UNL     1      -3.132   5.284 -34.684  1.00  0.00     0.001 A 
HETATM   23  C   UNL     1      -3.705   4.385 -33.785  1.00  0.00     0.012 A 
BRANCH  19  24
HETATM   24  O   UNL     1      -1.210   4.247 -31.129  1.00  0.00    -0.355 OA
HETATM   25  C   UNL     1      -0.309   5.169 -30.528  1.00  0.00     0.210 C 
ENDBRANCH  19  24
ENDBRANCH  16  18
ENDBRANCH   2  16
TORSDOF 4
ENDMDL
MODEL 3
REMARK VINA RESULT:      -7.9      1.188      1.954
REMARK  4 active torsions:
REMARK  status: ('A' for Active; 'I' for Inactive)
REMARK    1  A    between atoms: C_9  and  C_10 
REMARK       I    between atoms: C_10  and  N_11 
REMARK    2  A    between atoms: N_11  and  C_12 
REMARK    3  A    between atoms: C_12  and  C_13 
REMARK    4  A    between atoms: C_14  and  O_15 
ROOT
HETATM    1  C   UNL     1      -5.699   3.134 -32.806  1.00  0.00     0.273 C 
HETATM    2  N   UNL     1      -5.605   1.817 -33.191  1.00  0.00    -0.347 N 
HETATM    3  O   UNL     1      -6.432   3.548 -31.915  1.00  0.00    -0.266 OA
HETATM    4  H   UNL     1      -4.875   1.635 -33.874  1.00  0.00     0.163 HD
ENDROOT
BRANCH   1   5
HETATM    5  C   UNL     1      -4.794   4.016 -33.565  1.00  0.00     0.157 A 
HETATM    6  C   UNL     1      -3.517   4.503 -33.153  1.00  0.00     0.029 A 
HETATM    7  C   UNL     1      -2.702   4.376 -32.010  1.00  0.00     0.023 A 
HETATM    8  C   UNL     1      -3.065   5.273 -34.216  1.00  0.00     0.063 A 
HETATM    9  C   UNL     1      -1.458   5.026 -31.971  1.00  0.00    -0.061 A 
HETATM   10  C   UNL     1      -0.576   4.908 -30.762  1.00  0.00     0.048 C 
HETATM   11  C   UNL     1      -1.039   5.794 -33.066  1.00  0.00     0.009 A 
HETATM   12  C   UNL     1      -1.833   5.933 -34.211  1.00  0.00     0.032 A 
HETATM   13  N   UNL     1      -4.054   5.206 -35.157  1.00  0.00    -0.277 N 
HETATM   14  H   UNL     1      -4.065   5.653 -36.067  1.00  0.00     0.189 HD
HETATM   15  N   UNL     1      -5.112   4.456 -34.803  1.00  0.00    -0.168 NA
ENDBRANCH   1   5
BRANCH   2  16
HETATM   16  C   UNL     1      -6.258   0.671 -32.570  1.00  0.00     0.116 C 
HETATM   17  C   UNL     1      -6.008   0.539 -31.067  1.00  0.00     0.037 C 
BRANCH  16  18
HETATM   18  C   UNL     1      -6.002  -0.644 -33.299  1.00  0.00    -0.003 A 
HETATM   19  C   UNL     1      -4.680  -1.097 -33.511  1.00  0.00     0.076 A 
HETATM   20  C   UNL     1      -4.454  -2.299 -34.193  1.00  0.00     0.037 A 
HETATM   21  C   UNL     1      -5.524  -3.050 -34.682  1.00  0.00     0.003 A 
HETATM   22  C   UNL     1      -6.827  -2.602 -34.500  1.00  0.00     0.001 A 
HETATM   23  C   UNL     1      -7.062  -1.406 -33.821  1.00  0.00     0.012 A 
BRANCH  19  24
HETATM   24  O   UNL     1      -3.682  -0.297 -33.014  1.00  0.00    -0.355 OA
HETATM   25  C   UNL     1      -2.779  -0.875 -32.080  1.00  0.00     0.210 C 
ENDBRANCH  19  24
ENDBRANCH  16  18
ENDBRANCH   2  16
TORSDOF 4
ENDMDL
MODEL 4
REMARK VINA RESULT:      -7.9      1.801      6.983
REMARK  4 active torsions:
REMARK  status: ('A' for Active; 'I' for Inactive)
REMARK    1  A    between atoms: C_9  and  C_10 
REMARK       I    between atoms: C_10  and  N_11 
REMARK    2  A    between atoms: N_11  and  C_12 
REMARK    3  A    between atoms: C_12  and  C_13 
REMARK    4  A    between atoms: C_14  and  O_15 
ROOT
HETATM    1  C   UNL     1      -4.851   0.571 -32.021  1.00  0.00     0.273 C 
HETATM    2  N   UNL     1      -4.704   1.856 -32.488  1.00  0.00    -0.347 N 
HETATM    3  O   UNL     1      -4.329   0.138 -30.999  1.00  0.00    -0.266 OA
HETATM    4  H   UNL     1      -5.287   2.075 -33.291  1.00  0.00     0.163 HD
ENDROOT
BRANCH   1   5
HETATM    5  C   UNL     1      -5.736  -0.247 -32.869  1.00  0.00     0.157 A 
HETATM    6  C   UNL     1      -5.461  -1.538 -33.412  1.00  0.00     0.029 A 
HETATM    7  C   UNL     1      -4.381  -2.443 -33.383  1.00  0.00     0.023 A 
HETATM    8  C   UNL     1      -6.606  -1.883 -34.119  1.00  0.00     0.063 A 
HETATM    9  C   UNL     1      -4.485  -3.667 -34.063  1.00  0.00    -0.061 A 
HETATM   10  C   UNL     1      -3.345  -4.644 -34.048  1.00  0.00     0.048 C 
HETATM   11  C   UNL     1      -5.658  -3.978 -34.763  1.00  0.00     0.009 A 
HETATM   12  C   UNL     1      -6.742  -3.092 -34.806  1.00  0.00     0.032 A 
HETATM   13  N   UNL     1      -7.458  -0.826 -33.965  1.00  0.00    -0.277 N 
HETATM   14  H   UNL     1      -8.392  -0.731 -34.348  1.00  0.00     0.189 HD
HETATM   15  N   UNL     1      -6.972   0.180 -33.216  1.00  0.00    -0.168 NA
ENDBRANCH   1   5
BRANCH   2  16
HETATM   16  C   UNL     1      -4.008   2.956 -31.832  1.00  0.00     0.116 C 
HETATM   17  C   UNL     1      -4.823   3.663 -30.748  1.00  0.00     0.037 C 
BRANCH  16  18
HETATM   18  C   UNL     1      -3.387   3.951 -32.807  1.00  0.00    -0.003 A 
HETATM   19  C   UNL     1      -4.149   4.473 -33.877  1.00  0.00     0.076 A 
HETATM   20  C   UNL     1      -3.567   5.376 -34.775  1.00  0.00     0.037 A 
HETATM   21  C   UNL     1      -2.231   5.756 -34.633  1.00  0.00     0.003 A 
HETATM   22  C   UNL     1      -1.466   5.231 -33.599  1.00  0.00     0.001 A 
HETATM   23  C   UNL     1      -2.037   4.331 -32.699  1.00  0.00     0.012 A 
BRANCH  19  24
HETATM   24  O   UNL     1      -5.448   4.039 -33.957  1.00  0.00    -0.355 OA
HETATM   25  C   UNL     1      -6.476   5.012 -33.811  1.00  0.00     0.210 C 
ENDBRANCH  19  24
ENDBRANCH  16  18
ENDBRANCH   2  16
TORSDOF 4
ENDMDL
MODEL 5
REMARK VINA RESULT:      -7.7      1.962      7.509
REMARK  4 active torsions:
REMARK  status: ('A' for Active; 'I' for Inactive)
REMARK    1  A    between atoms: C_9  and  C_10 
REMARK       I    between atoms: C_10  and  N_11 
REMARK    2  A    between atoms: N_11  and  C_12 
REMARK    3  A    between atoms: C_12  and  C_13 
REMARK    4  A    between atoms: C_14  and  O_15 
ROOT
HETATM    1  C   UNL     1      -4.225   2.291 -30.925  1.00  0.00     0.273 C 
HETATM    2  N   UNL     1      -3.406   3.297 -31.383  1.00  0.00    -0.347 N 
HETATM    3  O   UNL     1      -5.214   2.465 -30.221  1.00  0.00    -0.266 OA
HETATM    4  H   UNL     1      -2.693   2.986 -32.037  1.00  0.00     0.163 HD
ENDROOT
BRANCH   1   5
HETATM    5  C   UNL     1      -3.807   0.958 -31.393  1.00  0.00     0.157 A 
HETATM    6  C   UNL     1      -4.460   0.140 -32.364  1.00  0.00     0.029 A 
HETATM    7  C   UNL     1      -5.618   0.238 -33.161  1.00  0.00     0.023 A 
HETATM    8  C   UNL     1      -3.673  -1.001 -32.463  1.00  0.00     0.063 A 
HETATM    9  C   UNL     1      -5.948  -0.811 -34.035  1.00  0.00    -0.061 A 
HETATM   10  C   UNL     1      -7.178  -0.727 -34.891  1.00  0.00     0.048 C 
HETATM   11  C   UNL     1      -5.127  -1.943 -34.105  1.00  0.00     0.009 A 
HETATM   12  C   UNL     1      -3.973  -2.062 -33.321  1.00  0.00     0.032 A 
HETATM   13  N   UNL     1      -2.645  -0.806 -31.584  1.00  0.00    -0.277 N 
HETATM   14  H   UNL     1      -1.876  -1.439 -31.392  1.00  0.00     0.189 HD
HETATM   15  N   UNL     1      -2.688   0.363 -30.922  1.00  0.00    -0.168 NA
ENDBRANCH   1   5
BRANCH   2  16
HETATM   16  C   UNL     1      -3.599   4.732 -31.218  1.00  0.00     0.116 C 
HETATM   17  C   UNL     1      -4.655   5.338 -32.143  1.00  0.00     0.037 C 
BRANCH  16  18
HETATM   18  C   UNL     1      -2.299   5.529 -31.251  1.00  0.00    -0.003 A 
HETATM   19  C   UNL     1      -1.398   5.381 -32.330  1.00  0.00     0.076 A 
HETATM   20  C   UNL     1      -0.200   6.107 -32.346  1.00  0.00     0.037 A 
HETATM   21  C   UNL     1       0.121   6.967 -31.295  1.00  0.00     0.003 A 
HETATM   22  C   UNL     1      -0.746   7.103 -30.218  1.00  0.00     0.001 A 
HETATM   23  C   UNL     1      -1.941   6.384 -30.193  1.00  0.00     0.012 A 
BRANCH  19  24
HETATM   24  O   UNL     1      -1.779   4.506 -33.316  1.00  0.00    -0.355 OA
HETATM   25  C   UNL     1      -1.905   5.018 -34.637  1.00  0.00     0.210 C 
ENDBRANCH  19  24
ENDBRANCH  16  18
ENDBRANCH   2  16
TORSDOF 4
ENDMDL
MODEL 6
REMARK VINA RESULT:      -7.7      4.175      6.935
REMARK  4 active torsions:
REMARK  status: ('A' for Active; 'I' for Inactive)
REMARK    1  A    between atoms: C_9  and  C_10 
REMARK       I    between atoms: C_10  and  N_11 
REMARK    2  A    between atoms: N_11  and  C_12 
REMARK    3  A    between atoms: C_12  and  C_13 
REMARK    4  A    between atoms: C_14  and  O_15 
ROOT
HETATM    1  C   UNL     1      -6.428   0.901 -33.773  1.00  0.00     0.273 C 
HETATM    2  N   UNL     1      -7.063   1.358 -32.641  1.00  0.00    -0.347 N 
HETATM    3  O   UNL     1      -6.674   1.283 -34.911  1.00  0.00    -0.266 OA
HETATM    4  H   UNL     1      -6.665   1.010 -31.773  1.00  0.00     0.163 HD
ENDROOT
BRANCH   1   5
HETATM    5  C   UNL     1      -5.382  -0.094 -33.477  1.00  0.00     0.157 A 
HETATM    6  C   UNL     1      -5.361  -1.468 -33.866  1.00  0.00     0.029 A 
HETATM    7  C   UNL     1      -6.212  -2.332 -34.585  1.00  0.00     0.023 A 
HETATM    8  C   UNL     1      -4.168  -1.968 -33.361  1.00  0.00     0.063 A 
HETATM    9  C   UNL     1      -5.837  -3.672 -34.775  1.00  0.00    -0.061 A 
HETATM   10  C   UNL     1      -6.729  -4.611 -35.533  1.00  0.00     0.048 C 
HETATM   11  C   UNL     1      -4.624  -4.137 -34.249  1.00  0.00     0.009 A 
HETATM   12  C   UNL     1      -3.765  -3.295 -33.532  1.00  0.00     0.032 A 
HETATM   13  N   UNL     1      -3.574  -0.914 -32.727  1.00  0.00    -0.277 N 
HETATM   14  H   UNL     1      -2.685  -0.914 -32.239  1.00  0.00     0.189 HD
HETATM   15  N   UNL     1      -4.273   0.234 -32.776  1.00  0.00    -0.168 NA
ENDBRANCH   1   5
BRANCH   2  16
HETATM   16  C   UNL     1      -8.050   2.427 -32.559  1.00  0.00     0.116 C 
HETATM   17  C   UNL     1      -8.246   2.998 -31.153  1.00  0.00     0.037 C 
BRANCH  16  18
HETATM   18  C   UNL     1      -9.381   2.078 -33.214  1.00  0.00    -0.003 A 
HETATM   19  C   UNL     1     -10.005   2.990 -34.096  1.00  0.00     0.076 A 
HETATM   20  C   UNL     1     -11.234   2.666 -34.683  1.00  0.00     0.037 A 
HETATM   21  C   UNL     1     -11.862   1.454 -34.392  1.00  0.00     0.003 A 
HETATM   22  C   UNL     1     -11.271   0.561 -33.507  1.00  0.00     0.001 A 
HETATM   23  C   UNL     1     -10.046   0.874 -32.919  1.00  0.00     0.012 A 
BRANCH  19  24
HETATM   24  O   UNL     1      -9.332   4.165 -34.319  1.00  0.00    -0.355 OA
HETATM   25  C   UNL     1     -10.034   5.208 -34.985  1.00  0.00     0.210 C 
ENDBRANCH  19  24
ENDBRANCH  16  18
ENDBRANCH   2  16
TORSDOF 4
ENDMDL
MODEL 7
REMARK VINA RESULT:      -7.5      1.468      1.757
REMARK  4 active torsions:
REMARK  status: ('A' for Active; 'I' for Inactive)
REMARK    1  A    between atoms: C_9  and  C_10 
REMARK       I    between atoms: C_10  and  N_11 
REMARK    2  A    between atoms: N_11  and  C_12 
REMARK    3  A    between atoms: C_12  and  C_13 
REMARK    4  A    between atoms: C_14  and  O_15 
ROOT
HETATM    1  C   UNL     1      -4.157   2.865 -32.589  1.00  0.00     0.273 C 
HETATM    2  N   UNL     1      -5.501   2.827 -32.299  1.00  0.00    -0.347 N 
HETATM    3  O   UNL     1      -3.382   1.931 -32.421  1.00  0.00    -0.266 OA
HETATM    4  H   UNL     1      -6.013   3.653 -32.595  1.00  0.00     0.163 HD
ENDROOT
BRANCH   1   5
HETATM    5  C   UNL     1      -3.734   4.156 -33.161  1.00  0.00     0.157 A 
HETATM    6  C   UNL     1      -2.596   4.934 -32.789  1.00  0.00     0.029 A 
HETATM    7  C   UNL     1      -1.553   4.820 -31.848  1.00  0.00     0.023 A 
HETATM    8  C   UNL     1      -2.628   6.043 -33.623  1.00  0.00     0.063 A 
HETATM    9  C   UNL     1      -0.573   5.824 -31.776  1.00  0.00    -0.061 A 
HETATM   10  C   UNL     1       0.545   5.725 -30.779  1.00  0.00     0.048 C 
HETATM   11  C   UNL     1      -0.642   6.927 -32.637  1.00  0.00     0.009 A 
HETATM   12  C   UNL     1      -1.671   7.060 -33.578  1.00  0.00     0.032 A 
HETATM   13  N   UNL     1      -3.734   5.873 -34.407  1.00  0.00    -0.277 N 
HETATM   14  H   UNL     1      -4.071   6.494 -35.135  1.00  0.00     0.189 HD
HETATM   15  N   UNL     1      -4.426   4.747 -34.161  1.00  0.00    -0.168 NA
ENDBRANCH   1   5
BRANCH   2  16
HETATM   16  C   UNL     1      -6.270   1.675 -31.845  1.00  0.00     0.116 C 
HETATM   17  C   UNL     1      -5.771   1.058 -30.538  1.00  0.00     0.037 C 
BRANCH  16  18
HETATM   18  C   UNL     1      -6.475   0.617 -32.924  1.00  0.00    -0.003 A 
HETATM   19  C   UNL     1      -7.265   0.900 -34.061  1.00  0.00     0.076 A 
HETATM   20  C   UNL     1      -7.458  -0.083 -35.040  1.00  0.00     0.037 A 
HETATM   21  C   UNL     1      -6.890  -1.350 -34.896  1.00  0.00     0.003 A 
HETATM   22  C   UNL     1      -6.132  -1.646 -33.770  1.00  0.00     0.001 A 
HETATM   23  C   UNL     1      -5.933  -0.674 -32.790  1.00  0.00     0.012 A 
BRANCH  19  24
HETATM   24  O   UNL     1      -7.801   2.162 -34.122  1.00  0.00    -0.355 OA
HETATM   25  C   UNL     1      -9.219   2.273 -34.145  1.00  0.00     0.210 C 
ENDBRANCH  19  24
ENDBRANCH  16  18
ENDBRANCH   2  16
TORSDOF 4
ENDMDL
MODEL 8
REMARK VINA RESULT:      -7.3      4.300      7.928
REMARK  4 active torsions:
REMARK  status: ('A' for Active; 'I' for Inactive)
REMARK    1  A    between atoms: C_9  and  C_10 
REMARK       I    between atoms: C_10  and  N_11 
REMARK    2  A    between atoms: N_11  and  C_12 
REMARK    3  A    between atoms: C_12  and  C_13 
REMARK    4  A    between atoms: C_14  and  O_15 
ROOT
HETATM    1  C   UNL     1      -9.703   1.005 -33.359  1.00  0.00     0.273 C 
HETATM    2  N   UNL     1     -10.110   2.157 -33.991  1.00  0.00    -0.347 N 
HETATM    3  O   UNL     1     -10.449   0.089 -33.033  1.00  0.00    -0.266 OA
HETATM    4  H   UNL     1      -9.348   2.764 -34.278  1.00  0.00     0.163 HD
ENDROOT
BRANCH   1   5
HETATM    5  C   UNL     1      -8.247   0.965 -33.129  1.00  0.00     0.157 A 
HETATM    6  C   UNL     1      -7.346  -0.085 -33.478  1.00  0.00     0.029 A 
HETATM    7  C   UNL     1      -7.450  -1.351 -34.090  1.00  0.00     0.023 A 
HETATM    8  C   UNL     1      -6.096   0.360 -33.068  1.00  0.00     0.063 A 
HETATM    9  C   UNL     1      -6.295  -2.128 -34.273  1.00  0.00    -0.061 A 
HETATM   10  C   UNL     1      -6.384  -3.480 -34.920  1.00  0.00     0.048 C 
HETATM   11  C   UNL     1      -5.053  -1.642 -33.846  1.00  0.00     0.009 A 
HETATM   12  C   UNL     1      -4.928  -0.388 -33.234  1.00  0.00     0.032 A 
HETATM   13  N   UNL     1      -6.314   1.593 -32.521  1.00  0.00    -0.277 N 
HETATM   14  H   UNL     1      -5.623   2.215 -32.116  1.00  0.00     0.189 HD
HETATM   15  N   UNL     1      -7.597   1.995 -32.541  1.00  0.00    -0.168 NA
ENDBRANCH   1   5
BRANCH   2  16
HETATM   16  C   UNL     1     -11.448   2.466 -34.479  1.00  0.00     0.116 C 
HETATM   17  C   UNL     1     -11.483   3.466 -35.635  1.00  0.00     0.037 C 
BRANCH  16  18
HETATM   18  C   UNL     1     -12.425   2.850 -33.374  1.00  0.00    -0.003 A 
HETATM   19  C   UNL     1     -13.614   2.110 -33.182  1.00  0.00     0.076 A 
HETATM   20  C   UNL     1     -14.513   2.478 -32.173  1.00  0.00     0.037 A 
HETATM   21  C   UNL     1     -14.253   3.584 -31.361  1.00  0.00     0.003 A 
HETATM   22  C   UNL     1     -13.100   4.333 -31.556  1.00  0.00     0.001 A 
HETATM   23  C   UNL     1     -12.198   3.973 -32.558  1.00  0.00     0.012 A 
BRANCH  19  24
HETATM   24  O   UNL     1     -13.804   1.047 -34.029  1.00  0.00    -0.355 OA
HETATM   25  C   UNL     1     -15.144   0.695 -34.352  1.00  0.00     0.210 C 
ENDBRANCH  19  24
ENDBRANCH  16  18
ENDBRANCH   2  16
TORSDOF 4
ENDMDL
MODEL 9
REMARK VINA RESULT:      -7.3      2.175      7.847
REMARK  4 active torsions:
REMARK  status: ('A' for Active; 'I' for Inactive)
REMARK    1  A    between atoms: C_9  and  C_10 
REMARK       I    between atoms: C_10  and  N_11 
REMARK    2  A    between atoms: N_11  and  C_12 
REMARK    3  A    between atoms: C_12  and  C_13 
REMARK    4  A    between atoms: C_14  and  O_15 
ROOT
HETATM    1  C   UNL     1      -3.836   3.624 -32.449  1.00  0.00     0.273 C 
HETATM    2  N   UNL     1      -2.639   4.053 -32.974  1.00  0.00    -0.347 N 
HETATM    3  O   UNL     1      -4.813   4.341 -32.268  1.00  0.00    -0.266 OA
HETATM    4  H   UNL     1      -1.972   3.307 -33.151  1.00  0.00     0.163 HD
ENDROOT
BRANCH   1   5
HETATM    5  C   UNL     1      -3.840   2.182 -32.144  1.00  0.00     0.157 A 
HETATM    6  C   UNL     1      -4.680   1.180 -32.716  1.00  0.00     0.029 A 
HETATM    7  C   UNL     1      -5.719   1.149 -33.669  1.00  0.00     0.023 A 
HETATM    8  C   UNL     1      -4.287  -0.008 -32.115  1.00  0.00     0.063 A 
HETATM    9  C   UNL     1      -6.329  -0.075 -33.988  1.00  0.00    -0.061 A 
HETATM   10  C   UNL     1      -7.439  -0.130 -34.997  1.00  0.00     0.048 C 
HETATM   11  C   UNL     1      -5.902  -1.251 -33.359  1.00  0.00     0.009 A 
HETATM   12  C   UNL     1      -4.872  -1.242 -32.409  1.00  0.00     0.032 A 
HETATM   13  N   UNL     1      -3.282   0.338 -31.255  1.00  0.00    -0.277 N 
HETATM   14  H   UNL     1      -2.758  -0.279 -30.645  1.00  0.00     0.189 HD
HETATM   15  N   UNL     1      -2.981   1.648 -31.245  1.00  0.00    -0.168 NA
ENDBRANCH   1   5
BRANCH   2  16
HETATM   16  C   UNL     1      -2.334   5.378 -33.500  1.00  0.00     0.116 C 
HETATM   17  C   UNL     1      -1.279   5.390 -34.608  1.00  0.00     0.037 C 
BRANCH  16  18
HETATM   18  C   UNL     1      -2.024   6.406 -32.418  1.00  0.00    -0.003 A 
HETATM   19  C   UNL     1      -1.024   6.147 -31.452  1.00  0.00     0.076 A 
HETATM   20  C   UNL     1      -0.756   7.092 -30.454  1.00  0.00     0.037 A 
HETATM   21  C   UNL     1      -1.478   8.285 -30.392  1.00  0.00     0.003 A 
HETATM   22  C   UNL     1      -2.479   8.539 -31.322  1.00  0.00     0.001 A 
HETATM   23  C   UNL     1      -2.754   7.604 -32.320  1.00  0.00     0.012 A 
BRANCH  19  24
HETATM   24  O   UNL     1      -0.369   4.948 -31.572  1.00  0.00    -0.355 OA
HETATM   25  C   UNL     1       0.874   4.807 -30.894  1.00  0.00     0.210 C 
ENDBRANCH  19  24
ENDBRANCH  16  18
ENDBRANCH   2  16
TORSDOF 4
ENDMDL
MODEL 10
REMARK VINA RESULT:      -7.1      3.129      6.280
REMARK  4 active torsions:
REMARK  status: ('A' for Active; 'I' for Inactive)
REMARK    1  A    between atoms: C_9  and  C_10 
REMARK       I    between atoms: C_10  and  N_11 
REMARK    2  A    between atoms: N_11  and  C_12 
REMARK    3  A    between atoms: C_12  and  C_13 
REMARK    4  A    between atoms: C_14  and  O_15 
ROOT
HETATM    1  C   UNL     1      -6.767   3.671 -33.689  1.00  0.00     0.273 C 
HETATM    2  N   UNL     1      -8.057   3.333 -33.352  1.00  0.00    -0.347 N 
HETATM    3  O   UNL     1      -6.458   4.642 -34.371  1.00  0.00    -0.266 OA
HETATM    4  H   UNL     1      -8.125   2.558 -32.698  1.00  0.00     0.163 HD
ENDROOT
BRANCH   1   5
HETATM    5  C   UNL     1      -5.769   2.749 -33.119  1.00  0.00     0.157 A 
HETATM    6  C   UNL     1      -5.686   1.337 -33.314  1.00  0.00     0.029 A 
HETATM    7  C   UNL     1      -6.423   0.365 -34.020  1.00  0.00     0.023 A 
HETATM    8  C   UNL     1      -4.574   0.936 -32.585  1.00  0.00     0.063 A 
HETATM    9  C   UNL     1      -6.018  -0.979 -33.973  1.00  0.00    -0.061 A 
HETATM   10  C   UNL     1      -6.790  -2.031 -34.715  1.00  0.00     0.048 C 
HETATM   11  C   UNL     1      -4.889  -1.341 -33.227  1.00  0.00     0.009 A 
HETATM   12  C   UNL     1      -4.144  -0.391 -32.517  1.00  0.00     0.032 A 
HETATM   13  N   UNL     1      -4.081   2.080 -32.022  1.00  0.00    -0.277 N 
HETATM   14  H   UNL     1      -3.269   2.166 -31.420  1.00  0.00     0.189 HD
HETATM   15  N   UNL     1      -4.771   3.194 -32.321  1.00  0.00    -0.168 NA
ENDBRANCH   1   5
BRANCH   2  16
HETATM   16  C   UNL     1      -9.268   4.092 -33.637  1.00  0.00     0.116 C 
HETATM   17  C   UNL     1      -9.719   5.013 -32.502  1.00  0.00     0.037 C 
BRANCH  16  18
HETATM   18  C   UNL     1     -10.417   3.233 -34.153  1.00  0.00    -0.003 A 
HETATM   19  C   UNL     1     -10.714   1.993 -33.540  1.00  0.00     0.076 A 
HETATM   20  C   UNL     1     -11.763   1.205 -34.029  1.00  0.00     0.037 A 
HETATM   21  C   UNL     1     -12.513   1.624 -35.130  1.00  0.00     0.003 A 
HETATM   22  C   UNL     1     -12.215   2.829 -35.754  1.00  0.00     0.001 A 
HETATM   23  C   UNL     1     -11.172   3.622 -35.274  1.00  0.00     0.012 A 
BRANCH  19  24
HETATM   24  O   UNL     1      -9.923   1.645 -32.475  1.00  0.00    -0.355 OA
HETATM   25  C   UNL     1      -9.580   0.272 -32.331  1.00  0.00     0.210 C 
ENDBRANCH  19  24
ENDBRANCH  16  18
ENDBRANCH   2  16
TORSDOF 4
ENDMDL
