MODEL 1
REMARK VINA RESULT:      -9.0      0.000      0.000
REMARK  6 active torsions:
REMARK  status: ('A' for Active; 'I' for Inactive)
REMARK    1  A    between atoms: C_3  and  C_4 
REMARK    2  A    between atoms: C_4  and  N_5 
REMARK    3  A    between atoms: N_5  and  C_8 
REMARK    4  A    between atoms: C_8  and  C_9 
REMARK    5  A    between atoms: N_12  and  C_13 
REMARK    6  A    between atoms: C_28  and  O_29 
ROOT
HETATM    1  N   UNL     1      -6.898   3.696 -32.347  1.00  0.00    -0.062 N 
HETATM    2  H   UNL     1      -7.357   4.592 -32.549  1.00  0.00     0.278 HD
HETATM    3  H   UNL     1      -6.084   3.939 -31.772  1.00  0.00     0.278 HD
ENDROOT
BRANCH   1   4
HETATM    4  C   UNL     1      -7.832   2.905 -31.504  1.00  0.00     0.290 C 
BRANCH   4   5
HETATM    5  C   UNL     1      -9.116   2.722 -32.220  1.00  0.00     0.042 A 
HETATM    6  C   UNL     1      -9.827   1.573 -32.543  1.00  0.00    -0.025 A 
HETATM    7  C   UNL     1      -9.478   0.155 -32.243  1.00  0.00     0.051 C 
HETATM    8  C   UNL     1     -10.987   1.988 -33.273  1.00  0.00     0.001 A 
HETATM    9  C   UNL     1     -10.944   3.374 -33.380  1.00  0.00     0.043 A 
HETATM   10  C   UNL     1     -12.065   1.304 -33.872  1.00  0.00     0.051 A 
HETATM   11  N   UNL     1      -9.804   3.796 -32.743  1.00  0.00    -0.357 N 
HETATM   12  C   UNL     1     -11.926   4.111 -34.052  1.00  0.00     0.033 A 
HETATM   13  H   UNL     1      -9.521   4.768 -32.706  1.00  0.00     0.166 HD
HETATM   14  C   UNL     1     -12.981   3.406 -34.644  1.00  0.00     0.039 A 
HETATM   15  C   UNL     1     -13.052   2.016 -34.566  1.00  0.00     0.069 A 
BRANCH  15  16
HETATM   16  O   UNL     1     -14.030   1.232 -35.115  1.00  0.00    -0.356 OA
HETATM   17  C   UNL     1     -15.046   0.761 -34.237  1.00  0.00     0.210 C 
ENDBRANCH  15  16
ENDBRANCH   4   5
ENDBRANCH   1   4
BRANCH   1  18
HETATM   18  C   UNL     1      -6.441   3.104 -33.645  1.00  0.00     0.218 C 
HETATM   19  C   UNL     1      -5.420   4.016 -34.317  1.00  0.00     0.045 C 
BRANCH  18  20
HETATM   20  C   UNL     1      -6.005   1.685 -33.477  1.00  0.00     0.015 C 
HETATM   21  C   UNL     1      -6.429   0.560 -34.184  1.00  0.00     0.042 C 
HETATM   22  C   UNL     1      -7.448   0.472 -35.267  1.00  0.00     0.071 C 
HETATM   23  N   UNL     1      -5.739  -0.536 -33.651  1.00  0.00    -0.238 N 
HETATM   24  N   UNL     1      -5.045  -0.152 -32.546  1.00  0.00    -0.179 NA
HETATM   25  C   UNL     1      -5.111   1.170 -32.521  1.00  0.00     0.150 C 
BRANCH  23  26
HETATM   26  C   UNL     1      -5.690  -1.905 -34.054  1.00  0.00     0.058 A 
HETATM   27  C   UNL     1      -6.823  -2.604 -34.487  1.00  0.00     0.031 A 
HETATM   28  C   UNL     1      -6.721  -3.945 -34.870  1.00  0.00     0.002 A 
HETATM   29  C   UNL     1      -5.491  -4.598 -34.833  1.00  0.00     0.000 A 
HETATM   30  C   UNL     1      -4.354  -3.907 -34.428  1.00  0.00     0.002 A 
HETATM   31  C   UNL     1      -4.449  -2.566 -34.051  1.00  0.00     0.031 A 
ENDBRANCH  23  26
ENDBRANCH  18  20
ENDBRANCH   1  18
TORSDOF 6
ENDMDL
MODEL 2
REMARK VINA RESULT:      -9.0      5.851      9.061
REMARK  6 active torsions:
REMARK  status: ('A' for Active; 'I' for Inactive)
REMARK    1  A    between atoms: C_3  and  C_4 
REMARK    2  A    between atoms: C_4  and  N_5 
REMARK    3  A    between atoms: N_5  and  C_8 
REMARK    4  A    between atoms: C_8  and  C_9 
REMARK    5  A    between atoms: N_12  and  C_13 
REMARK    6  A    between atoms: C_28  and  O_29 
ROOT
HETATM    1  N   UNL     1      -3.135   3.868 -32.678  1.00  0.00    -0.062 N 
HETATM    2  H   UNL     1      -3.289   3.495 -33.622  1.00  0.00     0.278 HD
HETATM    3  H   UNL     1      -3.891   4.545 -32.533  1.00  0.00     0.278 HD
ENDROOT
BRANCH   1   4
HETATM    4  C   UNL     1      -3.337   2.747 -31.724  1.00  0.00     0.290 C 
BRANCH   4   5
HETATM    5  C   UNL     1      -4.169   1.699 -32.358  1.00  0.00     0.042 A 
HETATM    6  C   UNL     1      -4.038   0.315 -32.381  1.00  0.00    -0.025 A 
HETATM    7  C   UNL     1      -2.980  -0.523 -31.746  1.00  0.00     0.051 C 
HETATM    8  C   UNL     1      -5.114  -0.196 -33.176  1.00  0.00     0.001 A 
HETATM    9  C   UNL     1      -5.862   0.888 -33.619  1.00  0.00     0.043 A 
HETATM   10  C   UNL     1      -5.508  -1.490 -33.575  1.00  0.00     0.051 A 
HETATM   11  N   UNL     1      -5.272   2.022 -33.120  1.00  0.00    -0.357 N 
HETATM   12  C   UNL     1      -6.987   0.745 -34.440  1.00  0.00     0.033 A 
HETATM   13  H   UNL     1      -5.608   2.955 -33.326  1.00  0.00     0.166 HD
HETATM   14  C   UNL     1      -7.352  -0.550 -34.828  1.00  0.00     0.039 A 
HETATM   15  C   UNL     1      -6.620  -1.660 -34.411  1.00  0.00     0.069 A 
BRANCH  15  16
HETATM   16  O   UNL     1      -6.883  -2.963 -34.739  1.00  0.00    -0.356 OA
HETATM   17  C   UNL     1      -5.766  -3.780 -35.069  1.00  0.00     0.210 C 
ENDBRANCH  15  16
ENDBRANCH   4   5
ENDBRANCH   1   4
BRANCH   1  18
HETATM   18  C   UNL     1      -1.815   4.577 -32.669  1.00  0.00     0.218 C 
HETATM   19  C   UNL     1      -1.602   5.326 -33.980  1.00  0.00     0.045 C 
BRANCH  18  20
HETATM   20  C   UNL     1      -1.645   5.404 -31.436  1.00  0.00     0.015 C 
HETATM   21  C   UNL     1      -0.517   5.527 -30.625  1.00  0.00     0.042 C 
HETATM   22  C   UNL     1       0.801   4.846 -30.756  1.00  0.00     0.071 C 
HETATM   23  N   UNL     1      -0.858   6.407 -29.589  1.00  0.00    -0.238 N 
HETATM   24  N   UNL     1      -2.188   6.688 -29.642  1.00  0.00    -0.179 NA
HETATM   25  C   UNL     1      -2.616   6.193 -30.792  1.00  0.00     0.150 C 
BRANCH  23  26
HETATM   26  C   UNL     1      -0.072   6.981 -28.545  1.00  0.00     0.058 A 
HETATM   27  C   UNL     1      -0.128   6.525 -27.222  1.00  0.00     0.031 A 
HETATM   28  C   UNL     1       0.663   7.124 -26.236  1.00  0.00     0.002 A 
HETATM   29  C   UNL     1       1.519   8.174 -26.559  1.00  0.00     0.000 A 
HETATM   30  C   UNL     1       1.601   8.620 -27.874  1.00  0.00     0.002 A 
HETATM   31  C   UNL     1       0.819   8.021 -28.864  1.00  0.00     0.031 A 
ENDBRANCH  23  26
ENDBRANCH  18  20
ENDBRANCH   1  18
TORSDOF 6
ENDMDL
MODEL 3
REMARK VINA RESULT:      -8.9      3.692      6.751
REMARK  6 active torsions:
REMARK  status: ('A' for Active; 'I' for Inactive)
REMARK    1  A    between atoms: C_3  and  C_4 
REMARK    2  A    between atoms: C_4  and  N_5 
REMARK    3  A    between atoms: N_5  and  C_8 
REMARK    4  A    between atoms: C_8  and  C_9 
REMARK    5  A    between atoms: N_12  and  C_13 
REMARK    6  A    between atoms: C_28  and  O_29 
ROOT
HETATM    1  N   UNL     1      -7.939   3.427 -33.708  1.00  0.00    -0.062 N 
HETATM    2  H   UNL     1      -8.930   3.521 -33.963  1.00  0.00     0.278 HD
HETATM    3  H   UNL     1      -7.452   3.264 -34.596  1.00  0.00     0.278 HD
ENDROOT
BRANCH   1   4
HETATM    4  C   UNL     1      -7.496   4.742 -33.178  1.00  0.00     0.290 C 
BRANCH   4   5
HETATM    5  C   UNL     1      -6.020   4.761 -33.061  1.00  0.00     0.042 A 
HETATM    6  C   UNL     1      -5.186   4.554 -31.968  1.00  0.00    -0.025 A 
HETATM    7  C   UNL     1      -5.568   4.244 -30.560  1.00  0.00     0.051 C 
HETATM    8  C   UNL     1      -3.841   4.727 -32.428  1.00  0.00     0.001 A 
HETATM    9  C   UNL     1      -3.895   5.041 -33.781  1.00  0.00     0.043 A 
HETATM   10  C   UNL     1      -2.577   4.663 -31.805  1.00  0.00     0.051 A 
HETATM   11  N   UNL     1      -5.219   5.062 -34.142  1.00  0.00    -0.357 N 
HETATM   12  C   UNL     1      -2.749   5.291 -34.545  1.00  0.00     0.033 A 
HETATM   13  H   UNL     1      -5.532   5.298 -35.076  1.00  0.00     0.166 HD
HETATM   14  C   UNL     1      -1.507   5.229 -33.900  1.00  0.00     0.039 A 
HETATM   15  C   UNL     1      -1.415   4.927 -32.543  1.00  0.00     0.069 A 
BRANCH  15  16
HETATM   16  O   UNL     1      -0.258   4.851 -31.816  1.00  0.00    -0.356 OA
HETATM   17  C   UNL     1       0.206   6.055 -31.216  1.00  0.00     0.210 C 
ENDBRANCH  15  16
ENDBRANCH   4   5
ENDBRANCH   1   4
BRANCH   1  18
HETATM   18  C   UNL     1      -7.798   2.224 -32.827  1.00  0.00     0.218 C 
HETATM   19  C   UNL     1      -9.071   2.003 -32.017  1.00  0.00     0.045 C 
BRANCH  18  20
HETATM   20  C   UNL     1      -7.326   1.033 -33.596  1.00  0.00     0.015 C 
HETATM   21  C   UNL     1      -6.692  -0.112 -33.115  1.00  0.00     0.042 C 
HETATM   22  C   UNL     1      -6.291  -0.436 -31.717  1.00  0.00     0.071 C 
HETATM   23  N   UNL     1      -6.440  -0.930 -34.224  1.00  0.00    -0.238 N 
HETATM   24  N   UNL     1      -6.739  -0.260 -35.369  1.00  0.00    -0.179 NA
HETATM   25  C   UNL     1      -7.367   0.841 -34.989  1.00  0.00     0.150 C 
BRANCH  23  26
HETATM   26  C   UNL     1      -5.921  -2.257 -34.316  1.00  0.00     0.058 A 
HETATM   27  C   UNL     1      -4.595  -2.572 -33.994  1.00  0.00     0.031 A 
HETATM   28  C   UNL     1      -4.137  -3.889 -34.103  1.00  0.00     0.002 A 
HETATM   29  C   UNL     1      -4.994  -4.902 -34.526  1.00  0.00     0.000 A 
HETATM   30  C   UNL     1      -6.319  -4.606 -34.827  1.00  0.00     0.002 A 
HETATM   31  C   UNL     1      -6.784  -3.294 -34.712  1.00  0.00     0.031 A 
ENDBRANCH  23  26
ENDBRANCH  18  20
ENDBRANCH   1  18
TORSDOF 6
ENDMDL
MODEL 4
REMARK VINA RESULT:      -8.5      1.792      2.897
REMARK  6 active torsions:
REMARK  status: ('A' for Active; 'I' for Inactive)
REMARK    1  A    between atoms: C_3  and  C_4 
REMARK    2  A    between atoms: C_4  and  N_5 
REMARK    3  A    between atoms: N_5  and  C_8 
REMARK    4  A    between atoms: C_8  and  C_9 
REMARK    5  A    between atoms: N_12  and  C_13 
REMARK    6  A    between atoms: C_28  and  O_29 
ROOT
HETATM    1  N   UNL     1      -4.586   2.700 -30.481  1.00  0.00    -0.062 N 
HETATM    2  H   UNL     1      -3.824   3.260 -30.080  1.00  0.00     0.278 HD
HETATM    3  H   UNL     1      -4.613   1.846 -29.913  1.00  0.00     0.278 HD
ENDROOT
BRANCH   1   4
HETATM    4  C   UNL     1      -5.849   3.446 -30.246  1.00  0.00     0.290 C 
BRANCH   4   5
HETATM    5  C   UNL     1      -6.921   2.894 -31.107  1.00  0.00     0.042 A 
HETATM    6  C   UNL     1      -7.561   3.422 -32.222  1.00  0.00    -0.025 A 
HETATM    7  C   UNL     1      -7.332   4.740 -32.882  1.00  0.00     0.051 C 
HETATM    8  C   UNL     1      -8.544   2.466 -32.635  1.00  0.00     0.001 A 
HETATM    9  C   UNL     1      -8.479   1.390 -31.756  1.00  0.00     0.043 A 
HETATM   10  C   UNL     1      -9.500   2.427 -33.670  1.00  0.00     0.051 A 
HETATM   11  N   UNL     1      -7.498   1.671 -30.839  1.00  0.00    -0.357 N 
HETATM   12  C   UNL     1      -9.319   0.275 -31.863  1.00  0.00     0.033 A 
HETATM   13  H   UNL     1      -7.273   1.056 -30.066  1.00  0.00     0.166 HD
HETATM   14  C   UNL     1     -10.265   0.267 -32.896  1.00  0.00     0.039 A 
HETATM   15  C   UNL     1     -10.366   1.332 -33.789  1.00  0.00     0.069 A 
BRANCH  15  16
HETATM   16  O   UNL     1     -11.257   1.429 -34.823  1.00  0.00    -0.356 OA
HETATM   17  C   UNL     1     -11.914   2.681 -34.990  1.00  0.00     0.210 C 
ENDBRANCH  15  16
ENDBRANCH   4   5
ENDBRANCH   1   4
BRANCH   1  18
HETATM   18  C   UNL     1      -4.218   2.356 -31.892  1.00  0.00     0.218 C 
HETATM   19  C   UNL     1      -3.056   3.222 -32.366  1.00  0.00     0.045 C 
BRANCH  18  20
HETATM   20  C   UNL     1      -4.020   0.885 -32.063  1.00  0.00     0.015 C 
HETATM   21  C   UNL     1      -4.713   0.011 -32.900  1.00  0.00     0.042 C 
HETATM   22  C   UNL     1      -5.850   0.305 -33.817  1.00  0.00     0.071 C 
HETATM   23  N   UNL     1      -4.167  -1.263 -32.695  1.00  0.00    -0.238 N 
HETATM   24  N   UNL     1      -3.294  -1.228 -31.652  1.00  0.00    -0.179 NA
HETATM   25  C   UNL     1      -3.124   0.053 -31.367  1.00  0.00     0.150 C 
BRANCH  23  26
HETATM   26  C   UNL     1      -4.405  -2.507 -33.353  1.00  0.00     0.058 A 
HETATM   27  C   UNL     1      -5.412  -2.671 -34.312  1.00  0.00     0.031 A 
HETATM   28  C   UNL     1      -5.604  -3.913 -34.928  1.00  0.00     0.002 A 
HETATM   29  C   UNL     1      -4.792  -4.996 -34.600  1.00  0.00     0.000 A 
HETATM   30  C   UNL     1      -3.773  -4.839 -33.666  1.00  0.00     0.002 A 
HETATM   31  C   UNL     1      -3.572  -3.600 -33.054  1.00  0.00     0.031 A 
ENDBRANCH  23  26
ENDBRANCH  18  20
ENDBRANCH   1  18
TORSDOF 6
ENDMDL
MODEL 5
REMARK VINA RESULT:      -8.4      1.335      2.056
REMARK  6 active torsions:
REMARK  status: ('A' for Active; 'I' for Inactive)
REMARK    1  A    between atoms: C_3  and  C_4 
REMARK    2  A    between atoms: C_4  and  N_5 
REMARK    3  A    between atoms: N_5  and  C_8 
REMARK    4  A    between atoms: C_8  and  C_9 
REMARK    5  A    between atoms: N_12  and  C_13 
REMARK    6  A    between atoms: C_28  and  O_29 
ROOT
HETATM    1  N   UNL     1      -7.997   2.966 -33.734  1.00  0.00    -0.062 N 
HETATM    2  H   UNL     1      -8.384   2.041 -33.961  1.00  0.00     0.278 HD
HETATM    3  H   UNL     1      -8.058   3.499 -34.608  1.00  0.00     0.278 HD
ENDROOT
BRANCH   1   4
HETATM    4  C   UNL     1      -8.914   3.595 -32.749  1.00  0.00     0.290 C 
BRANCH   4   5
HETATM    5  C   UNL     1     -10.285   3.066 -32.935  1.00  0.00     0.042 A 
HETATM    6  C   UNL     1     -11.528   3.660 -32.751  1.00  0.00    -0.025 A 
HETATM    7  C   UNL     1     -11.831   5.048 -32.300  1.00  0.00     0.051 C 
HETATM    8  C   UNL     1     -12.516   2.667 -33.048  1.00  0.00     0.001 A 
HETATM    9  C   UNL     1     -11.848   1.498 -33.396  1.00  0.00     0.043 A 
HETATM   10  C   UNL     1     -13.926   2.653 -33.034  1.00  0.00     0.051 A 
HETATM   11  N   UNL     1     -10.503   1.758 -33.315  1.00  0.00    -0.357 N 
HETATM   12  C   UNL     1     -12.518   0.316 -33.733  1.00  0.00     0.033 A 
HETATM   13  H   UNL     1      -9.794   1.056 -33.489  1.00  0.00     0.166 HD
HETATM   14  C   UNL     1     -13.918   0.328 -33.703  1.00  0.00     0.039 A 
HETATM   15  C   UNL     1     -14.622   1.477 -33.350  1.00  0.00     0.069 A 
BRANCH  15  16
HETATM   16  O   UNL     1     -15.983   1.594 -33.280  1.00  0.00    -0.356 OA
HETATM   17  C   UNL     1     -16.507   2.389 -32.222  1.00  0.00     0.210 C 
ENDBRANCH  15  16
ENDBRANCH   4   5
ENDBRANCH   1   4
BRANCH   1  18
HETATM   18  C   UNL     1      -6.560   2.787 -33.351  1.00  0.00     0.218 C 
HETATM   19  C   UNL     1      -6.210   3.676 -32.162  1.00  0.00     0.045 C 
BRANCH  18  20
HETATM   20  C   UNL     1      -6.213   1.344 -33.184  1.00  0.00     0.015 C 
HETATM   21  C   UNL     1      -6.421   0.295 -34.080  1.00  0.00     0.042 C 
HETATM   22  C   UNL     1      -7.069   0.331 -35.420  1.00  0.00     0.071 C 
HETATM   23  N   UNL     1      -5.935  -0.866 -33.463  1.00  0.00    -0.238 N 
HETATM   24  N   UNL     1      -5.599  -0.595 -32.173  1.00  0.00    -0.179 NA
HETATM   25  C   UNL     1      -5.652   0.722 -32.054  1.00  0.00     0.150 C 
BRANCH  23  26
HETATM   26  C   UNL     1      -5.786  -2.199 -33.950  1.00  0.00     0.058 A 
HETATM   27  C   UNL     1      -6.849  -2.922 -34.503  1.00  0.00     0.031 A 
HETATM   28  C   UNL     1      -6.649  -4.228 -34.965  1.00  0.00     0.002 A 
HETATM   29  C   UNL     1      -5.391  -4.819 -34.887  1.00  0.00     0.000 A 
HETATM   30  C   UNL     1      -4.321  -4.102 -34.361  1.00  0.00     0.002 A 
HETATM   31  C   UNL     1      -4.514  -2.796 -33.905  1.00  0.00     0.031 A 
ENDBRANCH  23  26
ENDBRANCH  18  20
ENDBRANCH   1  18
TORSDOF 6
ENDMDL
MODEL 6
REMARK VINA RESULT:      -8.1      5.429      8.469
REMARK  6 active torsions:
REMARK  status: ('A' for Active; 'I' for Inactive)
REMARK    1  A    between atoms: C_3  and  C_4 
REMARK    2  A    between atoms: C_4  and  N_5 
REMARK    3  A    between atoms: N_5  and  C_8 
REMARK    4  A    between atoms: C_8  and  C_9 
REMARK    5  A    between atoms: N_12  and  C_13 
REMARK    6  A    between atoms: C_28  and  O_29 
ROOT
HETATM    1  N   UNL     1      -4.023   3.528 -32.547  1.00  0.00    -0.062 N 
HETATM    2  H   UNL     1      -4.466   4.297 -32.030  1.00  0.00     0.278 HD
HETATM    3  H   UNL     1      -4.547   3.464 -33.427  1.00  0.00     0.278 HD
ENDROOT
BRANCH   1   4
HETATM    4  C   UNL     1      -2.638   3.958 -32.870  1.00  0.00     0.290 C 
BRANCH   4   5
HETATM    5  C   UNL     1      -2.183   4.959 -31.878  1.00  0.00     0.042 A 
HETATM    6  C   UNL     1      -2.784   6.122 -31.410  1.00  0.00    -0.025 A 
HETATM    7  C   UNL     1      -4.105   6.698 -31.794  1.00  0.00     0.051 C 
HETATM    8  C   UNL     1      -1.875   6.721 -30.481  1.00  0.00     0.001 A 
HETATM    9  C   UNL     1      -0.746   5.912 -30.416  1.00  0.00     0.043 A 
HETATM   10  C   UNL     1      -1.903   7.894 -29.699  1.00  0.00     0.051 A 
HETATM   11  N   UNL     1      -0.950   4.858 -31.271  1.00  0.00    -0.357 N 
HETATM   12  C   UNL     1       0.356   6.215 -29.607  1.00  0.00     0.033 A 
HETATM   13  H   UNL     1      -0.257   4.137 -31.433  1.00  0.00     0.166 HD
HETATM   14  C   UNL     1       0.305   7.391 -28.847  1.00  0.00     0.039 A 
HETATM   15  C   UNL     1      -0.806   8.231 -28.894  1.00  0.00     0.069 A 
BRANCH  15  16
HETATM   16  O   UNL     1      -0.954   9.403 -28.203  1.00  0.00    -0.356 OA
HETATM   17  C   UNL     1      -1.969  10.292 -28.656  1.00  0.00     0.210 C 
ENDBRANCH  15  16
ENDBRANCH   4   5
ENDBRANCH   1   4
BRANCH   1  18
HETATM   18  C   UNL     1      -4.208   2.269 -31.757  1.00  0.00     0.218 C 
HETATM   19  C   UNL     1      -4.944   2.561 -30.453  1.00  0.00     0.045 C 
BRANCH  18  20
HETATM   20  C   UNL     1      -4.807   1.182 -32.589  1.00  0.00     0.015 C 
HETATM   21  C   UNL     1      -4.396  -0.145 -32.704  1.00  0.00     0.042 C 
HETATM   22  C   UNL     1      -3.238  -0.820 -32.055  1.00  0.00     0.071 C 
HETATM   23  N   UNL     1      -5.269  -0.761 -33.611  1.00  0.00    -0.238 N 
HETATM   24  N   UNL     1      -6.081   0.172 -34.176  1.00  0.00    -0.179 NA
HETATM   25  C   UNL     1      -5.886   1.285 -33.486  1.00  0.00     0.150 C 
BRANCH  23  26
HETATM   26  C   UNL     1      -5.394  -2.123 -34.021  1.00  0.00     0.058 A 
HETATM   27  C   UNL     1      -4.333  -3.033 -33.944  1.00  0.00     0.031 A 
HETATM   28  C   UNL     1      -4.509  -4.358 -34.360  1.00  0.00     0.002 A 
HETATM   29  C   UNL     1      -5.741  -4.787 -34.847  1.00  0.00     0.000 A 
HETATM   30  C   UNL     1      -6.809  -3.898 -34.906  1.00  0.00     0.002 A 
HETATM   31  C   UNL     1      -6.642  -2.576 -34.485  1.00  0.00     0.031 A 
ENDBRANCH  23  26
ENDBRANCH  18  20
ENDBRANCH   1  18
TORSDOF 6
ENDMDL
MODEL 7
REMARK VINA RESULT:      -8.1      6.869      9.689
REMARK  6 active torsions:
REMARK  status: ('A' for Active; 'I' for Inactive)
REMARK    1  A    between atoms: C_3  and  C_4 
REMARK    2  A    between atoms: C_4  and  N_5 
REMARK    3  A    between atoms: N_5  and  C_8 
REMARK    4  A    between atoms: C_8  and  C_9 
REMARK    5  A    between atoms: N_12  and  C_13 
REMARK    6  A    between atoms: C_28  and  O_29 
ROOT
HETATM    1  N   UNL     1      -3.498   4.863 -30.916  1.00  0.00    -0.062 N 
HETATM    2  H   UNL     1      -3.158   4.050 -30.389  1.00  0.00     0.278 HD
HETATM    3  H   UNL     1      -3.915   5.480 -30.211  1.00  0.00     0.278 HD
ENDROOT
BRANCH   1   4
HETATM    4  C   UNL     1      -2.306   5.551 -31.477  1.00  0.00     0.290 C 
BRANCH   4   5
HETATM    5  C   UNL     1      -1.565   6.231 -30.389  1.00  0.00     0.042 A 
HETATM    6  C   UNL     1      -0.286   6.774 -30.354  1.00  0.00    -0.025 A 
HETATM    7  C   UNL     1       0.727   6.824 -31.447  1.00  0.00     0.051 C 
HETATM    8  C   UNL     1      -0.078   7.272 -29.028  1.00  0.00     0.001 A 
HETATM    9  C   UNL     1      -1.230   7.011 -28.294  1.00  0.00     0.043 A 
HETATM   10  C   UNL     1       1.000   7.908 -28.378  1.00  0.00     0.051 A 
HETATM   11  N   UNL     1      -2.112   6.377 -29.132  1.00  0.00    -0.357 N 
HETATM   12  C   UNL     1      -1.360   7.356 -26.943  1.00  0.00     0.033 A 
HETATM   13  H   UNL     1      -3.021   6.048 -28.829  1.00  0.00     0.166 HD
HETATM   14  C   UNL     1      -0.271   7.979 -26.320  1.00  0.00     0.039 A 
HETATM   15  C   UNL     1       0.903   8.248 -27.021  1.00  0.00     0.069 A 
BRANCH  15  16
HETATM   16  O   UNL     1       2.024   8.841 -26.509  1.00  0.00    -0.356 OA
HETATM   17  C   UNL     1       2.290   8.628 -25.127  1.00  0.00     0.210 C 
ENDBRANCH  15  16
ENDBRANCH   4   5
ENDBRANCH   1   4
BRANCH   1  18
HETATM   18  C   UNL     1      -4.557   4.392 -31.865  1.00  0.00     0.218 C 
HETATM   19  C   UNL     1      -4.486   5.173 -33.173  1.00  0.00     0.045 C 
BRANCH  18  20
HETATM   20  C   UNL     1      -4.536   2.906 -32.016  1.00  0.00     0.015 C 
HETATM   21  C   UNL     1      -5.319   2.110 -32.852  1.00  0.00     0.042 C 
HETATM   22  C   UNL     1      -6.400   2.527 -33.789  1.00  0.00     0.071 C 
HETATM   23  N   UNL     1      -4.934   0.783 -32.623  1.00  0.00    -0.238 N 
HETATM   24  N   UNL     1      -4.076   0.727 -31.569  1.00  0.00    -0.179 NA
HETATM   25  C   UNL     1      -3.757   1.982 -31.297  1.00  0.00     0.150 C 
BRANCH  23  26
HETATM   26  C   UNL     1      -5.312  -0.432 -33.270  1.00  0.00     0.058 A 
HETATM   27  C   UNL     1      -6.647  -0.765 -33.527  1.00  0.00     0.031 A 
HETATM   28  C   UNL     1      -6.964  -1.970 -34.164  1.00  0.00     0.002 A 
HETATM   29  C   UNL     1      -5.955  -2.847 -34.556  1.00  0.00     0.000 A 
HETATM   30  C   UNL     1      -4.624  -2.516 -34.328  1.00  0.00     0.002 A 
HETATM   31  C   UNL     1      -4.302  -1.312 -33.699  1.00  0.00     0.031 A 
ENDBRANCH  23  26
ENDBRANCH  18  20
ENDBRANCH   1  18
TORSDOF 6
ENDMDL
MODEL 8
REMARK VINA RESULT:      -8.0     14.818     16.618
REMARK  6 active torsions:
REMARK  status: ('A' for Active; 'I' for Inactive)
REMARK    1  A    between atoms: C_3  and  C_4 
REMARK    2  A    between atoms: C_4  and  N_5 
REMARK    3  A    between atoms: N_5  and  C_8 
REMARK    4  A    between atoms: C_8  and  C_9 
REMARK    5  A    between atoms: N_12  and  C_13 
REMARK    6  A    between atoms: C_28  and  O_29 
ROOT
HETATM    1  N   UNL     1      -1.392 -13.886 -40.849  1.00  0.00    -0.062 N 
HETATM    2  H   UNL     1      -0.458 -13.872 -41.276  1.00  0.00     0.278 HD
HETATM    3  H   UNL     1      -1.709 -12.911 -40.872  1.00  0.00     0.278 HD
ENDROOT
BRANCH   1   4
HETATM    4  C   UNL     1      -2.274 -14.674 -41.750  1.00  0.00     0.290 C 
BRANCH   4   5
HETATM    5  C   UNL     1      -3.692 -14.410 -41.413  1.00  0.00     0.042 A 
HETATM    6  C   UNL     1      -4.769 -15.274 -41.247  1.00  0.00    -0.025 A 
HETATM    7  C   UNL     1      -4.788 -16.760 -41.366  1.00  0.00     0.051 C 
HETATM    8  C   UNL     1      -5.916 -14.465 -40.962  1.00  0.00     0.001 A 
HETATM    9  C   UNL     1      -5.507 -13.137 -40.971  1.00  0.00     0.043 A 
HETATM   10  C   UNL     1      -7.275 -14.746 -40.715  1.00  0.00     0.051 A 
HETATM   11  N   UNL     1      -4.164 -13.125 -41.251  1.00  0.00    -0.357 N 
HETATM   12  C   UNL     1      -6.388 -12.073 -40.742  1.00  0.00     0.033 A 
HETATM   13  H   UNL     1      -3.628 -12.271 -41.347  1.00  0.00     0.166 HD
HETATM   14  C   UNL     1      -7.735 -12.380 -40.507  1.00  0.00     0.039 A 
HETATM   15  C   UNL     1      -8.183 -13.699 -40.500  1.00  0.00     0.069 A 
BRANCH  15  16
HETATM   16  O   UNL     1      -9.472 -14.107 -40.292  1.00  0.00    -0.356 OA
HETATM   17  C   UNL     1     -10.463 -13.089 -40.209  1.00  0.00     0.210 C 
ENDBRANCH  15  16
ENDBRANCH   4   5
ENDBRANCH   1   4
BRANCH   1  18
HETATM   18  C   UNL     1      -1.247 -14.337 -39.428  1.00  0.00     0.218 C 
HETATM   19  C   UNL     1       0.194 -14.164 -38.958  1.00  0.00     0.045 C 
BRANCH  18  20
HETATM   20  C   UNL     1      -2.278 -13.711 -38.547  1.00  0.00     0.015 C 
HETATM   21  C   UNL     1      -3.312 -14.334 -37.847  1.00  0.00     0.042 C 
HETATM   22  C   UNL     1      -3.677 -15.778 -37.818  1.00  0.00     0.071 C 
HETATM   23  N   UNL     1      -4.012 -13.323 -37.176  1.00  0.00    -0.238 N 
HETATM   24  N   UNL     1      -3.555 -12.105 -37.572  1.00  0.00    -0.179 NA
HETATM   25  C   UNL     1      -2.463 -12.342 -38.282  1.00  0.00     0.150 C 
BRANCH  23  26
HETATM   26  C   UNL     1      -5.081 -13.385 -36.232  1.00  0.00     0.058 A 
HETATM   27  C   UNL     1      -6.415 -13.567 -36.615  1.00  0.00     0.031 A 
HETATM   28  C   UNL     1      -7.425 -13.620 -35.648  1.00  0.00     0.002 A 
HETATM   29  C   UNL     1      -7.115 -13.500 -34.296  1.00  0.00     0.000 A 
HETATM   30  C   UNL     1      -5.790 -13.343 -33.901  1.00  0.00     0.002 A 
HETATM   31  C   UNL     1      -4.777 -13.297 -34.862  1.00  0.00     0.031 A 
ENDBRANCH  23  26
ENDBRANCH  18  20
ENDBRANCH   1  18
TORSDOF 6
ENDMDL
MODEL 9
REMARK VINA RESULT:      -7.9      4.675      8.448
REMARK  6 active torsions:
REMARK  status: ('A' for Active; 'I' for Inactive)
REMARK    1  A    between atoms: C_3  and  C_4 
REMARK    2  A    between atoms: C_4  and  N_5 
REMARK    3  A    between atoms: N_5  and  C_8 
REMARK    4  A    between atoms: C_8  and  C_9 
REMARK    5  A    between atoms: N_12  and  C_13 
REMARK    6  A    between atoms: C_28  and  O_29 
ROOT
HETATM    1  N   UNL     1      -5.699   3.397 -32.176  1.00  0.00    -0.062 N 
HETATM    2  H   UNL     1      -6.070   3.774 -31.295  1.00  0.00     0.278 HD
HETATM    3  H   UNL     1      -5.002   2.701 -31.893  1.00  0.00     0.278 HD
ENDROOT
BRANCH   1   4
HETATM    4  C   UNL     1      -6.813   2.681 -32.849  1.00  0.00     0.290 C 
BRANCH   4   5
HETATM    5  C   UNL     1      -6.372   1.319 -33.230  1.00  0.00     0.042 A 
HETATM    6  C   UNL     1      -6.970   0.354 -34.032  1.00  0.00    -0.025 A 
HETATM    7  C   UNL     1      -8.270   0.433 -34.758  1.00  0.00     0.051 C 
HETATM    8  C   UNL     1      -6.112  -0.792 -34.021  1.00  0.00     0.001 A 
HETATM    9  C   UNL     1      -5.023  -0.495 -33.209  1.00  0.00     0.043 A 
HETATM   10  C   UNL     1      -6.173  -2.068 -34.618  1.00  0.00     0.051 A 
HETATM   11  N   UNL     1      -5.203   0.781 -32.737  1.00  0.00    -0.357 N 
HETATM   12  C   UNL     1      -3.990  -1.409 -32.966  1.00  0.00     0.033 A 
HETATM   13  H   UNL     1      -4.560   1.226 -32.092  1.00  0.00     0.166 HD
HETATM   14  C   UNL     1      -4.081  -2.672 -33.564  1.00  0.00     0.039 A 
HETATM   15  C   UNL     1      -5.162  -3.008 -34.376  1.00  0.00     0.069 A 
BRANCH  15  16
HETATM   16  O   UNL     1      -5.353  -4.212 -34.999  1.00  0.00    -0.356 OA
HETATM   17  C   UNL     1      -6.680  -4.519 -35.411  1.00  0.00     0.210 C 
ENDBRANCH  15  16
ENDBRANCH   4   5
ENDBRANCH   1   4
BRANCH   1  18
HETATM   18  C   UNL     1      -5.027   4.515 -32.913  1.00  0.00     0.218 C 
HETATM   19  C   UNL     1      -6.006   5.190 -33.868  1.00  0.00     0.045 C 
BRANCH  18  20
HETATM   20  C   UNL     1      -4.318   5.440 -31.978  1.00  0.00     0.015 C 
HETATM   21  C   UNL     1      -3.049   5.297 -31.417  1.00  0.00     0.042 C 
HETATM   22  C   UNL     1      -2.082   4.176 -31.577  1.00  0.00     0.071 C 
HETATM   23  N   UNL     1      -2.840   6.418 -30.602  1.00  0.00    -0.238 N 
HETATM   24  N   UNL     1      -3.987   7.144 -30.513  1.00  0.00    -0.179 NA
HETATM   25  C   UNL     1      -4.809   6.631 -31.414  1.00  0.00     0.150 C 
BRANCH  23  26
HETATM   26  C   UNL     1      -1.689   6.855 -29.880  1.00  0.00     0.058 A 
HETATM   27  C   UNL     1      -0.437   7.017 -30.484  1.00  0.00     0.031 A 
HETATM   28  C   UNL     1       0.660   7.447 -29.730  1.00  0.00     0.002 A 
HETATM   29  C   UNL     1       0.518   7.725 -28.373  1.00  0.00     0.000 A 
HETATM   30  C   UNL     1      -0.727   7.591 -27.766  1.00  0.00     0.002 A 
HETATM   31  C   UNL     1      -1.827   7.169 -28.516  1.00  0.00     0.031 A 
ENDBRANCH  23  26
ENDBRANCH  18  20
ENDBRANCH   1  18
TORSDOF 6
ENDMDL
MODEL 10
REMARK VINA RESULT:      -7.8      2.276      3.304
REMARK  6 active torsions:
REMARK  status: ('A' for Active; 'I' for Inactive)
REMARK    1  A    between atoms: C_3  and  C_4 
REMARK    2  A    between atoms: C_4  and  N_5 
REMARK    3  A    between atoms: N_5  and  C_8 
REMARK    4  A    between atoms: C_8  and  C_9 
REMARK    5  A    between atoms: N_12  and  C_13 
REMARK    6  A    between atoms: C_28  and  O_29 
ROOT
HETATM    1  N   UNL     1      -9.457   3.379 -30.684  1.00  0.00    -0.062 N 
HETATM    2  H   UNL     1      -9.743   3.430 -29.699  1.00  0.00     0.278 HD
HETATM    3  H   UNL     1      -9.768   2.455 -31.002  1.00  0.00     0.278 HD
ENDROOT
BRANCH   1   4
HETATM    4  C   UNL     1     -10.240   4.404 -31.422  1.00  0.00     0.290 C 
BRANCH   4   5
HETATM    5  C   UNL     1     -11.574   3.859 -31.766  1.00  0.00     0.042 A 
HETATM    6  C   UNL     1     -12.843   4.190 -31.307  1.00  0.00    -0.025 A 
HETATM    7  C   UNL     1     -13.222   5.228 -30.305  1.00  0.00     0.051 C 
HETATM    8  C   UNL     1     -13.768   3.312 -31.959  1.00  0.00     0.001 A 
HETATM    9  C   UNL     1     -13.035   2.469 -32.787  1.00  0.00     0.043 A 
HETATM   10  C   UNL     1     -15.167   3.147 -31.904  1.00  0.00     0.051 A 
HETATM   11  N   UNL     1     -11.713   2.811 -32.651  1.00  0.00    -0.357 N 
HETATM   12  C   UNL     1     -13.632   1.470 -33.565  1.00  0.00     0.033 A 
HETATM   13  H   UNL     1     -10.965   2.322 -33.127  1.00  0.00     0.166 HD
HETATM   14  C   UNL     1     -15.022   1.321 -33.485  1.00  0.00     0.039 A 
HETATM   15  C   UNL     1     -15.787   2.142 -32.659  1.00  0.00     0.069 A 
BRANCH  15  16
HETATM   16  O   UNL     1     -17.145   2.076 -32.500  1.00  0.00    -0.356 OA
HETATM   17  C   UNL     1     -17.771   3.181 -31.857  1.00  0.00     0.210 C 
ENDBRANCH  15  16
ENDBRANCH   4   5
ENDBRANCH   1   4
BRANCH   1  18
HETATM   18  C   UNL     1      -7.962   3.455 -30.738  1.00  0.00     0.218 C 
HETATM   19  C   UNL     1      -7.416   4.126 -29.482  1.00  0.00     0.045 C 
BRANCH  18  20
HETATM   20  C   UNL     1      -7.357   2.126 -31.057  1.00  0.00     0.015 C 
HETATM   21  C   UNL     1      -7.287   1.482 -32.291  1.00  0.00     0.042 C 
HETATM   22  C   UNL     1      -7.821   1.931 -33.607  1.00  0.00     0.071 C 
HETATM   23  N   UNL     1      -6.638   0.259 -32.073  1.00  0.00    -0.238 N 
HETATM   24  N   UNL     1      -6.464   0.062 -30.738  1.00  0.00    -0.179 NA
HETATM   25  C   UNL     1      -6.779   1.210 -30.160  1.00  0.00     0.150 C 
BRANCH  23  26
HETATM   26  C   UNL     1      -6.196  -0.748 -32.982  1.00  0.00     0.058 A 
HETATM   27  C   UNL     1      -4.851  -1.119 -33.101  1.00  0.00     0.031 A 
HETATM   28  C   UNL     1      -4.471  -2.112 -34.010  1.00  0.00     0.002 A 
HETATM   29  C   UNL     1      -5.424  -2.748 -34.801  1.00  0.00     0.000 A 
HETATM   30  C   UNL     1      -6.767  -2.404 -34.675  1.00  0.00     0.002 A 
HETATM   31  C   UNL     1      -7.153  -1.419 -33.764  1.00  0.00     0.031 A 
ENDBRANCH  23  26
ENDBRANCH  18  20
ENDBRANCH   1  18
TORSDOF 6
ENDMDL
