MODEL 1
REMARK VINA RESULT:      -9.6      0.000      0.000
REMARK  5 active torsions:
REMARK  status: ('A' for Active; 'I' for Inactive)
REMARK    1  A    between atoms: O_2  and  C_3 
REMARK    2  A    between atoms: C_5  and  C_6 
REMARK    3  A    between atoms: C_6  and  N_7 
REMARK       I    between atoms: N_7  and  C_8 
REMARK    4  A    between atoms: C_8  and  C_9 
REMARK    5  A    between atoms: C_19  and  C_20 
ROOT
HETATM    1  C   UNL     1      -4.556  -0.765 -32.019  1.00  0.00     0.159 A 
HETATM    2  O   UNL     1      -3.446  -1.553 -31.601  1.00  0.00    -0.268 OA
HETATM    3  C   UNL     1      -3.165  -2.789 -32.083  1.00  0.00     0.299 A 
HETATM    4  O   UNL     1      -2.191  -3.427 -31.707  1.00  0.00    -0.259 OA
HETATM    5  C   UNL     1      -4.099  -3.317 -33.094  1.00  0.00     0.051 A 
HETATM    6  C   UNL     1      -5.178  -2.545 -33.530  1.00  0.00    -0.006 A 
HETATM    7  C   UNL     1      -3.875  -4.605 -33.607  1.00  0.00     0.018 A 
HETATM    8  C   UNL     1      -4.733  -5.136 -34.565  1.00  0.00     0.001 A 
HETATM    9  C   UNL     1      -5.811  -4.381 -35.014  1.00  0.00     0.001 A 
HETATM   10  C   UNL     1      -6.031  -3.098 -34.503  1.00  0.00     0.013 A 
HETATM   11  C   UNL     1      -5.417  -1.188 -32.972  1.00  0.00     0.025 A 
ENDROOT
BRANCH   1  12
HETATM   12  C   UNL     1      -4.659   0.559 -31.293  1.00  0.00     0.276 C 
HETATM   13  N   UNL     1      -3.818   1.515 -31.820  1.00  0.00    -0.351 N 
HETATM   14  H   UNL     1      -3.371   1.310 -32.703  1.00  0.00     0.163 HD
HETATM   15  O   UNL     1      -5.385   0.774 -30.333  1.00  0.00    -0.265 OA
BRANCH  13  16
HETATM   16  C   UNL     1      -3.811   2.863 -31.307  1.00  0.00     0.161 C 
BRANCH  16  17
HETATM   17  C   UNL     1      -2.853   3.817 -31.984  1.00  0.00    -0.038 A 
HETATM   18  C   UNL     1      -1.792   4.466 -31.335  1.00  0.00     0.045 A 
HETATM   19  C   UNL     1      -0.924   5.318 -32.030  1.00  0.00     0.068 A 
HETATM   20  C   UNL     1      -1.130   5.554 -33.387  1.00  0.00     0.037 A 
HETATM   21  C   UNL     1      -2.189   4.930 -34.048  1.00  0.00     0.003 A 
HETATM   22  C   UNL     1      -3.037   4.067 -33.354  1.00  0.00     0.009 A 
BRANCH  19  23
HETATM   23  O   UNL     1       0.076   5.858 -31.265  1.00  0.00    -0.356 OA
HETATM   24  C   UNL     1       0.373   5.199 -30.041  1.00  0.00     0.210 C 
ENDBRANCH  19  23
ENDBRANCH  16  17
ENDBRANCH  13  16
ENDBRANCH   1  12
BRANCH  11  25
HETATM   25  C   UNL     1      -6.522  -0.321 -33.443  1.00  0.00    -0.022 A 
HETATM   26  C   UNL     1      -6.335   0.506 -34.560  1.00  0.00     0.012 A 
HETATM   27  C   UNL     1      -7.387   1.291 -35.035  1.00  0.00     0.001 A 
HETATM   28  C   UNL     1      -8.629   1.252 -34.401  1.00  0.00     0.000 A 
HETATM   29  C   UNL     1      -8.822   0.431 -33.292  1.00  0.00     0.001 A 
HETATM   30  C   UNL     1      -7.773  -0.357 -32.813  1.00  0.00     0.012 A 
ENDBRANCH  11  25
TORSDOF 5
ENDMDL
MODEL 2
REMARK VINA RESULT:      -9.6      1.617      2.228
REMARK  5 active torsions:
REMARK  status: ('A' for Active; 'I' for Inactive)
REMARK    1  A    between atoms: O_2  and  C_3 
REMARK    2  A    between atoms: C_5  and  C_6 
REMARK    3  A    between atoms: C_6  and  N_7 
REMARK       I    between atoms: N_7  and  C_8 
REMARK    4  A    between atoms: C_8  and  C_9 
REMARK    5  A    between atoms: C_19  and  C_20 
ROOT
HETATM    1  C   UNL     1      -4.565  -1.128 -32.389  1.00  0.00     0.159 A 
HETATM    2  O   UNL     1      -3.561  -2.114 -32.174  1.00  0.00    -0.268 OA
HETATM    3  C   UNL     1      -3.551  -3.333 -32.769  1.00  0.00     0.299 A 
HETATM    4  O   UNL     1      -2.660  -4.146 -32.568  1.00  0.00    -0.259 OA
HETATM    5  C   UNL     1      -4.674  -3.617 -33.680  1.00  0.00     0.051 A 
HETATM    6  C   UNL     1      -5.653  -2.650 -33.918  1.00  0.00    -0.006 A 
HETATM    7  C   UNL     1      -4.732  -4.875 -34.302  1.00  0.00     0.018 A 
HETATM    8  C   UNL     1      -5.775  -5.179 -35.172  1.00  0.00     0.001 A 
HETATM    9  C   UNL     1      -6.757  -4.228 -35.424  1.00  0.00     0.001 A 
HETATM   10  C   UNL     1      -6.697  -2.975 -34.804  1.00  0.00     0.013 A 
HETATM   11  C   UNL     1      -5.593  -1.326 -33.246  1.00  0.00     0.025 A 
ENDROOT
BRANCH   1  12
HETATM   12  C   UNL     1      -4.359   0.128 -31.570  1.00  0.00     0.276 C 
HETATM   13  N   UNL     1      -3.572   1.056 -32.219  1.00  0.00    -0.351 N 
HETATM   14  H   UNL     1      -3.370   0.896 -33.197  1.00  0.00     0.163 HD
HETATM   15  O   UNL     1      -4.811   0.313 -30.449  1.00  0.00    -0.265 OA
BRANCH  13  16
HETATM   16  C   UNL     1      -3.306   2.346 -31.632  1.00  0.00     0.161 C 
BRANCH  16  17
HETATM   17  C   UNL     1      -3.996   3.520 -32.289  1.00  0.00    -0.038 A 
HETATM   18  C   UNL     1      -3.350   4.458 -33.108  1.00  0.00     0.045 A 
HETATM   19  C   UNL     1      -4.055   5.510 -33.709  1.00  0.00     0.068 A 
HETATM   20  C   UNL     1      -5.420   5.649 -33.468  1.00  0.00     0.037 A 
HETATM   21  C   UNL     1      -6.078   4.735 -32.645  1.00  0.00     0.003 A 
HETATM   22  C   UNL     1      -5.373   3.679 -32.066  1.00  0.00     0.009 A 
BRANCH  19  23
HETATM   23  O   UNL     1      -3.292   6.328 -34.498  1.00  0.00    -0.356 OA
HETATM   24  C   UNL     1      -2.078   6.810 -33.938  1.00  0.00     0.210 C 
ENDBRANCH  19  23
ENDBRANCH  16  17
ENDBRANCH  13  16
ENDBRANCH   1  12
BRANCH  11  25
HETATM   25  C   UNL     1      -6.586  -0.258 -33.508  1.00  0.00    -0.022 A 
HETATM   26  C   UNL     1      -7.726  -0.149 -32.699  1.00  0.00     0.012 A 
HETATM   27  C   UNL     1      -8.642   0.883 -32.913  1.00  0.00     0.001 A 
HETATM   28  C   UNL     1      -8.423   1.810 -33.932  1.00  0.00     0.000 A 
HETATM   29  C   UNL     1      -7.291   1.708 -34.738  1.00  0.00     0.001 A 
HETATM   30  C   UNL     1      -6.372   0.679 -34.528  1.00  0.00     0.012 A 
ENDBRANCH  11  25
TORSDOF 5
ENDMDL
MODEL 3
REMARK VINA RESULT:      -9.4      0.979      2.006
REMARK  5 active torsions:
REMARK  status: ('A' for Active; 'I' for Inactive)
REMARK    1  A    between atoms: O_2  and  C_3 
REMARK    2  A    between atoms: C_5  and  C_6 
REMARK    3  A    between atoms: C_6  and  N_7 
REMARK       I    between atoms: N_7  and  C_8 
REMARK    4  A    between atoms: C_8  and  C_9 
REMARK    5  A    between atoms: C_19  and  C_20 
ROOT
HETATM    1  C   UNL     1      -4.591  -0.789 -32.009  1.00  0.00     0.159 A 
HETATM    2  O   UNL     1      -3.512  -1.626 -31.607  1.00  0.00    -0.268 OA
HETATM    3  C   UNL     1      -3.266  -2.853 -32.129  1.00  0.00     0.299 A 
HETATM    4  O   UNL     1      -2.317  -3.535 -31.765  1.00  0.00    -0.259 OA
HETATM    5  C   UNL     1      -4.203  -3.315 -33.168  1.00  0.00     0.051 A 
HETATM    6  C   UNL     1      -5.252  -2.494 -33.588  1.00  0.00    -0.006 A 
HETATM    7  C   UNL     1      -4.015  -4.591 -33.723  1.00  0.00     0.018 A 
HETATM    8  C   UNL     1      -4.878  -5.060 -34.709  1.00  0.00     0.001 A 
HETATM    9  C   UNL     1      -5.925  -4.255 -35.143  1.00  0.00     0.001 A 
HETATM   10  C   UNL     1      -6.110  -2.984 -34.589  1.00  0.00     0.013 A 
HETATM   11  C   UNL     1      -5.453  -1.150 -32.986  1.00  0.00     0.025 A 
ENDROOT
BRANCH   1  12
HETATM   12  C   UNL     1      -4.661   0.512 -31.238  1.00  0.00     0.276 C 
HETATM   13  N   UNL     1      -3.713   1.423 -31.656  1.00  0.00    -0.351 N 
HETATM   14  H   UNL     1      -3.210   1.218 -32.508  1.00  0.00     0.163 HD
HETATM   15  O   UNL     1      -5.446   0.745 -30.331  1.00  0.00    -0.265 OA
BRANCH  13  16
HETATM   16  C   UNL     1      -3.653   2.747 -31.087  1.00  0.00     0.161 C 
BRANCH  16  17
HETATM   17  C   UNL     1      -2.797   3.743 -31.836  1.00  0.00    -0.038 A 
HETATM   18  C   UNL     1      -2.981   4.089 -33.183  1.00  0.00     0.045 A 
HETATM   19  C   UNL     1      -2.166   5.042 -33.809  1.00  0.00     0.068 A 
HETATM   20  C   UNL     1      -1.132   5.640 -33.093  1.00  0.00     0.037 A 
HETATM   21  C   UNL     1      -0.923   5.299 -31.757  1.00  0.00     0.003 A 
HETATM   22  C   UNL     1      -1.751   4.364 -31.134  1.00  0.00     0.009 A 
BRANCH  19  23
HETATM   23  O   UNL     1      -2.484   5.289 -35.118  1.00  0.00    -0.356 OA
HETATM   24  C   UNL     1      -3.861   5.220 -35.468  1.00  0.00     0.210 C 
ENDBRANCH  19  23
ENDBRANCH  16  17
ENDBRANCH  13  16
ENDBRANCH   1  12
BRANCH  11  25
HETATM   25  C   UNL     1      -6.524  -0.231 -33.438  1.00  0.00    -0.022 A 
HETATM   26  C   UNL     1      -7.800  -0.307 -32.861  1.00  0.00     0.012 A 
HETATM   27  C   UNL     1      -8.801   0.586 -33.251  1.00  0.00     0.001 A 
HETATM   28  C   UNL     1      -8.532   1.558 -34.215  1.00  0.00     0.000 A 
HETATM   29  C   UNL     1      -7.265   1.639 -34.791  1.00  0.00     0.001 A 
HETATM   30  C   UNL     1      -6.261   0.750 -34.403  1.00  0.00     0.012 A 
ENDBRANCH  11  25
TORSDOF 5
ENDMDL
MODEL 4
REMARK VINA RESULT:      -9.1      2.482      3.915
REMARK  5 active torsions:
REMARK  status: ('A' for Active; 'I' for Inactive)
REMARK    1  A    between atoms: O_2  and  C_3 
REMARK    2  A    between atoms: C_5  and  C_6 
REMARK    3  A    between atoms: C_6  and  N_7 
REMARK       I    between atoms: N_7  and  C_8 
REMARK    4  A    between atoms: C_8  and  C_9 
REMARK    5  A    between atoms: C_19  and  C_20 
ROOT
HETATM    1  C   UNL     1      -4.763  -0.785 -32.040  1.00  0.00     0.159 A 
HETATM    2  O   UNL     1      -3.636  -1.548 -31.623  1.00  0.00    -0.268 OA
HETATM    3  C   UNL     1      -3.308  -2.761 -32.132  1.00  0.00     0.299 A 
HETATM    4  O   UNL     1      -2.320  -3.377 -31.755  1.00  0.00    -0.259 OA
HETATM    5  C   UNL     1      -4.206  -3.291 -33.174  1.00  0.00     0.051 A 
HETATM    6  C   UNL     1      -5.301  -2.542 -33.609  1.00  0.00    -0.006 A 
HETATM    7  C   UNL     1      -3.932  -4.557 -33.716  1.00  0.00     0.018 A 
HETATM    8  C   UNL     1      -4.754  -5.088 -34.704  1.00  0.00     0.001 A 
HETATM    9  C   UNL     1      -5.848  -4.356 -35.153  1.00  0.00     0.001 A 
HETATM   10  C   UNL     1      -6.119  -3.095 -34.612  1.00  0.00     0.013 A 
HETATM   11  C   UNL     1      -5.593  -1.209 -33.020  1.00  0.00     0.025 A 
ENDROOT
BRANCH   1  12
HETATM   12  C   UNL     1      -4.922   0.515 -31.282  1.00  0.00     0.276 C 
HETATM   13  N   UNL     1      -4.641   1.617 -32.061  1.00  0.00    -0.351 N 
HETATM   14  H   UNL     1      -4.537   1.473 -33.056  1.00  0.00     0.163 HD
HETATM   15  O   UNL     1      -5.244   0.603 -30.106  1.00  0.00    -0.265 OA
BRANCH  13  16
HETATM   16  C   UNL     1      -4.792   2.954 -31.541  1.00  0.00     0.161 C 
BRANCH  16  17
HETATM   17  C   UNL     1      -6.154   3.581 -31.731  1.00  0.00    -0.038 A 
HETATM   18  C   UNL     1      -6.610   4.132 -32.939  1.00  0.00     0.045 A 
HETATM   19  C   UNL     1      -7.896   4.675 -33.054  1.00  0.00     0.068 A 
HETATM   20  C   UNL     1      -8.735   4.698 -31.942  1.00  0.00     0.037 A 
HETATM   21  C   UNL     1      -8.296   4.169 -30.729  1.00  0.00     0.003 A 
HETATM   22  C   UNL     1      -7.021   3.612 -30.627  1.00  0.00     0.009 A 
BRANCH  19  23
HETATM   23  O   UNL     1      -8.202   5.152 -34.300  1.00  0.00    -0.356 OA
HETATM   24  C   UNL     1      -9.578   5.179 -34.656  1.00  0.00     0.210 C 
ENDBRANCH  19  23
ENDBRANCH  16  17
ENDBRANCH  13  16
ENDBRANCH   1  12
BRANCH  11  25
HETATM   25  C   UNL     1      -6.717  -0.365 -33.488  1.00  0.00    -0.022 A 
HETATM   26  C   UNL     1      -7.904  -0.304 -32.744  1.00  0.00     0.012 A 
HETATM   27  C   UNL     1      -8.950   0.524 -33.156  1.00  0.00     0.001 A 
HETATM   28  C   UNL     1      -8.815   1.296 -34.309  1.00  0.00     0.000 A 
HETATM   29  C   UNL     1      -7.638   1.242 -35.053  1.00  0.00     0.001 A 
HETATM   30  C   UNL     1      -6.589   0.417 -34.644  1.00  0.00     0.012 A 
ENDBRANCH  11  25
TORSDOF 5
ENDMDL
MODEL 5
REMARK VINA RESULT:      -9.0      1.493      1.936
REMARK  5 active torsions:
REMARK  status: ('A' for Active; 'I' for Inactive)
REMARK    1  A    between atoms: O_2  and  C_3 
REMARK    2  A    between atoms: C_5  and  C_6 
REMARK    3  A    between atoms: C_6  and  N_7 
REMARK       I    between atoms: N_7  and  C_8 
REMARK    4  A    between atoms: C_8  and  C_9 
REMARK    5  A    between atoms: C_19  and  C_20 
ROOT
HETATM    1  C   UNL     1      -5.531   0.443 -32.093  1.00  0.00     0.159 A 
HETATM    2  O   UNL     1      -4.228  -0.077 -31.850  1.00  0.00    -0.268 OA
HETATM    3  C   UNL     1      -3.757  -1.230 -32.386  1.00  0.00     0.299 A 
HETATM    4  O   UNL     1      -2.624  -1.634 -32.163  1.00  0.00    -0.259 OA
HETATM    5  C   UNL     1      -4.688  -1.965 -33.261  1.00  0.00     0.051 A 
HETATM    6  C   UNL     1      -5.960  -1.454 -33.527  1.00  0.00    -0.006 A 
HETATM    7  C   UNL     1      -4.265  -3.182 -33.820  1.00  0.00     0.018 A 
HETATM    8  C   UNL     1      -5.114  -3.903 -34.654  1.00  0.00     0.001 A 
HETATM    9  C   UNL     1      -6.383  -3.408 -34.933  1.00  0.00     0.001 A 
HETATM   10  C   UNL     1      -6.802  -2.195 -34.376  1.00  0.00     0.013 A 
HETATM   11  C   UNL     1      -6.406  -0.172 -32.920  1.00  0.00     0.025 A 
ENDROOT
BRANCH   1  12
HETATM   12  C   UNL     1      -5.815   1.725 -31.340  1.00  0.00     0.276 C 
HETATM   13  N   UNL     1      -5.250   2.827 -31.944  1.00  0.00    -0.351 N 
HETATM   14  H   UNL     1      -4.874   2.710 -32.875  1.00  0.00     0.163 HD
HETATM   15  O   UNL     1      -6.456   1.797 -30.301  1.00  0.00    -0.265 OA
BRANCH  13  16
HETATM   16  C   UNL     1      -5.456   4.153 -31.415  1.00  0.00     0.161 C 
BRANCH  16  17
HETATM   17  C   UNL     1      -4.201   4.924 -31.073  1.00  0.00    -0.038 A 
HETATM   18  C   UNL     1      -2.907   4.538 -31.454  1.00  0.00     0.045 A 
HETATM   19  C   UNL     1      -1.788   5.315 -31.126  1.00  0.00     0.068 A 
HETATM   20  C   UNL     1      -1.953   6.480 -30.381  1.00  0.00     0.037 A 
HETATM   21  C   UNL     1      -3.230   6.873 -29.980  1.00  0.00     0.003 A 
HETATM   22  C   UNL     1      -4.342   6.105 -30.327  1.00  0.00     0.009 A 
BRANCH  19  23
HETATM   23  O   UNL     1      -0.598   4.820 -31.588  1.00  0.00    -0.356 OA
HETATM   24  C   UNL     1       0.576   5.218 -30.892  1.00  0.00     0.210 C 
ENDBRANCH  19  23
ENDBRANCH  16  17
ENDBRANCH  13  16
ENDBRANCH   1  12
BRANCH  11  25
HETATM   25  C   UNL     1      -7.729   0.425 -33.215  1.00  0.00    -0.022 A 
HETATM   26  C   UNL     1      -7.852   1.388 -34.227  1.00  0.00     0.012 A 
HETATM   27  C   UNL     1      -9.104   1.922 -34.539  1.00  0.00     0.001 A 
HETATM   28  C   UNL     1     -10.237   1.496 -33.847  1.00  0.00     0.000 A 
HETATM   29  C   UNL     1     -10.122   0.538 -32.841  1.00  0.00     0.001 A 
HETATM   30  C   UNL     1      -8.873   0.000 -32.526  1.00  0.00     0.012 A 
ENDBRANCH  11  25
TORSDOF 5
ENDMDL
MODEL 6
REMARK VINA RESULT:      -8.9      3.289      5.016
REMARK  5 active torsions:
REMARK  status: ('A' for Active; 'I' for Inactive)
REMARK    1  A    between atoms: O_2  and  C_3 
REMARK    2  A    between atoms: C_5  and  C_6 
REMARK    3  A    between atoms: C_6  and  N_7 
REMARK       I    between atoms: N_7  and  C_8 
REMARK    4  A    between atoms: C_8  and  C_9 
REMARK    5  A    between atoms: C_19  and  C_20 
ROOT
HETATM    1  C   UNL     1      -5.687   0.198 -31.949  1.00  0.00     0.159 A 
HETATM    2  O   UNL     1      -4.382  -0.276 -31.636  1.00  0.00    -0.268 OA
HETATM    3  C   UNL     1      -3.812  -1.368 -32.204  1.00  0.00     0.299 A 
HETATM    4  O   UNL     1      -2.680  -1.732 -31.917  1.00  0.00    -0.259 OA
HETATM    5  C   UNL     1      -4.635  -2.087 -33.193  1.00  0.00     0.051 A 
HETATM    6  C   UNL     1      -5.909  -1.619 -33.526  1.00  0.00    -0.006 A 
HETATM    7  C   UNL     1      -4.109  -3.244 -33.791  1.00  0.00     0.018 A 
HETATM    8  C   UNL     1      -4.854  -3.947 -34.732  1.00  0.00     0.001 A 
HETATM    9  C   UNL     1      -6.123  -3.494 -35.078  1.00  0.00     0.001 A 
HETATM   10  C   UNL     1      -6.644  -2.342 -34.483  1.00  0.00     0.013 A 
HETATM   11  C   UNL     1      -6.465  -0.402 -32.878  1.00  0.00     0.025 A 
ENDROOT
BRANCH   1  12
HETATM   12  C   UNL     1      -6.094   1.413 -31.143  1.00  0.00     0.276 C 
HETATM   13  N   UNL     1      -6.306   2.522 -31.933  1.00  0.00    -0.351 N 
HETATM   14  H   UNL     1      -6.345   2.384 -32.934  1.00  0.00     0.163 HD
HETATM   15  O   UNL     1      -6.210   1.437 -29.926  1.00  0.00    -0.265 OA
BRANCH  13  16
HETATM   16  C   UNL     1      -6.759   3.767 -31.363  1.00  0.00     0.161 C 
BRANCH  16  17
HETATM   17  C   UNL     1      -8.240   4.044 -31.487  1.00  0.00    -0.038 A 
HETATM   18  C   UNL     1      -8.828   4.735 -32.557  1.00  0.00     0.045 A 
HETATM   19  C   UNL     1     -10.213   4.934 -32.624  1.00  0.00     0.068 A 
HETATM   20  C   UNL     1     -11.026   4.465 -31.594  1.00  0.00     0.037 A 
HETATM   21  C   UNL     1     -10.459   3.789 -30.514  1.00  0.00     0.003 A 
HETATM   22  C   UNL     1      -9.081   3.577 -30.464  1.00  0.00     0.009 A 
BRANCH  19  23
HETATM   23  O   UNL     1     -10.638   5.605 -33.740  1.00  0.00    -0.356 OA
HETATM   24  C   UNL     1     -10.052   5.224 -34.978  1.00  0.00     0.210 C 
ENDBRANCH  19  23
ENDBRANCH  16  17
ENDBRANCH  13  16
ENDBRANCH   1  12
BRANCH  11  25
HETATM   25  C   UNL     1      -7.791   0.151 -33.239  1.00  0.00    -0.022 A 
HETATM   26  C   UNL     1      -8.910  -0.143 -32.447  1.00  0.00     0.012 A 
HETATM   27  C   UNL     1     -10.154   0.412 -32.757  1.00  0.00     0.001 A 
HETATM   28  C   UNL     1     -10.285   1.263 -33.853  1.00  0.00     0.000 A 
HETATM   29  C   UNL     1      -9.176   1.561 -34.643  1.00  0.00     0.001 A 
HETATM   30  C   UNL     1      -7.930   1.010 -34.337  1.00  0.00     0.012 A 
ENDBRANCH  11  25
TORSDOF 5
ENDMDL
MODEL 7
REMARK VINA RESULT:      -8.9      3.422      4.978
REMARK  5 active torsions:
REMARK  status: ('A' for Active; 'I' for Inactive)
REMARK    1  A    between atoms: O_2  and  C_3 
REMARK    2  A    between atoms: C_5  and  C_6 
REMARK    3  A    between atoms: C_6  and  N_7 
REMARK       I    between atoms: N_7  and  C_8 
REMARK    4  A    between atoms: C_8  and  C_9 
REMARK    5  A    between atoms: C_19  and  C_20 
ROOT
HETATM    1  C   UNL     1      -5.928   0.867 -32.350  1.00  0.00     0.159 A 
HETATM    2  O   UNL     1      -4.565   0.507 -32.156  1.00  0.00    -0.268 OA
HETATM    3  C   UNL     1      -3.999  -0.624 -32.646  1.00  0.00     0.299 A 
HETATM    4  O   UNL     1      -2.818  -0.888 -32.468  1.00  0.00    -0.259 OA
HETATM    5  C   UNL     1      -4.889  -1.513 -33.414  1.00  0.00     0.051 A 
HETATM    6  C   UNL     1      -6.223  -1.160 -33.633  1.00  0.00    -0.006 A 
HETATM    7  C   UNL     1      -4.365  -2.713 -33.921  1.00  0.00     0.018 A 
HETATM    8  C   UNL     1      -5.173  -3.576 -34.654  1.00  0.00     0.001 A 
HETATM    9  C   UNL     1      -6.503  -3.240 -34.884  1.00  0.00     0.001 A 
HETATM   10  C   UNL     1      -7.022  -2.043 -34.380  1.00  0.00     0.013 A 
HETATM   11  C   UNL     1      -6.774   0.106 -33.081  1.00  0.00     0.025 A 
ENDROOT
BRANCH   1  12
HETATM   12  C   UNL     1      -6.312   2.160 -31.663  1.00  0.00     0.276 C 
HETATM   13  N   UNL     1      -7.017   1.947 -30.498  1.00  0.00    -0.351 N 
HETATM   14  H   UNL     1      -7.054   1.004 -30.138  1.00  0.00     0.163 HD
HETATM   15  O   UNL     1      -6.053   3.278 -32.084  1.00  0.00    -0.265 OA
BRANCH  13  16
HETATM   16  C   UNL     1      -7.424   3.051 -29.663  1.00  0.00     0.161 C 
BRANCH  16  17
HETATM   17  C   UNL     1      -8.637   3.819 -30.135  1.00  0.00    -0.038 A 
HETATM   18  C   UNL     1      -8.797   5.206 -29.999  1.00  0.00     0.045 A 
HETATM   19  C   UNL     1      -9.938   5.860 -30.484  1.00  0.00     0.068 A 
HETATM   20  C   UNL     1     -10.950   5.119 -31.089  1.00  0.00     0.037 A 
HETATM   21  C   UNL     1     -10.817   3.736 -31.220  1.00  0.00     0.003 A 
HETATM   22  C   UNL     1      -9.670   3.095 -30.753  1.00  0.00     0.009 A 
BRANCH  19  23
HETATM   23  O   UNL     1      -9.937   7.216 -30.298  1.00  0.00    -0.356 OA
HETATM   24  C   UNL     1      -8.811   7.931 -30.790  1.00  0.00     0.210 C 
ENDBRANCH  19  23
ENDBRANCH  16  17
ENDBRANCH  13  16
ENDBRANCH   1  12
BRANCH  11  25
HETATM   25  C   UNL     1      -8.169   0.537 -33.331  1.00  0.00    -0.022 A 
HETATM   26  C   UNL     1      -8.428   1.579 -34.233  1.00  0.00     0.012 A 
HETATM   27  C   UNL     1      -9.744   1.960 -34.506  1.00  0.00     0.001 A 
HETATM   28  C   UNL     1     -10.804   1.301 -33.884  1.00  0.00     0.000 A 
HETATM   29  C   UNL     1     -10.553   0.263 -32.989  1.00  0.00     0.001 A 
HETATM   30  C   UNL     1      -9.240  -0.122 -32.713  1.00  0.00     0.012 A 
ENDBRANCH  11  25
TORSDOF 5
ENDMDL
MODEL 8
REMARK VINA RESULT:      -8.6     15.088     17.109
REMARK  5 active torsions:
REMARK  status: ('A' for Active; 'I' for Inactive)
REMARK    1  A    between atoms: O_2  and  C_3 
REMARK    2  A    between atoms: C_5  and  C_6 
REMARK    3  A    between atoms: C_6  and  N_7 
REMARK       I    between atoms: N_7  and  C_8 
REMARK    4  A    between atoms: C_8  and  C_9 
REMARK    5  A    between atoms: C_19  and  C_20 
ROOT
HETATM    1  C   UNL     1      -3.831 -14.201 -37.165  1.00  0.00     0.159 A 
HETATM    2  O   UNL     1      -2.914 -14.528 -36.127  1.00  0.00    -0.268 OA
HETATM    3  C   UNL     1      -1.584 -14.712 -36.316  1.00  0.00     0.299 A 
HETATM    4  O   UNL     1      -0.828 -14.978 -35.392  1.00  0.00    -0.259 OA
HETATM    5  C   UNL     1      -1.101 -14.564 -37.700  1.00  0.00     0.051 A 
HETATM    6  C   UNL     1      -1.986 -14.220 -38.725  1.00  0.00    -0.006 A 
HETATM    7  C   UNL     1       0.263 -14.773 -37.961  1.00  0.00     0.018 A 
HETATM    8  C   UNL     1       0.757 -14.639 -39.255  1.00  0.00     0.001 A 
HETATM    9  C   UNL     1      -0.108 -14.293 -40.287  1.00  0.00     0.001 A 
HETATM   10  C   UNL     1      -1.466 -14.084 -40.025  1.00  0.00     0.013 A 
HETATM   11  C   UNL     1      -3.431 -14.014 -38.443  1.00  0.00     0.025 A 
ENDROOT
BRANCH   1  12
HETATM   12  C   UNL     1      -5.264 -14.091 -36.688  1.00  0.00     0.276 C 
HETATM   13  N   UNL     1      -6.130 -14.850 -37.447  1.00  0.00    -0.351 N 
HETATM   14  H   UNL     1      -5.728 -15.510 -38.097  1.00  0.00     0.163 HD
HETATM   15  O   UNL     1      -5.638 -13.400 -35.752  1.00  0.00    -0.265 OA
BRANCH  13  16
HETATM   16  C   UNL     1      -7.532 -14.929 -37.118  1.00  0.00     0.161 C 
BRANCH  16  17
HETATM   17  C   UNL     1      -8.485 -14.462 -38.195  1.00  0.00    -0.038 A 
HETATM   18  C   UNL     1      -9.293 -15.316 -38.960  1.00  0.00     0.045 A 
HETATM   19  C   UNL     1     -10.175 -14.815 -39.926  1.00  0.00     0.068 A 
HETATM   20  C   UNL     1     -10.237 -13.442 -40.156  1.00  0.00     0.037 A 
HETATM   21  C   UNL     1      -9.431 -12.577 -39.415  1.00  0.00     0.003 A 
HETATM   22  C   UNL     1      -8.569 -13.082 -38.441  1.00  0.00     0.009 A 
BRANCH  19  23
HETATM   23  O   UNL     1     -10.912 -15.770 -40.574  1.00  0.00    -0.356 OA
HETATM   24  C   UNL     1     -11.499 -15.397 -41.813  1.00  0.00     0.210 C 
ENDBRANCH  19  23
ENDBRANCH  16  17
ENDBRANCH  13  16
ENDBRANCH   1  12
BRANCH  11  25
HETATM   25  C   UNL     1      -4.392 -13.603 -39.493  1.00  0.00    -0.022 A 
HETATM   26  C   UNL     1      -4.903 -14.556 -40.385  1.00  0.00     0.012 A 
HETATM   27  C   UNL     1      -5.843 -14.182 -41.349  1.00  0.00     0.001 A 
HETATM   28  C   UNL     1      -6.278 -12.859 -41.422  1.00  0.00     0.000 A 
HETATM   29  C   UNL     1      -5.775 -11.908 -40.537  1.00  0.00     0.001 A 
HETATM   30  C   UNL     1      -4.836 -12.276 -39.572  1.00  0.00     0.012 A 
ENDBRANCH  11  25
TORSDOF 5
ENDMDL
MODEL 9
REMARK VINA RESULT:      -8.5      3.077      6.991
REMARK  5 active torsions:
REMARK  status: ('A' for Active; 'I' for Inactive)
REMARK    1  A    between atoms: O_2  and  C_3 
REMARK    2  A    between atoms: C_5  and  C_6 
REMARK    3  A    between atoms: C_6  and  N_7 
REMARK       I    between atoms: N_7  and  C_8 
REMARK    4  A    between atoms: C_8  and  C_9 
REMARK    5  A    between atoms: C_19  and  C_20 
ROOT
HETATM    1  C   UNL     1      -9.189   2.613 -31.734  1.00  0.00     0.159 A 
HETATM    2  O   UNL     1     -10.124   3.443 -31.055  1.00  0.00    -0.268 OA
HETATM    3  C   UNL     1     -11.391   3.670 -31.483  1.00  0.00     0.299 A 
HETATM    4  O   UNL     1     -12.169   4.380 -30.860  1.00  0.00    -0.259 OA
HETATM    5  C   UNL     1     -11.779   3.005 -32.740  1.00  0.00     0.051 A 
HETATM    6  C   UNL     1     -10.878   2.169 -33.403  1.00  0.00    -0.006 A 
HETATM    7  C   UNL     1     -13.069   3.229 -33.248  1.00  0.00     0.018 A 
HETATM    8  C   UNL     1     -13.472   2.615 -34.429  1.00  0.00     0.001 A 
HETATM    9  C   UNL     1     -12.590   1.777 -35.102  1.00  0.00     0.001 A 
HETATM   10  C   UNL     1     -11.306   1.555 -34.594  1.00  0.00     0.013 A 
HETATM   11  C   UNL     1      -9.509   1.949 -32.867  1.00  0.00     0.025 A 
ENDROOT
BRANCH   1  12
HETATM   12  C   UNL     1      -7.833   2.562 -31.062  1.00  0.00     0.276 C 
HETATM   13  N   UNL     1      -7.490   1.287 -30.665  1.00  0.00    -0.351 N 
HETATM   14  H   UNL     1      -8.059   0.523 -31.000  1.00  0.00     0.163 HD
HETATM   15  O   UNL     1      -7.114   3.531 -30.866  1.00  0.00    -0.265 OA
BRANCH  13  16
HETATM   16  C   UNL     1      -6.209   1.017 -30.058  1.00  0.00     0.161 C 
BRANCH  16  17
HETATM   17  C   UNL     1      -5.119   0.567 -31.004  1.00  0.00    -0.038 A 
HETATM   18  C   UNL     1      -4.856  -0.773 -31.328  1.00  0.00     0.045 A 
HETATM   19  C   UNL     1      -3.845  -1.120 -32.234  1.00  0.00     0.068 A 
HETATM   20  C   UNL     1      -3.062  -0.120 -32.806  1.00  0.00     0.037 A 
HETATM   21  C   UNL     1      -3.297   1.217 -32.486  1.00  0.00     0.003 A 
HETATM   22  C   UNL     1      -4.318   1.556 -31.598  1.00  0.00     0.009 A 
BRANCH  19  23
HETATM   23  O   UNL     1      -3.726  -2.464 -32.465  1.00  0.00    -0.356 OA
HETATM   24  C   UNL     1      -4.196  -2.944 -33.718  1.00  0.00     0.210 C 
ENDBRANCH  19  23
ENDBRANCH  16  17
ENDBRANCH  13  16
ENDBRANCH   1  12
BRANCH  11  25
HETATM   25  C   UNL     1      -8.542   1.033 -33.517  1.00  0.00    -0.022 A 
HETATM   26  C   UNL     1      -8.588  -0.341 -33.243  1.00  0.00     0.012 A 
HETATM   27  C   UNL     1      -7.708  -1.215 -33.886  1.00  0.00     0.001 A 
HETATM   28  C   UNL     1      -6.784  -0.722 -34.806  1.00  0.00     0.000 A 
HETATM   29  C   UNL     1      -6.735   0.643 -35.085  1.00  0.00     0.001 A 
HETATM   30  C   UNL     1      -7.612   1.520 -34.445  1.00  0.00     0.012 A 
ENDBRANCH  11  25
TORSDOF 5
ENDMDL
MODEL 10
REMARK VINA RESULT:      -8.4      3.695      6.712
REMARK  5 active torsions:
REMARK  status: ('A' for Active; 'I' for Inactive)
REMARK    1  A    between atoms: O_2  and  C_3 
REMARK    2  A    between atoms: C_5  and  C_6 
REMARK    3  A    between atoms: C_6  and  N_7 
REMARK       I    between atoms: N_7  and  C_8 
REMARK    4  A    between atoms: C_8  and  C_9 
REMARK    5  A    between atoms: C_19  and  C_20 
ROOT
HETATM    1  C   UNL     1      -9.827   3.606 -33.267  1.00  0.00     0.159 A 
HETATM    2  O   UNL     1     -10.949   4.468 -33.108  1.00  0.00    -0.268 OA
HETATM    3  C   UNL     1     -12.238   4.046 -33.103  1.00  0.00     0.299 A 
HETATM    4  O   UNL     1     -13.173   4.820 -32.949  1.00  0.00    -0.259 OA
HETATM    5  C   UNL     1     -12.447   2.599 -33.287  1.00  0.00     0.051 A 
HETATM    6  C   UNL     1     -11.354   1.739 -33.420  1.00  0.00    -0.006 A 
HETATM    7  C   UNL     1     -13.762   2.109 -33.320  1.00  0.00     0.018 A 
HETATM    8  C   UNL     1     -13.999   0.748 -33.487  1.00  0.00     0.001 A 
HETATM    9  C   UNL     1     -12.923  -0.124 -33.618  1.00  0.00     0.001 A 
HETATM   10  C   UNL     1     -11.614   0.366 -33.583  1.00  0.00     0.013 A 
HETATM   11  C   UNL     1      -9.965   2.267 -33.397  1.00  0.00     0.025 A 
ENDROOT
BRANCH   1  12
HETATM   12  C   UNL     1      -8.503   4.339 -33.275  1.00  0.00     0.276 C 
HETATM   13  N   UNL     1      -7.994   4.521 -32.007  1.00  0.00    -0.351 N 
HETATM   14  H   UNL     1      -8.436   4.019 -31.249  1.00  0.00     0.163 HD
HETATM   15  O   UNL     1      -7.939   4.750 -34.279  1.00  0.00    -0.265 OA
BRANCH  13  16
HETATM   16  C   UNL     1      -6.711   5.146 -31.803  1.00  0.00     0.161 C 
BRANCH  16  17
HETATM   17  C   UNL     1      -5.508   4.249 -31.988  1.00  0.00    -0.038 A 
HETATM   18  C   UNL     1      -4.367   4.598 -32.725  1.00  0.00     0.045 A 
HETATM   19  C   UNL     1      -3.274   3.728 -32.835  1.00  0.00     0.068 A 
HETATM   20  C   UNL     1      -3.328   2.476 -32.227  1.00  0.00     0.037 A 
HETATM   21  C   UNL     1      -4.460   2.104 -31.502  1.00  0.00     0.003 A 
HETATM   22  C   UNL     1      -5.536   2.983 -31.380  1.00  0.00     0.009 A 
BRANCH  19  23
HETATM   23  O   UNL     1      -2.227   4.221 -33.567  1.00  0.00    -0.356 OA
HETATM   24  C   UNL     1      -2.547   5.114 -34.626  1.00  0.00     0.210 C 
ENDBRANCH  19  23
ENDBRANCH  16  17
ENDBRANCH  13  16
ENDBRANCH   1  12
BRANCH  11  25
HETATM   25  C   UNL     1      -8.780   1.382 -33.488  1.00  0.00    -0.022 A 
HETATM   26  C   UNL     1      -8.295   0.743 -32.338  1.00  0.00     0.012 A 
HETATM   27  C   UNL     1      -7.206  -0.127 -32.425  1.00  0.00     0.001 A 
HETATM   28  C   UNL     1      -6.600  -0.365 -33.658  1.00  0.00     0.000 A 
HETATM   29  C   UNL     1      -7.079   0.265 -34.805  1.00  0.00     0.001 A 
HETATM   30  C   UNL     1      -8.168   1.135 -34.724  1.00  0.00     0.012 A 
ENDBRANCH  11  25
TORSDOF 5
ENDMDL
