MODEL 1
REMARK VINA RESULT:      -9.7      0.000      0.000
REMARK  9 active torsions:
REMARK  status: ('A' for Active; 'I' for Inactive)
REMARK    1  A    between atoms: C_6  and  O_7 
REMARK    2  A    between atoms: O_7  and  C_8 
REMARK    3  A    between atoms: C_8  and  C_9 
REMARK       I    between atoms: C_9  and  N_10 
REMARK    4  A    between atoms: N_10  and  C_11 
REMARK    5  A    between atoms: C_11  and  N_12 
REMARK    6  A    between atoms: N_12  and  C_13 
REMARK    7  A    between atoms: C_15  and  O_16 
REMARK    8  A    between atoms: C_17  and  C_18 
REMARK    9  A    between atoms: C_25  and  C_26 
ROOT
HETATM    1  C   UNL     1      -1.662   5.572 -31.665  1.00  0.00     0.036 A 
HETATM    2  C   UNL     1      -2.412   6.234 -30.696  1.00  0.00     0.067 A 
HETATM    3  C   UNL     1      -1.786   6.937 -29.660  1.00  0.00     0.082 A 
HETATM    4  C   UNL     1      -0.391   7.017 -29.572  1.00  0.00     0.050 A 
HETATM    5  C   UNL     1       0.361   6.406 -30.586  1.00  0.00     0.021 A 
HETATM    6  C   UNL     1      -0.268   5.696 -31.621  1.00  0.00     0.030 A 
ENDROOT
BRANCH   1   7
HETATM    7  N   UNL     1      -2.208   4.796 -32.714  1.00  0.00    -0.333 N 
HETATM    8  H   UNL     1      -1.515   4.339 -33.311  1.00  0.00     0.168 HD
BRANCH   7   9
HETATM    9  C   UNL     1      -3.503   4.455 -33.028  1.00  0.00     0.178 C 
HETATM   10  S   UNL     1      -4.804   5.419 -33.451  1.00  0.00    -0.040 SA
BRANCH   9  11
HETATM   11  N   UNL     1      -3.786   3.104 -32.956  1.00  0.00    -0.302 N 
HETATM   12  C   UNL     1      -3.439   2.152 -32.006  1.00  0.00     0.248 C 
HETATM   13  O   UNL     1      -2.680   2.383 -31.066  1.00  0.00    -0.271 OA
HETATM   14  H   UNL     1      -4.420   2.807 -33.685  1.00  0.00     0.171 HD
BRANCH  12  15
HETATM   15  C   UNL     1      -4.025   0.762 -32.288  1.00  0.00     0.278 C 
BRANCH  15  16
HETATM   16  O   UNL     1      -5.138   0.813 -33.183  1.00  0.00    -0.342 OA
BRANCH  16  17
HETATM   17  C   UNL     1      -5.513  -0.384 -33.726  1.00  0.00     0.069 A 
HETATM   18  C   UNL     1      -4.582  -1.420 -33.640  1.00  0.00     0.044 A 
HETATM   19  C   UNL     1      -4.894  -2.710 -34.093  1.00  0.00    -0.053 A 
HETATM   20  C   UNL     1      -6.153  -2.945 -34.680  1.00  0.00    -0.056 A 
HETATM   21  C   UNL     1      -3.897  -3.820 -33.893  1.00  0.00     0.049 C 
HETATM   22  C   UNL     1      -6.546  -4.311 -35.171  1.00  0.00     0.049 C 
HETATM   23  C   UNL     1      -7.051  -1.874 -34.827  1.00  0.00     0.010 A 
HETATM   24  C   UNL     1      -6.734  -0.599 -34.355  1.00  0.00     0.037 A 
ENDBRANCH  16  17
ENDBRANCH  15  16
ENDBRANCH  12  15
ENDBRANCH   9  11
ENDBRANCH   7   9
ENDBRANCH   1   7
BRANCH   3  25
HETATM   25  O   UNL     1      -2.570   7.580 -28.739  1.00  0.00    -0.360 OA
HETATM   26  H   UNL     1      -2.046   7.773 -27.944  1.00  0.00     0.217 HD
ENDBRANCH   3  25
BRANCH   4  27
HETATM   27  C   UNL     1       0.261   7.680 -28.448  1.00  0.00     0.183 A 
HETATM   28  O   UNL     1      -0.090   8.990 -28.219  1.00  0.00    -0.289 OA
HETATM   29  C   UNL     1       0.635   9.334 -27.113  1.00  0.00     0.106 A 
HETATM   30  C   UNL     1       1.398   8.239 -26.751  1.00  0.00     0.094 A 
HETATM   31  C   UNL     1       0.633  10.547 -26.440  1.00  0.00     0.040 A 
HETATM   32  N   UNL     1       1.166   7.203 -27.611  1.00  0.00    -0.221 NA
HETATM   33  C   UNL     1       2.240   8.331 -25.635  1.00  0.00     0.042 A 
HETATM   34  C   UNL     1       2.278   9.538 -24.907  1.00  0.00    -0.052 A 
HETATM   35  C   UNL     1       1.476  10.623 -25.319  1.00  0.00     0.010 A 
BRANCH  34  36
HETATM   36  C   UNL     1       3.181   9.628 -23.688  1.00  0.00     0.010 C 
HETATM   37  C   UNL     1       2.823   8.572 -22.639  1.00  0.00     0.015 C 
HETATM   38  C   UNL     1       4.659   9.537 -24.078  1.00  0.00     0.015 C 
ENDBRANCH  34  36
ENDBRANCH   4  27
TORSDOF 9
ENDMDL
MODEL 2
REMARK VINA RESULT:      -9.6      3.749     10.865
REMARK  9 active torsions:
REMARK  status: ('A' for Active; 'I' for Inactive)
REMARK    1  A    between atoms: C_6  and  O_7 
REMARK    2  A    between atoms: O_7  and  C_8 
REMARK    3  A    between atoms: C_8  and  C_9 
REMARK       I    between atoms: C_9  and  N_10 
REMARK    4  A    between atoms: N_10  and  C_11 
REMARK    5  A    between atoms: C_11  and  N_12 
REMARK    6  A    between atoms: N_12  and  C_13 
REMARK    7  A    between atoms: C_15  and  O_16 
REMARK    8  A    between atoms: C_17  and  C_18 
REMARK    9  A    between atoms: C_25  and  C_26 
ROOT
HETATM    1  C   UNL     1      -5.627   5.481 -30.129  1.00  0.00     0.036 A 
HETATM    2  C   UNL     1      -5.862   5.446 -31.502  1.00  0.00     0.067 A 
HETATM    3  C   UNL     1      -5.984   4.226 -32.177  1.00  0.00     0.082 A 
HETATM    4  C   UNL     1      -5.895   3.005 -31.500  1.00  0.00     0.050 A 
HETATM    5  C   UNL     1      -5.725   3.043 -30.108  1.00  0.00     0.021 A 
HETATM    6  C   UNL     1      -5.596   4.267 -29.433  1.00  0.00     0.030 A 
ENDROOT
BRANCH   1   7
HETATM    7  N   UNL     1      -5.438   6.662 -29.375  1.00  0.00    -0.333 N 
HETATM    8  H   UNL     1      -6.183   7.354 -29.472  1.00  0.00     0.168 HD
BRANCH   7   9
HETATM    9  C   UNL     1      -4.484   7.020 -28.450  1.00  0.00     0.178 C 
HETATM   10  S   UNL     1      -4.645   7.798 -26.977  1.00  0.00    -0.040 SA
BRANCH   9  11
HETATM   11  N   UNL     1      -3.183   6.718 -28.803  1.00  0.00    -0.302 N 
HETATM   12  C   UNL     1      -2.123   7.540 -29.163  1.00  0.00     0.248 C 
HETATM   13  O   UNL     1      -2.238   8.754 -29.326  1.00  0.00    -0.271 OA
HETATM   14  H   UNL     1      -2.976   5.734 -28.694  1.00  0.00     0.171 HD
BRANCH  12  15
HETATM   15  C   UNL     1      -0.816   6.781 -29.419  1.00  0.00     0.278 C 
BRANCH  15  16
HETATM   16  O   UNL     1      -0.225   7.126 -30.674  1.00  0.00    -0.342 OA
BRANCH  16  17
HETATM   17  C   UNL     1      -0.926   6.739 -31.783  1.00  0.00     0.069 A 
HETATM   18  C   UNL     1      -1.316   5.400 -31.829  1.00  0.00     0.044 A 
HETATM   19  C   UNL     1      -2.107   4.916 -32.882  1.00  0.00    -0.053 A 
HETATM   20  C   UNL     1      -2.473   5.791 -33.923  1.00  0.00    -0.056 A 
HETATM   21  C   UNL     1      -2.586   3.489 -32.844  1.00  0.00     0.049 C 
HETATM   22  C   UNL     1      -3.330   5.329 -35.070  1.00  0.00     0.049 C 
HETATM   23  C   UNL     1      -2.009   7.117 -33.899  1.00  0.00     0.010 A 
HETATM   24  C   UNL     1      -1.237   7.590 -32.836  1.00  0.00     0.037 A 
ENDBRANCH  16  17
ENDBRANCH  15  16
ENDBRANCH  12  15
ENDBRANCH   9  11
ENDBRANCH   7   9
ENDBRANCH   1   7
BRANCH   3  25
HETATM   25  O   UNL     1      -6.227   4.248 -33.526  1.00  0.00    -0.360 OA
HETATM   26  H   UNL     1      -5.931   5.096 -33.896  1.00  0.00     0.217 HD
ENDBRANCH   3  25
BRANCH   4  27
HETATM   27  C   UNL     1      -5.942   1.735 -32.217  1.00  0.00     0.183 A 
HETATM   28  O   UNL     1      -7.144   1.398 -32.795  1.00  0.00    -0.289 OA
HETATM   29  C   UNL     1      -6.888   0.204 -33.409  1.00  0.00     0.106 A 
HETATM   30  C   UNL     1      -5.571  -0.129 -33.151  1.00  0.00     0.094 A 
HETATM   31  C   UNL     1      -7.758  -0.564 -34.167  1.00  0.00     0.040 A 
HETATM   32  N   UNL     1      -4.985   0.837 -32.384  1.00  0.00    -0.221 NA
HETATM   33  C   UNL     1      -5.052  -1.320 -33.675  1.00  0.00     0.042 A 
HETATM   34  C   UNL     1      -5.889  -2.143 -34.457  1.00  0.00    -0.052 A 
HETATM   35  C   UNL     1      -7.224  -1.752 -34.692  1.00  0.00     0.010 A 
BRANCH  34  36
HETATM   36  C   UNL     1      -5.317  -3.427 -35.037  1.00  0.00     0.010 C 
HETATM   37  C   UNL     1      -4.208  -4.002 -34.153  1.00  0.00     0.015 C 
HETATM   38  C   UNL     1      -6.414  -4.464 -35.289  1.00  0.00     0.015 C 
ENDBRANCH  34  36
ENDBRANCH   4  27
TORSDOF 9
ENDMDL
MODEL 3
REMARK VINA RESULT:      -9.3      7.806     10.910
REMARK  9 active torsions:
REMARK  status: ('A' for Active; 'I' for Inactive)
REMARK    1  A    between atoms: C_6  and  O_7 
REMARK    2  A    between atoms: O_7  and  C_8 
REMARK    3  A    between atoms: C_8  and  C_9 
REMARK       I    between atoms: C_9  and  N_10 
REMARK    4  A    between atoms: N_10  and  C_11 
REMARK    5  A    between atoms: C_11  and  N_12 
REMARK    6  A    between atoms: N_12  and  C_13 
REMARK    7  A    between atoms: C_15  and  O_16 
REMARK    8  A    between atoms: C_17  and  C_18 
REMARK    9  A    between atoms: C_25  and  C_26 
ROOT
HETATM    1  C   UNL     1      -7.236   5.590 -32.604  1.00  0.00     0.036 A 
HETATM    2  C   UNL     1      -7.793   4.532 -31.888  1.00  0.00     0.067 A 
HETATM    3  C   UNL     1      -7.393   3.213 -32.128  1.00  0.00     0.082 A 
HETATM    4  C   UNL     1      -6.409   2.911 -33.077  1.00  0.00     0.050 A 
HETATM    5  C   UNL     1      -5.803   3.981 -33.750  1.00  0.00     0.021 A 
HETATM    6  C   UNL     1      -6.210   5.304 -33.513  1.00  0.00     0.030 A 
ENDROOT
BRANCH   1   7
HETATM    7  N   UNL     1      -7.616   6.945 -32.466  1.00  0.00    -0.333 N 
HETATM    8  H   UNL     1      -6.863   7.571 -32.176  1.00  0.00     0.168 HD
BRANCH   7   9
HETATM    9  C   UNL     1      -8.791   7.604 -32.746  1.00  0.00     0.178 C 
HETATM   10  S   UNL     1      -9.428   9.004 -32.090  1.00  0.00    -0.040 SA
BRANCH   9  11
HETATM   11  N   UNL     1      -9.588   7.000 -33.701  1.00  0.00    -0.302 N 
HETATM   12  C   UNL     1     -10.718   6.205 -33.571  1.00  0.00     0.248 C 
HETATM   13  O   UNL     1     -11.145   5.813 -32.486  1.00  0.00    -0.271 OA
HETATM   14  H   UNL     1      -9.327   7.267 -34.641  1.00  0.00     0.171 HD
BRANCH  12  15
HETATM   15  C   UNL     1     -11.336   5.791 -34.912  1.00  0.00     0.278 C 
BRANCH  15  16
HETATM   16  O   UNL     1     -10.763   4.587 -35.426  1.00  0.00    -0.342 OA
BRANCH  16  17
HETATM   17  C   UNL     1     -11.394   3.430 -35.061  1.00  0.00     0.069 A 
HETATM   18  C   UNL     1     -10.612   2.486 -34.394  1.00  0.00     0.044 A 
HETATM   19  C   UNL     1     -11.176   1.299 -33.904  1.00  0.00    -0.053 A 
HETATM   20  C   UNL     1     -12.543   1.046 -34.129  1.00  0.00    -0.056 A 
HETATM   21  C   UNL     1     -10.318   0.352 -33.108  1.00  0.00     0.049 C 
HETATM   22  C   UNL     1     -13.203  -0.204 -33.615  1.00  0.00     0.049 C 
HETATM   23  C   UNL     1     -13.300   1.972 -34.866  1.00  0.00     0.010 A 
HETATM   24  C   UNL     1     -12.729   3.158 -35.333  1.00  0.00     0.037 A 
ENDBRANCH  16  17
ENDBRANCH  15  16
ENDBRANCH  12  15
ENDBRANCH   9  11
ENDBRANCH   7   9
ENDBRANCH   1   7
BRANCH   3  25
HETATM   25  O   UNL     1      -7.964   2.212 -31.388  1.00  0.00    -0.360 OA
HETATM   26  H   UNL     1      -8.475   1.628 -31.971  1.00  0.00     0.217 HD
ENDBRANCH   3  25
BRANCH   4  27
HETATM   27  C   UNL     1      -6.051   1.530 -33.385  1.00  0.00     0.183 A 
HETATM   28  O   UNL     1      -4.904   1.047 -32.798  1.00  0.00    -0.289 OA
HETATM   29  C   UNL     1      -4.838  -0.248 -33.229  1.00  0.00     0.106 A 
HETATM   30  C   UNL     1      -5.917  -0.471 -34.064  1.00  0.00     0.094 A 
HETATM   31  C   UNL     1      -3.884  -1.202 -32.908  1.00  0.00     0.040 A 
HETATM   32  N   UNL     1      -6.670   0.664 -34.168  1.00  0.00    -0.221 NA
HETATM   33  C   UNL     1      -6.083  -1.735 -34.644  1.00  0.00     0.042 A 
HETATM   34  C   UNL     1      -5.146  -2.748 -34.352  1.00  0.00    -0.052 A 
HETATM   35  C   UNL     1      -4.065  -2.467 -33.490  1.00  0.00     0.010 A 
BRANCH  34  36
HETATM   36  C   UNL     1      -5.339  -4.123 -34.971  1.00  0.00     0.010 C 
HETATM   37  C   UNL     1      -4.570  -5.202 -34.206  1.00  0.00     0.015 C 
HETATM   38  C   UNL     1      -6.823  -4.481 -35.086  1.00  0.00     0.015 C 
ENDBRANCH  34  36
ENDBRANCH   4  27
TORSDOF 9
ENDMDL
MODEL 4
REMARK VINA RESULT:      -9.3      3.710      6.399
REMARK  9 active torsions:
REMARK  status: ('A' for Active; 'I' for Inactive)
REMARK    1  A    between atoms: C_6  and  O_7 
REMARK    2  A    between atoms: O_7  and  C_8 
REMARK    3  A    between atoms: C_8  and  C_9 
REMARK       I    between atoms: C_9  and  N_10 
REMARK    4  A    between atoms: N_10  and  C_11 
REMARK    5  A    between atoms: C_11  and  N_12 
REMARK    6  A    between atoms: N_12  and  C_13 
REMARK    7  A    between atoms: C_15  and  O_16 
REMARK    8  A    between atoms: C_17  and  C_18 
REMARK    9  A    between atoms: C_25  and  C_26 
ROOT
HETATM    1  C   UNL     1      -9.623   3.507 -31.709  1.00  0.00     0.036 A 
HETATM    2  C   UNL     1      -8.840   3.009 -30.669  1.00  0.00     0.067 A 
HETATM    3  C   UNL     1      -7.606   3.591 -30.358  1.00  0.00     0.082 A 
HETATM    4  C   UNL     1      -7.125   4.701 -31.062  1.00  0.00     0.050 A 
HETATM    5  C   UNL     1      -7.944   5.242 -32.063  1.00  0.00     0.021 A 
HETATM    6  C   UNL     1      -9.179   4.653 -32.379  1.00  0.00     0.030 A 
ENDROOT
BRANCH   1   7
HETATM    7  N   UNL     1     -10.854   2.952 -32.127  1.00  0.00    -0.333 N 
HETATM    8  H   UNL     1     -11.656   3.210 -31.549  1.00  0.00     0.168 HD
BRANCH   7   9
HETATM    9  C   UNL     1     -11.199   2.206 -33.230  1.00  0.00     0.178 C 
HETATM   10  S   UNL     1     -12.705   1.838 -33.859  1.00  0.00    -0.040 SA
BRANCH   9  11
HETATM   11  N   UNL     1     -10.137   1.643 -33.913  1.00  0.00    -0.302 N 
HETATM   12  C   UNL     1      -9.305   0.581 -33.584  1.00  0.00     0.248 C 
HETATM   13  O   UNL     1      -9.342   0.007 -32.497  1.00  0.00    -0.271 OA
HETATM   14  H   UNL     1     -10.022   2.040 -34.835  1.00  0.00     0.171 HD
BRANCH  12  15
HETATM   15  C   UNL     1      -8.279   0.245 -34.673  1.00  0.00     0.278 C 
BRANCH  15  16
HETATM   16  O   UNL     1      -6.935   0.461 -34.238  1.00  0.00    -0.342 OA
BRANCH  16  17
HETATM   17  C   UNL     1      -6.161  -0.661 -34.129  1.00  0.00     0.069 A 
HETATM   18  C   UNL     1      -6.729  -1.849 -34.592  1.00  0.00     0.044 A 
HETATM   19  C   UNL     1      -5.995  -3.044 -34.602  1.00  0.00    -0.053 A 
HETATM   20  C   UNL     1      -4.680  -3.044 -34.097  1.00  0.00    -0.056 A 
HETATM   21  C   UNL     1      -6.612  -4.281 -35.197  1.00  0.00     0.049 C 
HETATM   22  C   UNL     1      -3.842  -4.293 -34.095  1.00  0.00     0.049 C 
HETATM   23  C   UNL     1      -4.148  -1.856 -33.567  1.00  0.00     0.010 A 
HETATM   24  C   UNL     1      -4.885  -0.670 -33.580  1.00  0.00     0.037 A 
ENDBRANCH  16  17
ENDBRANCH  15  16
ENDBRANCH  12  15
ENDBRANCH   9  11
ENDBRANCH   7   9
ENDBRANCH   1   7
BRANCH   3  25
HETATM   25  O   UNL     1      -6.881   3.069 -29.319  1.00  0.00    -0.360 OA
HETATM   26  H   UNL     1      -6.024   3.523 -29.260  1.00  0.00     0.217 HD
ENDBRANCH   3  25
BRANCH   4  27
HETATM   27  C   UNL     1      -5.803   5.257 -30.790  1.00  0.00     0.183 A 
HETATM   28  O   UNL     1      -5.670   5.990 -29.634  1.00  0.00    -0.289 OA
HETATM   29  C   UNL     1      -4.351   6.349 -29.625  1.00  0.00     0.106 A 
HETATM   30  C   UNL     1      -3.769   5.845 -30.773  1.00  0.00     0.094 A 
HETATM   31  C   UNL     1      -3.676   7.079 -28.658  1.00  0.00     0.040 A 
HETATM   32  N   UNL     1      -4.699   5.168 -31.511  1.00  0.00    -0.221 NA
HETATM   33  C   UNL     1      -2.407   6.074 -31.007  1.00  0.00     0.042 A 
HETATM   34  C   UNL     1      -1.666   6.808 -30.057  1.00  0.00    -0.052 A 
HETATM   35  C   UNL     1      -2.310   7.296 -28.901  1.00  0.00     0.010 A 
BRANCH  34  36
HETATM   36  C   UNL     1      -0.185   7.040 -30.307  1.00  0.00     0.010 C 
HETATM   37  C   UNL     1       0.540   7.491 -29.037  1.00  0.00     0.015 C 
HETATM   38  C   UNL     1       0.482   5.802 -30.910  1.00  0.00     0.015 C 
ENDBRANCH  34  36
ENDBRANCH   4  27
TORSDOF 9
ENDMDL
MODEL 5
REMARK VINA RESULT:      -9.2      4.136     10.903
REMARK  9 active torsions:
REMARK  status: ('A' for Active; 'I' for Inactive)
REMARK    1  A    between atoms: C_6  and  O_7 
REMARK    2  A    between atoms: O_7  and  C_8 
REMARK    3  A    between atoms: C_8  and  C_9 
REMARK       I    between atoms: C_9  and  N_10 
REMARK    4  A    between atoms: N_10  and  C_11 
REMARK    5  A    between atoms: C_11  and  N_12 
REMARK    6  A    between atoms: N_12  and  C_13 
REMARK    7  A    between atoms: C_15  and  O_16 
REMARK    8  A    between atoms: C_17  and  C_18 
REMARK    9  A    between atoms: C_25  and  C_26 
ROOT
HETATM    1  C   UNL     1      -6.735   5.395 -30.849  1.00  0.00     0.036 A 
HETATM    2  C   UNL     1      -6.829   5.132 -32.215  1.00  0.00     0.067 A 
HETATM    3  C   UNL     1      -6.589   3.848 -32.717  1.00  0.00     0.082 A 
HETATM    4  C   UNL     1      -6.269   2.782 -31.869  1.00  0.00     0.050 A 
HETATM    5  C   UNL     1      -6.240   3.032 -30.490  1.00  0.00     0.021 A 
HETATM    6  C   UNL     1      -6.474   4.323 -29.988  1.00  0.00     0.030 A 
ENDROOT
BRANCH   1   7
HETATM    7  N   UNL     1      -6.908   6.668 -30.260  1.00  0.00    -0.333 N 
HETATM    8  H   UNL     1      -7.417   6.663 -29.375  1.00  0.00     0.168 HD
BRANCH   7   9
HETATM    9  C   UNL     1      -6.431   7.912 -30.603  1.00  0.00     0.178 C 
HETATM   10  S   UNL     1      -7.188   9.185 -31.382  1.00  0.00    -0.040 SA
BRANCH   9  11
HETATM   11  N   UNL     1      -5.106   8.141 -30.280  1.00  0.00    -0.302 N 
HETATM   12  C   UNL     1      -4.333   7.674 -29.225  1.00  0.00     0.248 C 
HETATM   13  O   UNL     1      -4.791   7.011 -28.296  1.00  0.00    -0.271 OA
HETATM   14  H   UNL     1      -4.626   8.675 -30.992  1.00  0.00     0.171 HD
BRANCH  12  15
HETATM   15  C   UNL     1      -2.871   8.133 -29.285  1.00  0.00     0.278 C 
BRANCH  15  16
HETATM   16  O   UNL     1      -1.966   7.041 -29.458  1.00  0.00    -0.342 OA
BRANCH  16  17
HETATM   17  C   UNL     1      -1.745   6.655 -30.751  1.00  0.00     0.069 A 
HETATM   18  C   UNL     1      -2.276   5.420 -31.125  1.00  0.00     0.044 A 
HETATM   19  C   UNL     1      -2.178   4.963 -32.448  1.00  0.00    -0.053 A 
HETATM   20  C   UNL     1      -1.496   5.750 -33.396  1.00  0.00    -0.056 A 
HETATM   21  C   UNL     1      -2.848   3.670 -32.830  1.00  0.00     0.049 C 
HETATM   22  C   UNL     1      -1.372   5.316 -34.830  1.00  0.00     0.049 C 
HETATM   23  C   UNL     1      -0.903   6.957 -32.986  1.00  0.00     0.010 A 
HETATM   24  C   UNL     1      -1.024   7.407 -31.670  1.00  0.00     0.037 A 
ENDBRANCH  16  17
ENDBRANCH  15  16
ENDBRANCH  12  15
ENDBRANCH   9  11
ENDBRANCH   7   9
ENDBRANCH   1   7
BRANCH   3  25
HETATM   25  O   UNL     1      -6.706   3.642 -34.066  1.00  0.00    -0.360 OA
HETATM   26  H   UNL     1      -5.822   3.583 -34.464  1.00  0.00     0.217 HD
ENDBRANCH   3  25
BRANCH   4  27
HETATM   27  C   UNL     1      -5.940   1.463 -32.400  1.00  0.00     0.183 A 
HETATM   28  O   UNL     1      -4.774   0.890 -31.947  1.00  0.00    -0.289 OA
HETATM   29  C   UNL     1      -4.741  -0.323 -32.574  1.00  0.00     0.106 A 
HETATM   30  C   UNL     1      -5.858  -0.411 -33.384  1.00  0.00     0.094 A 
HETATM   31  C   UNL     1      -3.784  -1.319 -32.446  1.00  0.00     0.040 A 
HETATM   32  N   UNL     1      -6.602   0.730 -33.279  1.00  0.00    -0.221 NA
HETATM   33  C   UNL     1      -6.064  -1.570 -34.143  1.00  0.00     0.042 A 
HETATM   34  C   UNL     1      -5.126  -2.619 -34.053  1.00  0.00    -0.052 A 
HETATM   35  C   UNL     1      -4.005  -2.479 -33.207  1.00  0.00     0.010 A 
BRANCH  34  36
HETATM   36  C   UNL     1      -5.362  -3.882 -34.866  1.00  0.00     0.010 C 
HETATM   37  C   UNL     1      -4.650  -5.091 -34.255  1.00  0.00     0.015 C 
HETATM   38  C   UNL     1      -6.856  -4.158 -35.050  1.00  0.00     0.015 C 
ENDBRANCH  34  36
ENDBRANCH   4  27
TORSDOF 9
ENDMDL
MODEL 6
REMARK VINA RESULT:      -9.2      5.105     10.945
REMARK  9 active torsions:
REMARK  status: ('A' for Active; 'I' for Inactive)
REMARK    1  A    between atoms: C_6  and  O_7 
REMARK    2  A    between atoms: O_7  and  C_8 
REMARK    3  A    between atoms: C_8  and  C_9 
REMARK       I    between atoms: C_9  and  N_10 
REMARK    4  A    between atoms: N_10  and  C_11 
REMARK    5  A    between atoms: C_11  and  N_12 
REMARK    6  A    between atoms: N_12  and  C_13 
REMARK    7  A    between atoms: C_15  and  O_16 
REMARK    8  A    between atoms: C_17  and  C_18 
REMARK    9  A    between atoms: C_25  and  C_26 
ROOT
HETATM    1  C   UNL     1      -8.274   5.359 -29.122  1.00  0.00     0.036 A 
HETATM    2  C   UNL     1      -7.191   4.513 -28.894  1.00  0.00     0.067 A 
HETATM    3  C   UNL     1      -6.889   3.477 -29.784  1.00  0.00     0.082 A 
HETATM    4  C   UNL     1      -7.648   3.265 -30.941  1.00  0.00     0.050 A 
HETATM    5  C   UNL     1      -8.698   4.157 -31.203  1.00  0.00     0.021 A 
HETATM    6  C   UNL     1      -9.003   5.193 -30.306  1.00  0.00     0.030 A 
ENDROOT
BRANCH   1   7
HETATM    7  N   UNL     1      -8.684   6.395 -28.252  1.00  0.00    -0.333 N 
HETATM    8  H   UNL     1      -9.337   6.106 -27.521  1.00  0.00     0.168 HD
BRANCH   7   9
HETATM    9  C   UNL     1      -8.291   7.709 -28.138  1.00  0.00     0.178 C 
HETATM   10  S   UNL     1      -9.136   9.047 -27.595  1.00  0.00    -0.040 SA
BRANCH   9  11
HETATM   11  N   UNL     1      -7.005   7.975 -28.568  1.00  0.00    -0.302 N 
HETATM   12  C   UNL     1      -5.775   7.640 -28.018  1.00  0.00     0.248 C 
HETATM   13  O   UNL     1      -5.653   7.095 -26.922  1.00  0.00    -0.271 OA
HETATM   14  H   UNL     1      -6.989   8.419 -29.476  1.00  0.00     0.171 HD
BRANCH  12  15
HETATM   15  C   UNL     1      -4.579   8.088 -28.867  1.00  0.00     0.278 C 
BRANCH  15  16
HETATM   16  O   UNL     1      -3.832   6.983 -29.381  1.00  0.00    -0.342 OA
BRANCH  16  17
HETATM   17  C   UNL     1      -4.281   6.465 -30.563  1.00  0.00     0.069 A 
HETATM   18  C   UNL     1      -3.768   5.218 -30.924  1.00  0.00     0.044 A 
HETATM   19  C   UNL     1      -4.220   4.558 -32.076  1.00  0.00    -0.053 A 
HETATM   20  C   UNL     1      -5.176   5.189 -32.897  1.00  0.00    -0.056 A 
HETATM   21  C   UNL     1      -3.711   3.174 -32.377  1.00  0.00     0.049 C 
HETATM   22  C   UNL     1      -5.705   4.522 -34.137  1.00  0.00     0.049 C 
HETATM   23  C   UNL     1      -5.627   6.476 -32.559  1.00  0.00     0.010 A 
HETATM   24  C   UNL     1      -5.182   7.114 -31.400  1.00  0.00     0.037 A 
ENDBRANCH  16  17
ENDBRANCH  15  16
ENDBRANCH  12  15
ENDBRANCH   9  11
ENDBRANCH   7   9
ENDBRANCH   1   7
BRANCH   3  25
HETATM   25  O   UNL     1      -5.806   2.681 -29.518  1.00  0.00    -0.360 OA
HETATM   26  H   UNL     1      -5.031   3.017 -29.998  1.00  0.00     0.217 HD
ENDBRANCH   3  25
BRANCH   4  27
HETATM   27  C   UNL     1      -7.383   2.135 -31.826  1.00  0.00     0.183 A 
HETATM   28  O   UNL     1      -8.006   2.155 -33.052  1.00  0.00    -0.289 OA
HETATM   29  C   UNL     1      -7.560   1.017 -33.663  1.00  0.00     0.106 A 
HETATM   30  C   UNL     1      -6.723   0.363 -32.779  1.00  0.00     0.094 A 
HETATM   31  C   UNL     1      -7.860   0.566 -34.940  1.00  0.00     0.040 A 
HETATM   32  N   UNL     1      -6.630   1.070 -31.613  1.00  0.00    -0.221 NA
HETATM   33  C   UNL     1      -6.125  -0.843 -33.166  1.00  0.00     0.042 A 
HETATM   34  C   UNL     1      -6.390  -1.352 -34.455  1.00  0.00    -0.052 A 
HETATM   35  C   UNL     1      -7.249  -0.641 -35.319  1.00  0.00     0.010 A 
BRANCH  34  36
HETATM   36  C   UNL     1      -5.727  -2.653 -34.878  1.00  0.00     0.010 C 
HETATM   37  C   UNL     1      -4.462  -2.934 -34.064  1.00  0.00     0.015 C 
HETATM   38  C   UNL     1      -6.704  -3.829 -34.801  1.00  0.00     0.015 C 
ENDBRANCH  34  36
ENDBRANCH   4  27
TORSDOF 9
ENDMDL
MODEL 7
REMARK VINA RESULT:      -9.1      1.975     12.614
REMARK  9 active torsions:
REMARK  status: ('A' for Active; 'I' for Inactive)
REMARK    1  A    between atoms: C_6  and  O_7 
REMARK    2  A    between atoms: O_7  and  C_8 
REMARK    3  A    between atoms: C_8  and  C_9 
REMARK       I    between atoms: C_9  and  N_10 
REMARK    4  A    between atoms: N_10  and  C_11 
REMARK    5  A    between atoms: C_11  and  N_12 
REMARK    6  A    between atoms: N_12  and  C_13 
REMARK    7  A    between atoms: C_15  and  O_16 
REMARK    8  A    between atoms: C_17  and  C_18 
REMARK    9  A    between atoms: C_25  and  C_26 
ROOT
HETATM    1  C   UNL     1      -4.504   5.242 -30.414  1.00  0.00     0.036 A 
HETATM    2  C   UNL     1      -5.435   4.335 -29.913  1.00  0.00     0.067 A 
HETATM    3  C   UNL     1      -5.619   3.087 -30.520  1.00  0.00     0.082 A 
HETATM    4  C   UNL     1      -4.864   2.699 -31.632  1.00  0.00     0.050 A 
HETATM    5  C   UNL     1      -3.882   3.587 -32.094  1.00  0.00     0.021 A 
HETATM    6  C   UNL     1      -3.703   4.841 -31.489  1.00  0.00     0.030 A 
ENDROOT
BRANCH   1   7
HETATM    7  N   UNL     1      -4.289   6.542 -29.899  1.00  0.00    -0.333 N 
HETATM    8  H   UNL     1      -5.069   6.921 -29.358  1.00  0.00     0.168 HD
BRANCH   7   9
HETATM    9  C   UNL     1      -3.184   7.361 -29.902  1.00  0.00     0.178 C 
HETATM   10  S   UNL     1      -2.809   8.668 -30.877  1.00  0.00    -0.040 SA
BRANCH   9  11
HETATM   11  N   UNL     1      -2.212   7.037 -28.974  1.00  0.00    -0.302 N 
HETATM   12  C   UNL     1      -0.977   6.423 -29.127  1.00  0.00     0.248 C 
HETATM   13  O   UNL     1      -0.586   5.951 -30.194  1.00  0.00    -0.271 OA
HETATM   14  H   UNL     1      -2.431   7.392 -28.053  1.00  0.00     0.171 HD
BRANCH  12  15
HETATM   15  C   UNL     1      -0.180   6.312 -27.821  1.00  0.00     0.278 C 
BRANCH  15  16
HETATM   16  O   UNL     1       1.084   6.974 -27.899  1.00  0.00    -0.342 OA
BRANCH  16  17
HETATM   17  C   UNL     1       1.210   8.099 -27.132  1.00  0.00     0.069 A 
HETATM   18  C   UNL     1       2.015   7.986 -25.998  1.00  0.00     0.044 A 
HETATM   19  C   UNL     1       2.278   9.099 -25.186  1.00  0.00    -0.053 A 
HETATM   20  C   UNL     1       1.683  10.335 -25.504  1.00  0.00    -0.056 A 
HETATM   21  C   UNL     1       3.228   8.954 -24.027  1.00  0.00     0.049 C 
HETATM   22  C   UNL     1       1.939  11.564 -24.675  1.00  0.00     0.049 C 
HETATM   23  C   UNL     1       0.815  10.415 -26.607  1.00  0.00     0.010 A 
HETATM   24  C   UNL     1       0.577   9.303 -27.417  1.00  0.00     0.037 A 
ENDBRANCH  16  17
ENDBRANCH  15  16
ENDBRANCH  12  15
ENDBRANCH   9  11
ENDBRANCH   7   9
ENDBRANCH   1   7
BRANCH   3  25
HETATM   25  O   UNL     1      -6.540   2.228 -29.980  1.00  0.00    -0.360 OA
HETATM   26  H   UNL     1      -7.081   2.700 -29.326  1.00  0.00     0.217 HD
ENDBRANCH   3  25
BRANCH   4  27
HETATM   27  C   UNL     1      -5.113   1.432 -32.313  1.00  0.00     0.183 A 
HETATM   28  O   UNL     1      -6.392   1.222 -32.774  1.00  0.00    -0.289 OA
HETATM   29  C   UNL     1      -6.324  -0.001 -33.380  1.00  0.00     0.106 A 
HETATM   30  C   UNL     1      -5.033  -0.473 -33.234  1.00  0.00     0.094 A 
HETATM   31  C   UNL     1      -7.338  -0.679 -34.040  1.00  0.00     0.040 A 
HETATM   32  N   UNL     1      -4.278   0.433 -32.544  1.00  0.00    -0.221 NA
HETATM   33  C   UNL     1      -4.696  -1.721 -33.774  1.00  0.00     0.042 A 
HETATM   34  C   UNL     1      -5.684  -2.457 -34.459  1.00  0.00    -0.052 A 
HETATM   35  C   UNL     1      -6.985  -1.925 -34.583  1.00  0.00     0.010 A 
BRANCH  34  36
HETATM   36  C   UNL     1      -5.310  -3.803 -35.058  1.00  0.00     0.010 C 
HETATM   37  C   UNL     1      -4.400  -4.604 -34.124  1.00  0.00     0.015 C 
HETATM   38  C   UNL     1      -6.553  -4.610 -35.440  1.00  0.00     0.015 C 
ENDBRANCH  34  36
ENDBRANCH   4  27
TORSDOF 9
ENDMDL
MODEL 8
REMARK VINA RESULT:      -9.0      3.478     11.416
REMARK  9 active torsions:
REMARK  status: ('A' for Active; 'I' for Inactive)
REMARK    1  A    between atoms: C_6  and  O_7 
REMARK    2  A    between atoms: O_7  and  C_8 
REMARK    3  A    between atoms: C_8  and  C_9 
REMARK       I    between atoms: C_9  and  N_10 
REMARK    4  A    between atoms: N_10  and  C_11 
REMARK    5  A    between atoms: C_11  and  N_12 
REMARK    6  A    between atoms: N_12  and  C_13 
REMARK    7  A    between atoms: C_15  and  O_16 
REMARK    8  A    between atoms: C_17  and  C_18 
REMARK    9  A    between atoms: C_25  and  C_26 
ROOT
HETATM    1  C   UNL     1      -5.977   4.969 -29.312  1.00  0.00     0.036 A 
HETATM    2  C   UNL     1      -4.908   4.686 -30.159  1.00  0.00     0.067 A 
HETATM    3  C   UNL     1      -4.923   3.554 -30.981  1.00  0.00     0.082 A 
HETATM    4  C   UNL     1      -6.016   2.680 -30.999  1.00  0.00     0.050 A 
HETATM    5  C   UNL     1      -7.119   3.002 -30.195  1.00  0.00     0.021 A 
HETATM    6  C   UNL     1      -7.100   4.134 -29.366  1.00  0.00     0.030 A 
ENDROOT
BRANCH   1   7
HETATM    7  N   UNL     1      -6.025   6.057 -28.411  1.00  0.00    -0.333 N 
HETATM    8  H   UNL     1      -5.672   5.852 -27.474  1.00  0.00     0.168 HD
BRANCH   7   9
HETATM    9  C   UNL     1      -6.365   7.379 -28.582  1.00  0.00     0.178 C 
HETATM   10  S   UNL     1      -7.827   8.159 -28.350  1.00  0.00    -0.040 SA
BRANCH   9  11
HETATM   11  N   UNL     1      -5.348   8.190 -29.050  1.00  0.00    -0.302 N 
HETATM   12  C   UNL     1      -5.009   8.570 -30.342  1.00  0.00     0.248 C 
HETATM   13  O   UNL     1      -5.559   8.116 -31.344  1.00  0.00    -0.271 OA
HETATM   14  H   UNL     1      -4.833   8.628 -28.299  1.00  0.00     0.171 HD
BRANCH  12  15
HETATM   15  C   UNL     1      -3.828   9.546 -30.405  1.00  0.00     0.278 C 
BRANCH  15  16
HETATM   16  O   UNL     1      -3.043   9.373 -31.586  1.00  0.00    -0.342 OA
BRANCH  16  17
HETATM   17  C   UNL     1      -2.076   8.408 -31.518  1.00  0.00     0.069 A 
HETATM   18  C   UNL     1      -1.386   8.312 -30.310  1.00  0.00     0.044 A 
HETATM   19  C   UNL     1      -0.430   7.306 -30.103  1.00  0.00    -0.053 A 
HETATM   20  C   UNL     1      -0.141   6.410 -31.151  1.00  0.00    -0.056 A 
HETATM   21  C   UNL     1       0.222   7.179 -28.752  1.00  0.00     0.049 C 
HETATM   22  C   UNL     1       0.865   5.305 -30.981  1.00  0.00     0.049 C 
HETATM   23  C   UNL     1      -0.792   6.567 -32.387  1.00  0.00     0.010 A 
HETATM   24  C   UNL     1      -1.753   7.562 -32.572  1.00  0.00     0.037 A 
ENDBRANCH  16  17
ENDBRANCH  15  16
ENDBRANCH  12  15
ENDBRANCH   9  11
ENDBRANCH   7   9
ENDBRANCH   1   7
BRANCH   3  25
HETATM   25  O   UNL     1      -3.850   3.329 -31.803  1.00  0.00    -0.360 OA
HETATM   26  H   UNL     1      -3.490   4.179 -32.107  1.00  0.00     0.217 HD
ENDBRANCH   3  25
BRANCH   4  27
HETATM   27  C   UNL     1      -5.997   1.458 -31.795  1.00  0.00     0.183 A 
HETATM   28  O   UNL     1      -7.180   1.098 -32.398  1.00  0.00    -0.289 OA
HETATM   29  C   UNL     1      -6.863  -0.040 -33.086  1.00  0.00     0.106 A 
HETATM   30  C   UNL     1      -5.531  -0.321 -32.846  1.00  0.00     0.094 A 
HETATM   31  C   UNL     1      -7.693  -0.802 -33.894  1.00  0.00     0.040 A 
HETATM   32  N   UNL     1      -4.995   0.623 -32.016  1.00  0.00    -0.221 NA
HETATM   33  C   UNL     1      -4.951  -1.448 -33.442  1.00  0.00     0.042 A 
HETATM   34  C   UNL     1      -5.745  -2.260 -34.279  1.00  0.00    -0.052 A 
HETATM   35  C   UNL     1      -7.098  -1.925 -34.492  1.00  0.00     0.010 A 
BRANCH  34  36
HETATM   36  C   UNL     1      -5.107  -3.474 -34.937  1.00  0.00     0.010 C 
HETATM   37  C   UNL     1      -4.048  -4.114 -34.038  1.00  0.00     0.015 C 
HETATM   38  C   UNL     1      -6.162  -4.499 -35.360  1.00  0.00     0.015 C 
ENDBRANCH  34  36
ENDBRANCH   4  27
TORSDOF 9
ENDMDL
MODEL 9
REMARK VINA RESULT:      -9.0      3.374     11.564
REMARK  9 active torsions:
REMARK  status: ('A' for Active; 'I' for Inactive)
REMARK    1  A    between atoms: C_6  and  O_7 
REMARK    2  A    between atoms: O_7  and  C_8 
REMARK    3  A    between atoms: C_8  and  C_9 
REMARK       I    between atoms: C_9  and  N_10 
REMARK    4  A    between atoms: N_10  and  C_11 
REMARK    5  A    between atoms: C_11  and  N_12 
REMARK    6  A    between atoms: N_12  and  C_13 
REMARK    7  A    between atoms: C_15  and  O_16 
REMARK    8  A    between atoms: C_17  and  C_18 
REMARK    9  A    between atoms: C_25  and  C_26 
ROOT
HETATM    1  C   UNL     1      -6.615   4.982 -29.022  1.00  0.00     0.036 A 
HETATM    2  C   UNL     1      -5.386   4.544 -29.511  1.00  0.00     0.067 A 
HETATM    3  C   UNL     1      -5.312   3.478 -30.414  1.00  0.00     0.082 A 
HETATM    4  C   UNL     1      -6.464   2.830 -30.874  1.00  0.00     0.050 A 
HETATM    5  C   UNL     1      -7.703   3.315 -30.433  1.00  0.00     0.021 A 
HETATM    6  C   UNL     1      -7.776   4.380 -29.522  1.00  0.00     0.030 A 
ENDROOT
BRANCH   1   7
HETATM    7  N   UNL     1      -6.782   6.013 -28.070  1.00  0.00    -0.333 N 
HETATM    8  H   UNL     1      -6.888   5.691 -27.106  1.00  0.00     0.168 HD
BRANCH   7   9
HETATM    9  C   UNL     1      -6.727   7.384 -28.178  1.00  0.00     0.178 C 
HETATM   10  S   UNL     1      -7.943   8.494 -28.474  1.00  0.00    -0.040 SA
BRANCH   9  11
HETATM   11  N   UNL     1      -5.464   7.932 -28.054  1.00  0.00    -0.302 N 
HETATM   12  C   UNL     1      -4.576   7.937 -26.986  1.00  0.00     0.248 C 
HETATM   13  O   UNL     1      -4.860   7.499 -25.872  1.00  0.00    -0.271 OA
HETATM   14  H   UNL     1      -5.126   8.315 -28.926  1.00  0.00     0.171 HD
BRANCH  12  15
HETATM   15  C   UNL     1      -3.238   8.615 -27.303  1.00  0.00     0.278 C 
BRANCH  15  16
HETATM   16  O   UNL     1      -2.123   7.883 -26.790  1.00  0.00    -0.342 OA
BRANCH  16  17
HETATM   17  C   UNL     1      -1.388   7.200 -27.719  1.00  0.00     0.069 A 
HETATM   18  C   UNL     1      -1.834   7.281 -29.039  1.00  0.00     0.044 A 
HETATM   19  C   UNL     1      -1.110   6.685 -30.083  1.00  0.00    -0.053 A 
HETATM   20  C   UNL     1       0.060   5.962 -29.780  1.00  0.00    -0.056 A 
HETATM   21  C   UNL     1      -1.575   6.877 -31.502  1.00  0.00     0.049 C 
HETATM   22  C   UNL     1       0.882   5.314 -30.860  1.00  0.00     0.049 C 
HETATM   23  C   UNL     1       0.455   5.828 -28.438  1.00  0.00     0.010 A 
HETATM   24  C   UNL     1      -0.265   6.442 -27.411  1.00  0.00     0.037 A 
ENDBRANCH  16  17
ENDBRANCH  15  16
ENDBRANCH  12  15
ENDBRANCH   9  11
ENDBRANCH   7   9
ENDBRANCH   1   7
BRANCH   3  25
HETATM   25  O   UNL     1      -4.078   3.094 -30.872  1.00  0.00    -0.360 OA
HETATM   26  H   UNL     1      -3.439   3.810 -30.722  1.00  0.00     0.217 HD
ENDBRANCH   3  25
BRANCH   4  27
HETATM   27  C   UNL     1      -6.380   1.668 -31.753  1.00  0.00     0.183 A 
HETATM   28  O   UNL     1      -7.291   1.608 -32.783  1.00  0.00    -0.289 OA
HETATM   29  C   UNL     1      -6.963   0.457 -33.442  1.00  0.00     0.106 A 
HETATM   30  C   UNL     1      -5.905  -0.127 -32.771  1.00  0.00     0.094 A 
HETATM   31  C   UNL     1      -7.554  -0.065 -34.583  1.00  0.00     0.040 A 
HETATM   32  N   UNL     1      -5.553   0.638 -31.695  1.00  0.00    -0.221 NA
HETATM   33  C   UNL     1      -5.372  -1.331 -33.250  1.00  0.00     0.042 A 
HETATM   34  C   UNL     1      -5.929  -1.909 -34.410  1.00  0.00    -0.052 A 
HETATM   35  C   UNL     1      -7.007  -1.268 -35.057  1.00  0.00     0.010 A 
BRANCH  34  36
HETATM   36  C   UNL     1      -5.338  -3.208 -34.935  1.00  0.00     0.010 C 
HETATM   37  C   UNL     1      -4.200  -3.712 -34.046  1.00  0.00     0.015 C 
HETATM   38  C   UNL     1      -6.415  -4.281 -35.112  1.00  0.00     0.015 C 
ENDBRANCH  34  36
ENDBRANCH   4  27
TORSDOF 9
ENDMDL
MODEL 10
REMARK VINA RESULT:      -9.0      2.812      4.856
REMARK  9 active torsions:
REMARK  status: ('A' for Active; 'I' for Inactive)
REMARK    1  A    between atoms: C_6  and  O_7 
REMARK    2  A    between atoms: O_7  and  C_8 
REMARK    3  A    between atoms: C_8  and  C_9 
REMARK       I    between atoms: C_9  and  N_10 
REMARK    4  A    between atoms: N_10  and  C_11 
REMARK    5  A    between atoms: C_11  and  N_12 
REMARK    6  A    between atoms: N_12  and  C_13 
REMARK    7  A    between atoms: C_15  and  O_16 
REMARK    8  A    between atoms: C_17  and  C_18 
REMARK    9  A    between atoms: C_25  and  C_26 
ROOT
HETATM    1  C   UNL     1      -7.025   4.583 -33.137  1.00  0.00     0.036 A 
HETATM    2  C   UNL     1      -5.953   5.110 -33.855  1.00  0.00     0.067 A 
HETATM    3  C   UNL     1      -4.794   5.540 -33.200  1.00  0.00     0.082 A 
HETATM    4  C   UNL     1      -4.660   5.438 -31.811  1.00  0.00     0.050 A 
HETATM    5  C   UNL     1      -5.712   4.846 -31.097  1.00  0.00     0.021 A 
HETATM    6  C   UNL     1      -6.878   4.421 -31.754  1.00  0.00     0.030 A 
ENDROOT
BRANCH   1   7
HETATM    7  N   UNL     1      -8.252   4.174 -33.707  1.00  0.00    -0.333 N 
HETATM    8  H   UNL     1      -8.417   4.514 -34.657  1.00  0.00     0.168 HD
BRANCH   7   9
HETATM    9  C   UNL     1      -9.232   3.315 -33.264  1.00  0.00     0.178 C 
HETATM   10  S   UNL     1     -10.789   3.628 -32.740  1.00  0.00    -0.040 SA
BRANCH   9  11
HETATM   11  N   UNL     1      -8.864   1.983 -33.214  1.00  0.00    -0.302 N 
HETATM   12  C   UNL     1      -7.953   1.262 -33.974  1.00  0.00     0.248 C 
HETATM   13  O   UNL     1      -7.368   1.731 -34.949  1.00  0.00    -0.271 OA
HETATM   14  H   UNL     1      -9.285   1.499 -32.433  1.00  0.00     0.171 HD
BRANCH  12  15
HETATM   15  C   UNL     1      -7.807  -0.200 -33.535  1.00  0.00     0.278 C 
BRANCH  15  16
HETATM   16  O   UNL     1      -7.578  -1.079 -34.639  1.00  0.00    -0.342 OA
BRANCH  16  17
HETATM   17  C   UNL     1      -6.571  -1.988 -34.471  1.00  0.00     0.069 A 
HETATM   18  C   UNL     1      -5.487  -1.571 -33.698  1.00  0.00     0.044 A 
HETATM   19  C   UNL     1      -4.436  -2.450 -33.395  1.00  0.00    -0.053 A 
HETATM   20  C   UNL     1      -4.464  -3.757 -33.919  1.00  0.00    -0.056 A 
HETATM   21  C   UNL     1      -3.334  -1.989 -32.480  1.00  0.00     0.049 C 
HETATM   22  C   UNL     1      -3.371  -4.745 -33.617  1.00  0.00     0.049 C 
HETATM   23  C   UNL     1      -5.526  -4.138 -34.757  1.00  0.00     0.010 A 
HETATM   24  C   UNL     1      -6.574  -3.258 -35.034  1.00  0.00     0.037 A 
ENDBRANCH  16  17
ENDBRANCH  15  16
ENDBRANCH  12  15
ENDBRANCH   9  11
ENDBRANCH   7   9
ENDBRANCH   1   7
BRANCH   3  25
HETATM   25  O   UNL     1      -3.765   6.040 -33.955  1.00  0.00    -0.360 OA
HETATM   26  H   UNL     1      -3.016   5.423 -33.933  1.00  0.00     0.217 HD
ENDBRANCH   3  25
BRANCH   4  27
HETATM   27  C   UNL     1      -3.484   5.960 -31.122  1.00  0.00     0.183 A 
HETATM   28  O   UNL     1      -2.260   5.564 -31.608  1.00  0.00    -0.289 OA
HETATM   29  C   UNL     1      -1.365   6.217 -30.808  1.00  0.00     0.106 A 
HETATM   30  C   UNL     1      -2.083   6.943 -29.875  1.00  0.00     0.094 A 
HETATM   31  C   UNL     1       0.020   6.190 -30.885  1.00  0.00     0.040 A 
HETATM   32  N   UNL     1      -3.422   6.762 -30.072  1.00  0.00    -0.221 NA
HETATM   33  C   UNL     1      -1.393   7.711 -28.928  1.00  0.00     0.042 A 
HETATM   34  C   UNL     1       0.017   7.726 -28.959  1.00  0.00    -0.052 A 
HETATM   35  C   UNL     1       0.699   6.970 -29.934  1.00  0.00     0.010 A 
BRANCH  34  36
HETATM   36  C   UNL     1       0.760   8.574 -27.939  1.00  0.00     0.010 C 
HETATM   37  C   UNL     1      -0.172   9.566 -27.239  1.00  0.00     0.015 C 
HETATM   38  C   UNL     1       1.500   7.702 -26.921  1.00  0.00     0.015 C 
ENDBRANCH  34  36
ENDBRANCH   4  27
TORSDOF 9
ENDMDL
