MODEL 1
REMARK VINA RESULT:     -10.0      0.000      0.000
REMARK  6 active torsions:
REMARK  status: ('A' for Active; 'I' for Inactive)
REMARK    1  A    between atoms: C_4  and  N_5 
REMARK    2  A    between atoms: N_8  and  C_10 
REMARK    3  A    between atoms: C_10  and  C_11 
REMARK    4  A    between atoms: C_14  and  C_15 
REMARK    5  A    between atoms: C_15  and  N_16 
REMARK       I    between atoms: N_16  and  C_17 
REMARK    6  A    between atoms: C_17  and  C_18 
ROOT
HETATM    1  C   UNL     1      -8.685   2.399 -30.959  1.00  0.00     0.041 C 
HETATM    2  C   UNL     1      -9.530   3.462 -31.714  1.00  0.00    -0.004 C 
HETATM    3  C   UNL     1      -8.859   3.833 -33.058  1.00  0.00     0.040 C 
HETATM    4  C   UNL     1      -7.442   4.413 -32.832  1.00  0.00     0.206 C 
HETATM    5  N   UNL     1      -7.213   4.371 -31.326  1.00  0.00    -0.065 N 
HETATM    6  H   UNL     1      -6.234   4.706 -31.166  1.00  0.00     0.280 HD
HETATM    7  C   UNL     1      -7.277   2.997 -30.713  1.00  0.00     0.242 C 
HETATM    8  C   UNL     1      -9.577   4.749 -30.848  1.00  0.00     0.032 C 
HETATM    9  C   UNL     1      -8.168   5.308 -30.624  1.00  0.00     0.236 C 
ENDROOT
BRANCH   1  10
HETATM   10  C   UNL     1      -8.517   1.011 -31.616  1.00  0.00     0.241 C 
BRANCH  10  11
HETATM   11  N   UNL     1      -7.359   0.907 -32.584  1.00  0.00    -0.068 N 
HETATM   12  C   UNL     1      -6.177   0.059 -32.064  1.00  0.00     0.254 C 
HETATM   13  C   UNL     1      -5.065  -0.048 -33.129  1.00  0.00     0.150 C 
HETATM   14  N   UNL     1      -5.610  -0.648 -34.360  1.00  0.00    -0.378 N 
HETATM   15  C   UNL     1      -6.710   0.131 -34.949  1.00  0.00     0.150 C 
HETATM   16  C   UNL     1      -7.860   0.313 -33.938  1.00  0.00     0.254 C 
HETATM   17  H   UNL     1      -6.988   1.838 -32.818  1.00  0.00     0.280 HD
BRANCH  14  18
HETATM   18  C   UNL     1      -5.605  -2.046 -34.436  1.00  0.00     0.030 A 
HETATM   19  C   UNL     1      -6.726  -2.808 -34.809  1.00  0.00     0.029 A 
HETATM   20  C   UNL     1      -6.686  -4.208 -34.852  1.00  0.00     0.002 A 
HETATM   21  C   UNL     1      -5.514  -4.887 -34.546  1.00  0.00     0.000 A 
HETATM   22  C   UNL     1      -4.377  -4.163 -34.217  1.00  0.00     0.002 A 
HETATM   23  C   UNL     1      -4.425  -2.765 -34.171  1.00  0.00     0.029 A 
ENDBRANCH  14  18
ENDBRANCH  10  11
ENDBRANCH   1  10
BRANCH   4  24
HETATM   24  C   UNL     1      -6.369   3.651 -33.658  1.00  0.00     0.156 C 
BRANCH  24  25
HETATM   25  N   UNL     1      -4.961   3.904 -33.376  1.00  0.00    -0.355 N 
HETATM   26  C   UNL     1      -4.192   4.808 -34.082  1.00  0.00     0.251 C 
HETATM   27  O   UNL     1      -4.514   5.178 -35.209  1.00  0.00    -0.268 OA
HETATM   28  H   UNL     1      -4.692   3.755 -32.409  1.00  0.00     0.162 HD
BRANCH  26  29
HETATM   29  C   UNL     1      -3.007   5.398 -33.401  1.00  0.00     0.034 A 
HETATM   30  C   UNL     1      -2.412   4.636 -32.383  1.00  0.00     0.056 A 
HETATM   31  C   UNL     1      -1.261   5.121 -31.800  1.00  0.00     0.106 A 
HETATM   32  C   UNL     1      -0.705   6.317 -32.180  1.00  0.00     0.105 A 
HETATM   33  O   UNL     1      -0.545   4.499 -30.827  1.00  0.00    -0.323 OA
HETATM   34  O   UNL     1       0.433   6.598 -31.495  1.00  0.00    -0.323 OA
HETATM   35  C   UNL     1      -1.276   7.103 -33.156  1.00  0.00     0.041 A 
HETATM   36  C   UNL     1       0.526   5.448 -30.626  1.00  0.00     0.352 A 
HETATM   37  C   UNL     1      -2.447   6.642 -33.772  1.00  0.00     0.020 A 
ENDBRANCH  26  29
ENDBRANCH  24  25
ENDBRANCH   4  24
TORSDOF 6
ENDMDL
MODEL 2
REMARK VINA RESULT:      -9.9      2.799      7.164
REMARK  6 active torsions:
REMARK  status: ('A' for Active; 'I' for Inactive)
REMARK    1  A    between atoms: C_4  and  N_5 
REMARK    2  A    between atoms: N_8  and  C_10 
REMARK    3  A    between atoms: C_10  and  C_11 
REMARK    4  A    between atoms: C_14  and  C_15 
REMARK    5  A    between atoms: C_15  and  N_16 
REMARK       I    between atoms: N_16  and  C_17 
REMARK    6  A    between atoms: C_17  and  C_18 
ROOT
HETATM    1  C   UNL     1      -4.441   5.983 -33.412  1.00  0.00     0.041 C 
HETATM    2  C   UNL     1      -3.064   5.738 -34.089  1.00  0.00    -0.004 C 
HETATM    3  C   UNL     1      -2.497   4.358 -33.682  1.00  0.00     0.040 C 
HETATM    4  C   UNL     1      -2.306   4.264 -32.149  1.00  0.00     0.206 C 
HETATM    5  N   UNL     1      -2.793   5.595 -31.589  1.00  0.00    -0.065 N 
HETATM    6  H   UNL     1      -2.724   5.521 -30.546  1.00  0.00     0.280 HD
HETATM    7  C   UNL     1      -4.236   5.914 -31.878  1.00  0.00     0.242 C 
HETATM    8  C   UNL     1      -2.073   6.817 -33.575  1.00  0.00     0.032 C 
HETATM    9  C   UNL     1      -1.899   6.720 -32.056  1.00  0.00     0.236 C 
ENDROOT
BRANCH   1  10
HETATM   10  C   UNL     1      -5.608   5.044 -33.791  1.00  0.00     0.241 C 
BRANCH  10  11
HETATM   11  N   UNL     1      -6.694   4.935 -32.744  1.00  0.00    -0.068 N 
HETATM   12  C   UNL     1      -8.117   5.208 -33.282  1.00  0.00     0.254 C 
HETATM   13  C   UNL     1      -9.171   5.020 -32.171  1.00  0.00     0.150 C 
HETATM   14  N   UNL     1      -9.092   3.648 -31.636  1.00  0.00    -0.378 N 
HETATM   15  C   UNL     1      -7.780   3.325 -31.057  1.00  0.00     0.150 C 
HETATM   16  C   UNL     1      -6.656   3.515 -32.095  1.00  0.00     0.254 C 
HETATM   17  H   UNL     1      -6.529   5.591 -31.969  1.00  0.00     0.280 HD
BRANCH  14  18
HETATM   18  C   UNL     1      -9.840   2.669 -32.302  1.00  0.00     0.030 A 
HETATM   19  C   UNL     1      -9.470   1.314 -32.359  1.00  0.00     0.029 A 
HETATM   20  C   UNL     1     -10.235   0.368 -33.054  1.00  0.00     0.002 A 
HETATM   21  C   UNL     1     -11.410   0.747 -33.691  1.00  0.00     0.000 A 
HETATM   22  C   UNL     1     -11.827   2.067 -33.616  1.00  0.00     0.002 A 
HETATM   23  C   UNL     1     -11.056   3.008 -32.924  1.00  0.00     0.029 A 
ENDBRANCH  14  18
ENDBRANCH  10  11
ENDBRANCH   1  10
BRANCH   4  24
HETATM   24  C   UNL     1      -3.027   3.023 -31.553  1.00  0.00     0.156 C 
BRANCH  24  25
HETATM   25  N   UNL     1      -3.427   1.950 -32.454  1.00  0.00    -0.355 N 
HETATM   26  C   UNL     1      -3.583   0.637 -32.056  1.00  0.00     0.251 C 
HETATM   27  O   UNL     1      -3.047   0.211 -31.035  1.00  0.00    -0.268 OA
HETATM   28  H   UNL     1      -4.007   2.247 -33.233  1.00  0.00     0.162 HD
BRANCH  26  29
HETATM   29  C   UNL     1      -4.500  -0.229 -32.847  1.00  0.00     0.034 A 
HETATM   30  C   UNL     1      -3.977  -1.443 -33.322  1.00  0.00     0.056 A 
HETATM   31  C   UNL     1      -4.831  -2.302 -33.980  1.00  0.00     0.106 A 
HETATM   32  C   UNL     1      -6.153  -1.994 -34.184  1.00  0.00     0.105 A 
HETATM   33  O   UNL     1      -4.498  -3.523 -34.475  1.00  0.00    -0.323 OA
HETATM   34  O   UNL     1      -6.820  -2.983 -34.834  1.00  0.00    -0.323 OA
HETATM   35  C   UNL     1      -6.693  -0.801 -33.755  1.00  0.00     0.041 A 
HETATM   36  C   UNL     1      -5.763  -3.948 -35.029  1.00  0.00     0.352 A 
HETATM   37  C   UNL     1      -5.854   0.097 -33.082  1.00  0.00     0.020 A 
ENDBRANCH  26  29
ENDBRANCH  24  25
ENDBRANCH   4  24
TORSDOF 6
ENDMDL
MODEL 3
REMARK VINA RESULT:      -9.8      2.861      8.224
REMARK  6 active torsions:
REMARK  status: ('A' for Active; 'I' for Inactive)
REMARK    1  A    between atoms: C_4  and  N_5 
REMARK    2  A    between atoms: N_8  and  C_10 
REMARK    3  A    between atoms: C_10  and  C_11 
REMARK    4  A    between atoms: C_14  and  C_15 
REMARK    5  A    between atoms: C_15  and  N_16 
REMARK       I    between atoms: N_16  and  C_17 
REMARK    6  A    between atoms: C_17  and  C_18 
ROOT
HETATM    1  C   UNL     1      -5.625   5.143 -31.652  1.00  0.00     0.041 C 
HETATM    2  C   UNL     1      -5.375   4.056 -30.570  1.00  0.00    -0.004 C 
HETATM    3  C   UNL     1      -6.083   2.735 -30.953  1.00  0.00     0.040 C 
HETATM    4  C   UNL     1      -7.612   2.942 -31.087  1.00  0.00     0.206 C 
HETATM    5  N   UNL     1      -7.855   4.421 -30.816  1.00  0.00    -0.065 N 
HETATM    6  H   UNL     1      -8.879   4.585 -30.962  1.00  0.00     0.280 HD
HETATM    7  C   UNL     1      -7.155   5.362 -31.761  1.00  0.00     0.242 C 
HETATM    8  C   UNL     1      -5.998   4.548 -29.237  1.00  0.00     0.032 C 
HETATM    9  C   UNL     1      -7.509   4.757 -29.384  1.00  0.00     0.236 C 
ENDROOT
BRANCH   1  10
HETATM   10  C   UNL     1      -5.067   4.891 -33.071  1.00  0.00     0.241 C 
BRANCH  10  11
HETATM   11  N   UNL     1      -3.783   5.626 -33.384  1.00  0.00    -0.068 N 
HETATM   12  C   UNL     1      -3.496   6.821 -32.448  1.00  0.00     0.254 C 
HETATM   13  C   UNL     1      -2.144   7.480 -32.793  1.00  0.00     0.150 C 
HETATM   14  N   UNL     1      -1.062   6.485 -32.681  1.00  0.00    -0.378 N 
HETATM   15  C   UNL     1      -1.235   5.335 -33.581  1.00  0.00     0.150 C 
HETATM   16  C   UNL     1      -2.582   4.630 -33.325  1.00  0.00     0.254 C 
HETATM   17  H   UNL     1      -3.788   5.986 -34.348  1.00  0.00     0.280 HD
BRANCH  14  18
HETATM   18  C   UNL     1      -0.486   6.321 -31.415  1.00  0.00     0.030 A 
HETATM   19  C   UNL     1       0.096   5.119 -30.976  1.00  0.00     0.029 A 
HETATM   20  C   UNL     1       0.643   4.989 -29.692  1.00  0.00     0.002 A 
HETATM   21  C   UNL     1       0.647   6.068 -28.818  1.00  0.00     0.000 A 
HETATM   22  C   UNL     1       0.121   7.282 -29.237  1.00  0.00     0.002 A 
HETATM   23  C   UNL     1      -0.429   7.403 -30.518  1.00  0.00     0.029 A 
ENDBRANCH  14  18
ENDBRANCH  10  11
ENDBRANCH   1  10
BRANCH   4  24
HETATM   24  C   UNL     1      -8.141   2.454 -32.465  1.00  0.00     0.156 C 
BRANCH  24  25
HETATM   25  N   UNL     1      -7.801   1.106 -32.905  1.00  0.00    -0.355 N 
HETATM   26  C   UNL     1      -6.969   0.840 -33.974  1.00  0.00     0.251 C 
HETATM   27  O   UNL     1      -6.760   1.681 -34.846  1.00  0.00    -0.268 OA
HETATM   28  H   UNL     1      -7.814   0.407 -32.169  1.00  0.00     0.162 HD
BRANCH  26  29
HETATM   29  C   UNL     1      -6.251  -0.465 -33.993  1.00  0.00     0.034 A 
HETATM   30  C   UNL     1      -6.970  -1.580 -34.451  1.00  0.00     0.056 A 
HETATM   31  C   UNL     1      -6.302  -2.781 -34.563  1.00  0.00     0.106 A 
HETATM   32  C   UNL     1      -4.976  -2.904 -34.229  1.00  0.00     0.105 A 
HETATM   33  O   UNL     1      -6.837  -3.944 -35.015  1.00  0.00    -0.323 OA
HETATM   34  O   UNL     1      -4.509  -4.163 -34.430  1.00  0.00    -0.323 OA
HETATM   35  C   UNL     1      -4.247  -1.838 -33.750  1.00  0.00     0.041 A 
HETATM   36  C   UNL     1      -5.696  -4.826 -34.918  1.00  0.00     0.352 A 
HETATM   37  C   UNL     1      -4.894  -0.602 -33.624  1.00  0.00     0.020 A 
ENDBRANCH  26  29
ENDBRANCH  24  25
ENDBRANCH   4  24
TORSDOF 6
ENDMDL
MODEL 4
REMARK VINA RESULT:      -9.7      2.785      7.699
REMARK  6 active torsions:
REMARK  status: ('A' for Active; 'I' for Inactive)
REMARK    1  A    between atoms: C_4  and  N_5 
REMARK    2  A    between atoms: N_8  and  C_10 
REMARK    3  A    between atoms: C_10  and  C_11 
REMARK    4  A    between atoms: C_14  and  C_15 
REMARK    5  A    between atoms: C_15  and  N_16 
REMARK       I    between atoms: N_16  and  C_17 
REMARK    6  A    between atoms: C_17  and  C_18 
ROOT
HETATM    1  C   UNL     1      -8.578   4.976 -31.907  1.00  0.00     0.041 C 
HETATM    2  C   UNL     1      -9.548   4.366 -30.858  1.00  0.00    -0.004 C 
HETATM    3  C   UNL     1      -9.079   2.952 -30.442  1.00  0.00     0.040 C 
HETATM    4  C   UNL     1      -9.026   2.001 -31.662  1.00  0.00     0.206 C 
HETATM    5  N   UNL     1      -9.437   2.845 -32.863  1.00  0.00    -0.065 N 
HETATM    6  H   UNL     1      -9.347   2.227 -33.704  1.00  0.00     0.280 HD
HETATM    7  C   UNL     1      -8.550   4.032 -33.136  1.00  0.00     0.242 C 
HETATM    8  C   UNL     1     -10.944   4.216 -31.519  1.00  0.00     0.032 C 
HETATM    9  C   UNL     1     -10.877   3.280 -32.731  1.00  0.00     0.236 C 
ENDROOT
BRANCH   1  10
HETATM   10  C   UNL     1      -7.121   5.248 -31.470  1.00  0.00     0.241 C 
BRANCH  10  11
HETATM   11  N   UNL     1      -6.068   4.713 -32.415  1.00  0.00    -0.068 N 
HETATM   12  C   UNL     1      -5.326   5.806 -33.217  1.00  0.00     0.254 C 
HETATM   13  C   UNL     1      -4.232   5.187 -34.111  1.00  0.00     0.150 C 
HETATM   14  N   UNL     1      -3.273   4.437 -33.279  1.00  0.00    -0.378 N 
HETATM   15  C   UNL     1      -3.895   3.341 -32.520  1.00  0.00     0.150 C 
HETATM   16  C   UNL     1      -5.027   3.868 -31.616  1.00  0.00     0.254 C 
HETATM   17  H   UNL     1      -6.479   4.061 -33.097  1.00  0.00     0.280 HD
BRANCH  14  18
HETATM   18  C   UNL     1      -2.206   5.164 -32.737  1.00  0.00     0.030 A 
HETATM   19  C   UNL     1      -1.504   4.772 -31.584  1.00  0.00     0.029 A 
HETATM   20  C   UNL     1      -0.454   5.539 -31.062  1.00  0.00     0.002 A 
HETATM   21  C   UNL     1      -0.058   6.710 -31.695  1.00  0.00     0.000 A 
HETATM   22  C   UNL     1      -0.701   7.102 -32.860  1.00  0.00     0.002 A 
HETATM   23  C   UNL     1      -1.752   6.334 -33.373  1.00  0.00     0.029 A 
ENDBRANCH  14  18
ENDBRANCH  10  11
ENDBRANCH   1  10
BRANCH   4  24
HETATM   24  C   UNL     1      -7.634   1.327 -31.807  1.00  0.00     0.156 C 
BRANCH  24  25
HETATM   25  N   UNL     1      -7.529   0.106 -32.597  1.00  0.00    -0.355 N 
HETATM   26  C   UNL     1      -6.654  -0.046 -33.655  1.00  0.00     0.251 C 
HETATM   27  O   UNL     1      -6.181   0.927 -34.238  1.00  0.00    -0.268 OA
HETATM   28  H   UNL     1      -7.766  -0.744 -32.094  1.00  0.00     0.162 HD
BRANCH  26  29
HETATM   29  C   UNL     1      -6.220  -1.425 -34.010  1.00  0.00     0.034 A 
HETATM   30  C   UNL     1      -4.963  -1.838 -33.540  1.00  0.00     0.056 A 
HETATM   31  C   UNL     1      -4.578  -3.140 -33.779  1.00  0.00     0.106 A 
HETATM   32  C   UNL     1      -5.380  -4.018 -34.465  1.00  0.00     0.105 A 
HETATM   33  O   UNL     1      -3.413  -3.708 -33.371  1.00  0.00    -0.323 OA
HETATM   34  O   UNL     1      -4.821  -5.251 -34.574  1.00  0.00    -0.323 OA
HETATM   35  C   UNL     1      -6.607  -3.640 -34.963  1.00  0.00     0.041 A 
HETATM   36  C   UNL     1      -3.566  -5.048 -33.889  1.00  0.00     0.352 A 
HETATM   37  C   UNL     1      -7.032  -2.323 -34.739  1.00  0.00     0.020 A 
ENDBRANCH  26  29
ENDBRANCH  24  25
ENDBRANCH   4  24
TORSDOF 6
ENDMDL
MODEL 5
REMARK VINA RESULT:      -9.6      3.730      5.750
REMARK  6 active torsions:
REMARK  status: ('A' for Active; 'I' for Inactive)
REMARK    1  A    between atoms: C_4  and  N_5 
REMARK    2  A    between atoms: N_8  and  C_10 
REMARK    3  A    between atoms: C_10  and  C_11 
REMARK    4  A    between atoms: C_14  and  C_15 
REMARK    5  A    between atoms: C_15  and  N_16 
REMARK       I    between atoms: N_16  and  C_17 
REMARK    6  A    between atoms: C_17  and  C_18 
ROOT
HETATM    1  C   UNL     1      -4.016   4.305 -32.832  1.00  0.00     0.041 C 
HETATM    2  C   UNL     1      -2.479   4.169 -33.006  1.00  0.00    -0.004 C 
HETATM    3  C   UNL     1      -1.736   4.886 -31.854  1.00  0.00     0.040 C 
HETATM    4  C   UNL     1      -2.086   6.393 -31.819  1.00  0.00     0.206 C 
HETATM    5  N   UNL     1      -3.089   6.612 -32.945  1.00  0.00    -0.065 N 
HETATM    6  H   UNL     1      -3.379   7.617 -32.893  1.00  0.00     0.280 HD
HETATM    7  C   UNL     1      -4.362   5.815 -32.823  1.00  0.00     0.242 C 
HETATM    8  C   UNL     1      -2.077   4.874 -34.329  1.00  0.00     0.032 C 
HETATM    9  C   UNL     1      -2.436   6.362 -34.285  1.00  0.00     0.236 C 
ENDROOT
BRANCH   1  10
HETATM   10  C   UNL     1      -4.663   3.651 -31.590  1.00  0.00     0.241 C 
BRANCH  10  11
HETATM   11  N   UNL     1      -5.851   2.765 -31.890  1.00  0.00    -0.068 N 
HETATM   12  C   UNL     1      -5.977   2.361 -33.375  1.00  0.00     0.254 C 
HETATM   13  C   UNL     1      -7.175   1.412 -33.589  1.00  0.00     0.150 C 
HETATM   14  N   UNL     1      -7.013   0.208 -32.753  1.00  0.00    -0.378 N 
HETATM   15  C   UNL     1      -6.937   0.505 -31.315  1.00  0.00     0.150 C 
HETATM   16  C   UNL     1      -5.778   1.476 -31.012  1.00  0.00     0.254 C 
HETATM   17  H   UNL     1      -6.733   3.224 -31.622  1.00  0.00     0.280 HD
BRANCH  14  18
HETATM   18  C   UNL     1      -6.276  -0.847 -33.304  1.00  0.00     0.030 A 
HETATM   19  C   UNL     1      -4.968  -1.173 -32.904  1.00  0.00     0.029 A 
HETATM   20  C   UNL     1      -4.255  -2.224 -33.496  1.00  0.00     0.002 A 
HETATM   21  C   UNL     1      -4.841  -2.997 -34.491  1.00  0.00     0.000 A 
HETATM   22  C   UNL     1      -6.146  -2.730 -34.877  1.00  0.00     0.002 A 
HETATM   23  C   UNL     1      -6.850  -1.675 -34.285  1.00  0.00     0.029 A 
ENDBRANCH  14  18
ENDBRANCH  10  11
ENDBRANCH   1  10
BRANCH   4  24
HETATM   24  C   UNL     1      -2.599   6.833 -30.419  1.00  0.00     0.156 C 
BRANCH  24  25
HETATM   25  N   UNL     1      -1.772   7.733 -29.625  1.00  0.00    -0.355 N 
HETATM   26  C   UNL     1      -1.807   7.785 -28.245  1.00  0.00     0.251 C 
HETATM   27  O   UNL     1      -2.775   7.364 -27.615  1.00  0.00    -0.268 OA
HETATM   28  H   UNL     1      -0.886   7.981 -30.054  1.00  0.00     0.162 HD
BRANCH  26  29
HETATM   29  C   UNL     1      -0.595   8.276 -27.533  1.00  0.00     0.034 A 
HETATM   30  C   UNL     1      -0.774   8.746 -26.223  1.00  0.00     0.056 A 
HETATM   31  C   UNL     1       0.345   9.122 -25.511  1.00  0.00     0.106 A 
HETATM   32  C   UNL     1       1.604   9.058 -26.055  1.00  0.00     0.105 A 
HETATM   33  O   UNL     1       0.354   9.569 -24.228  1.00  0.00    -0.323 OA
HETATM   34  O   UNL     1       2.565   9.456 -25.182  1.00  0.00    -0.323 OA
HETATM   35  C   UNL     1       1.814   8.628 -27.347  1.00  0.00     0.041 A 
HETATM   36  C   UNL     1       1.767   9.793 -24.025  1.00  0.00     0.352 A 
HETATM   37  C   UNL     1       0.699   8.237 -28.100  1.00  0.00     0.020 A 
ENDBRANCH  26  29
ENDBRANCH  24  25
ENDBRANCH   4  24
TORSDOF 6
ENDMDL
MODEL 6
REMARK VINA RESULT:      -9.5      4.031      9.868
REMARK  6 active torsions:
REMARK  status: ('A' for Active; 'I' for Inactive)
REMARK    1  A    between atoms: C_4  and  N_5 
REMARK    2  A    between atoms: N_8  and  C_10 
REMARK    3  A    between atoms: C_10  and  C_11 
REMARK    4  A    between atoms: C_14  and  C_15 
REMARK    5  A    between atoms: C_15  and  N_16 
REMARK       I    between atoms: N_16  and  C_17 
REMARK    6  A    between atoms: C_17  and  C_18 
ROOT
HETATM    1  C   UNL     1      -3.196   6.554 -31.956  1.00  0.00     0.041 C 
HETATM    2  C   UNL     1      -3.636   6.111 -33.379  1.00  0.00    -0.004 C 
HETATM    3  C   UNL     1      -4.180   4.663 -33.353  1.00  0.00     0.040 C 
HETATM    4  C   UNL     1      -3.102   3.673 -32.850  1.00  0.00     0.206 C 
HETATM    5  N   UNL     1      -1.879   4.521 -32.525  1.00  0.00    -0.065 N 
HETATM    6  H   UNL     1      -1.163   3.869 -32.127  1.00  0.00     0.280 HD
HETATM    7  C   UNL     1      -2.100   5.574 -31.470  1.00  0.00     0.242 C 
HETATM    8  C   UNL     1      -2.385   6.122 -34.298  1.00  0.00     0.032 C 
HETATM    9  C   UNL     1      -1.323   5.144 -33.784  1.00  0.00     0.236 C 
ENDROOT
BRANCH   1  10
HETATM   10  C   UNL     1      -4.283   6.650 -30.862  1.00  0.00     0.241 C 
BRANCH  10  11
HETATM   11  N   UNL     1      -4.087   7.778 -29.874  1.00  0.00    -0.068 N 
HETATM   12  C   UNL     1      -3.550   7.326 -28.498  1.00  0.00     0.254 C 
HETATM   13  C   UNL     1      -3.321   8.537 -27.570  1.00  0.00     0.150 C 
HETATM   14  N   UNL     1      -2.370   9.472 -28.196  1.00  0.00    -0.378 N 
HETATM   15  C   UNL     1      -2.833   9.992 -29.492  1.00  0.00     0.150 C 
HETATM   16  C   UNL     1      -3.116   8.841 -30.479  1.00  0.00     0.254 C 
HETATM   17  H   UNL     1      -4.969   8.282 -29.708  1.00  0.00     0.280 HD
BRANCH  14  18
HETATM   18  C   UNL     1      -1.009   9.234 -27.968  1.00  0.00     0.030 A 
HETATM   19  C   UNL     1      -0.275   8.231 -28.624  1.00  0.00     0.029 A 
HETATM   20  C   UNL     1       1.082   8.010 -28.351  1.00  0.00     0.002 A 
HETATM   21  C   UNL     1       1.751   8.805 -27.430  1.00  0.00     0.000 A 
HETATM   22  C   UNL     1       1.067   9.833 -26.797  1.00  0.00     0.002 A 
HETATM   23  C   UNL     1      -0.289  10.044 -27.071  1.00  0.00     0.029 A 
ENDBRANCH  14  18
ENDBRANCH  10  11
ENDBRANCH   1  10
BRANCH   4  24
HETATM   24  C   UNL     1      -3.616   2.819 -31.658  1.00  0.00     0.156 C 
BRANCH  24  25
HETATM   25  N   UNL     1      -3.983   1.429 -31.902  1.00  0.00    -0.355 N 
HETATM   26  C   UNL     1      -5.127   1.049 -32.575  1.00  0.00     0.251 C 
HETATM   27  O   UNL     1      -6.087   1.809 -32.684  1.00  0.00    -0.268 OA
HETATM   28  H   UNL     1      -3.196   0.792 -31.972  1.00  0.00     0.162 HD
BRANCH  26  29
HETATM   29  C   UNL     1      -5.131  -0.278 -33.251  1.00  0.00     0.034 A 
HETATM   30  C   UNL     1      -4.191  -1.221 -32.808  1.00  0.00     0.056 A 
HETATM   31  C   UNL     1      -4.233  -2.485 -33.356  1.00  0.00     0.106 A 
HETATM   32  C   UNL     1      -5.153  -2.827 -34.317  1.00  0.00     0.105 A 
HETATM   33  O   UNL     1      -3.420  -3.520 -33.021  1.00  0.00    -0.323 OA
HETATM   34  O   UNL     1      -5.035  -4.122 -34.707  1.00  0.00    -0.323 OA
HETATM   35  C   UNL     1      -6.074  -1.920 -34.794  1.00  0.00     0.041 A 
HETATM   36  C   UNL     1      -3.925  -4.558 -33.892  1.00  0.00     0.352 A 
HETATM   37  C   UNL     1      -6.059  -0.625 -34.259  1.00  0.00     0.020 A 
ENDBRANCH  26  29
ENDBRANCH  24  25
ENDBRANCH   4  24
TORSDOF 6
ENDMDL
MODEL 7
REMARK VINA RESULT:      -9.4      3.001      8.397
REMARK  6 active torsions:
REMARK  status: ('A' for Active; 'I' for Inactive)
REMARK    1  A    between atoms: C_4  and  N_5 
REMARK    2  A    between atoms: N_8  and  C_10 
REMARK    3  A    between atoms: C_10  and  C_11 
REMARK    4  A    between atoms: C_14  and  C_15 
REMARK    5  A    between atoms: C_15  and  N_16 
REMARK       I    between atoms: N_16  and  C_17 
REMARK    6  A    between atoms: C_17  and  C_18 
ROOT
HETATM    1  C   UNL     1      -6.484   5.001 -33.009  1.00  0.00     0.041 C 
HETATM    2  C   UNL     1      -7.812   5.284 -32.253  1.00  0.00    -0.004 C 
HETATM    3  C   UNL     1      -8.251   4.041 -31.443  1.00  0.00     0.040 C 
HETATM    4  C   UNL     1      -8.472   2.821 -32.369  1.00  0.00     0.206 C 
HETATM    5  N   UNL     1      -8.133   3.302 -33.775  1.00  0.00    -0.065 N 
HETATM    6  H   UNL     1      -8.222   2.468 -34.403  1.00  0.00     0.280 HD
HETATM    7  C   UNL     1      -6.721   3.796 -33.953  1.00  0.00     0.242 C 
HETATM    8  C   UNL     1      -8.918   5.565 -33.305  1.00  0.00     0.032 C 
HETATM    9  C   UNL     1      -9.121   4.354 -34.222  1.00  0.00     0.236 C 
ENDROOT
BRANCH   1  10
HETATM   10  C   UNL     1      -5.221   4.718 -32.166  1.00  0.00     0.241 C 
BRANCH  10  11
HETATM   11  N   UNL     1      -3.971   5.423 -32.646  1.00  0.00    -0.068 N 
HETATM   12  C   UNL     1      -3.633   6.711 -31.862  1.00  0.00     0.254 C 
HETATM   13  C   UNL     1      -2.318   7.336 -32.371  1.00  0.00     0.150 C 
HETATM   14  N   UNL     1      -1.218   6.364 -32.235  1.00  0.00    -0.378 N 
HETATM   15  C   UNL     1      -1.440   5.126 -32.997  1.00  0.00     0.150 C 
HETATM   16  C   UNL     1      -2.757   4.445 -32.572  1.00  0.00     0.254 C 
HETATM   17  H   UNL     1      -4.050   5.681 -33.639  1.00  0.00     0.280 HD
BRANCH  14  18
HETATM   18  C   UNL     1      -0.550   6.335 -31.005  1.00  0.00     0.030 A 
HETATM   19  C   UNL     1       0.116   5.201 -30.509  1.00  0.00     0.029 A 
HETATM   20  C   UNL     1       0.755   5.206 -29.261  1.00  0.00     0.002 A 
HETATM   21  C   UNL     1       0.767   6.358 -28.484  1.00  0.00     0.000 A 
HETATM   22  C   UNL     1       0.157   7.507 -28.965  1.00  0.00     0.002 A 
HETATM   23  C   UNL     1      -0.483   7.493 -30.209  1.00  0.00     0.029 A 
ENDBRANCH  14  18
ENDBRANCH  10  11
ENDBRANCH   1  10
BRANCH   4  24
HETATM   24  C   UNL     1      -7.647   1.588 -31.905  1.00  0.00     0.156 C 
BRANCH  24  25
HETATM   25  N   UNL     1      -7.385   0.523 -32.865  1.00  0.00    -0.355 N 
HETATM   26  C   UNL     1      -6.116   0.128 -33.239  1.00  0.00     0.251 C 
HETATM   27  O   UNL     1      -5.146   0.869 -33.090  1.00  0.00    -0.268 OA
HETATM   28  H   UNL     1      -8.101  -0.196 -32.903  1.00  0.00     0.162 HD
BRANCH  26  29
HETATM   29  C   UNL     1      -5.936  -1.262 -33.741  1.00  0.00     0.034 A 
HETATM   30  C   UNL     1      -4.717  -1.893 -33.446  1.00  0.00     0.056 A 
HETATM   31  C   UNL     1      -4.561  -3.210 -33.822  1.00  0.00     0.106 A 
HETATM   32  C   UNL     1      -5.553  -3.898 -34.477  1.00  0.00     0.105 A 
HETATM   33  O   UNL     1      -3.463  -3.974 -33.589  1.00  0.00    -0.323 OA
HETATM   34  O   UNL     1      -5.203  -5.184 -34.737  1.00  0.00    -0.323 OA
HETATM   35  C   UNL     1      -6.751  -3.303 -34.805  1.00  0.00     0.041 A 
HETATM   36  C   UNL     1      -3.870  -5.227 -34.184  1.00  0.00     0.352 A 
HETATM   37  C   UNL     1      -6.944  -1.965 -34.439  1.00  0.00     0.020 A 
ENDBRANCH  26  29
ENDBRANCH  24  25
ENDBRANCH   4  24
TORSDOF 6
ENDMDL
MODEL 8
REMARK VINA RESULT:      -9.3      1.769      2.679
REMARK  6 active torsions:
REMARK  status: ('A' for Active; 'I' for Inactive)
REMARK    1  A    between atoms: C_4  and  N_5 
REMARK    2  A    between atoms: N_8  and  C_10 
REMARK    3  A    between atoms: C_10  and  C_11 
REMARK    4  A    between atoms: C_14  and  C_15 
REMARK    5  A    between atoms: C_15  and  N_16 
REMARK       I    between atoms: N_16  and  C_17 
REMARK    6  A    between atoms: C_17  and  C_18 
ROOT
HETATM    1  C   UNL     1      -7.489   1.260 -31.923  1.00  0.00     0.041 C 
HETATM    2  C   UNL     1      -7.817   0.821 -33.377  1.00  0.00    -0.004 C 
HETATM    3  C   UNL     1      -7.825   2.044 -34.325  1.00  0.00     0.040 C 
HETATM    4  C   UNL     1      -8.884   3.083 -33.884  1.00  0.00     0.206 C 
HETATM    5  N   UNL     1      -9.522   2.515 -32.622  1.00  0.00    -0.065 N 
HETATM    6  H   UNL     1     -10.198   3.238 -32.281  1.00  0.00     0.280 HD
HETATM    7  C   UNL     1      -8.568   2.280 -31.480  1.00  0.00     0.242 C 
HETATM    8  C   UNL     1      -9.245   0.214 -33.390  1.00  0.00     0.032 C 
HETATM    9  C   UNL     1     -10.283   1.249 -32.943  1.00  0.00     0.236 C 
ENDROOT
BRANCH   1  10
HETATM   10  C   UNL     1      -6.098   1.874 -31.651  1.00  0.00     0.241 C 
BRANCH  10  11
HETATM   11  N   UNL     1      -4.945   0.902 -31.771  1.00  0.00    -0.068 N 
HETATM   12  C   UNL     1      -5.238  -0.499 -31.188  1.00  0.00     0.254 C 
HETATM   13  C   UNL     1      -4.039  -1.446 -31.401  1.00  0.00     0.150 C 
HETATM   14  N   UNL     1      -3.739  -1.555 -32.840  1.00  0.00    -0.378 N 
HETATM   15  C   UNL     1      -3.398  -0.266 -33.462  1.00  0.00     0.150 C 
HETATM   16  C   UNL     1      -4.535   0.757 -33.271  1.00  0.00     0.254 C 
HETATM   17  H   UNL     1      -4.106   1.262 -31.295  1.00  0.00     0.280 HD
BRANCH  14  18
HETATM   18  C   UNL     1      -4.442  -2.530 -33.559  1.00  0.00     0.030 A 
HETATM   19  C   UNL     1      -4.022  -3.867 -33.669  1.00  0.00     0.029 A 
HETATM   20  C   UNL     1      -4.744  -4.808 -34.416  1.00  0.00     0.002 A 
HETATM   21  C   UNL     1      -5.922  -4.444 -35.054  1.00  0.00     0.000 A 
HETATM   22  C   UNL     1      -6.388  -3.144 -34.928  1.00  0.00     0.002 A 
HETATM   23  C   UNL     1      -5.660  -2.207 -34.184  1.00  0.00     0.029 A 
ENDBRANCH  14  18
ENDBRANCH  10  11
ENDBRANCH   1  10
BRANCH   4  24
HETATM   24  C   UNL     1      -8.262   4.496 -33.699  1.00  0.00     0.156 C 
BRANCH  24  25
HETATM   25  N   UNL     1      -6.815   4.639 -33.797  1.00  0.00    -0.355 N 
HETATM   26  C   UNL     1      -6.093   5.592 -33.106  1.00  0.00     0.251 C 
HETATM   27  O   UNL     1      -6.632   6.604 -32.663  1.00  0.00    -0.268 OA
HETATM   28  H   UNL     1      -6.319   3.779 -34.012  1.00  0.00     0.162 HD
BRANCH  26  29
HETATM   29  C   UNL     1      -4.658   5.313 -32.824  1.00  0.00     0.034 A 
HETATM   30  C   UNL     1      -4.070   6.015 -31.759  1.00  0.00     0.056 A 
HETATM   31  C   UNL     1      -2.769   5.709 -31.422  1.00  0.00     0.106 A 
HETATM   32  C   UNL     1      -2.049   4.759 -32.103  1.00  0.00     0.105 A 
HETATM   33  O   UNL     1      -2.064   6.269 -30.405  1.00  0.00    -0.323 OA
HETATM   34  O   UNL     1      -0.798   4.600 -31.599  1.00  0.00    -0.323 OA
HETATM   35  C   UNL     1      -2.584   4.070 -33.169  1.00  0.00     0.041 A 
HETATM   36  C   UNL     1      -0.805   5.569 -30.528  1.00  0.00     0.352 A 
HETATM   37  C   UNL     1      -3.905   4.355 -33.540  1.00  0.00     0.020 A 
ENDBRANCH  26  29
ENDBRANCH  24  25
ENDBRANCH   4  24
TORSDOF 6
ENDMDL
MODEL 9
REMARK VINA RESULT:      -9.1      2.044      3.094
REMARK  6 active torsions:
REMARK  status: ('A' for Active; 'I' for Inactive)
REMARK    1  A    between atoms: C_4  and  N_5 
REMARK    2  A    between atoms: N_8  and  C_10 
REMARK    3  A    between atoms: C_10  and  C_11 
REMARK    4  A    between atoms: C_14  and  C_15 
REMARK    5  A    between atoms: C_15  and  N_16 
REMARK       I    between atoms: N_16  and  C_17 
REMARK    6  A    between atoms: C_17  and  C_18 
ROOT
HETATM    1  C   UNL     1      -8.320   2.374 -31.775  1.00  0.00     0.041 C 
HETATM    2  C   UNL     1      -8.464   2.213 -33.314  1.00  0.00    -0.004 C 
HETATM    3  C   UNL     1      -8.513   3.598 -34.003  1.00  0.00     0.040 C 
HETATM    4  C   UNL     1      -9.711   4.433 -33.489  1.00  0.00     0.206 C 
HETATM    5  N   UNL     1     -10.399   3.568 -32.440  1.00  0.00    -0.065 N 
HETATM    6  H   UNL     1     -11.177   4.147 -32.043  1.00  0.00     0.280 HD
HETATM    7  C   UNL     1      -9.535   3.188 -31.266  1.00  0.00     0.242 C 
HETATM    8  C   UNL     1      -9.814   1.503 -33.602  1.00  0.00     0.032 C 
HETATM    9  C   UNL     1     -10.990   2.335 -33.082  1.00  0.00     0.236 C 
ENDROOT
BRANCH   1  10
HETATM   10  C   UNL     1      -7.031   3.035 -31.237  1.00  0.00     0.241 C 
BRANCH  10  11
HETATM   11  N   UNL     1      -5.832   2.116 -31.168  1.00  0.00    -0.068 N 
HETATM   12  C   UNL     1      -6.177   0.656 -30.801  1.00  0.00     0.254 C 
HETATM   13  C   UNL     1      -4.912  -0.228 -30.810  1.00  0.00     0.150 C 
HETATM   14  N   UNL     1      -4.280  -0.181 -32.140  1.00  0.00    -0.378 N 
HETATM   15  C   UNL     1      -3.873   1.174 -32.543  1.00  0.00     0.150 C 
HETATM   16  C   UNL     1      -5.077   2.137 -32.534  1.00  0.00     0.254 C 
HETATM   17  H   UNL     1      -5.147   2.452 -30.476  1.00  0.00     0.280 HD
BRANCH  14  18
HETATM   18  C   UNL     1      -4.742  -1.100 -33.091  1.00  0.00     0.030 A 
HETATM   19  C   UNL     1      -5.864  -0.875 -33.907  1.00  0.00     0.029 A 
HETATM   20  C   UNL     1      -6.309  -1.830 -34.831  1.00  0.00     0.002 A 
HETATM   21  C   UNL     1      -5.625  -3.029 -34.985  1.00  0.00     0.000 A 
HETATM   22  C   UNL     1      -4.488  -3.264 -34.227  1.00  0.00     0.002 A 
HETATM   23  C   UNL     1      -4.053  -2.308 -33.301  1.00  0.00     0.029 A 
ENDBRANCH  14  18
ENDBRANCH  10  11
ENDBRANCH   1  10
BRANCH   4  24
HETATM   24  C   UNL     1      -9.261   5.826 -32.967  1.00  0.00     0.156 C 
BRANCH  24  25
HETATM   25  N   UNL     1      -7.876   6.234 -33.173  1.00  0.00    -0.355 N 
HETATM   26  C   UNL     1      -6.986   6.461 -32.142  1.00  0.00     0.251 C 
HETATM   27  O   UNL     1      -7.378   6.701 -31.002  1.00  0.00    -0.268 OA
HETATM   28  H   UNL     1      -7.469   5.916 -34.047  1.00  0.00     0.162 HD
BRANCH  26  29
HETATM   29  C   UNL     1      -5.533   6.311 -32.428  1.00  0.00     0.034 A 
HETATM   30  C   UNL     1      -5.183   5.654 -33.618  1.00  0.00     0.056 A 
HETATM   31  C   UNL     1      -3.847   5.581 -33.949  1.00  0.00     0.106 A 
HETATM   32  C   UNL     1      -2.872   6.120 -33.146  1.00  0.00     0.105 A 
HETATM   33  O   UNL     1      -3.340   5.010 -35.073  1.00  0.00    -0.323 OA
HETATM   34  O   UNL     1      -1.627   5.955 -33.665  1.00  0.00    -0.323 OA
HETATM   35  C   UNL     1      -3.177   6.748 -31.959  1.00  0.00     0.041 A 
HETATM   36  C   UNL     1      -1.926   5.239 -34.883  1.00  0.00     0.352 A 
HETATM   37  C   UNL     1      -4.526   6.840 -31.590  1.00  0.00     0.020 A 
ENDBRANCH  26  29
ENDBRANCH  24  25
ENDBRANCH   4  24
TORSDOF 6
ENDMDL
MODEL 10
REMARK VINA RESULT:      -9.0      3.296      8.918
REMARK  6 active torsions:
REMARK  status: ('A' for Active; 'I' for Inactive)
REMARK    1  A    between atoms: C_4  and  N_5 
REMARK    2  A    between atoms: N_8  and  C_10 
REMARK    3  A    between atoms: C_10  and  C_11 
REMARK    4  A    between atoms: C_14  and  C_15 
REMARK    5  A    between atoms: C_15  and  N_16 
REMARK       I    between atoms: N_16  and  C_17 
REMARK    6  A    between atoms: C_17  and  C_18 
ROOT
HETATM    1  C   UNL     1      -3.928   1.819 -32.576  1.00  0.00     0.041 C 
HETATM    2  C   UNL     1      -4.432   0.546 -33.311  1.00  0.00    -0.004 C 
HETATM    3  C   UNL     1      -5.774   0.066 -32.707  1.00  0.00     0.040 C 
HETATM    4  C   UNL     1      -5.619  -0.272 -31.204  1.00  0.00     0.206 C 
HETATM    5  N   UNL     1      -4.167   0.034 -30.858  1.00  0.00    -0.065 N 
HETATM    6  H   UNL     1      -4.065  -0.135 -29.830  1.00  0.00     0.280 HD
HETATM    7  C   UNL     1      -3.751   1.465 -31.078  1.00  0.00     0.242 C 
HETATM    8  C   UNL     1      -3.393  -0.585 -33.089  1.00  0.00     0.032 C 
HETATM    9  C   UNL     1      -3.242  -0.904 -31.599  1.00  0.00     0.236 C 
ENDROOT
BRANCH   1  10
HETATM   10  C   UNL     1      -4.789   3.098 -32.676  1.00  0.00     0.241 C 
BRANCH  10  11
HETATM   11  N   UNL     1      -4.014   4.358 -32.992  1.00  0.00    -0.068 N 
HETATM   12  C   UNL     1      -4.112   5.448 -31.902  1.00  0.00     0.254 C 
HETATM   13  C   UNL     1      -3.249   6.674 -32.269  1.00  0.00     0.150 C 
HETATM   14  N   UNL     1      -1.845   6.261 -32.441  1.00  0.00    -0.378 N 
HETATM   15  C   UNL     1      -1.659   5.258 -33.500  1.00  0.00     0.150 C 
HETATM   16  C   UNL     1      -2.512   4.003 -33.228  1.00  0.00     0.254 C 
HETATM   17  H   UNL     1      -4.334   4.778 -33.875  1.00  0.00     0.280 HD
BRANCH  14  18
HETATM   18  C   UNL     1      -1.050   6.239 -31.288  1.00  0.00     0.030 A 
HETATM   19  C   UNL     1      -0.146   5.205 -30.988  1.00  0.00     0.029 A 
HETATM   20  C   UNL     1       0.616   5.208 -29.812  1.00  0.00     0.002 A 
HETATM   21  C   UNL     1       0.515   6.263 -28.913  1.00  0.00     0.000 A 
HETATM   22  C   UNL     1      -0.333   7.321 -29.202  1.00  0.00     0.002 A 
HETATM   23  C   UNL     1      -1.096   7.308 -30.375  1.00  0.00     0.029 A 
ENDBRANCH  14  18
ENDBRANCH  10  11
ENDBRANCH   1  10
BRANCH   4  24
HETATM   24  C   UNL     1      -6.653   0.493 -30.332  1.00  0.00     0.156 C 
BRANCH  24  25
HETATM   25  N   UNL     1      -8.003   0.677 -30.852  1.00  0.00    -0.355 N 
HETATM   26  C   UNL     1      -8.481   1.885 -31.320  1.00  0.00     0.251 C 
HETATM   27  O   UNL     1      -7.958   2.949 -30.995  1.00  0.00    -0.268 OA
HETATM   28  H   UNL     1      -8.410  -0.152 -31.272  1.00  0.00     0.162 HD
BRANCH  26  29
HETATM   29  C   UNL     1      -9.593   1.860 -32.311  1.00  0.00     0.034 A 
HETATM   30  C   UNL     1     -10.087   3.100 -32.746  1.00  0.00     0.056 A 
HETATM   31  C   UNL     1     -11.054   3.104 -33.728  1.00  0.00     0.106 A 
HETATM   32  C   UNL     1     -11.540   1.940 -34.269  1.00  0.00     0.105 A 
HETATM   33  O   UNL     1     -11.615   4.211 -34.281  1.00  0.00    -0.323 OA
HETATM   34  O   UNL     1     -12.470   2.168 -35.232  1.00  0.00    -0.323 OA
HETATM   35  C   UNL     1     -11.099   0.705 -33.848  1.00  0.00     0.041 A 
HETATM   36  C   UNL     1     -12.526   3.611 -35.229  1.00  0.00     0.352 A 
HETATM   37  C   UNL     1     -10.116   0.663 -32.850  1.00  0.00     0.020 A 
ENDBRANCH  26  29
ENDBRANCH  24  25
ENDBRANCH   4  24
TORSDOF 6
ENDMDL
