MODEL 1
REMARK VINA RESULT:      -8.3      0.000      0.000
REMARK  6 active torsions:
REMARK  status: ('A' for Active; 'I' for Inactive)
REMARK    1  A    between atoms: C_5  and  N_6 
REMARK    2  A    between atoms: N_6  and  C_7 
REMARK    3  A    between atoms: C_7  and  C_8 
REMARK    4  A    between atoms: N_10  and  C_12 
REMARK    5  A    between atoms: C_12  and  C_13 
REMARK    6  A    between atoms: C_14  and  O_15 
ROOT
HETATM    1  C   UNL     1      -4.802   0.364 -31.565  1.00  0.00     0.031 C 
HETATM    2  C   UNL     1      -3.620   1.177 -32.092  1.00  0.00     0.241 C 
HETATM    3  N   UNL     1      -3.929   2.613 -31.741  1.00  0.00    -0.067 N 
HETATM    4  H   UNL     1      -3.078   2.998 -31.286  1.00  0.00     0.280 HD
HETATM    5  C   UNL     1      -5.053   2.630 -30.743  1.00  0.00     0.235 C 
HETATM    6  C   UNL     1      -5.218   1.172 -30.335  1.00  0.00     0.035 C 
ENDROOT
BRANCH   1   7
HETATM    7  C   UNL     1      -5.940   0.200 -32.589  1.00  0.00     0.127 C 
BRANCH   7   8
HETATM    8  N   UNL     1      -5.452  -0.459 -33.794  1.00  0.00    -0.376 N 
HETATM    9  H   UNL     1      -5.667   0.065 -34.650  1.00  0.00     0.161 HD
BRANCH   8  10
HETATM   10  C   UNL     1      -5.511  -1.823 -34.066  1.00  0.00     0.101 A 
HETATM   11  N   UNL     1      -4.474  -2.658 -33.894  1.00  0.00    -0.347 N 
HETATM   12  C   UNL     1      -4.525  -3.979 -34.165  1.00  0.00     0.007 A 
HETATM   13  H   UNL     1      -3.610  -2.290 -33.516  1.00  0.00     0.167 HD
HETATM   14  C   UNL     1      -3.323  -4.826 -33.886  1.00  0.00     0.068 C 
HETATM   15  C   UNL     1      -5.699  -4.527 -34.678  1.00  0.00     0.025 A 
HETATM   16  C   UNL     1      -6.793  -3.704 -34.901  1.00  0.00     0.006 A 
HETATM   17  C   UNL     1      -6.698  -2.351 -34.595  1.00  0.00     0.048 A 
ENDBRANCH   8  10
ENDBRANCH   7   8
ENDBRANCH   1   7
BRANCH   3  18
HETATM   18  C   UNL     1      -4.121   3.554 -32.906  1.00  0.00     0.276 C 
BRANCH  18  19
HETATM   19  C   UNL     1      -3.025   4.574 -33.035  1.00  0.00     0.002 A 
HETATM   20  C   UNL     1      -3.018   5.498 -34.088  1.00  0.00     0.073 A 
HETATM   21  C   UNL     1      -2.007   6.448 -34.211  1.00  0.00     0.038 A 
HETATM   22  C   UNL     1      -0.982   6.488 -33.265  1.00  0.00     0.022 A 
HETATM   23  C   UNL     1      -0.974   5.575 -32.213  1.00  0.00     0.011 A 
HETATM   24 BR   UNL     1       0.397   5.642 -30.915  1.00  0.00    -0.051 Br
HETATM   25  C   UNL     1      -1.980   4.614 -32.099  1.00  0.00     0.030 A 
BRANCH  20  26
HETATM   26  O   UNL     1      -4.054   5.465 -34.980  1.00  0.00    -0.360 OA
HETATM   27  H   UNL     1      -4.393   4.544 -35.012  1.00  0.00     0.217 HD
ENDBRANCH  20  26
ENDBRANCH  18  19
ENDBRANCH   3  18
TORSDOF 6
ENDMDL
MODEL 2
REMARK VINA RESULT:      -8.1      5.066      7.554
REMARK  6 active torsions:
REMARK  status: ('A' for Active; 'I' for Inactive)
REMARK    1  A    between atoms: C_5  and  N_6 
REMARK    2  A    between atoms: N_6  and  C_7 
REMARK    3  A    between atoms: C_7  and  C_8 
REMARK    4  A    between atoms: N_10  and  C_12 
REMARK    5  A    between atoms: C_12  and  C_13 
REMARK    6  A    between atoms: C_14  and  O_15 
ROOT
HETATM    1  C   UNL     1      -7.553   0.421 -31.377  1.00  0.00     0.031 C 
HETATM    2  C   UNL     1      -6.289  -0.434 -31.315  1.00  0.00     0.241 C 
HETATM    3  N   UNL     1      -5.174   0.456 -31.810  1.00  0.00    -0.067 N 
HETATM    4  H   UNL     1      -4.405   0.383 -31.117  1.00  0.00     0.280 HD
HETATM    5  C   UNL     1      -5.668   1.876 -31.829  1.00  0.00     0.235 C 
HETATM    6  C   UNL     1      -7.003   1.820 -31.098  1.00  0.00     0.035 C 
ENDROOT
BRANCH   1   7
HETATM    7  C   UNL     1      -8.294   0.326 -32.724  1.00  0.00     0.127 C 
BRANCH   7   8
HETATM    8  N   UNL     1      -9.729   0.187 -32.509  1.00  0.00    -0.376 N 
HETATM    9  H   UNL     1     -10.002  -0.766 -32.243  1.00  0.00     0.161 HD
BRANCH   8  10
HETATM   10  C   UNL     1     -10.736   0.750 -33.288  1.00  0.00     0.101 A 
HETATM   11  N   UNL     1     -12.004   0.306 -33.293  1.00  0.00    -0.347 N 
HETATM   12  C   UNL     1     -12.981   0.845 -34.053  1.00  0.00     0.007 A 
HETATM   13  H   UNL     1     -12.255  -0.455 -32.675  1.00  0.00     0.167 HD
HETATM   14  C   UNL     1     -14.371   0.303 -33.940  1.00  0.00     0.068 C 
HETATM   15  C   UNL     1     -12.677   1.901 -34.909  1.00  0.00     0.025 A 
HETATM   16  C   UNL     1     -11.377   2.380 -34.963  1.00  0.00     0.006 A 
HETATM   17  C   UNL     1     -10.406   1.804 -34.153  1.00  0.00     0.048 A 
ENDBRANCH   8  10
ENDBRANCH   7   8
ENDBRANCH   1   7
BRANCH   3  18
HETATM   18  C   UNL     1      -4.495   0.021 -33.087  1.00  0.00     0.276 C 
BRANCH  18  19
HETATM   19  C   UNL     1      -4.335  -1.469 -33.199  1.00  0.00     0.002 A 
HETATM   20  C   UNL     1      -3.420  -2.160 -32.395  1.00  0.00     0.073 A 
HETATM   21  C   UNL     1      -3.269  -3.542 -32.492  1.00  0.00     0.038 A 
HETATM   22  C   UNL     1      -4.049  -4.257 -33.401  1.00  0.00     0.022 A 
HETATM   23  C   UNL     1      -4.963  -3.583 -34.209  1.00  0.00     0.011 A 
HETATM   24 BR   UNL     1      -6.041  -4.550 -35.423  1.00  0.00    -0.051 Br
HETATM   25  C   UNL     1      -5.103  -2.197 -34.121  1.00  0.00     0.030 A 
BRANCH  20  26
HETATM   26  O   UNL     1      -2.694  -1.443 -31.483  1.00  0.00    -0.360 OA
HETATM   27  H   UNL     1      -3.276  -0.739 -31.125  1.00  0.00     0.217 HD
ENDBRANCH  20  26
ENDBRANCH  18  19
ENDBRANCH   3  18
TORSDOF 6
ENDMDL
MODEL 3
REMARK VINA RESULT:      -8.1      3.552      8.150
REMARK  6 active torsions:
REMARK  status: ('A' for Active; 'I' for Inactive)
REMARK    1  A    between atoms: C_5  and  N_6 
REMARK    2  A    between atoms: N_6  and  C_7 
REMARK    3  A    between atoms: C_7  and  C_8 
REMARK    4  A    between atoms: N_10  and  C_12 
REMARK    5  A    between atoms: C_12  and  C_13 
REMARK    6  A    between atoms: C_14  and  O_15 
ROOT
HETATM    1  C   UNL     1      -6.008   2.115 -31.353  1.00  0.00     0.031 C 
HETATM    2  C   UNL     1      -5.718   1.629 -32.773  1.00  0.00     0.241 C 
HETATM    3  N   UNL     1      -5.565   0.131 -32.663  1.00  0.00    -0.067 N 
HETATM    4  H   UNL     1      -6.163  -0.284 -33.403  1.00  0.00     0.280 HD
HETATM    5  C   UNL     1      -6.088  -0.307 -31.323  1.00  0.00     0.235 C 
HETATM    6  C   UNL     1      -6.776   0.931 -30.764  1.00  0.00     0.035 C 
ENDROOT
BRANCH   1   7
HETATM    7  C   UNL     1      -4.740   2.465 -30.553  1.00  0.00     0.127 C 
BRANCH   7   8
HETATM    8  N   UNL     1      -4.396   3.871 -30.731  1.00  0.00    -0.376 N 
HETATM    9  H   UNL     1      -5.210   4.456 -30.951  1.00  0.00     0.161 HD
BRANCH   8  10
HETATM   10  C   UNL     1      -3.283   4.366 -31.404  1.00  0.00     0.101 A 
HETATM   11  N   UNL     1      -2.374   5.175 -30.837  1.00  0.00    -0.347 N 
HETATM   12  C   UNL     1      -1.298   5.663 -31.489  1.00  0.00     0.007 A 
HETATM   13  H   UNL     1      -2.479   5.416 -29.860  1.00  0.00     0.167 HD
HETATM   14  C   UNL     1      -0.321   6.516 -30.743  1.00  0.00     0.068 C 
HETATM   15  C   UNL     1      -1.111   5.348 -32.833  1.00  0.00     0.025 A 
HETATM   16  C   UNL     1      -2.035   4.537 -33.475  1.00  0.00     0.006 A 
HETATM   17  C   UNL     1      -3.122   4.047 -32.761  1.00  0.00     0.048 A 
ENDBRANCH   8  10
ENDBRANCH   7   8
ENDBRANCH   1   7
BRANCH   3  18
HETATM   18  C   UNL     1      -4.203  -0.423 -33.007  1.00  0.00     0.276 C 
BRANCH  18  19
HETATM   19  C   UNL     1      -4.205  -1.908 -33.239  1.00  0.00     0.002 A 
HETATM   20  C   UNL     1      -3.338  -2.751 -32.533  1.00  0.00     0.073 A 
HETATM   21  C   UNL     1      -3.337  -4.129 -32.741  1.00  0.00     0.038 A 
HETATM   22  C   UNL     1      -4.221  -4.685 -33.667  1.00  0.00     0.022 A 
HETATM   23  C   UNL     1      -5.088  -3.859 -34.380  1.00  0.00     0.011 A 
HETATM   24 BR   UNL     1      -6.304  -4.609 -35.615  1.00  0.00    -0.051 Br
HETATM   25  C   UNL     1      -5.078  -2.477 -34.180  1.00  0.00     0.030 A 
BRANCH  20  26
HETATM   26  O   UNL     1      -2.508  -2.189 -31.602  1.00  0.00    -0.360 OA
HETATM   27  H   UNL     1      -1.999  -1.477 -32.046  1.00  0.00     0.217 HD
ENDBRANCH  20  26
ENDBRANCH  18  19
ENDBRANCH   3  18
TORSDOF 6
ENDMDL
MODEL 4
REMARK VINA RESULT:      -8.0      5.945      8.208
REMARK  6 active torsions:
REMARK  status: ('A' for Active; 'I' for Inactive)
REMARK    1  A    between atoms: C_5  and  N_6 
REMARK    2  A    between atoms: N_6  and  C_7 
REMARK    3  A    between atoms: C_7  and  C_8 
REMARK    4  A    between atoms: N_10  and  C_12 
REMARK    5  A    between atoms: C_12  and  C_13 
REMARK    6  A    between atoms: C_14  and  O_15 
ROOT
HETATM    1  C   UNL     1      -9.393   1.847 -31.788  1.00  0.00     0.031 C 
HETATM    2  C   UNL     1      -8.598   0.566 -32.040  1.00  0.00     0.241 C 
HETATM    3  N   UNL     1      -7.233   1.022 -32.495  1.00  0.00    -0.067 N 
HETATM    4  H   UNL     1      -6.540   0.498 -31.926  1.00  0.00     0.280 HD
HETATM    5  C   UNL     1      -7.091   2.487 -32.190  1.00  0.00     0.235 C 
HETATM    6  C   UNL     1      -8.301   2.811 -31.324  1.00  0.00     0.035 C 
ENDROOT
BRANCH   1   7
HETATM    7  C   UNL     1     -10.153   2.353 -33.028  1.00  0.00     0.127 C 
BRANCH   7   8
HETATM    8  N   UNL     1     -11.079   1.336 -33.509  1.00  0.00    -0.376 N 
HETATM    9  H   UNL     1     -10.788   0.921 -34.402  1.00  0.00     0.161 HD
BRANCH   8  10
HETATM   10  C   UNL     1     -12.469   1.405 -33.471  1.00  0.00     0.101 A 
HETATM   11  N   UNL     1     -13.146   2.304 -32.738  1.00  0.00    -0.347 N 
HETATM   12  C   UNL     1     -14.493   2.369 -32.692  1.00  0.00     0.007 A 
HETATM   13  H   UNL     1     -12.625   2.993 -32.210  1.00  0.00     0.167 HD
HETATM   14  C   UNL     1     -15.142   3.446 -31.882  1.00  0.00     0.068 C 
HETATM   15  C   UNL     1     -15.247   1.445 -33.413  1.00  0.00     0.025 A 
HETATM   16  C   UNL     1     -14.598   0.477 -34.165  1.00  0.00     0.006 A 
HETATM   17  C   UNL     1     -13.209   0.457 -34.193  1.00  0.00     0.048 A 
ENDBRANCH   8  10
ENDBRANCH   7   8
ENDBRANCH   1   7
BRANCH   3  18
HETATM   18  C   UNL     1      -6.842   0.642 -33.903  1.00  0.00     0.276 C 
BRANCH  18  19
HETATM   19  C   UNL     1      -6.015  -0.611 -33.975  1.00  0.00     0.002 A 
HETATM   20  C   UNL     1      -4.716  -0.650 -33.454  1.00  0.00     0.073 A 
HETATM   21  C   UNL     1      -3.945  -1.810 -33.514  1.00  0.00     0.038 A 
HETATM   22  C   UNL     1      -4.478  -2.959 -34.098  1.00  0.00     0.022 A 
HETATM   23  C   UNL     1      -5.768  -2.936 -34.623  1.00  0.00     0.011 A 
HETATM   24 BR   UNL     1      -6.503  -4.497 -35.391  1.00  0.00    -0.051 Br
HETATM   25  C   UNL     1      -6.534  -1.769 -34.575  1.00  0.00     0.030 A 
BRANCH  20  26
HETATM   26  O   UNL     1      -4.229   0.477 -32.851  1.00  0.00    -0.360 OA
HETATM   27  H   UNL     1      -3.892   0.221 -31.965  1.00  0.00     0.217 HD
ENDBRANCH  20  26
ENDBRANCH  18  19
ENDBRANCH   3  18
TORSDOF 6
ENDMDL
MODEL 5
REMARK VINA RESULT:      -7.7      3.128      7.856
REMARK  6 active torsions:
REMARK  status: ('A' for Active; 'I' for Inactive)
REMARK    1  A    between atoms: C_5  and  N_6 
REMARK    2  A    between atoms: N_6  and  C_7 
REMARK    3  A    between atoms: C_7  and  C_8 
REMARK    4  A    between atoms: N_10  and  C_12 
REMARK    5  A    between atoms: C_12  and  C_13 
REMARK    6  A    between atoms: C_14  and  O_15 
ROOT
HETATM    1  C   UNL     1      -5.838   2.365 -30.790  1.00  0.00     0.031 C 
HETATM    2  C   UNL     1      -6.501   1.961 -32.107  1.00  0.00     0.241 C 
HETATM    3  N   UNL     1      -6.207   0.489 -32.271  1.00  0.00    -0.067 N 
HETATM    4  H   UNL     1      -7.110   0.028 -32.494  1.00  0.00     0.280 HD
HETATM    5  C   UNL     1      -5.707  -0.049 -30.959  1.00  0.00     0.235 C 
HETATM    6  C   UNL     1      -5.957   1.081 -29.969  1.00  0.00     0.035 C 
ENDROOT
BRANCH   1   7
HETATM    7  C   UNL     1      -4.383   2.839 -30.955  1.00  0.00     0.127 C 
BRANCH   7   8
HETATM    8  N   UNL     1      -4.233   3.611 -32.182  1.00  0.00    -0.376 N 
HETATM    9  H   UNL     1      -4.658   3.152 -32.996  1.00  0.00     0.161 HD
BRANCH   8  10
HETATM   10  C   UNL     1      -3.093   4.298 -32.588  1.00  0.00     0.101 A 
HETATM   11  N   UNL     1      -2.081   4.607 -31.761  1.00  0.00    -0.347 N 
HETATM   12  C   UNL     1      -0.977   5.280 -32.150  1.00  0.00     0.007 A 
HETATM   13  H   UNL     1      -2.128   4.300 -30.798  1.00  0.00     0.167 HD
HETATM   14  C   UNL     1       0.113   5.525 -31.155  1.00  0.00     0.068 C 
HETATM   15  C   UNL     1      -0.869   5.713 -33.470  1.00  0.00     0.025 A 
HETATM   16  C   UNL     1      -1.898   5.443 -34.360  1.00  0.00     0.006 A 
HETATM   17  C   UNL     1      -3.010   4.736 -33.918  1.00  0.00     0.048 A 
ENDBRANCH   8  10
ENDBRANCH   7   8
ENDBRANCH   1   7
BRANCH   3  18
HETATM   18  C   UNL     1      -5.354   0.111 -33.459  1.00  0.00     0.276 C 
BRANCH  18  19
HETATM   19  C   UNL     1      -5.555  -1.308 -33.910  1.00  0.00     0.002 A 
HETATM   20  C   UNL     1      -6.740  -1.704 -34.543  1.00  0.00     0.073 A 
HETATM   21  C   UNL     1      -6.931  -3.018 -34.966  1.00  0.00     0.038 A 
HETATM   22  C   UNL     1      -5.922  -3.960 -34.763  1.00  0.00     0.022 A 
HETATM   23  C   UNL     1      -4.738  -3.582 -34.132  1.00  0.00     0.011 A 
HETATM   24 BR   UNL     1      -3.358  -4.846 -33.878  1.00  0.00    -0.051 Br
HETATM   25  C   UNL     1      -4.554  -2.268 -33.696  1.00  0.00     0.030 A 
BRANCH  20  26
HETATM   26  O   UNL     1      -7.699  -0.755 -34.767  1.00  0.00    -0.360 OA
HETATM   27  H   UNL     1      -7.273  -0.003 -35.231  1.00  0.00     0.217 HD
ENDBRANCH  20  26
ENDBRANCH  18  19
ENDBRANCH   3  18
TORSDOF 6
ENDMDL
MODEL 6
REMARK VINA RESULT:      -7.6      1.664      2.214
REMARK  6 active torsions:
REMARK  status: ('A' for Active; 'I' for Inactive)
REMARK    1  A    between atoms: C_5  and  N_6 
REMARK    2  A    between atoms: N_6  and  C_7 
REMARK    3  A    between atoms: C_7  and  C_8 
REMARK    4  A    between atoms: N_10  and  C_12 
REMARK    5  A    between atoms: C_12  and  C_13 
REMARK    6  A    between atoms: C_14  and  O_15 
ROOT
HETATM    1  C   UNL     1      -6.593   2.947 -32.961  1.00  0.00     0.031 C 
HETATM    2  C   UNL     1      -5.393   3.399 -32.130  1.00  0.00     0.241 C 
HETATM    3  N   UNL     1      -4.701   4.453 -32.961  1.00  0.00    -0.067 N 
HETATM    4  H   UNL     1      -4.541   5.267 -32.337  1.00  0.00     0.280 HD
HETATM    5  C   UNL     1      -5.626   4.873 -34.069  1.00  0.00     0.235 C 
HETATM    6  C   UNL     1      -6.958   4.228 -33.713  1.00  0.00     0.035 C 
ENDROOT
BRANCH   1   7
HETATM    7  C   UNL     1      -6.280   1.768 -33.901  1.00  0.00     0.127 C 
BRANCH   7   8
HETATM    8  N   UNL     1      -6.501   0.499 -33.220  1.00  0.00    -0.376 N 
HETATM    9  H   UNL     1      -6.636   0.608 -32.208  1.00  0.00     0.161 HD
BRANCH   8  10
HETATM   10  C   UNL     1      -5.829  -0.694 -33.465  1.00  0.00     0.101 A 
HETATM   11  N   UNL     1      -4.817  -1.144 -32.704  1.00  0.00    -0.347 N 
HETATM   12  C   UNL     1      -4.158  -2.297 -32.944  1.00  0.00     0.007 A 
HETATM   13  H   UNL     1      -4.546  -0.609 -31.890  1.00  0.00     0.167 HD
HETATM   14  C   UNL     1      -3.079  -2.727 -32.001  1.00  0.00     0.068 C 
HETATM   15  C   UNL     1      -4.507  -3.068 -34.051  1.00  0.00     0.025 A 
HETATM   16  C   UNL     1      -5.528  -2.636 -34.885  1.00  0.00     0.006 A 
HETATM   17  C   UNL     1      -6.188  -1.448 -34.592  1.00  0.00     0.048 A 
ENDBRANCH   8  10
ENDBRANCH   7   8
ENDBRANCH   1   7
BRANCH   3  18
HETATM   18  C   UNL     1      -3.300   4.122 -33.417  1.00  0.00     0.276 C 
BRANCH  18  19
HETATM   19  C   UNL     1      -2.266   5.092 -32.919  1.00  0.00     0.002 A 
HETATM   20  C   UNL     1      -2.029   6.301 -33.585  1.00  0.00     0.073 A 
HETATM   21  C   UNL     1      -1.074   7.206 -33.126  1.00  0.00     0.038 A 
HETATM   22  C   UNL     1      -0.342   6.910 -31.976  1.00  0.00     0.022 A 
HETATM   23  C   UNL     1      -0.564   5.710 -31.303  1.00  0.00     0.011 A 
HETATM   24 BR   UNL     1       0.405   5.315 -29.731  1.00  0.00    -0.051 Br
HETATM   25  C   UNL     1      -1.511   4.798 -31.772  1.00  0.00     0.030 A 
BRANCH  20  26
HETATM   26  O   UNL     1      -2.787   6.588 -34.687  1.00  0.00    -0.360 OA
HETATM   27  H   UNL     1      -3.296   7.405 -34.495  1.00  0.00     0.217 HD
ENDBRANCH  20  26
ENDBRANCH  18  19
ENDBRANCH   3  18
TORSDOF 6
ENDMDL
MODEL 7
REMARK VINA RESULT:      -7.6      5.119      6.913
REMARK  6 active torsions:
REMARK  status: ('A' for Active; 'I' for Inactive)
REMARK    1  A    between atoms: C_5  and  N_6 
REMARK    2  A    between atoms: N_6  and  C_7 
REMARK    3  A    between atoms: C_7  and  C_8 
REMARK    4  A    between atoms: N_10  and  C_12 
REMARK    5  A    between atoms: C_12  and  C_13 
REMARK    6  A    between atoms: C_14  and  O_15 
ROOT
HETATM    1  C   UNL     1      -6.186   1.681 -32.122  1.00  0.00     0.031 C 
HETATM    2  C   UNL     1      -6.913   2.072 -33.408  1.00  0.00     0.241 C 
HETATM    3  N   UNL     1      -8.382   2.058 -33.061  1.00  0.00    -0.067 N 
HETATM    4  H   UNL     1      -8.777   2.955 -33.404  1.00  0.00     0.280 HD
HETATM    5  C   UNL     1      -8.521   2.015 -31.565  1.00  0.00     0.235 C 
HETATM    6  C   UNL     1      -7.109   2.258 -31.048  1.00  0.00     0.035 C 
ENDROOT
BRANCH   1   7
HETATM    7  C   UNL     1      -5.971   0.163 -31.975  1.00  0.00     0.127 C 
BRANCH   7   8
HETATM    8  N   UNL     1      -5.263  -0.367 -33.134  1.00  0.00    -0.376 N 
HETATM    9  H   UNL     1      -5.197   0.309 -33.904  1.00  0.00     0.161 HD
BRANCH   8  10
HETATM   10  C   UNL     1      -5.391  -1.648 -33.660  1.00  0.00     0.101 A 
HETATM   11  N   UNL     1      -4.409  -2.564 -33.628  1.00  0.00    -0.347 N 
HETATM   12  C   UNL     1      -4.528  -3.805 -34.145  1.00  0.00     0.007 A 
HETATM   13  H   UNL     1      -3.539  -2.328 -33.169  1.00  0.00     0.167 HD
HETATM   14  C   UNL     1      -3.386  -4.762 -34.007  1.00  0.00     0.068 C 
HETATM   15  C   UNL     1      -5.714  -4.173 -34.778  1.00  0.00     0.025 A 
HETATM   16  C   UNL     1      -6.751  -3.256 -34.863  1.00  0.00     0.006 A 
HETATM   17  C   UNL     1      -6.589  -1.993 -34.304  1.00  0.00     0.048 A 
ENDBRANCH   8  10
ENDBRANCH   7   8
ENDBRANCH   1   7
BRANCH   3  18
HETATM   18  C   UNL     1      -9.226   1.040 -33.791  1.00  0.00     0.276 C 
BRANCH  18  19
HETATM   19  C   UNL     1     -10.652   1.473 -33.979  1.00  0.00     0.002 A 
HETATM   20  C   UNL     1     -11.715   0.667 -33.552  1.00  0.00     0.073 A 
HETATM   21  C   UNL     1     -13.040   1.065 -33.721  1.00  0.00     0.038 A 
HETATM   22  C   UNL     1     -13.318   2.293 -34.322  1.00  0.00     0.022 A 
HETATM   23  C   UNL     1     -12.271   3.105 -34.755  1.00  0.00     0.011 A 
HETATM   24 BR   UNL     1     -12.642   4.780 -35.545  1.00  0.00    -0.051 Br
HETATM   25  C   UNL     1     -10.945   2.699 -34.597  1.00  0.00     0.030 A 
BRANCH  20  26
HETATM   26  O   UNL     1     -11.417  -0.514 -32.929  1.00  0.00    -0.360 OA
HETATM   27  H   UNL     1     -10.525  -0.793 -33.228  1.00  0.00     0.217 HD
ENDBRANCH  20  26
ENDBRANCH  18  19
ENDBRANCH   3  18
TORSDOF 6
ENDMDL
MODEL 8
REMARK VINA RESULT:      -7.4      4.954      6.736
REMARK  6 active torsions:
REMARK  status: ('A' for Active; 'I' for Inactive)
REMARK    1  A    between atoms: C_5  and  N_6 
REMARK    2  A    between atoms: N_6  and  C_7 
REMARK    3  A    between atoms: C_7  and  C_8 
REMARK    4  A    between atoms: N_10  and  C_12 
REMARK    5  A    between atoms: C_12  and  C_13 
REMARK    6  A    between atoms: C_14  and  O_15 
ROOT
HETATM    1  C   UNL     1      -5.659   1.074 -32.429  1.00  0.00     0.031 C 
HETATM    2  C   UNL     1      -6.603   2.194 -32.865  1.00  0.00     0.241 C 
HETATM    3  N   UNL     1      -7.997   1.643 -32.677  1.00  0.00    -0.067 N 
HETATM    4  H   UNL     1      -8.531   2.360 -32.150  1.00  0.00     0.280 HD
HETATM    5  C   UNL     1      -7.910   0.399 -31.837  1.00  0.00     0.235 C 
HETATM    6  C   UNL     1      -6.472   0.382 -31.335  1.00  0.00     0.035 C 
ENDROOT
BRANCH   1   7
HETATM    7  C   UNL     1      -5.263   0.124 -33.574  1.00  0.00     0.127 C 
BRANCH   7   8
HETATM    8  N   UNL     1      -4.420  -0.955 -33.074  1.00  0.00    -0.376 N 
HETATM    9  H   UNL     1      -3.438  -0.674 -32.963  1.00  0.00     0.161 HD
BRANCH   8  10
HETATM   10  C   UNL     1      -4.472  -2.289 -33.466  1.00  0.00     0.101 A 
HETATM   11  N   UNL     1      -5.424  -2.788 -34.272  1.00  0.00    -0.347 N 
HETATM   12  C   UNL     1      -5.481  -4.083 -34.647  1.00  0.00     0.007 A 
HETATM   13  H   UNL     1      -6.124  -2.159 -34.644  1.00  0.00     0.167 HD
HETATM   14  C   UNL     1      -6.558  -4.519 -35.591  1.00  0.00     0.068 C 
HETATM   15  C   UNL     1      -4.530  -4.978 -34.164  1.00  0.00     0.025 A 
HETATM   16  C   UNL     1      -3.540  -4.521 -33.307  1.00  0.00     0.006 A 
HETATM   17  C   UNL     1      -3.511  -3.176 -32.957  1.00  0.00     0.048 A 
ENDBRANCH   8  10
ENDBRANCH   7   8
ENDBRANCH   1   7
BRANCH   3  18
HETATM   18  C   UNL     1      -8.823   1.487 -33.931  1.00  0.00     0.276 C 
BRANCH  18  19
HETATM   19  C   UNL     1     -10.242   1.955 -33.771  1.00  0.00     0.002 A 
HETATM   20  C   UNL     1     -10.538   3.307 -33.560  1.00  0.00     0.073 A 
HETATM   21  C   UNL     1     -11.852   3.748 -33.415  1.00  0.00     0.038 A 
HETATM   22  C   UNL     1     -12.898   2.827 -33.486  1.00  0.00     0.022 A 
HETATM   23  C   UNL     1     -12.619   1.477 -33.693  1.00  0.00     0.011 A 
HETATM   24 BR   UNL     1     -14.033   0.231 -33.818  1.00  0.00    -0.051 Br
HETATM   25  C   UNL     1     -11.302   1.035 -33.825  1.00  0.00     0.030 A 
BRANCH  20  26
HETATM   26  O   UNL     1      -9.499   4.197 -33.533  1.00  0.00    -0.360 OA
HETATM   27  H   UNL     1      -9.825   5.025 -33.120  1.00  0.00     0.217 HD
ENDBRANCH  20  26
ENDBRANCH  18  19
ENDBRANCH   3  18
TORSDOF 6
ENDMDL
MODEL 9
REMARK VINA RESULT:      -7.4      3.511      7.614
REMARK  6 active torsions:
REMARK  status: ('A' for Active; 'I' for Inactive)
REMARK    1  A    between atoms: C_5  and  N_6 
REMARK    2  A    between atoms: N_6  and  C_7 
REMARK    3  A    between atoms: C_7  and  C_8 
REMARK    4  A    between atoms: N_10  and  C_12 
REMARK    5  A    between atoms: C_12  and  C_13 
REMARK    6  A    between atoms: C_14  and  O_15 
ROOT
HETATM    1  C   UNL     1      -5.611   4.098 -31.390  1.00  0.00     0.031 C 
HETATM    2  C   UNL     1      -6.351   3.281 -32.449  1.00  0.00     0.241 C 
HETATM    3  N   UNL     1      -7.640   2.847 -31.793  1.00  0.00    -0.067 N 
HETATM    4  H   UNL     1      -8.404   3.079 -32.457  1.00  0.00     0.280 HD
HETATM    5  C   UNL     1      -7.835   3.653 -30.539  1.00  0.00     0.235 C 
HETATM    6  C   UNL     1      -6.765   4.734 -30.615  1.00  0.00     0.035 C 
ENDROOT
BRANCH   1   7
HETATM    7  C   UNL     1      -4.683   3.252 -30.499  1.00  0.00     0.127 C 
BRANCH   7   8
HETATM    8  N   UNL     1      -3.396   3.046 -31.151  1.00  0.00    -0.376 N 
HETATM    9  H   UNL     1      -2.820   2.337 -30.682  1.00  0.00     0.161 HD
BRANCH   8  10
HETATM   10  C   UNL     1      -2.569   4.037 -31.669  1.00  0.00     0.101 A 
HETATM   11  N   UNL     1      -1.915   4.929 -30.907  1.00  0.00    -0.347 N 
HETATM   12  C   UNL     1      -1.118   5.897 -31.407  1.00  0.00     0.007 A 
HETATM   13  H   UNL     1      -1.998   4.863 -29.901  1.00  0.00     0.167 HD
HETATM   14  C   UNL     1      -0.397   6.805 -30.461  1.00  0.00     0.068 C 
HETATM   15  C   UNL     1      -0.970   6.017 -32.787  1.00  0.00     0.025 A 
HETATM   16  C   UNL     1      -1.644   5.138 -33.621  1.00  0.00     0.006 A 
HETATM   17  C   UNL     1      -2.444   4.148 -33.062  1.00  0.00     0.048 A 
ENDBRANCH   8  10
ENDBRANCH   7   8
ENDBRANCH   1   7
BRANCH   3  18
HETATM   18  C   UNL     1      -7.821   1.360 -31.607  1.00  0.00     0.276 C 
BRANCH  18  19
HETATM   19  C   UNL     1      -7.456   0.558 -32.825  1.00  0.00     0.002 A 
HETATM   20  C   UNL     1      -8.178   0.687 -34.018  1.00  0.00     0.073 A 
HETATM   21  C   UNL     1      -7.843  -0.050 -35.152  1.00  0.00     0.038 A 
HETATM   22  C   UNL     1      -6.762  -0.932 -35.103  1.00  0.00     0.022 A 
HETATM   23  C   UNL     1      -6.036  -1.074 -33.923  1.00  0.00     0.011 A 
HETATM   24 BR   UNL     1      -4.556  -2.246 -33.860  1.00  0.00    -0.051 Br
HETATM   25  C   UNL     1      -6.382  -0.344 -32.784  1.00  0.00     0.030 A 
BRANCH  20  26
HETATM   26  O   UNL     1      -9.208   1.587 -34.054  1.00  0.00    -0.360 OA
HETATM   27  H   UNL     1      -9.750   1.453 -33.246  1.00  0.00     0.217 HD
ENDBRANCH  20  26
ENDBRANCH  18  19
ENDBRANCH   3  18
TORSDOF 6
ENDMDL
MODEL 10
REMARK VINA RESULT:      -7.3      2.438      3.108
REMARK  6 active torsions:
REMARK  status: ('A' for Active; 'I' for Inactive)
REMARK    1  A    between atoms: C_5  and  N_6 
REMARK    2  A    between atoms: N_6  and  C_7 
REMARK    3  A    between atoms: C_7  and  C_8 
REMARK    4  A    between atoms: N_10  and  C_12 
REMARK    5  A    between atoms: C_12  and  C_13 
REMARK    6  A    between atoms: C_14  and  O_15 
ROOT
HETATM    1  C   UNL     1      -8.629   1.800 -32.905  1.00  0.00     0.031 C 
HETATM    2  C   UNL     1      -7.630   1.923 -31.755  1.00  0.00     0.241 C 
HETATM    3  N   UNL     1      -6.670   3.012 -32.171  1.00  0.00    -0.067 N 
HETATM    4  H   UNL     1      -6.596   3.666 -31.367  1.00  0.00     0.280 HD
HETATM    5  C   UNL     1      -7.263   3.753 -33.337  1.00  0.00     0.235 C 
HETATM    6  C   UNL     1      -8.692   3.236 -33.426  1.00  0.00     0.035 C 
ENDROOT
BRANCH   1   7
HETATM    7  C   UNL     1      -8.202   0.788 -33.984  1.00  0.00     0.127 C 
BRANCH   7   8
HETATM    8  N   UNL     1      -7.848  -0.489 -33.376  1.00  0.00    -0.376 N 
HETATM    9  H   UNL     1      -7.886  -0.466 -32.350  1.00  0.00     0.161 HD
BRANCH   8  10
HETATM   10  C   UNL     1      -6.815  -1.331 -33.775  1.00  0.00     0.101 A 
HETATM   11  N   UNL     1      -7.015  -2.525 -34.357  1.00  0.00    -0.347 N 
HETATM   12  C   UNL     1      -6.015  -3.348 -34.738  1.00  0.00     0.007 A 
HETATM   13  H   UNL     1      -7.964  -2.820 -34.547  1.00  0.00     0.167 HD
HETATM   14  C   UNL     1      -6.354  -4.634 -35.424  1.00  0.00     0.068 C 
HETATM   15  C   UNL     1      -4.694  -2.974 -34.502  1.00  0.00     0.025 A 
HETATM   16  C   UNL     1      -4.431  -1.763 -33.880  1.00  0.00     0.006 A 
HETATM   17  C   UNL     1      -5.492  -0.942 -33.516  1.00  0.00     0.048 A 
ENDBRANCH   8  10
ENDBRANCH   7   8
ENDBRANCH   1   7
BRANCH   3  18
HETATM   18  C   UNL     1      -5.234   2.590 -32.371  1.00  0.00     0.276 C 
BRANCH  18  19
HETATM   19  C   UNL     1      -4.257   3.726 -32.258  1.00  0.00     0.002 A 
HETATM   20  C   UNL     1      -4.162   4.482 -31.083  1.00  0.00     0.073 A 
HETATM   21  C   UNL     1      -3.256   5.535 -30.971  1.00  0.00     0.038 A 
HETATM   22  C   UNL     1      -2.420   5.841 -32.045  1.00  0.00     0.022 A 
HETATM   23  C   UNL     1      -2.505   5.099 -33.222  1.00  0.00     0.011 A 
HETATM   24 BR   UNL     1      -1.357   5.492 -34.670  1.00  0.00    -0.051 Br
HETATM   25  C   UNL     1      -3.423   4.054 -33.338  1.00  0.00     0.030 A 
BRANCH  20  26
HETATM   26  O   UNL     1      -4.964   4.139 -30.029  1.00  0.00    -0.360 OA
HETATM   27  H   UNL     1      -5.662   3.538 -30.368  1.00  0.00     0.217 HD
ENDBRANCH  20  26
ENDBRANCH  18  19
ENDBRANCH   3  18
TORSDOF 6
ENDMDL
