MODEL 1
REMARK VINA RESULT:      -6.4      0.000      0.000
REMARK  2 active torsions:
REMARK  status: ('A' for Active; 'I' for Inactive)
REMARK    1  A    between atoms: N_6  and  C_7 
REMARK    2  A    between atoms: C_11  and  N_12 
ROOT
HETATM    1  C   UNL     1      -5.649  -0.716 -33.791  1.00  0.00     0.070 A 
HETATM    2  C   UNL     1      -4.401  -0.942 -33.172  1.00  0.00     0.145 A 
HETATM    3  F   UNL     1      -3.749   0.067 -32.572  1.00  0.00    -0.204 F 
HETATM    4  C   UNL     1      -3.766  -2.182 -33.189  1.00  0.00     0.082 A 
HETATM    5  C   UNL     1      -4.388  -3.243 -33.844  1.00  0.00     0.123 A 
HETATM    6  C   UNL     1      -5.622  -3.086 -34.466  1.00  0.00     0.046 A 
HETATM    7 BR   UNL     1      -6.541  -4.495 -35.340  1.00  0.00    -0.048 Br
HETATM    8  C   UNL     1      -6.242  -1.827 -34.428  1.00  0.00     0.054 A 
ENDROOT
BRANCH   1   9
HETATM    9  N   UNL     1      -6.331   0.504 -33.760  1.00  0.00    -0.375 N 
HETATM   10  C   UNL     1      -6.836   1.002 -32.463  1.00  0.00     0.150 C 
HETATM   11  C   UNL     1      -8.341   0.691 -32.299  1.00  0.00     0.254 C 
HETATM   12  N   UNL     1      -9.137   1.225 -33.492  1.00  0.00    -0.072 N 
HETATM   13  C   UNL     1     -10.607   0.980 -33.342  1.00  0.00     0.269 C 
HETATM   14  H   UNL     1      -8.994   2.243 -33.521  1.00  0.00     0.279 HD
HETATM   15  C   UNL     1      -8.591   0.661 -34.809  1.00  0.00     0.254 C 
HETATM   16  C   UNL     1      -7.087   0.980 -34.937  1.00  0.00     0.150 C 
ENDBRANCH   1   9
BRANCH   5  17
HETATM   17  N   UNL     1      -3.698  -4.510 -33.865  1.00  0.00    -0.114 N 
HETATM   18  O   UNL     1      -2.981  -4.735 -34.845  1.00  0.00    -0.532 OA
HETATM   19  O   UNL     1      -3.932  -5.284 -32.929  1.00  0.00    -0.532 OA
ENDBRANCH   5  17
TORSDOF 2
ENDMDL
MODEL 2
REMARK VINA RESULT:      -6.2      6.157      7.315
REMARK  2 active torsions:
REMARK  status: ('A' for Active; 'I' for Inactive)
REMARK    1  A    between atoms: N_6  and  C_7 
REMARK    2  A    between atoms: C_11  and  N_12 
ROOT
HETATM    1  C   UNL     1      -3.911   3.474 -31.719  1.00  0.00     0.070 A 
HETATM    2  C   UNL     1      -4.405   3.853 -32.987  1.00  0.00     0.145 A 
HETATM    3  F   UNL     1      -5.584   3.381 -33.423  1.00  0.00    -0.204 F 
HETATM    4  C   UNL     1      -3.694   4.677 -33.856  1.00  0.00     0.082 A 
HETATM    5  C   UNL     1      -2.444   5.147 -33.459  1.00  0.00     0.123 A 
HETATM    6  C   UNL     1      -1.906   4.818 -32.220  1.00  0.00     0.046 A 
HETATM    7 BR   UNL     1      -0.231   5.455 -31.601  1.00  0.00    -0.048 Br
HETATM    8  C   UNL     1      -2.647   3.991 -31.361  1.00  0.00     0.054 A 
ENDROOT
BRANCH   1   9
HETATM    9  N   UNL     1      -4.614   2.682 -30.808  1.00  0.00    -0.375 N 
HETATM   10  C   UNL     1      -4.658   1.219 -31.024  1.00  0.00     0.150 C 
HETATM   11  C   UNL     1      -5.985   0.800 -31.698  1.00  0.00     0.254 C 
HETATM   12  N   UNL     1      -7.183   1.319 -30.901  1.00  0.00    -0.072 N 
HETATM   13  C   UNL     1      -8.486   0.890 -31.502  1.00  0.00     0.269 C 
HETATM   14  H   UNL     1      -7.125   0.907 -29.961  1.00  0.00     0.279 HD
HETATM   15  C   UNL     1      -7.104   2.840 -30.726  1.00  0.00     0.254 C 
HETATM   16  C   UNL     1      -5.767   3.226 -30.061  1.00  0.00     0.150 C 
ENDBRANCH   1   9
BRANCH   5  17
HETATM   17  N   UNL     1      -1.720   5.982 -34.387  1.00  0.00    -0.114 N 
HETATM   18  O   UNL     1      -1.881   7.202 -34.279  1.00  0.00    -0.532 OA
HETATM   19  O   UNL     1      -1.048   5.400 -35.249  1.00  0.00    -0.532 OA
ENDBRANCH   5  17
TORSDOF 2
ENDMDL
MODEL 3
REMARK VINA RESULT:      -6.1      3.353      4.195
REMARK  2 active torsions:
REMARK  status: ('A' for Active; 'I' for Inactive)
REMARK    1  A    between atoms: N_6  and  C_7 
REMARK    2  A    between atoms: C_11  and  N_12 
ROOT
HETATM    1  C   UNL     1      -4.665   1.021 -32.072  1.00  0.00     0.070 A 
HETATM    2  C   UNL     1      -4.185  -0.283 -31.818  1.00  0.00     0.145 A 
HETATM    3  F   UNL     1      -3.275  -0.493 -30.854  1.00  0.00    -0.204 F 
HETATM    4  C   UNL     1      -4.581  -1.389 -32.566  1.00  0.00     0.082 A 
HETATM    5  C   UNL     1      -5.487  -1.202 -33.608  1.00  0.00     0.123 A 
HETATM    6  C   UNL     1      -6.003   0.055 -33.903  1.00  0.00     0.046 A 
HETATM    7 BR   UNL     1      -7.268   0.372 -35.279  1.00  0.00    -0.048 Br
HETATM    8  C   UNL     1      -5.592   1.151 -33.129  1.00  0.00     0.054 A 
ENDROOT
BRANCH   1   9
HETATM    9  N   UNL     1      -4.319   2.146 -31.318  1.00  0.00    -0.375 N 
HETATM   10  C   UNL     1      -5.382   2.858 -30.576  1.00  0.00     0.150 C 
HETATM   11  C   UNL     1      -5.858   4.105 -31.354  1.00  0.00     0.254 C 
HETATM   12  N   UNL     1      -4.673   5.007 -31.707  1.00  0.00    -0.072 N 
HETATM   13  C   UNL     1      -5.106   6.250 -32.422  1.00  0.00     0.269 C 
HETATM   14  H   UNL     1      -4.236   5.295 -30.822  1.00  0.00     0.279 HD
HETATM   15  C   UNL     1      -3.612   4.230 -32.495  1.00  0.00     0.254 C 
HETATM   16  C   UNL     1      -3.166   2.988 -31.697  1.00  0.00     0.150 C 
ENDBRANCH   1   9
BRANCH   5  17
HETATM   17  N   UNL     1      -5.862  -2.362 -34.380  1.00  0.00    -0.114 N 
HETATM   18  O   UNL     1      -7.001  -2.805 -34.197  1.00  0.00    -0.532 OA
HETATM   19  O   UNL     1      -4.992  -2.847 -35.114  1.00  0.00    -0.532 OA
ENDBRANCH   5  17
TORSDOF 2
ENDMDL
MODEL 4
REMARK VINA RESULT:      -6.1      2.303      3.190
REMARK  2 active torsions:
REMARK  status: ('A' for Active; 'I' for Inactive)
REMARK    1  A    between atoms: N_6  and  C_7 
REMARK    2  A    between atoms: C_11  and  N_12 
ROOT
HETATM    1  C   UNL     1      -6.158  -0.544 -33.574  1.00  0.00     0.070 A 
HETATM    2  C   UNL     1      -6.617  -1.374 -34.621  1.00  0.00     0.145 A 
HETATM    3  F   UNL     1      -7.651  -0.991 -35.385  1.00  0.00    -0.204 F 
HETATM    4  C   UNL     1      -6.068  -2.628 -34.882  1.00  0.00     0.082 A 
HETATM    5  C   UNL     1      -5.025  -3.082 -34.078  1.00  0.00     0.123 A 
HETATM    6  C   UNL     1      -4.522  -2.308 -33.038  1.00  0.00     0.046 A 
HETATM    7 BR   UNL     1      -3.080  -2.847 -31.932  1.00  0.00    -0.048 Br
HETATM    8  C   UNL     1      -5.090  -1.046 -32.801  1.00  0.00     0.054 A 
ENDROOT
BRANCH   1   9
HETATM    9  N   UNL     1      -6.659   0.733 -33.309  1.00  0.00    -0.375 N 
HETATM   10  C   UNL     1      -5.812   1.906 -33.613  1.00  0.00     0.150 C 
HETATM   11  C   UNL     1      -5.110   2.426 -32.337  1.00  0.00     0.254 C 
HETATM   12  N   UNL     1      -6.132   2.702 -31.233  1.00  0.00    -0.072 N 
HETATM   13  C   UNL     1      -5.489   3.252 -29.997  1.00  0.00     0.269 C 
HETATM   14  H   UNL     1      -6.780   3.416 -31.589  1.00  0.00     0.279 HD
HETATM   15  C   UNL     1      -6.968   1.451 -30.938  1.00  0.00     0.254 C 
HETATM   16  C   UNL     1      -7.646   0.952 -32.231  1.00  0.00     0.150 C 
ENDBRANCH   1   9
BRANCH   5  17
HETATM   17  N   UNL     1      -4.490  -4.392 -34.358  1.00  0.00    -0.114 N 
HETATM   18  O   UNL     1      -3.260  -4.500 -34.365  1.00  0.00    -0.532 OA
HETATM   19  O   UNL     1      -5.309  -5.281 -34.624  1.00  0.00    -0.532 OA
ENDBRANCH   5  17
TORSDOF 2
ENDMDL
MODEL 5
REMARK VINA RESULT:      -5.9      5.324      7.406
REMARK  2 active torsions:
REMARK  status: ('A' for Active; 'I' for Inactive)
REMARK    1  A    between atoms: N_6  and  C_7 
REMARK    2  A    between atoms: C_11  and  N_12 
ROOT
HETATM    1  C   UNL     1      -9.269   1.743 -34.043  1.00  0.00     0.070 A 
HETATM    2  C   UNL     1      -9.972   0.653 -33.483  1.00  0.00     0.145 A 
HETATM    3  F   UNL     1      -9.305  -0.417 -33.022  1.00  0.00    -0.204 F 
HETATM    4  C   UNL     1     -11.363   0.606 -33.424  1.00  0.00     0.082 A 
HETATM    5  C   UNL     1     -12.091   1.676 -33.937  1.00  0.00     0.123 A 
HETATM    6  C   UNL     1     -11.458   2.782 -34.493  1.00  0.00     0.046 A 
HETATM    7 BR   UNL     1     -12.386   4.289 -35.173  1.00  0.00    -0.048 Br
HETATM    8  C   UNL     1     -10.055   2.807 -34.534  1.00  0.00     0.054 A 
ENDROOT
BRANCH   1   9
HETATM    9  N   UNL     1      -7.876   1.841 -34.083  1.00  0.00    -0.375 N 
HETATM   10  C   UNL     1      -7.131   0.989 -35.036  1.00  0.00     0.150 C 
HETATM   11  C   UNL     1      -6.556  -0.259 -34.328  1.00  0.00     0.254 C 
HETATM   12  N   UNL     1      -5.718   0.147 -33.114  1.00  0.00    -0.072 N 
HETATM   13  C   UNL     1      -5.107  -1.039 -32.432  1.00  0.00     0.269 C 
HETATM   14  H   UNL     1      -4.950   0.737 -33.458  1.00  0.00     0.279 HD
HETATM   15  C   UNL     1      -6.541   1.006 -32.146  1.00  0.00     0.254 C 
HETATM   16  C   UNL     1      -7.108   2.236 -32.884  1.00  0.00     0.150 C 
ENDBRANCH   1   9
BRANCH   5  17
HETATM   17  N   UNL     1     -13.530   1.591 -33.882  1.00  0.00    -0.114 N 
HETATM   18  O   UNL     1     -14.064   1.898 -32.811  1.00  0.00    -0.532 OA
HETATM   19  O   UNL     1     -14.100   1.160 -34.892  1.00  0.00    -0.532 OA
ENDBRANCH   5  17
TORSDOF 2
ENDMDL
MODEL 6
REMARK VINA RESULT:      -5.9      5.175      7.049
REMARK  2 active torsions:
REMARK  status: ('A' for Active; 'I' for Inactive)
REMARK    1  A    between atoms: N_6  and  C_7 
REMARK    2  A    between atoms: C_11  and  N_12 
ROOT
HETATM    1  C   UNL     1      -9.117   0.924 -33.139  1.00  0.00     0.070 A 
HETATM    2  C   UNL     1      -8.971   2.128 -33.863  1.00  0.00     0.145 A 
HETATM    3  F   UNL     1      -7.786   2.757 -33.899  1.00  0.00    -0.204 F 
HETATM    4  C   UNL     1     -10.033   2.743 -34.523  1.00  0.00     0.082 A 
HETATM    5  C   UNL     1     -11.290   2.146 -34.467  1.00  0.00     0.123 A 
HETATM    6  C   UNL     1     -11.497   0.955 -33.778  1.00  0.00     0.046 A 
HETATM    7 BR   UNL     1     -13.171   0.069 -33.695  1.00  0.00    -0.048 Br
HETATM    8  C   UNL     1     -10.408   0.354 -33.127  1.00  0.00     0.054 A 
ENDROOT
BRANCH   1   9
HETATM    9  N   UNL     1      -8.066   0.262 -32.499  1.00  0.00    -0.375 N 
HETATM   10  C   UNL     1      -7.573   0.791 -31.209  1.00  0.00     0.150 C 
HETATM   11  C   UNL     1      -6.296   1.638 -31.411  1.00  0.00     0.254 C 
HETATM   12  N   UNL     1      -5.234   0.841 -32.171  1.00  0.00    -0.072 N 
HETATM   13  C   UNL     1      -3.965   1.618 -32.343  1.00  0.00     0.269 C 
HETATM   14  H   UNL     1      -5.015   0.011 -31.606  1.00  0.00     0.279 HD
HETATM   15  C   UNL     1      -5.785   0.336 -33.510  1.00  0.00     0.254 C 
HETATM   16  C   UNL     1      -7.062  -0.496 -33.275  1.00  0.00     0.150 C 
ENDBRANCH   1   9
BRANCH   5  17
HETATM   17  N   UNL     1     -12.376   2.815 -35.141  1.00  0.00    -0.114 N 
HETATM   18  O   UNL     1     -13.014   3.642 -34.481  1.00  0.00    -0.532 OA
HETATM   19  O   UNL     1     -12.612   2.459 -36.302  1.00  0.00    -0.532 OA
ENDBRANCH   5  17
TORSDOF 2
ENDMDL
MODEL 7
REMARK VINA RESULT:      -5.8     10.385     11.783
REMARK  2 active torsions:
REMARK  status: ('A' for Active; 'I' for Inactive)
REMARK    1  A    between atoms: N_6  and  C_7 
REMARK    2  A    between atoms: C_11  and  N_12 
ROOT
HETATM    1  C   UNL     1      -1.353   7.354 -29.246  1.00  0.00     0.070 A 
HETATM    2  C   UNL     1      -0.179   7.339 -30.030  1.00  0.00     0.145 A 
HETATM    3  F   UNL     1       1.011   7.618 -29.474  1.00  0.00    -0.204 F 
HETATM    4  C   UNL     1      -0.192   7.088 -31.400  1.00  0.00     0.082 A 
HETATM    5  C   UNL     1      -1.414   6.842 -32.023  1.00  0.00     0.123 A 
HETATM    6  C   UNL     1      -2.604   6.834 -31.304  1.00  0.00     0.046 A 
HETATM    7 BR   UNL     1      -4.295   6.468 -32.081  1.00  0.00    -0.048 Br
HETATM    8  C   UNL     1      -2.561   7.084 -29.924  1.00  0.00     0.054 A 
ENDROOT
BRANCH   1   9
HETATM    9  N   UNL     1      -1.371   7.564 -27.864  1.00  0.00    -0.375 N 
HETATM   10  C   UNL     1      -1.341   8.953 -27.356  1.00  0.00     0.150 C 
HETATM   11  C   UNL     1       0.089   9.354 -26.927  1.00  0.00     0.254 C 
HETATM   12  N   UNL     1       0.656   8.343 -25.929  1.00  0.00    -0.072 N 
HETATM   13  C   UNL     1       2.025   8.728 -25.456  1.00  0.00     0.269 C 
HETATM   14  H   UNL     1       0.035   8.343 -25.109  1.00  0.00     0.279 HD
HETATM   15  C   UNL     1       0.627   6.925 -26.510  1.00  0.00     0.254 C 
HETATM   16  C   UNL     1      -0.810   6.560 -26.937  1.00  0.00     0.150 C 
ENDBRANCH   1   9
BRANCH   5  17
HETATM   17  N   UNL     1      -1.401   6.606 -33.446  1.00  0.00    -0.114 N 
HETATM   18  O   UNL     1      -1.189   5.446 -33.814  1.00  0.00    -0.532 OA
HETATM   19  O   UNL     1      -1.544   7.596 -34.174  1.00  0.00    -0.532 OA
ENDBRANCH   5  17
TORSDOF 2
ENDMDL
MODEL 8
REMARK VINA RESULT:      -5.8      2.240      2.667
REMARK  2 active torsions:
REMARK  status: ('A' for Active; 'I' for Inactive)
REMARK    1  A    between atoms: N_6  and  C_7 
REMARK    2  A    between atoms: C_11  and  N_12 
ROOT
HETATM    1  C   UNL     1      -6.858  -0.309 -33.208  1.00  0.00     0.070 A 
HETATM    2  C   UNL     1      -6.196   0.135 -32.042  1.00  0.00     0.145 A 
HETATM    3  F   UNL     1      -6.708   1.140 -31.314  1.00  0.00    -0.204 F 
HETATM    4  C   UNL     1      -4.980  -0.397 -31.618  1.00  0.00     0.082 A 
HETATM    5  C   UNL     1      -4.393  -1.408 -32.375  1.00  0.00     0.123 A 
HETATM    6  C   UNL     1      -4.999  -1.895 -33.528  1.00  0.00     0.046 A 
HETATM    7 BR   UNL     1      -4.275  -3.296 -34.581  1.00  0.00    -0.048 Br
HETATM    8  C   UNL     1      -6.227  -1.346 -33.929  1.00  0.00     0.054 A 
ENDROOT
BRANCH   1   9
HETATM    9  N   UNL     1      -8.095   0.175 -33.640  1.00  0.00    -0.375 N 
HETATM   10  C   UNL     1      -8.128   1.386 -34.489  1.00  0.00     0.150 C 
HETATM   11  C   UNL     1      -8.456   2.641 -33.648  1.00  0.00     0.254 C 
HETATM   12  N   UNL     1      -9.748   2.437 -32.855  1.00  0.00    -0.072 N 
HETATM   13  C   UNL     1     -10.121   3.653 -32.064  1.00  0.00     0.269 C 
HETATM   14  H   UNL     1     -10.500   2.267 -33.536  1.00  0.00     0.279 HD
HETATM   15  C   UNL     1      -9.656   1.185 -31.974  1.00  0.00     0.254 C 
HETATM   16  C   UNL     1      -9.318  -0.046 -32.840  1.00  0.00     0.150 C 
ENDBRANCH   1   9
BRANCH   5  17
HETATM   17  N   UNL     1      -3.124  -1.926 -31.924  1.00  0.00    -0.114 N 
HETATM   18  O   UNL     1      -2.179  -1.131 -31.895  1.00  0.00    -0.532 OA
HETATM   19  O   UNL     1      -3.078  -3.134 -31.663  1.00  0.00    -0.532 OA
ENDBRANCH   5  17
TORSDOF 2
ENDMDL
MODEL 9
REMARK VINA RESULT:      -5.8     10.501     11.746
REMARK  2 active torsions:
REMARK  status: ('A' for Active; 'I' for Inactive)
REMARK    1  A    between atoms: N_6  and  C_7 
REMARK    2  A    between atoms: C_11  and  N_12 
ROOT
HETATM    1  C   UNL     1       0.007   6.442 -28.907  1.00  0.00     0.070 A 
HETATM    2  C   UNL     1       0.508   5.427 -29.751  1.00  0.00     0.145 A 
HETATM    3  F   UNL     1       1.409   4.546 -29.289  1.00  0.00    -0.204 F 
HETATM    4  C   UNL     1       0.144   5.314 -31.091  1.00  0.00     0.082 A 
HETATM    5  C   UNL     1      -0.752   6.240 -31.620  1.00  0.00     0.123 A 
HETATM    6  C   UNL     1      -1.288   7.258 -30.839  1.00  0.00     0.046 A 
HETATM    7 BR   UNL     1      -2.541   8.526 -31.485  1.00  0.00    -0.048 Br
HETATM    8  C   UNL     1      -0.909   7.344 -29.490  1.00  0.00     0.054 A 
ENDROOT
BRANCH   1   9
HETATM    9  N   UNL     1       0.321   6.561 -27.550  1.00  0.00    -0.375 N 
HETATM   10  C   UNL     1      -0.748   6.343 -26.552  1.00  0.00     0.150 C 
HETATM   11  C   UNL     1      -1.324   7.690 -26.057  1.00  0.00     0.254 C 
HETATM   12  N   UNL     1      -0.207   8.599 -25.542  1.00  0.00    -0.072 N 
HETATM   13  C   UNL     1      -0.737   9.896 -25.012  1.00  0.00     0.269 C 
HETATM   14  H   UNL     1       0.250   8.109 -24.763  1.00  0.00     0.279 HD
HETATM   15  C   UNL     1       0.862   8.814 -26.621  1.00  0.00     0.254 C 
HETATM   16  C   UNL     1       1.409   7.453 -27.100  1.00  0.00     0.150 C 
ENDBRANCH   1   9
BRANCH   5  17
HETATM   17  N   UNL     1      -1.095   6.113 -33.016  1.00  0.00    -0.114 N 
HETATM   18  O   UNL     1      -1.732   5.106 -33.341  1.00  0.00    -0.532 OA
HETATM   19  O   UNL     1      -0.670   6.992 -33.775  1.00  0.00    -0.532 OA
ENDBRANCH   5  17
TORSDOF 2
ENDMDL
MODEL 10
REMARK VINA RESULT:      -5.8      3.066      4.159
REMARK  2 active torsions:
REMARK  status: ('A' for Active; 'I' for Inactive)
REMARK    1  A    between atoms: N_6  and  C_7 
REMARK    2  A    between atoms: C_11  and  N_12 
ROOT
HETATM    1  C   UNL     1      -6.377   1.118 -33.497  1.00  0.00     0.070 A 
HETATM    2  C   UNL     1      -7.047   0.470 -34.559  1.00  0.00     0.145 A 
HETATM    3  F   UNL     1      -8.043   1.092 -35.210  1.00  0.00    -0.204 F 
HETATM    4  C   UNL     1      -6.755  -0.834 -34.949  1.00  0.00     0.082 A 
HETATM    5  C   UNL     1      -5.760  -1.530 -34.265  1.00  0.00     0.123 A 
HETATM    6  C   UNL     1      -5.058  -0.945 -33.217  1.00  0.00     0.046 A 
HETATM    7 BR   UNL     1      -3.667  -1.820 -32.270  1.00  0.00    -0.048 Br
HETATM    8  C   UNL     1      -5.369   0.373 -32.848  1.00  0.00     0.054 A 
ENDROOT
BRANCH   1   9
HETATM    9  N   UNL     1      -6.619   2.437 -33.105  1.00  0.00    -0.375 N 
HETATM   10  C   UNL     1      -6.102   3.535 -33.950  1.00  0.00     0.150 C 
HETATM   11  C   UNL     1      -4.782   4.100 -33.375  1.00  0.00     0.254 C 
HETATM   12  N   UNL     1      -4.961   4.509 -31.912  1.00  0.00    -0.072 N 
HETATM   13  C   UNL     1      -3.712   5.104 -31.338  1.00  0.00     0.269 C 
HETATM   14  H   UNL     1      -5.690   5.234 -31.886  1.00  0.00     0.279 HD
HETATM   15  C   UNL     1      -5.474   3.331 -31.075  1.00  0.00     0.254 C 
HETATM   16  C   UNL     1      -6.785   2.786 -31.679  1.00  0.00     0.150 C 
ENDBRANCH   1   9
BRANCH   5  17
HETATM   17  N   UNL     1      -5.492  -2.886 -34.676  1.00  0.00    -0.114 N 
HETATM   18  O   UNL     1      -6.406  -3.704 -34.522  1.00  0.00    -0.532 OA
HETATM   19  O   UNL     1      -4.352  -3.126 -35.092  1.00  0.00    -0.532 OA
ENDBRANCH   5  17
TORSDOF 2
ENDMDL
