MODEL 1
REMARK VINA RESULT:      -8.2      0.000      0.000
REMARK  8 active torsions:
REMARK  status: ('A' for Active; 'I' for Inactive)
REMARK    1  A    between atoms: N_2  and  C_4 
REMARK    2  A    between atoms: N_2  and  C_28 
REMARK    3  A    between atoms: N_7  and  C_8 
REMARK    4  A    between atoms: C_11  and  C_12 
REMARK       I    between atoms: C_12  and  N_13 
REMARK    5  A    between atoms: N_13  and  C_14 
REMARK    6  A    between atoms: C_14  and  C_15 
REMARK    7  A    between atoms: C_15  and  N_16 
REMARK    8  A    between atoms: C_28  and  C_29 
ROOT
HETATM    1  C   UNL     1      -8.597   1.211 -32.904  1.00  0.00     0.030 A 
HETATM    2  C   UNL     1      -9.106   2.441 -33.347  1.00  0.00     0.030 A 
HETATM    3  C   UNL     1     -10.445   2.588 -33.746  1.00  0.00     0.019 A 
HETATM    4  C   UNL     1     -11.311   1.494 -33.704  1.00  0.00     0.032 A 
HETATM    5  C   UNL     1     -10.830   0.261 -33.265  1.00  0.00     0.019 A 
HETATM    6  C   UNL     1      -9.490   0.125 -32.880  1.00  0.00     0.030 A 
ENDROOT
BRANCH   1   7
HETATM    7  N   UNL     1      -7.289   1.046 -32.431  1.00  0.00    -0.381 N 
HETATM    8  C   UNL     1      -6.181   1.231 -33.365  1.00  0.00     0.125 C 
HETATM    9  C   UNL     1      -4.908   1.540 -32.581  1.00  0.00     0.053 C 
HETATM   10  C   UNL     1      -4.603   0.494 -31.496  1.00  0.00     0.191 C 
HETATM   11  C   UNL     1      -5.843   0.345 -30.597  1.00  0.00     0.053 C 
HETATM   12  C   UNL     1      -7.109   0.029 -31.390  1.00  0.00     0.125 C 
BRANCH  10  13
HETATM   13  N   UNL     1      -4.141  -0.847 -32.100  1.00  0.00    -0.067 N 
HETATM   14  C   UNL     1      -2.716  -1.221 -31.737  1.00  0.00     0.270 C 
HETATM   15  H   UNL     1      -4.734  -1.599 -31.729  1.00  0.00     0.280 HD
BRANCH  13  16
HETATM   16  C   UNL     1      -4.294  -0.900 -33.621  1.00  0.00     0.273 C 
BRANCH  16  17
HETATM   17  C   UNL     1      -5.008  -2.132 -34.081  1.00  0.00    -0.026 A 
HETATM   18  C   UNL     1      -4.400  -3.350 -34.326  1.00  0.00     0.058 A 
HETATM   19  S   UNL     1      -5.503  -4.560 -34.816  1.00  0.00    -0.113 SA
HETATM   20  C   UNL     1      -6.813  -3.468 -34.748  1.00  0.00     0.050 A 
HETATM   21  C   UNL     1      -6.419  -2.210 -34.349  1.00  0.00     0.016 A 
ENDBRANCH  16  17
ENDBRANCH  13  16
ENDBRANCH  10  13
ENDBRANCH   1   7
BRANCH   4  22
HETATM   22  C   UNL     1     -12.757   1.626 -34.023  1.00  0.00     0.251 C 
HETATM   23  N   UNL     1     -13.628   1.763 -32.965  1.00  0.00    -0.355 N 
HETATM   24  H   UNL     1     -13.237   1.782 -32.029  1.00  0.00     0.162 HD
HETATM   25  O   UNL     1     -13.141   1.628 -35.190  1.00  0.00    -0.268 OA
BRANCH  23  26
HETATM   26  C   UNL     1     -15.078   1.603 -33.063  1.00  0.00     0.150 C 
BRANCH  26  27
HETATM   27  C   UNL     1     -15.929   2.251 -31.946  1.00  0.00     0.254 C 
BRANCH  27  28
HETATM   28  N   UNL     1     -16.682   3.474 -32.406  1.00  0.00    -0.066 N 
HETATM   29  H   UNL     1     -16.677   3.436 -33.447  1.00  0.00     0.280 HD
HETATM   30  C   UNL     1     -18.146   3.519 -31.998  1.00  0.00     0.261 C 
HETATM   31  C   UNL     1     -18.805   4.772 -32.589  1.00  0.00     0.195 C 
HETATM   32  O   UNL     1     -18.121   5.956 -32.164  1.00  0.00    -0.388 OA
HETATM   33  C   UNL     1     -16.759   5.961 -32.606  1.00  0.00     0.195 C 
HETATM   34  C   UNL     1     -15.989   4.772 -32.022  1.00  0.00     0.261 C 
ENDBRANCH  27  28
ENDBRANCH  26  27
ENDBRANCH  23  26
ENDBRANCH   4  22
TORSDOF 8
ENDMDL
MODEL 2
REMARK VINA RESULT:      -7.8     12.142     16.779
REMARK  8 active torsions:
REMARK  status: ('A' for Active; 'I' for Inactive)
REMARK    1  A    between atoms: N_2  and  C_4 
REMARK    2  A    between atoms: N_2  and  C_28 
REMARK    3  A    between atoms: N_7  and  C_8 
REMARK    4  A    between atoms: C_11  and  C_12 
REMARK       I    between atoms: C_12  and  N_13 
REMARK    5  A    between atoms: N_13  and  C_14 
REMARK    6  A    between atoms: C_14  and  C_15 
REMARK    7  A    between atoms: C_15  and  N_16 
REMARK    8  A    between atoms: C_28  and  C_29 
ROOT
HETATM    1  C   UNL     1       0.433   7.276 -28.579  1.00  0.00     0.030 A 
HETATM    2  C   UNL     1       0.095   6.659 -27.365  1.00  0.00     0.030 A 
HETATM    3  C   UNL     1       0.566   7.143 -26.133  1.00  0.00     0.019 A 
HETATM    4  C   UNL     1       1.390   8.269 -26.092  1.00  0.00     0.032 A 
HETATM    5  C   UNL     1       1.738   8.901 -27.285  1.00  0.00     0.019 A 
HETATM    6  C   UNL     1       1.270   8.403 -28.509  1.00  0.00     0.030 A 
ENDROOT
BRANCH   1   7
HETATM    7  N   UNL     1      -0.077   6.865 -29.817  1.00  0.00    -0.381 N 
HETATM    8  C   UNL     1      -1.181   7.622 -30.403  1.00  0.00     0.125 C 
HETATM    9  C   UNL     1      -1.217   7.376 -31.909  1.00  0.00     0.053 C 
HETATM   10  C   UNL     1      -1.263   5.882 -32.271  1.00  0.00     0.191 C 
HETATM   11  C   UNL     1      -0.089   5.173 -31.573  1.00  0.00     0.053 C 
HETATM   12  C   UNL     1      -0.065   5.420 -30.067  1.00  0.00     0.125 C 
BRANCH  10  13
HETATM   13  N   UNL     1      -2.626   5.248 -31.935  1.00  0.00    -0.067 N 
HETATM   14  C   UNL     1      -2.753   3.802 -32.378  1.00  0.00     0.270 C 
HETATM   15  H   UNL     1      -2.747   5.243 -30.915  1.00  0.00     0.280 HD
BRANCH  13  16
HETATM   16  C   UNL     1      -3.808   6.042 -32.496  1.00  0.00     0.273 C 
BRANCH  16  17
HETATM   17  C   UNL     1      -4.748   6.499 -31.425  1.00  0.00    -0.026 A 
HETATM   18  C   UNL     1      -5.766   7.418 -31.609  1.00  0.00     0.058 A 
HETATM   19  S   UNL     1      -6.672   7.703 -30.188  1.00  0.00    -0.113 SA
HETATM   20  C   UNL     1      -5.696   6.632 -29.286  1.00  0.00     0.050 A 
HETATM   21  C   UNL     1      -4.707   6.061 -30.056  1.00  0.00     0.016 A 
ENDBRANCH  16  17
ENDBRANCH  13  16
ENDBRANCH  10  13
ENDBRANCH   1   7
BRANCH   4  22
HETATM   22  C   UNL     1       1.831   8.872 -24.807  1.00  0.00     0.251 C 
HETATM   23  N   UNL     1       2.875   8.263 -24.148  1.00  0.00    -0.355 N 
HETATM   24  H   UNL     1       3.297   7.448 -24.579  1.00  0.00     0.162 HD
HETATM   25  O   UNL     1       1.284   9.884 -24.373  1.00  0.00    -0.268 OA
BRANCH  23  26
HETATM   26  C   UNL     1       3.238   8.524 -22.755  1.00  0.00     0.150 C 
BRANCH  26  27
HETATM   27  C   UNL     1       4.532   9.335 -22.511  1.00  0.00     0.254 C 
BRANCH  27  28
HETATM   28  N   UNL     1       5.503   8.640 -21.589  1.00  0.00    -0.066 N 
HETATM   29  H   UNL     1       6.443   8.764 -22.021  1.00  0.00     0.280 HD
HETATM   30  C   UNL     1       5.604   9.237 -20.194  1.00  0.00     0.261 C 
HETATM   31  C   UNL     1       6.672   8.486 -19.390  1.00  0.00     0.195 C 
HETATM   32  O   UNL     1       6.371   7.088 -19.325  1.00  0.00    -0.388 OA
HETATM   33  C   UNL     1       6.346   6.497 -20.628  1.00  0.00     0.195 C 
HETATM   34  C   UNL     1       5.265   7.141 -21.503  1.00  0.00     0.261 C 
ENDBRANCH  27  28
ENDBRANCH  26  27
ENDBRANCH  23  26
ENDBRANCH   4  22
TORSDOF 8
ENDMDL
MODEL 3
REMARK VINA RESULT:      -7.7      5.842      8.038
REMARK  8 active torsions:
REMARK  status: ('A' for Active; 'I' for Inactive)
REMARK    1  A    between atoms: N_2  and  C_4 
REMARK    2  A    between atoms: N_2  and  C_28 
REMARK    3  A    between atoms: N_7  and  C_8 
REMARK    4  A    between atoms: C_11  and  C_12 
REMARK       I    between atoms: C_12  and  N_13 
REMARK    5  A    between atoms: N_13  and  C_14 
REMARK    6  A    between atoms: C_14  and  C_15 
REMARK    7  A    between atoms: C_15  and  N_16 
REMARK    8  A    between atoms: C_28  and  C_29 
ROOT
HETATM    1  C   UNL     1      -4.079   4.214 -33.179  1.00  0.00     0.030 A 
HETATM    2  C   UNL     1      -5.195   4.627 -33.922  1.00  0.00     0.030 A 
HETATM    3  C   UNL     1      -6.338   3.820 -34.053  1.00  0.00     0.019 A 
HETATM    4  C   UNL     1      -6.387   2.571 -33.432  1.00  0.00     0.032 A 
HETATM    5  C   UNL     1      -5.292   2.139 -32.685  1.00  0.00     0.019 A 
HETATM    6  C   UNL     1      -4.154   2.949 -32.570  1.00  0.00     0.030 A 
ENDROOT
BRANCH   1   7
HETATM    7  N   UNL     1      -2.955   5.022 -32.967  1.00  0.00    -0.381 N 
HETATM    8  C   UNL     1      -1.927   4.558 -32.038  1.00  0.00     0.125 C 
HETATM    9  C   UNL     1      -0.610   5.263 -32.350  1.00  0.00     0.053 C 
HETATM   10  C   UNL     1      -0.742   6.795 -32.374  1.00  0.00     0.191 C 
HETATM   11  C   UNL     1      -1.873   7.174 -33.346  1.00  0.00     0.053 C 
HETATM   12  C   UNL     1      -3.188   6.468 -33.021  1.00  0.00     0.125 C 
BRANCH  10  13
HETATM   13  N   UNL     1      -0.948   7.379 -30.963  1.00  0.00    -0.067 N 
HETATM   14  C   UNL     1      -1.786   8.643 -30.943  1.00  0.00     0.270 C 
HETATM   15  H   UNL     1      -1.456   6.694 -30.392  1.00  0.00     0.280 HD
BRANCH  13  16
HETATM   16  C   UNL     1       0.368   7.647 -30.230  1.00  0.00     0.273 C 
BRANCH  16  17
HETATM   17  C   UNL     1       0.284   7.329 -28.771  1.00  0.00    -0.026 A 
HETATM   18  C   UNL     1      -0.700   6.549 -28.190  1.00  0.00     0.058 A 
HETATM   19  S   UNL     1      -0.493   6.361 -26.503  1.00  0.00    -0.113 SA
HETATM   20  C   UNL     1       0.896   7.354 -26.509  1.00  0.00     0.050 A 
HETATM   21  C   UNL     1       1.201   7.809 -27.773  1.00  0.00     0.016 A 
ENDBRANCH  16  17
ENDBRANCH  13  16
ENDBRANCH  10  13
ENDBRANCH   1   7
BRANCH   4  22
HETATM   22  C   UNL     1      -7.611   1.728 -33.462  1.00  0.00     0.251 C 
HETATM   23  N   UNL     1      -8.734   2.264 -34.051  1.00  0.00    -0.355 N 
HETATM   24  H   UNL     1      -8.662   3.196 -34.446  1.00  0.00     0.162 HD
HETATM   25  O   UNL     1      -7.598   0.593 -32.990  1.00  0.00    -0.268 OA
BRANCH  23  26
HETATM   26  C   UNL     1     -10.083   1.719 -33.908  1.00  0.00     0.150 C 
BRANCH  26  27
HETATM   27  C   UNL     1     -11.057   2.495 -32.993  1.00  0.00     0.254 C 
BRANCH  27  28
HETATM   28  N   UNL     1     -12.425   1.865 -32.910  1.00  0.00    -0.066 N 
HETATM   29  H   UNL     1     -12.484   1.437 -31.962  1.00  0.00     0.280 HD
HETATM   30  C   UNL     1     -13.589   2.839 -33.000  1.00  0.00     0.261 C 
HETATM   31  C   UNL     1     -14.910   2.079 -32.830  1.00  0.00     0.195 C 
HETATM   32  O   UNL     1     -15.034   1.046 -33.813  1.00  0.00    -0.388 OA
HETATM   33  C   UNL     1     -13.984   0.080 -33.693  1.00  0.00     0.195 C 
HETATM   34  C   UNL     1     -12.612   0.729 -33.904  1.00  0.00     0.261 C 
ENDBRANCH  27  28
ENDBRANCH  26  27
ENDBRANCH  23  26
ENDBRANCH   4  22
TORSDOF 8
ENDMDL
MODEL 4
REMARK VINA RESULT:      -7.7     11.357     15.921
REMARK  8 active torsions:
REMARK  status: ('A' for Active; 'I' for Inactive)
REMARK    1  A    between atoms: N_2  and  C_4 
REMARK    2  A    between atoms: N_2  and  C_28 
REMARK    3  A    between atoms: N_7  and  C_8 
REMARK    4  A    between atoms: C_11  and  C_12 
REMARK       I    between atoms: C_12  and  N_13 
REMARK    5  A    between atoms: N_13  and  C_14 
REMARK    6  A    between atoms: C_14  and  C_15 
REMARK    7  A    between atoms: C_15  and  N_16 
REMARK    8  A    between atoms: C_28  and  C_29 
ROOT
HETATM    1  C   UNL     1      -0.318   7.768 -29.354  1.00  0.00     0.030 A 
HETATM    2  C   UNL     1      -1.060   8.811 -28.778  1.00  0.00     0.030 A 
HETATM    3  C   UNL     1      -0.655   9.437 -27.587  1.00  0.00     0.019 A 
HETATM    4  C   UNL     1       0.517   9.030 -26.946  1.00  0.00     0.032 A 
HETATM    5  C   UNL     1       1.273   7.999 -27.500  1.00  0.00     0.019 A 
HETATM    6  C   UNL     1       0.853   7.375 -28.683  1.00  0.00     0.030 A 
ENDROOT
BRANCH   1   7
HETATM    7  N   UNL     1      -0.652   7.172 -30.576  1.00  0.00    -0.381 N 
HETATM    8  C   UNL     1      -1.642   7.829 -31.425  1.00  0.00     0.125 C 
HETATM    9  C   UNL     1      -1.466   7.354 -32.865  1.00  0.00     0.053 C 
HETATM   10  C   UNL     1      -1.492   5.822 -32.998  1.00  0.00     0.191 C 
HETATM   11  C   UNL     1      -0.447   5.230 -32.036  1.00  0.00     0.053 C 
HETATM   12  C   UNL     1      -0.636   5.706 -30.598  1.00  0.00     0.125 C 
BRANCH  10  13
HETATM   13  N   UNL     1      -2.903   5.246 -32.772  1.00  0.00    -0.067 N 
HETATM   14  C   UNL     1      -2.923   3.744 -32.565  1.00  0.00     0.270 C 
HETATM   15  H   UNL     1      -3.295   5.655 -31.916  1.00  0.00     0.280 HD
BRANCH  13  16
HETATM   16  C   UNL     1      -3.879   5.603 -33.895  1.00  0.00     0.273 C 
BRANCH  16  17
HETATM   17  C   UNL     1      -5.300   5.635 -33.428  1.00  0.00    -0.026 A 
HETATM   18  C   UNL     1      -6.302   4.800 -33.890  1.00  0.00     0.058 A 
HETATM   19  S   UNL     1      -7.808   5.080 -33.132  1.00  0.00    -0.113 SA
HETATM   20  C   UNL     1      -7.161   6.354 -32.198  1.00  0.00     0.050 A 
HETATM   21  C   UNL     1      -5.821   6.552 -32.450  1.00  0.00     0.016 A 
ENDBRANCH  16  17
ENDBRANCH  13  16
ENDBRANCH  10  13
ENDBRANCH   1   7
BRANCH   4  22
HETATM   22  C   UNL     1       1.034   9.730 -25.740  1.00  0.00     0.251 C 
HETATM   23  N   UNL     1       2.392   9.688 -25.518  1.00  0.00    -0.355 N 
HETATM   24  H   UNL     1       2.968   9.198 -26.195  1.00  0.00     0.162 HD
HETATM   25  O   UNL     1       0.267  10.330 -24.990  1.00  0.00    -0.268 OA
BRANCH  23  26
HETATM   26  C   UNL     1       3.035  10.047 -24.255  1.00  0.00     0.150 C 
BRANCH  26  27
HETATM   27  C   UNL     1       2.986   8.996 -23.122  1.00  0.00     0.254 C 
BRANCH  27  28
HETATM   28  N   UNL     1       4.274   8.225 -22.971  1.00  0.00    -0.066 N 
HETATM   29  H   UNL     1       4.246   7.481 -23.700  1.00  0.00     0.280 HD
HETATM   30  C   UNL     1       5.538   9.027 -23.241  1.00  0.00     0.261 C 
HETATM   31  C   UNL     1       6.762   8.109 -23.124  1.00  0.00     0.195 C 
HETATM   32  O   UNL     1       6.815   7.493 -21.833  1.00  0.00    -0.388 OA
HETATM   33  C   UNL     1       5.664   6.675 -21.595  1.00  0.00     0.195 C 
HETATM   34  C   UNL     1       4.380   7.510 -21.634  1.00  0.00     0.261 C 
ENDBRANCH  27  28
ENDBRANCH  26  27
ENDBRANCH  23  26
ENDBRANCH   4  22
TORSDOF 8
ENDMDL
MODEL 5
REMARK VINA RESULT:      -7.7      6.437     10.396
REMARK  8 active torsions:
REMARK  status: ('A' for Active; 'I' for Inactive)
REMARK    1  A    between atoms: N_2  and  C_4 
REMARK    2  A    between atoms: N_2  and  C_28 
REMARK    3  A    between atoms: N_7  and  C_8 
REMARK    4  A    between atoms: C_11  and  C_12 
REMARK       I    between atoms: C_12  and  N_13 
REMARK    5  A    between atoms: N_13  and  C_14 
REMARK    6  A    between atoms: C_14  and  C_15 
REMARK    7  A    between atoms: C_15  and  N_16 
REMARK    8  A    between atoms: C_28  and  C_29 
ROOT
HETATM    1  C   UNL     1      -4.551   3.217 -31.691  1.00  0.00     0.030 A 
HETATM    2  C   UNL     1      -4.898   4.386 -30.996  1.00  0.00     0.030 A 
HETATM    3  C   UNL     1      -3.960   5.399 -30.737  1.00  0.00     0.019 A 
HETATM    4  C   UNL     1      -2.642   5.262 -31.177  1.00  0.00     0.032 A 
HETATM    5  C   UNL     1      -2.273   4.111 -31.872  1.00  0.00     0.019 A 
HETATM    6  C   UNL     1      -3.216   3.103 -32.116  1.00  0.00     0.030 A 
ENDROOT
BRANCH   1   7
HETATM    7  N   UNL     1      -5.476   2.222 -32.031  1.00  0.00    -0.381 N 
HETATM    8  C   UNL     1      -5.079   0.823 -31.887  1.00  0.00     0.125 C 
HETATM    9  C   UNL     1      -6.329  -0.046 -31.778  1.00  0.00     0.053 C 
HETATM   10  C   UNL     1      -7.316   0.177 -32.937  1.00  0.00     0.191 C 
HETATM   11  C   UNL     1      -7.634   1.679 -33.027  1.00  0.00     0.053 C 
HETATM   12  C   UNL     1      -6.378   2.539 -33.142  1.00  0.00     0.125 C 
BRANCH  10  13
HETATM   13  N   UNL     1      -6.790  -0.402 -34.264  1.00  0.00    -0.067 N 
HETATM   14  C   UNL     1      -7.068   0.480 -35.467  1.00  0.00     0.270 C 
HETATM   15  H   UNL     1      -5.768  -0.487 -34.206  1.00  0.00     0.280 HD
BRANCH  13  16
HETATM   16  C   UNL     1      -7.315  -1.810 -34.552  1.00  0.00     0.273 C 
BRANCH  16  17
HETATM   17  C   UNL     1      -6.239  -2.847 -34.480  1.00  0.00    -0.026 A 
HETATM   18  C   UNL     1      -4.929  -2.598 -34.110  1.00  0.00     0.058 A 
HETATM   19  S   UNL     1      -3.958  -4.005 -34.108  1.00  0.00    -0.113 SA
HETATM   20  C   UNL     1      -5.261  -4.970 -34.641  1.00  0.00     0.050 A 
HETATM   21  C   UNL     1      -6.415  -4.236 -34.805  1.00  0.00     0.016 A 
ENDBRANCH  16  17
ENDBRANCH  13  16
ENDBRANCH  10  13
ENDBRANCH   1   7
BRANCH   4  22
HETATM   22  C   UNL     1      -1.642   6.350 -31.010  1.00  0.00     0.251 C 
HETATM   23  N   UNL     1      -0.581   6.109 -30.167  1.00  0.00    -0.355 N 
HETATM   24  H   UNL     1      -0.528   5.201 -29.718  1.00  0.00     0.162 HD
HETATM   25  O   UNL     1      -1.766   7.409 -31.621  1.00  0.00    -0.268 OA
BRANCH  23  26
HETATM   26  C   UNL     1       0.316   7.143 -29.653  1.00  0.00     0.150 C 
BRANCH  26  27
HETATM   27  C   UNL     1       0.676   7.073 -28.151  1.00  0.00     0.254 C 
BRANCH  27  28
HETATM   28  N   UNL     1      -0.326   7.772 -27.266  1.00  0.00    -0.066 N 
HETATM   29  H   UNL     1       0.234   8.267 -26.539  1.00  0.00     0.280 HD
HETATM   30  C   UNL     1      -1.154   8.844 -27.956  1.00  0.00     0.261 C 
HETATM   31  C   UNL     1      -2.075   9.520 -26.932  1.00  0.00     0.195 C 
HETATM   32  O   UNL     1      -2.919   8.557 -26.292  1.00  0.00    -0.388 OA
HETATM   33  C   UNL     1      -2.152   7.582 -25.576  1.00  0.00     0.195 C 
HETATM   34  C   UNL     1      -1.232   6.804 -26.523  1.00  0.00     0.261 C 
ENDBRANCH  27  28
ENDBRANCH  26  27
ENDBRANCH  23  26
ENDBRANCH   4  22
TORSDOF 8
ENDMDL
MODEL 6
REMARK VINA RESULT:      -7.6     11.086     15.353
REMARK  8 active torsions:
REMARK  status: ('A' for Active; 'I' for Inactive)
REMARK    1  A    between atoms: N_2  and  C_4 
REMARK    2  A    between atoms: N_2  and  C_28 
REMARK    3  A    between atoms: N_7  and  C_8 
REMARK    4  A    between atoms: C_11  and  C_12 
REMARK       I    between atoms: C_12  and  N_13 
REMARK    5  A    between atoms: N_13  and  C_14 
REMARK    6  A    between atoms: C_14  and  C_15 
REMARK    7  A    between atoms: C_15  and  N_16 
REMARK    8  A    between atoms: C_28  and  C_29 
ROOT
HETATM    1  C   UNL     1      -0.968   7.843 -29.465  1.00  0.00     0.030 A 
HETATM    2  C   UNL     1      -1.585   8.468 -28.370  1.00  0.00     0.030 A 
HETATM    3  C   UNL     1      -0.871   8.790 -27.204  1.00  0.00     0.019 A 
HETATM    4  C   UNL     1       0.490   8.494 -27.112  1.00  0.00     0.032 A 
HETATM    5  C   UNL     1       1.126   7.876 -28.187  1.00  0.00     0.019 A 
HETATM    6  C   UNL     1       0.401   7.550 -29.342  1.00  0.00     0.030 A 
ENDROOT
BRANCH   1   7
HETATM    7  N   UNL     1      -1.630   7.574 -30.670  1.00  0.00    -0.381 N 
HETATM    8  C   UNL     1      -2.901   6.855 -30.621  1.00  0.00     0.125 C 
HETATM    9  C   UNL     1      -3.688   7.135 -31.899  1.00  0.00     0.053 C 
HETATM   10  C   UNL     1      -2.883   6.837 -33.175  1.00  0.00     0.191 C 
HETATM   11  C   UNL     1      -1.553   7.606 -33.106  1.00  0.00     0.053 C 
HETATM   12  C   UNL     1      -0.770   7.313 -31.828  1.00  0.00     0.125 C 
BRANCH  10  13
HETATM   13  N   UNL     1      -2.686   5.324 -33.394  1.00  0.00    -0.067 N 
HETATM   14  C   UNL     1      -1.772   4.990 -34.558  1.00  0.00     0.270 C 
HETATM   15  H   UNL     1      -2.240   4.924 -32.560  1.00  0.00     0.280 HD
BRANCH  13  16
HETATM   16  C   UNL     1      -4.006   4.570 -33.570  1.00  0.00     0.273 C 
BRANCH  16  17
HETATM   17  C   UNL     1      -4.257   3.593 -32.464  1.00  0.00    -0.026 A 
HETATM   18  C   UNL     1      -5.160   3.784 -31.434  1.00  0.00     0.058 A 
HETATM   19  S   UNL     1      -5.221   2.465 -30.348  1.00  0.00    -0.113 SA
HETATM   20  C   UNL     1      -4.010   1.628 -31.213  1.00  0.00     0.050 A 
HETATM   21  C   UNL     1      -3.577   2.335 -32.313  1.00  0.00     0.016 A 
ENDBRANCH  16  17
ENDBRANCH  13  16
ENDBRANCH  10  13
ENDBRANCH   1   7
BRANCH   4  22
HETATM   22  C   UNL     1       1.304   8.905 -25.937  1.00  0.00     0.251 C 
HETATM   23  N   UNL     1       0.698   9.709 -24.998  1.00  0.00    -0.355 N 
HETATM   24  H   UNL     1      -0.272   9.964 -25.148  1.00  0.00     0.162 HD
HETATM   25  O   UNL     1       2.465   8.519 -25.818  1.00  0.00    -0.268 OA
BRANCH  23  26
HETATM   26  C   UNL     1       1.413  10.446 -23.957  1.00  0.00     0.150 C 
BRANCH  26  27
HETATM   27  C   UNL     1       1.855   9.645 -22.711  1.00  0.00     0.254 C 
BRANCH  27  28
HETATM   28  N   UNL     1       3.220   9.019 -22.860  1.00  0.00    -0.066 N 
HETATM   29  H   UNL     1       3.149   8.373 -23.674  1.00  0.00     0.280 HD
HETATM   30  C   UNL     1       4.339   9.992 -23.197  1.00  0.00     0.261 C 
HETATM   31  C   UNL     1       5.650   9.219 -23.391  1.00  0.00     0.195 C 
HETATM   32  O   UNL     1       5.971   8.459 -22.221  1.00  0.00    -0.388 OA
HETATM   33  C   UNL     1       4.959   7.488 -21.934  1.00  0.00     0.195 C 
HETATM   34  C   UNL     1       3.609   8.163 -21.666  1.00  0.00     0.261 C 
ENDBRANCH  27  28
ENDBRANCH  26  27
ENDBRANCH  23  26
ENDBRANCH   4  22
TORSDOF 8
ENDMDL
MODEL 7
REMARK VINA RESULT:      -7.5      5.930     10.489
REMARK  8 active torsions:
REMARK  status: ('A' for Active; 'I' for Inactive)
REMARK    1  A    between atoms: N_2  and  C_4 
REMARK    2  A    between atoms: N_2  and  C_28 
REMARK    3  A    between atoms: N_7  and  C_8 
REMARK    4  A    between atoms: C_11  and  C_12 
REMARK       I    between atoms: C_12  and  N_13 
REMARK    5  A    between atoms: N_13  and  C_14 
REMARK    6  A    between atoms: C_14  and  C_15 
REMARK    7  A    between atoms: C_15  and  N_16 
REMARK    8  A    between atoms: C_28  and  C_29 
ROOT
HETATM    1  C   UNL     1      -5.225   4.204 -32.138  1.00  0.00     0.030 A 
HETATM    2  C   UNL     1      -4.179   3.397 -32.613  1.00  0.00     0.030 A 
HETATM    3  C   UNL     1      -2.831   3.725 -32.390  1.00  0.00     0.019 A 
HETATM    4  C   UNL     1      -2.501   4.877 -31.675  1.00  0.00     0.032 A 
HETATM    5  C   UNL     1      -3.522   5.694 -31.190  1.00  0.00     0.019 A 
HETATM    6  C   UNL     1      -4.862   5.361 -31.428  1.00  0.00     0.030 A 
ENDROOT
BRANCH   1   7
HETATM    7  N   UNL     1      -6.578   3.870 -32.278  1.00  0.00    -0.381 N 
HETATM    8  C   UNL     1      -7.187   2.994 -31.280  1.00  0.00     0.125 C 
HETATM    9  C   UNL     1      -8.701   3.190 -31.295  1.00  0.00     0.053 C 
HETATM   10  C   UNL     1      -9.314   3.014 -32.695  1.00  0.00     0.191 C 
HETATM   11  C   UNL     1      -8.576   3.945 -33.673  1.00  0.00     0.053 C 
HETATM   12  C   UNL     1      -7.064   3.736 -33.655  1.00  0.00     0.125 C 
BRANCH  10  13
HETATM   13  N   UNL     1      -9.302   1.542 -33.150  1.00  0.00    -0.067 N 
HETATM   14  C   UNL     1     -10.667   1.017 -33.552  1.00  0.00     0.270 C 
HETATM   15  H   UNL     1      -8.709   1.458 -33.983  1.00  0.00     0.280 HD
BRANCH  13  16
HETATM   16  C   UNL     1      -8.698   0.600 -32.106  1.00  0.00     0.273 C 
BRANCH  16  17
HETATM   17  C   UNL     1      -7.528  -0.166 -32.638  1.00  0.00    -0.026 A 
HETATM   18  C   UNL     1      -7.489  -0.789 -33.873  1.00  0.00     0.058 A 
HETATM   19  S   UNL     1      -5.996  -1.559 -34.185  1.00  0.00    -0.113 SA
HETATM   20  C   UNL     1      -5.383  -1.108 -32.657  1.00  0.00     0.050 A 
HETATM   21  C   UNL     1      -6.294  -0.376 -31.929  1.00  0.00     0.016 A 
ENDBRANCH  16  17
ENDBRANCH  13  16
ENDBRANCH  10  13
ENDBRANCH   1   7
BRANCH   4  22
HETATM   22  C   UNL     1      -1.093   5.210 -31.331  1.00  0.00     0.251 C 
HETATM   23  N   UNL     1      -0.563   4.627 -30.203  1.00  0.00    -0.355 N 
HETATM   24  H   UNL     1      -1.152   3.991 -29.676  1.00  0.00     0.162 HD
HETATM   25  O   UNL     1      -0.439   5.965 -32.047  1.00  0.00    -0.268 OA
BRANCH  23  26
HETATM   26  C   UNL     1       0.673   5.060 -29.552  1.00  0.00     0.150 C 
BRANCH  26  27
HETATM   27  C   UNL     1       0.562   6.235 -28.553  1.00  0.00     0.254 C 
BRANCH  27  28
HETATM   28  N   UNL     1      -0.777   6.303 -27.861  1.00  0.00    -0.066 N 
HETATM   29  H   UNL     1      -1.283   5.435 -28.137  1.00  0.00     0.280 HD
HETATM   30  C   UNL     1      -0.716   6.284 -26.342  1.00  0.00     0.261 C 
HETATM   31  C   UNL     1      -2.140   6.284 -25.771  1.00  0.00     0.195 C 
HETATM   32  O   UNL     1      -2.875   7.420 -26.238  1.00  0.00    -0.388 OA
HETATM   33  C   UNL     1      -3.004   7.411 -27.664  1.00  0.00     0.195 C 
HETATM   34  C   UNL     1      -1.630   7.467 -28.339  1.00  0.00     0.261 C 
ENDBRANCH  27  28
ENDBRANCH  26  27
ENDBRANCH  23  26
ENDBRANCH   4  22
TORSDOF 8
ENDMDL
MODEL 8
REMARK VINA RESULT:      -7.5     10.528     14.286
REMARK  8 active torsions:
REMARK  status: ('A' for Active; 'I' for Inactive)
REMARK    1  A    between atoms: N_2  and  C_4 
REMARK    2  A    between atoms: N_2  and  C_28 
REMARK    3  A    between atoms: N_7  and  C_8 
REMARK    4  A    between atoms: C_11  and  C_12 
REMARK       I    between atoms: C_12  and  N_13 
REMARK    5  A    between atoms: N_13  and  C_14 
REMARK    6  A    between atoms: C_14  and  C_15 
REMARK    7  A    between atoms: C_15  and  N_16 
REMARK    8  A    between atoms: C_28  and  C_29 
ROOT
HETATM    1  C   UNL     1      -0.068   7.741 -28.626  1.00  0.00     0.030 A 
HETATM    2  C   UNL     1      -1.454   7.541 -28.718  1.00  0.00     0.030 A 
HETATM    3  C   UNL     1      -2.019   6.722 -29.709  1.00  0.00     0.019 A 
HETATM    4  C   UNL     1      -1.198   6.076 -30.636  1.00  0.00     0.032 A 
HETATM    5  C   UNL     1       0.182   6.257 -30.563  1.00  0.00     0.019 A 
HETATM    6  C   UNL     1       0.734   7.085 -29.576  1.00  0.00     0.030 A 
ENDROOT
BRANCH   1   7
HETATM    7  N   UNL     1       0.534   8.491 -27.608  1.00  0.00    -0.381 N 
HETATM    8  C   UNL     1       1.286   7.785 -26.573  1.00  0.00     0.125 C 
HETATM    9  C   UNL     1       2.270   8.751 -25.917  1.00  0.00     0.053 C 
HETATM   10  C   UNL     1       1.593  10.029 -25.393  1.00  0.00     0.191 C 
HETATM   11  C   UNL     1       0.797  10.669 -26.544  1.00  0.00     0.053 C 
HETATM   12  C   UNL     1      -0.187   9.697 -27.189  1.00  0.00     0.125 C 
BRANCH  10  13
HETATM   13  N   UNL     1       0.726   9.755 -24.149  1.00  0.00    -0.067 N 
HETATM   14  C   UNL     1      -0.710  10.221 -24.292  1.00  0.00     0.270 C 
HETATM   15  H   UNL     1       0.681   8.742 -23.993  1.00  0.00     0.280 HD
BRANCH  13  16
HETATM   16  C   UNL     1       1.315  10.353 -22.869  1.00  0.00     0.273 C 
BRANCH  16  17
HETATM   17  C   UNL     1       2.683   9.826 -22.569  1.00  0.00    -0.026 A 
HETATM   18  C   UNL     1       3.841  10.582 -22.591  1.00  0.00     0.058 A 
HETATM   19  S   UNL     1       5.234   9.681 -22.178  1.00  0.00    -0.113 SA
HETATM   20  C   UNL     1       4.321   8.250 -22.001  1.00  0.00     0.050 A 
HETATM   21  C   UNL     1       2.980   8.458 -22.240  1.00  0.00     0.016 A 
ENDBRANCH  16  17
ENDBRANCH  13  16
ENDBRANCH  10  13
ENDBRANCH   1   7
BRANCH   4  22
HETATM   22  C   UNL     1      -1.745   5.124 -31.639  1.00  0.00     0.251 C 
HETATM   23  N   UNL     1      -2.891   4.440 -31.301  1.00  0.00    -0.355 N 
HETATM   24  H   UNL     1      -3.309   4.632 -30.397  1.00  0.00     0.162 HD
HETATM   25  O   UNL     1      -1.192   4.979 -32.726  1.00  0.00    -0.268 OA
BRANCH  23  26
HETATM   26  C   UNL     1      -3.393   3.267 -32.015  1.00  0.00     0.150 C 
BRANCH  26  27
HETATM   27  C   UNL     1      -3.373   1.923 -31.252  1.00  0.00     0.254 C 
BRANCH  27  28
HETATM   28  N   UNL     1      -3.663   0.734 -32.134  1.00  0.00    -0.066 N 
HETATM   29  H   UNL     1      -3.001   0.808 -32.937  1.00  0.00     0.280 HD
HETATM   30  C   UNL     1      -3.394  -0.620 -31.496  1.00  0.00     0.261 C 
HETATM   31  C   UNL     1      -3.658  -1.731 -32.520  1.00  0.00     0.195 C 
HETATM   32  O   UNL     1      -4.999  -1.659 -33.016  1.00  0.00    -0.388 OA
HETATM   33  C   UNL     1      -5.244  -0.417 -33.685  1.00  0.00     0.195 C 
HETATM   34  C   UNL     1      -5.061   0.767 -32.729  1.00  0.00     0.261 C 
ENDBRANCH  27  28
ENDBRANCH  26  27
ENDBRANCH  23  26
ENDBRANCH   4  22
TORSDOF 8
ENDMDL
MODEL 9
REMARK VINA RESULT:      -7.4      7.711     11.480
REMARK  8 active torsions:
REMARK  status: ('A' for Active; 'I' for Inactive)
REMARK    1  A    between atoms: N_2  and  C_4 
REMARK    2  A    between atoms: N_2  and  C_28 
REMARK    3  A    between atoms: N_7  and  C_8 
REMARK    4  A    between atoms: C_11  and  C_12 
REMARK       I    between atoms: C_12  and  N_13 
REMARK    5  A    between atoms: N_13  and  C_14 
REMARK    6  A    between atoms: C_14  and  C_15 
REMARK    7  A    between atoms: C_15  and  N_16 
REMARK    8  A    between atoms: C_28  and  C_29 
ROOT
HETATM    1  C   UNL     1      -3.854   5.493 -31.254  1.00  0.00     0.030 A 
HETATM    2  C   UNL     1      -5.133   4.918 -31.322  1.00  0.00     0.030 A 
HETATM    3  C   UNL     1      -5.326   3.589 -31.736  1.00  0.00     0.019 A 
HETATM    4  C   UNL     1      -4.230   2.800 -32.089  1.00  0.00     0.032 A 
HETATM    5  C   UNL     1      -2.949   3.347 -32.026  1.00  0.00     0.019 A 
HETATM    6  C   UNL     1      -2.770   4.677 -31.622  1.00  0.00     0.030 A 
ENDROOT
BRANCH   1   7
HETATM    7  N   UNL     1      -3.619   6.788 -30.777  1.00  0.00    -0.381 N 
HETATM    8  C   UNL     1      -2.239   7.264 -30.702  1.00  0.00     0.125 C 
HETATM    9  C   UNL     1      -2.232   8.791 -30.691  1.00  0.00     0.053 C 
HETATM   10  C   UNL     1      -3.127   9.385 -29.591  1.00  0.00     0.191 C 
HETATM   11  C   UNL     1      -4.538   8.790 -29.732  1.00  0.00     0.053 C 
HETATM   12  C   UNL     1      -4.535   7.263 -29.736  1.00  0.00     0.125 C 
BRANCH  10  13
HETATM   13  N   UNL     1      -2.531   9.176 -28.185  1.00  0.00    -0.067 N 
HETATM   14  C   UNL     1      -3.492   9.504 -27.059  1.00  0.00     0.270 C 
HETATM   15  H   UNL     1      -2.290   8.184 -28.072  1.00  0.00     0.280 HD
BRANCH  13  16
HETATM   16  C   UNL     1      -1.230   9.953 -27.967  1.00  0.00     0.273 C 
BRANCH  16  17
HETATM   17  C   UNL     1      -0.136   9.092 -27.419  1.00  0.00    -0.026 A 
HETATM   18  C   UNL     1       0.626   9.400 -26.305  1.00  0.00     0.058 A 
HETATM   19  S   UNL     1       1.776   8.192 -25.930  1.00  0.00    -0.113 SA
HETATM   20  C   UNL     1       1.306   7.251 -27.274  1.00  0.00     0.050 A 
HETATM   21  C   UNL     1       0.285   7.839 -27.986  1.00  0.00     0.016 A 
ENDBRANCH  16  17
ENDBRANCH  13  16
ENDBRANCH  10  13
ENDBRANCH   1   7
BRANCH   4  22
HETATM   22  C   UNL     1      -4.379   1.362 -32.437  1.00  0.00     0.251 C 
HETATM   23  N   UNL     1      -5.594   0.957 -32.941  1.00  0.00    -0.355 N 
HETATM   24  H   UNL     1      -6.316   1.660 -33.062  1.00  0.00     0.162 HD
HETATM   25  O   UNL     1      -3.439   0.585 -32.291  1.00  0.00    -0.268 OA
BRANCH  23  26
HETATM   26  C   UNL     1      -6.019  -0.438 -33.051  1.00  0.00     0.150 C 
BRANCH  26  27
HETATM   27  C   UNL     1      -6.308  -0.970 -34.473  1.00  0.00     0.254 C 
BRANCH  27  28
HETATM   28  N   UNL     1      -5.699  -2.325 -34.737  1.00  0.00    -0.066 N 
HETATM   29  H   UNL     1      -5.286  -2.270 -35.692  1.00  0.00     0.280 HD
HETATM   30  C   UNL     1      -4.556  -2.707 -33.810  1.00  0.00     0.261 C 
HETATM   31  C   UNL     1      -3.985  -4.066 -34.232  1.00  0.00     0.195 C 
HETATM   32  O   UNL     1      -5.004  -5.071 -34.224  1.00  0.00    -0.388 OA
HETATM   33  C   UNL     1      -6.053  -4.761 -35.148  1.00  0.00     0.195 C 
HETATM   34  C   UNL     1      -6.734  -3.438 -34.782  1.00  0.00     0.261 C 
ENDBRANCH  27  28
ENDBRANCH  26  27
ENDBRANCH  23  26
ENDBRANCH   4  22
TORSDOF 8
ENDMDL
MODEL 10
REMARK VINA RESULT:      -7.3     12.088     16.835
REMARK  8 active torsions:
REMARK  status: ('A' for Active; 'I' for Inactive)
REMARK    1  A    between atoms: N_2  and  C_4 
REMARK    2  A    between atoms: N_2  and  C_28 
REMARK    3  A    between atoms: N_7  and  C_8 
REMARK    4  A    between atoms: C_11  and  C_12 
REMARK       I    between atoms: C_12  and  N_13 
REMARK    5  A    between atoms: N_13  and  C_14 
REMARK    6  A    between atoms: C_14  and  C_15 
REMARK    7  A    between atoms: C_15  and  N_16 
REMARK    8  A    between atoms: C_28  and  C_29 
ROOT
HETATM    1  C   UNL     1       0.392   8.218 -28.242  1.00  0.00     0.030 A 
HETATM    2  C   UNL     1       1.140   7.286 -27.507  1.00  0.00     0.030 A 
HETATM    3  C   UNL     1       1.672   7.594 -26.244  1.00  0.00     0.019 A 
HETATM    4  C   UNL     1       1.458   8.855 -25.683  1.00  0.00     0.032 A 
HETATM    5  C   UNL     1       0.715   9.798 -26.392  1.00  0.00     0.019 A 
HETATM    6  C   UNL     1       0.199   9.482 -27.656  1.00  0.00     0.030 A 
ENDROOT
BRANCH   1   7
HETATM    7  N   UNL     1      -0.213   7.921 -29.469  1.00  0.00    -0.381 N 
HETATM    8  C   UNL     1      -1.627   8.245 -29.646  1.00  0.00     0.125 C 
HETATM    9  C   UNL     1      -1.936   8.355 -31.137  1.00  0.00     0.053 C 
HETATM   10  C   UNL     1      -1.507   7.109 -31.931  1.00  0.00     0.191 C 
HETATM   11  C   UNL     1      -0.022   6.832 -31.642  1.00  0.00     0.053 C 
HETATM   12  C   UNL     1       0.276   6.718 -30.149  1.00  0.00     0.125 C 
BRANCH  10  13
HETATM   13  N   UNL     1      -2.408   5.896 -31.632  1.00  0.00    -0.067 N 
HETATM   14  C   UNL     1      -1.899   4.596 -32.228  1.00  0.00     0.270 C 
HETATM   15  H   UNL     1      -2.439   5.748 -30.617  1.00  0.00     0.280 HD
BRANCH  13  16
HETATM   16  C   UNL     1      -3.858   6.107 -32.073  1.00  0.00     0.273 C 
BRANCH  16  17
HETATM   17  C   UNL     1      -4.762   5.010 -31.605  1.00  0.00    -0.026 A 
HETATM   18  C   UNL     1      -5.082   4.763 -30.281  1.00  0.00     0.058 A 
HETATM   19  S   UNL     1      -6.160   3.450 -30.090  1.00  0.00    -0.113 SA
HETATM   20  C   UNL     1      -6.190   3.159 -31.772  1.00  0.00     0.050 A 
HETATM   21  C   UNL     1      -5.404   4.053 -32.465  1.00  0.00     0.016 A 
ENDBRANCH  16  17
ENDBRANCH  13  16
ENDBRANCH  10  13
ENDBRANCH   1   7
BRANCH   4  22
HETATM   22  C   UNL     1       1.918   9.191 -24.310  1.00  0.00     0.251 C 
HETATM   23  N   UNL     1       2.902   8.400 -23.762  1.00  0.00    -0.355 N 
HETATM   24  H   UNL     1       3.272   7.643 -24.327  1.00  0.00     0.162 HD
HETATM   25  O   UNL     1       1.438  10.149 -23.709  1.00  0.00    -0.268 OA
BRANCH  23  26
HETATM   26  C   UNL     1       3.257   8.387 -22.343  1.00  0.00     0.150 C 
BRANCH  26  27
HETATM   27  C   UNL     1       4.719   8.742 -21.985  1.00  0.00     0.254 C 
BRANCH  27  28
HETATM   28  N   UNL     1       5.556   7.535 -21.639  1.00  0.00    -0.066 N 
HETATM   29  H   UNL     1       4.888   6.738 -21.566  1.00  0.00     0.280 HD
HETATM   30  C   UNL     1       6.572   7.133 -22.696  1.00  0.00     0.261 C 
HETATM   31  C   UNL     1       7.298   5.857 -22.251  1.00  0.00     0.195 C 
HETATM   32  O   UNL     1       7.933   6.049 -20.982  1.00  0.00    -0.388 OA
HETATM   33  C   UNL     1       6.978   6.356 -19.961  1.00  0.00     0.195 C 
HETATM   34  C   UNL     1       6.229   7.654 -20.281  1.00  0.00     0.261 C 
ENDBRANCH  27  28
ENDBRANCH  26  27
ENDBRANCH  23  26
ENDBRANCH   4  22
TORSDOF 8
ENDMDL
