MODEL 1
REMARK VINA RESULT:      -9.5      0.000      0.000
REMARK  6 active torsions:
REMARK  status: ('A' for Active; 'I' for Inactive)
REMARK    1  A    between atoms: C_2  and  O_3 
REMARK    2  A    between atoms: C_2  and  C_4 
REMARK    3  A    between atoms: C_6  and  N_7 
REMARK       I    between atoms: N_7  and  C_8 
REMARK    4  A    between atoms: C_8  and  C_9 
REMARK    5  A    between atoms: C_12  and  C_13 
REMARK    6  A    between atoms: C_18  and  C_19 
ROOT
HETATM    1  C   UNL     1      -6.914   1.243 -33.762  1.00  0.00     0.096 C 
HETATM    2  C   UNL     1      -5.928   0.290 -33.581  1.00  0.00     0.138 C 
HETATM    3  N   UNL     1      -4.924   0.915 -32.878  1.00  0.00    -0.240 N 
HETATM    4  C   UNL     1      -3.662   0.292 -32.520  1.00  0.00     0.221 C 
HETATM    5  C   UNL     1      -3.768  -1.239 -32.637  1.00  0.00     0.068 C 
HETATM    6  C   UNL     1      -4.474  -1.631 -33.940  1.00  0.00     0.143 C 
HETATM    7  N   UNL     1      -5.812  -1.012 -33.967  1.00  0.00    -0.363 N 
HETATM    8  N   UNL     1      -5.117   2.235 -32.736  1.00  0.00    -0.181 NA
HETATM    9  C   UNL     1      -6.338   2.427 -33.242  1.00  0.00     0.160 C 
HETATM   10  H   UNL     1      -6.321  -1.299 -34.808  1.00  0.00     0.162 HD
ENDROOT
BRANCH   1  11
HETATM   11  C   UNL     1      -8.224   1.120 -34.383  1.00  0.00     0.261 C 
HETATM   12  N   UNL     1      -9.142   2.036 -33.911  1.00  0.00    -0.323 N 
HETATM   13  H   UNL     1      -8.767   2.747 -33.293  1.00  0.00     0.169 HD
HETATM   14  O   UNL     1      -8.421   0.282 -35.255  1.00  0.00    -0.267 OA
BRANCH  12  15
HETATM   15  C   UNL     1     -10.510   2.139 -34.232  1.00  0.00     0.035 A 
HETATM   16  C   UNL     1     -11.488   1.256 -33.770  1.00  0.00     0.039 A 
HETATM   17  C   UNL     1     -12.843   1.424 -34.111  1.00  0.00    -0.028 A 
HETATM   18  C   UNL     1     -13.204   2.508 -34.921  1.00  0.00     0.010 A 
HETATM   19  C   UNL     1     -12.236   3.393 -35.391  1.00  0.00     0.003 A 
HETATM   20  C   UNL     1     -10.896   3.210 -35.047  1.00  0.00     0.029 A 
BRANCH  17  21
HETATM   21  C   UNL     1     -13.872   0.458 -33.563  1.00  0.00     0.147 C 
HETATM   22  C   UNL     1     -15.172   0.518 -34.357  1.00  0.00     0.044 C 
BRANCH  21  23
HETATM   23  O   UNL     1     -13.373  -0.879 -33.597  1.00  0.00    -0.391 OA
HETATM   24  H   UNL     1     -14.051  -1.444 -33.194  1.00  0.00     0.210 HD
ENDBRANCH  21  23
ENDBRANCH  17  21
ENDBRANCH  12  15
ENDBRANCH   1  11
BRANCH   4  25
HETATM   25  C   UNL     1      -3.223   0.665 -31.121  1.00  0.00     0.409 C 
HETATM   26  F   UNL     1      -4.190   0.443 -30.202  1.00  0.00    -0.169 F 
HETATM   27  F   UNL     1      -2.162  -0.109 -30.759  1.00  0.00    -0.169 F 
HETATM   28  F   UNL     1      -2.809   1.943 -31.004  1.00  0.00    -0.169 F 
ENDBRANCH   4  25
BRANCH   6  29
HETATM   29  C   UNL     1      -4.520  -3.120 -34.066  1.00  0.00     0.075 A 
HETATM   30  O   UNL     1      -5.571  -3.638 -34.767  1.00  0.00    -0.325 OA
HETATM   31  C   UNL     1      -5.420  -4.987 -34.771  1.00  0.00     0.142 A 
HETATM   32  C   UNL     1      -4.284  -5.346 -34.083  1.00  0.00     0.027 A 
HETATM   33  C   UNL     1      -3.701  -4.140 -33.627  1.00  0.00     0.037 A 
ENDBRANCH   6  29
TORSDOF 6
ENDMDL
MODEL 2
REMARK VINA RESULT:      -9.2      4.682      8.327
REMARK  6 active torsions:
REMARK  status: ('A' for Active; 'I' for Inactive)
REMARK    1  A    between atoms: C_2  and  O_3 
REMARK    2  A    between atoms: C_2  and  C_4 
REMARK    3  A    between atoms: C_6  and  N_7 
REMARK       I    between atoms: N_7  and  C_8 
REMARK    4  A    between atoms: C_8  and  C_9 
REMARK    5  A    between atoms: C_12  and  C_13 
REMARK    6  A    between atoms: C_18  and  C_19 
ROOT
HETATM    1  C   UNL     1      -5.459   2.978 -32.247  1.00  0.00     0.096 C 
HETATM    2  C   UNL     1      -6.101   1.823 -32.658  1.00  0.00     0.138 C 
HETATM    3  N   UNL     1      -7.449   2.089 -32.570  1.00  0.00    -0.240 N 
HETATM    4  C   UNL     1      -8.495   1.124 -32.854  1.00  0.00     0.221 C 
HETATM    5  C   UNL     1      -7.931  -0.057 -33.664  1.00  0.00     0.068 C 
HETATM    6  C   UNL     1      -6.597  -0.526 -33.073  1.00  0.00     0.143 C 
HETATM    7  N   UNL     1      -5.649   0.604 -33.068  1.00  0.00    -0.363 N 
HETATM    8  N   UNL     1      -7.720   3.264 -31.982  1.00  0.00    -0.181 NA
HETATM    9  C   UNL     1      -6.516   3.816 -31.818  1.00  0.00     0.160 C 
HETATM   10  H   UNL     1      -4.735   0.302 -32.721  1.00  0.00     0.162 HD
ENDROOT
BRANCH   1  11
HETATM   11  C   UNL     1      -4.038   3.284 -32.198  1.00  0.00     0.261 C 
HETATM   12  N   UNL     1      -3.772   4.591 -31.839  1.00  0.00    -0.323 N 
HETATM   13  H   UNL     1      -4.577   5.131 -31.540  1.00  0.00     0.169 HD
HETATM   14  O   UNL     1      -3.207   2.416 -32.435  1.00  0.00    -0.267 OA
BRANCH  12  15
HETATM   15  C   UNL     1      -2.521   5.236 -31.776  1.00  0.00     0.035 A 
HETATM   16  C   UNL     1      -1.535   4.934 -30.834  1.00  0.00     0.039 A 
HETATM   17  C   UNL     1      -0.295   5.601 -30.836  1.00  0.00    -0.028 A 
HETATM   18  C   UNL     1      -0.057   6.576 -31.813  1.00  0.00     0.010 A 
HETATM   19  C   UNL     1      -1.035   6.887 -32.755  1.00  0.00     0.003 A 
HETATM   20  C   UNL     1      -2.261   6.220 -32.737  1.00  0.00     0.029 A 
BRANCH  17  21
HETATM   21  C   UNL     1       0.754   5.221 -29.813  1.00  0.00     0.147 C 
HETATM   22  C   UNL     1       0.463   5.853 -28.456  1.00  0.00     0.044 C 
BRANCH  21  23
HETATM   23  O   UNL     1       0.813   3.804 -29.658  1.00  0.00    -0.391 OA
HETATM   24  H   UNL     1       1.722   3.535 -29.867  1.00  0.00     0.210 HD
ENDBRANCH  21  23
ENDBRANCH  17  21
ENDBRANCH  12  15
ENDBRANCH   1  11
BRANCH   4  25
HETATM   25  C   UNL     1      -9.652   1.747 -33.604  1.00  0.00     0.409 C 
HETATM   26  F   UNL     1      -9.241   2.643 -34.531  1.00  0.00    -0.169 F 
HETATM   27  F   UNL     1     -10.329   0.777 -34.280  1.00  0.00    -0.169 F 
HETATM   28  F   UNL     1     -10.558   2.346 -32.805  1.00  0.00    -0.169 F 
ENDBRANCH   4  25
BRANCH   6  29
HETATM   29  C   UNL     1      -6.088  -1.707 -33.836  1.00  0.00     0.075 A 
HETATM   30  O   UNL     1      -4.735  -1.886 -33.846  1.00  0.00    -0.325 OA
HETATM   31  C   UNL     1      -4.489  -3.005 -34.575  1.00  0.00     0.142 A 
HETATM   32  C   UNL     1      -5.665  -3.550 -35.034  1.00  0.00     0.027 A 
HETATM   33  C   UNL     1      -6.701  -2.711 -34.557  1.00  0.00     0.037 A 
ENDBRANCH   6  29
TORSDOF 6
ENDMDL
MODEL 3
REMARK VINA RESULT:      -8.5      4.446      7.925
REMARK  6 active torsions:
REMARK  status: ('A' for Active; 'I' for Inactive)
REMARK    1  A    between atoms: C_2  and  O_3 
REMARK    2  A    between atoms: C_2  and  C_4 
REMARK    3  A    between atoms: C_6  and  N_7 
REMARK       I    between atoms: N_7  and  C_8 
REMARK    4  A    between atoms: C_8  and  C_9 
REMARK    5  A    between atoms: C_12  and  C_13 
REMARK    6  A    between atoms: C_18  and  C_19 
ROOT
HETATM    1  C   UNL     1      -6.923   3.546 -33.198  1.00  0.00     0.096 C 
HETATM    2  C   UNL     1      -7.163   2.184 -33.228  1.00  0.00     0.138 C 
HETATM    3  N   UNL     1      -8.493   2.028 -32.907  1.00  0.00    -0.240 N 
HETATM    4  C   UNL     1      -9.158   0.746 -32.766  1.00  0.00     0.221 C 
HETATM    5  C   UNL     1      -8.326  -0.366 -33.431  1.00  0.00     0.068 C 
HETATM    6  C   UNL     1      -6.846  -0.226 -33.059  1.00  0.00     0.143 C 
HETATM    7  N   UNL     1      -6.369   1.105 -33.479  1.00  0.00    -0.363 N 
HETATM    8  N   UNL     1      -9.081   3.168 -32.515  1.00  0.00    -0.181 NA
HETATM    9  C   UNL     1      -8.140   4.092 -32.724  1.00  0.00     0.160 C 
HETATM   10  H   UNL     1      -5.369   1.203 -33.283  1.00  0.00     0.162 HD
ENDROOT
BRANCH   1  11
HETATM   11  C   UNL     1      -5.709   4.283 -33.515  1.00  0.00     0.261 C 
HETATM   12  N   UNL     1      -4.633   3.928 -32.727  1.00  0.00    -0.323 N 
HETATM   13  H   UNL     1      -4.783   3.128 -32.121  1.00  0.00     0.169 HD
HETATM   14  O   UNL     1      -5.701   5.105 -34.423  1.00  0.00    -0.267 OA
BRANCH  12  15
HETATM   15  C   UNL     1      -3.344   4.496 -32.711  1.00  0.00     0.035 A 
HETATM   16  C   UNL     1      -2.660   4.846 -31.544  1.00  0.00     0.039 A 
HETATM   17  C   UNL     1      -1.364   5.392 -31.593  1.00  0.00    -0.028 A 
HETATM   18  C   UNL     1      -0.757   5.573 -32.843  1.00  0.00     0.010 A 
HETATM   19  C   UNL     1      -1.431   5.231 -34.013  1.00  0.00     0.003 A 
HETATM   20  C   UNL     1      -2.717   4.694 -33.947  1.00  0.00     0.029 A 
BRANCH  17  21
HETATM   21  C   UNL     1      -0.651   5.731 -30.301  1.00  0.00     0.147 C 
HETATM   22  C   UNL     1       0.417   6.797 -30.517  1.00  0.00     0.044 C 
BRANCH  21  23
HETATM   23  O   UNL     1      -1.580   6.199 -29.324  1.00  0.00    -0.391 OA
HETATM   24  H   UNL     1      -2.269   6.688 -29.802  1.00  0.00     0.210 HD
ENDBRANCH  21  23
ENDBRANCH  17  21
ENDBRANCH  12  15
ENDBRANCH   1  11
BRANCH   4  25
HETATM   25  C   UNL     1     -10.550   0.762 -33.357  1.00  0.00     0.409 C 
HETATM   26  F   UNL     1     -11.221  -0.389 -33.124  1.00  0.00    -0.169 F 
HETATM   27  F   UNL     1     -11.278   1.756 -32.776  1.00  0.00    -0.169 F 
HETATM   28  F   UNL     1     -10.574   1.008 -34.682  1.00  0.00    -0.169 F 
ENDBRANCH   4  25
BRANCH   6  29
HETATM   29  C   UNL     1      -6.060  -1.343 -33.667  1.00  0.00     0.075 A 
HETATM   30  O   UNL     1      -6.770  -2.271 -34.373  1.00  0.00    -0.325 OA
HETATM   31  C   UNL     1      -5.877  -3.180 -34.842  1.00  0.00     0.142 A 
HETATM   32  C   UNL     1      -4.601  -2.849 -34.450  1.00  0.00     0.027 A 
HETATM   33  C   UNL     1      -4.718  -1.661 -33.690  1.00  0.00     0.037 A 
ENDBRANCH   6  29
TORSDOF 6
ENDMDL
MODEL 4
REMARK VINA RESULT:      -8.5      5.027      8.441
REMARK  6 active torsions:
REMARK  status: ('A' for Active; 'I' for Inactive)
REMARK    1  A    between atoms: C_2  and  O_3 
REMARK    2  A    between atoms: C_2  and  C_4 
REMARK    3  A    between atoms: C_6  and  N_7 
REMARK       I    between atoms: N_7  and  C_8 
REMARK    4  A    between atoms: C_8  and  C_9 
REMARK    5  A    between atoms: C_12  and  C_13 
REMARK    6  A    between atoms: C_18  and  C_19 
ROOT
HETATM    1  C   UNL     1      -4.597   2.773 -32.364  1.00  0.00     0.096 C 
HETATM    2  C   UNL     1      -4.948   1.466 -32.650  1.00  0.00     0.138 C 
HETATM    3  N   UNL     1      -6.194   1.529 -33.231  1.00  0.00    -0.240 N 
HETATM    4  C   UNL     1      -6.969   0.371 -33.638  1.00  0.00     0.221 C 
HETATM    5  C   UNL     1      -6.064  -0.870 -33.740  1.00  0.00     0.068 C 
HETATM    6  C   UNL     1      -5.134  -0.960 -32.526  1.00  0.00     0.143 C 
HETATM    7  N   UNL     1      -4.325   0.270 -32.448  1.00  0.00    -0.363 N 
HETATM    8  N   UNL     1      -6.737   2.755 -33.191  1.00  0.00    -0.181 NA
HETATM    9  C   UNL     1      -5.756   3.514 -32.696  1.00  0.00     0.160 C 
HETATM   10  H   UNL     1      -3.662   0.213 -31.670  1.00  0.00     0.162 HD
ENDROOT
BRANCH   1  11
HETATM   11  C   UNL     1      -3.363   3.303 -31.802  1.00  0.00     0.261 C 
HETATM   12  N   UNL     1      -3.225   4.665 -31.974  1.00  0.00    -0.323 N 
HETATM   13  H   UNL     1      -4.037   5.140 -32.353  1.00  0.00     0.169 HD
HETATM   14  O   UNL     1      -2.579   2.563 -31.220  1.00  0.00    -0.267 OA
BRANCH  12  15
HETATM   15  C   UNL     1      -2.125   5.476 -31.630  1.00  0.00     0.035 A 
HETATM   16  C   UNL     1      -1.795   5.826 -30.318  1.00  0.00     0.039 A 
HETATM   17  C   UNL     1      -0.670   6.623 -30.037  1.00  0.00    -0.028 A 
HETATM   18  C   UNL     1       0.130   7.059 -31.101  1.00  0.00     0.010 A 
HETATM   19  C   UNL     1      -0.193   6.718 -32.414  1.00  0.00     0.003 A 
HETATM   20  C   UNL     1      -1.314   5.931 -32.676  1.00  0.00     0.029 A 
BRANCH  17  21
HETATM   21  C   UNL     1      -0.336   6.954 -28.598  1.00  0.00     0.147 C 
HETATM   22  C   UNL     1       0.854   7.903 -28.507  1.00  0.00     0.044 C 
BRANCH  21  23
HETATM   23  O   UNL     1      -1.455   7.554 -27.948  1.00  0.00    -0.391 OA
HETATM   24  H   UNL     1      -1.110   8.280 -27.405  1.00  0.00     0.210 HD
ENDBRANCH  21  23
ENDBRANCH  17  21
ENDBRANCH  12  15
ENDBRANCH   1  11
BRANCH   4  25
HETATM   25  C   UNL     1      -7.673   0.596 -34.958  1.00  0.00     0.409 C 
HETATM   26  F   UNL     1      -8.737   1.423 -34.838  1.00  0.00    -0.169 F 
HETATM   27  F   UNL     1      -6.817   1.195 -35.832  1.00  0.00    -0.169 F 
HETATM   28  F   UNL     1      -8.082  -0.540 -35.556  1.00  0.00    -0.169 F 
ENDBRANCH   4  25
BRANCH   6  29
HETATM   29  C   UNL     1      -4.301  -2.199 -32.612  1.00  0.00     0.075 A 
HETATM   30  O   UNL     1      -3.435  -2.420 -31.581  1.00  0.00    -0.325 OA
HETATM   31  C   UNL     1      -2.791  -3.586 -31.847  1.00  0.00     0.142 A 
HETATM   32  C   UNL     1      -3.233  -4.120 -33.035  1.00  0.00     0.027 A 
HETATM   33  C   UNL     1      -4.210  -3.224 -33.531  1.00  0.00     0.037 A 
ENDBRANCH   6  29
TORSDOF 6
ENDMDL
MODEL 5
REMARK VINA RESULT:      -8.4      4.286      8.550
REMARK  6 active torsions:
REMARK  status: ('A' for Active; 'I' for Inactive)
REMARK    1  A    between atoms: C_2  and  O_3 
REMARK    2  A    between atoms: C_2  and  C_4 
REMARK    3  A    between atoms: C_6  and  N_7 
REMARK       I    between atoms: N_7  and  C_8 
REMARK    4  A    between atoms: C_8  and  C_9 
REMARK    5  A    between atoms: C_12  and  C_13 
REMARK    6  A    between atoms: C_18  and  C_19 
ROOT
HETATM    1  C   UNL     1      -4.272   0.870 -32.600  1.00  0.00     0.096 C 
HETATM    2  C   UNL     1      -5.462   0.512 -33.207  1.00  0.00     0.138 C 
HETATM    3  N   UNL     1      -5.204  -0.661 -33.880  1.00  0.00    -0.240 N 
HETATM    4  C   UNL     1      -6.170  -1.361 -34.708  1.00  0.00     0.221 C 
HETATM    5  C   UNL     1      -7.597  -0.879 -34.390  1.00  0.00     0.068 C 
HETATM    6  C   UNL     1      -7.640   0.649 -34.291  1.00  0.00     0.143 C 
HETATM    7  N   UNL     1      -6.696   1.090 -33.246  1.00  0.00    -0.363 N 
HETATM    8  N   UNL     1      -3.905  -0.994 -33.886  1.00  0.00    -0.181 NA
HETATM    9  C   UNL     1      -3.346  -0.085 -33.083  1.00  0.00     0.160 C 
HETATM   10  H   UNL     1      -6.742   2.105 -33.129  1.00  0.00     0.162 HD
ENDROOT
BRANCH   1  11
HETATM   11  C   UNL     1      -3.979   1.986 -31.713  1.00  0.00     0.261 C 
HETATM   12  N   UNL     1      -3.211   2.969 -32.306  1.00  0.00    -0.323 N 
HETATM   13  H   UNL     1      -3.053   2.854 -33.301  1.00  0.00     0.169 HD
HETATM   14  O   UNL     1      -4.424   2.006 -30.572  1.00  0.00    -0.267 OA
BRANCH  12  15
HETATM   15  C   UNL     1      -2.683   4.132 -31.714  1.00  0.00     0.035 A 
HETATM   16  C   UNL     1      -1.423   4.198 -31.115  1.00  0.00     0.039 A 
HETATM   17  C   UNL     1      -0.942   5.398 -30.557  1.00  0.00    -0.028 A 
HETATM   18  C   UNL     1      -1.749   6.541 -30.621  1.00  0.00     0.010 A 
HETATM   19  C   UNL     1      -3.009   6.485 -31.214  1.00  0.00     0.003 A 
HETATM   20  C   UNL     1      -3.473   5.287 -31.758  1.00  0.00     0.029 A 
BRANCH  17  21
HETATM   21  C   UNL     1       0.441   5.429 -29.943  1.00  0.00     0.147 C 
HETATM   22  C   UNL     1       0.454   6.220 -28.640  1.00  0.00     0.044 C 
BRANCH  21  23
HETATM   23  O   UNL     1       0.904   4.105 -29.682  1.00  0.00    -0.391 OA
HETATM   24  H   UNL     1       1.078   4.049 -28.729  1.00  0.00     0.210 HD
ENDBRANCH  21  23
ENDBRANCH  17  21
ENDBRANCH  12  15
ENDBRANCH   1  11
BRANCH   4  25
HETATM   25  C   UNL     1      -6.088  -2.860 -34.528  1.00  0.00     0.409 C 
HETATM   26  F   UNL     1      -7.291  -3.411 -34.247  1.00  0.00    -0.169 F 
HETATM   27  F   UNL     1      -5.664  -3.433 -35.689  1.00  0.00    -0.169 F 
HETATM   28  F   UNL     1      -5.210  -3.247 -33.580  1.00  0.00    -0.169 F 
ENDBRANCH   4  25
BRANCH   6  29
HETATM   29  C   UNL     1      -9.041   1.105 -34.037  1.00  0.00     0.075 A 
HETATM   30  O   UNL     1      -9.384   2.324 -34.545  1.00  0.00    -0.325 OA
HETATM   31  C   UNL     1     -10.683   2.540 -34.215  1.00  0.00     0.142 A 
HETATM   32  C   UNL     1     -11.183   1.475 -33.503  1.00  0.00     0.027 A 
HETATM   33  C   UNL     1     -10.122   0.546 -33.387  1.00  0.00     0.037 A 
ENDBRANCH   6  29
TORSDOF 6
ENDMDL
MODEL 6
REMARK VINA RESULT:      -8.3      4.294      9.345
REMARK  6 active torsions:
REMARK  status: ('A' for Active; 'I' for Inactive)
REMARK    1  A    between atoms: C_2  and  O_3 
REMARK    2  A    between atoms: C_2  and  C_4 
REMARK    3  A    between atoms: C_6  and  N_7 
REMARK       I    between atoms: N_7  and  C_8 
REMARK    4  A    between atoms: C_8  and  C_9 
REMARK    5  A    between atoms: C_12  and  C_13 
REMARK    6  A    between atoms: C_18  and  C_19 
ROOT
HETATM    1  C   UNL     1     -10.420   1.130 -33.885  1.00  0.00     0.096 C 
HETATM    2  C   UNL     1     -11.154   2.280 -34.117  1.00  0.00     0.138 C 
HETATM    3  N   UNL     1     -12.417   2.024 -33.634  1.00  0.00    -0.240 N 
HETATM    4  C   UNL     1     -13.533   2.948 -33.726  1.00  0.00     0.221 C 
HETATM    5  C   UNL     1     -13.028   4.371 -34.023  1.00  0.00     0.068 C 
HETATM    6  C   UNL     1     -11.963   4.345 -35.125  1.00  0.00     0.143 C 
HETATM    7  N   UNL     1     -10.851   3.475 -34.699  1.00  0.00    -0.363 N 
HETATM    8  N   UNL     1     -12.594   0.748 -33.261  1.00  0.00    -0.181 NA
HETATM    9  C   UNL     1     -11.376   0.216 -33.382  1.00  0.00     0.160 C 
HETATM   10  H   UNL     1     -10.105   3.479 -35.400  1.00  0.00     0.162 HD
ENDROOT
BRANCH   1  11
HETATM   11  C   UNL     1      -9.012   0.860 -34.135  1.00  0.00     0.261 C 
HETATM   12  N   UNL     1      -8.637  -0.428 -33.809  1.00  0.00    -0.323 N 
HETATM   13  H   UNL     1      -9.396  -1.051 -33.558  1.00  0.00     0.169 HD
HETATM   14  O   UNL     1      -8.290   1.725 -34.617  1.00  0.00    -0.267 OA
BRANCH  12  15
HETATM   15  C   UNL     1      -7.346  -0.991 -33.848  1.00  0.00     0.035 A 
HETATM   16  C   UNL     1      -7.065  -2.261 -34.358  1.00  0.00     0.039 A 
HETATM   17  C   UNL     1      -5.749  -2.760 -34.387  1.00  0.00    -0.028 A 
HETATM   18  C   UNL     1      -4.711  -1.954 -33.902  1.00  0.00     0.010 A 
HETATM   19  C   UNL     1      -4.982  -0.687 -33.388  1.00  0.00     0.003 A 
HETATM   20  C   UNL     1      -6.292  -0.208 -33.362  1.00  0.00     0.029 A 
BRANCH  17  21
HETATM   21  C   UNL     1      -5.488  -4.131 -34.975  1.00  0.00     0.147 C 
HETATM   22  C   UNL     1      -4.493  -4.919 -34.130  1.00  0.00     0.044 C 
BRANCH  21  23
HETATM   23  O   UNL     1      -6.702  -4.875 -35.071  1.00  0.00    -0.391 OA
HETATM   24  H   UNL     1      -6.801  -5.134 -36.001  1.00  0.00     0.210 HD
ENDBRANCH  21  23
ENDBRANCH  17  21
ENDBRANCH  12  15
ENDBRANCH   1  11
BRANCH   4  25
HETATM   25  C   UNL     1     -14.365   2.959 -32.463  1.00  0.00     0.409 C 
HETATM   26  F   UNL     1     -13.608   3.079 -31.349  1.00  0.00    -0.169 F 
HETATM   27  F   UNL     1     -15.200   4.036 -32.479  1.00  0.00    -0.169 F 
HETATM   28  F   UNL     1     -15.157   1.876 -32.325  1.00  0.00    -0.169 F 
ENDBRANCH   4  25
BRANCH   6  29
HETATM   29  C   UNL     1     -11.522   5.738 -35.442  1.00  0.00     0.075 A 
HETATM   30  O   UNL     1     -12.505   6.627 -35.769  1.00  0.00    -0.325 OA
HETATM   31  C   UNL     1     -11.899   7.818 -36.007  1.00  0.00     0.142 A 
HETATM   32  C   UNL     1     -10.539   7.710 -35.836  1.00  0.00     0.027 A 
HETATM   33  C   UNL     1     -10.293   6.365 -35.470  1.00  0.00     0.037 A 
ENDBRANCH   6  29
TORSDOF 6
ENDMDL
MODEL 7
REMARK VINA RESULT:      -8.2      4.695      8.052
REMARK  6 active torsions:
REMARK  status: ('A' for Active; 'I' for Inactive)
REMARK    1  A    between atoms: C_2  and  O_3 
REMARK    2  A    between atoms: C_2  and  C_4 
REMARK    3  A    between atoms: C_6  and  N_7 
REMARK       I    between atoms: N_7  and  C_8 
REMARK    4  A    between atoms: C_8  and  C_9 
REMARK    5  A    between atoms: C_12  and  C_13 
REMARK    6  A    between atoms: C_18  and  C_19 
ROOT
HETATM    1  C   UNL     1      -7.351   3.958 -32.982  1.00  0.00     0.096 C 
HETATM    2  C   UNL     1      -7.609   2.603 -33.089  1.00  0.00     0.138 C 
HETATM    3  N   UNL     1      -8.962   2.459 -32.881  1.00  0.00    -0.240 N 
HETATM    4  C   UNL     1      -9.656   1.184 -32.848  1.00  0.00     0.221 C 
HETATM    5  C   UNL     1      -8.792   0.087 -33.494  1.00  0.00     0.068 C 
HETATM    6  C   UNL     1      -7.344   0.182 -33.002  1.00  0.00     0.143 C 
HETATM    7  N   UNL     1      -6.814   1.521 -33.324  1.00  0.00    -0.363 N 
HETATM    8  N   UNL     1      -9.562   3.593 -32.487  1.00  0.00    -0.181 NA
HETATM    9  C   UNL     1      -8.593   4.507 -32.581  1.00  0.00     0.160 C 
HETATM   10  H   UNL     1      -5.832   1.592 -33.047  1.00  0.00     0.162 HD
ENDROOT
BRANCH   1  11
HETATM   11  C   UNL     1      -6.105   4.684 -33.170  1.00  0.00     0.261 C 
HETATM   12  N   UNL     1      -5.427   4.923 -31.991  1.00  0.00    -0.323 N 
HETATM   13  H   UNL     1      -5.810   4.465 -31.170  1.00  0.00     0.169 HD
HETATM   14  O   UNL     1      -5.734   5.000 -34.294  1.00  0.00    -0.267 OA
BRANCH  12  15
HETATM   15  C   UNL     1      -4.244   5.664 -31.805  1.00  0.00     0.035 A 
HETATM   16  C   UNL     1      -2.984   5.088 -31.626  1.00  0.00     0.039 A 
HETATM   17  C   UNL     1      -1.834   5.884 -31.465  1.00  0.00    -0.028 A 
HETATM   18  C   UNL     1      -1.970   7.278 -31.497  1.00  0.00     0.010 A 
HETATM   19  C   UNL     1      -3.223   7.862 -31.672  1.00  0.00     0.003 A 
HETATM   20  C   UNL     1      -4.354   7.059 -31.825  1.00  0.00     0.029 A 
BRANCH  17  21
HETATM   21  C   UNL     1      -0.485   5.216 -31.302  1.00  0.00     0.147 C 
HETATM   22  C   UNL     1       0.647   6.236 -31.318  1.00  0.00     0.044 C 
BRANCH  21  23
HETATM   23  O   UNL     1      -0.432   4.487 -30.076  1.00  0.00    -0.391 OA
HETATM   24  H   UNL     1      -0.434   3.545 -30.308  1.00  0.00     0.210 HD
ENDBRANCH  21  23
ENDBRANCH  17  21
ENDBRANCH  12  15
ENDBRANCH   1  11
BRANCH   4  25
HETATM   25  C   UNL     1     -10.997   1.252 -33.546  1.00  0.00     0.409 C 
HETATM   26  F   UNL     1     -10.880   1.573 -34.854  1.00  0.00    -0.169 F 
HETATM   27  F   UNL     1     -11.593   0.027 -33.501  1.00  0.00    -0.169 F 
HETATM   28  F   UNL     1     -11.865   2.109 -32.973  1.00  0.00    -0.169 F 
ENDBRANCH   4  25
BRANCH   6  29
HETATM   29  C   UNL     1      -6.530  -0.923 -33.595  1.00  0.00     0.075 A 
HETATM   30  O   UNL     1      -5.216  -0.971 -33.230  1.00  0.00    -0.325 OA
HETATM   31  C   UNL     1      -4.667  -2.040 -33.863  1.00  0.00     0.142 A 
HETATM   32  C   UNL     1      -5.612  -2.682 -34.631  1.00  0.00     0.027 A 
HETATM   33  C   UNL     1      -6.817  -1.960 -34.458  1.00  0.00     0.037 A 
ENDBRANCH   6  29
TORSDOF 6
ENDMDL
MODEL 8
REMARK VINA RESULT:      -8.1      2.705      4.467
REMARK  6 active torsions:
REMARK  status: ('A' for Active; 'I' for Inactive)
REMARK    1  A    between atoms: C_2  and  O_3 
REMARK    2  A    between atoms: C_2  and  C_4 
REMARK    3  A    between atoms: C_6  and  N_7 
REMARK       I    between atoms: N_7  and  C_8 
REMARK    4  A    between atoms: C_8  and  C_9 
REMARK    5  A    between atoms: C_12  and  C_13 
REMARK    6  A    between atoms: C_18  and  C_19 
ROOT
HETATM    1  C   UNL     1      -7.241   1.077 -32.737  1.00  0.00     0.096 C 
HETATM    2  C   UNL     1      -5.908   1.396 -32.547  1.00  0.00     0.138 C 
HETATM    3  N   UNL     1      -5.305   0.243 -32.097  1.00  0.00    -0.240 N 
HETATM    4  C   UNL     1      -3.908   0.144 -31.715  1.00  0.00     0.221 C 
HETATM    5  C   UNL     1      -3.112   1.335 -32.277  1.00  0.00     0.068 C 
HETATM    6  C   UNL     1      -3.875   2.645 -32.054  1.00  0.00     0.143 C 
HETATM    7  N   UNL     1      -5.197   2.548 -32.702  1.00  0.00    -0.363 N 
HETATM    8  N   UNL     1      -6.176  -0.742 -31.830  1.00  0.00    -0.181 NA
HETATM    9  C   UNL     1      -7.343  -0.248 -32.249  1.00  0.00     0.160 C 
HETATM   10  H   UNL     1      -5.707   3.430 -32.607  1.00  0.00     0.162 HD
ENDROOT
BRANCH   1  11
HETATM   11  C   UNL     1      -8.327   1.893 -33.259  1.00  0.00     0.261 C 
HETATM   12  N   UNL     1      -9.523   1.211 -33.358  1.00  0.00    -0.323 N 
HETATM   13  H   UNL     1      -9.530   0.283 -32.950  1.00  0.00     0.169 HD
HETATM   14  O   UNL     1      -8.140   3.071 -33.536  1.00  0.00    -0.267 OA
BRANCH  12  15
HETATM   15  C   UNL     1     -10.742   1.672 -33.896  1.00  0.00     0.035 A 
HETATM   16  C   UNL     1     -11.987   1.116 -33.592  1.00  0.00     0.039 A 
HETATM   17  C   UNL     1     -13.172   1.635 -34.147  1.00  0.00    -0.028 A 
HETATM   18  C   UNL     1     -13.087   2.735 -35.010  1.00  0.00     0.010 A 
HETATM   19  C   UNL     1     -11.849   3.294 -35.321  1.00  0.00     0.003 A 
HETATM   20  C   UNL     1     -10.683   2.766 -34.767  1.00  0.00     0.029 A 
BRANCH  17  21
HETATM   21  C   UNL     1     -14.501   1.017 -33.767  1.00  0.00     0.147 C 
HETATM   22  C   UNL     1     -15.206   1.832 -32.689  1.00  0.00     0.044 C 
BRANCH  21  23
HETATM   23  O   UNL     1     -15.355   0.925 -34.907  1.00  0.00    -0.391 OA
HETATM   24  H   UNL     1     -15.083   1.626 -35.521  1.00  0.00     0.210 HD
ENDBRANCH  21  23
ENDBRANCH  17  21
ENDBRANCH  12  15
ENDBRANCH   1  11
BRANCH   4  25
HETATM   25  C   UNL     1      -3.283  -1.151 -32.184  1.00  0.00     0.409 C 
HETATM   26  F   UNL     1      -3.526  -1.395 -33.492  1.00  0.00    -0.169 F 
HETATM   27  F   UNL     1      -1.929  -1.075 -32.052  1.00  0.00    -0.169 F 
HETATM   28  F   UNL     1      -3.667  -2.229 -31.472  1.00  0.00    -0.169 F 
ENDBRANCH   4  25
BRANCH   6  29
HETATM   29  C   UNL     1      -3.066   3.799 -32.555  1.00  0.00     0.075 A 
HETATM   30  O   UNL     1      -1.925   4.086 -31.863  1.00  0.00    -0.325 OA
HETATM   31  C   UNL     1      -1.343   5.145 -32.480  1.00  0.00     0.142 A 
HETATM   32  C   UNL     1      -2.093   5.544 -33.563  1.00  0.00     0.027 A 
HETATM   33  C   UNL     1      -3.208   4.674 -33.612  1.00  0.00     0.037 A 
ENDBRANCH   6  29
TORSDOF 6
ENDMDL
MODEL 9
REMARK VINA RESULT:      -8.1      4.619      8.095
REMARK  6 active torsions:
REMARK  status: ('A' for Active; 'I' for Inactive)
REMARK    1  A    between atoms: C_2  and  O_3 
REMARK    2  A    between atoms: C_2  and  C_4 
REMARK    3  A    between atoms: C_6  and  N_7 
REMARK       I    between atoms: N_7  and  C_8 
REMARK    4  A    between atoms: C_8  and  C_9 
REMARK    5  A    between atoms: C_12  and  C_13 
REMARK    6  A    between atoms: C_18  and  C_19 
ROOT
HETATM    1  C   UNL     1      -4.271   2.536 -32.033  1.00  0.00     0.096 C 
HETATM    2  C   UNL     1      -4.583   3.693 -31.341  1.00  0.00     0.138 C 
HETATM    3  N   UNL     1      -3.486   4.515 -31.467  1.00  0.00    -0.240 N 
HETATM    4  C   UNL     1      -3.361   5.818 -30.841  1.00  0.00     0.221 C 
HETATM    5  C   UNL     1      -4.742   6.335 -30.397  1.00  0.00     0.068 C 
HETATM    6  C   UNL     1      -5.533   5.223 -29.700  1.00  0.00     0.143 C 
HETATM    7  N   UNL     1      -5.675   4.082 -30.624  1.00  0.00    -0.363 N 
HETATM    8  N   UNL     1      -2.436   3.913 -32.046  1.00  0.00    -0.181 NA
HETATM    9  C   UNL     1      -2.923   2.727 -32.419  1.00  0.00     0.160 C 
HETATM   10  H   UNL     1      -6.242   3.345 -30.196  1.00  0.00     0.162 HD
ENDROOT
BRANCH   1  11
HETATM   11  C   UNL     1      -5.084   1.355 -32.283  1.00  0.00     0.261 C 
HETATM   12  N   UNL     1      -4.501   0.468 -33.166  1.00  0.00    -0.323 N 
HETATM   13  H   UNL     1      -3.546   0.683 -33.431  1.00  0.00     0.169 HD
HETATM   14  O   UNL     1      -6.158   1.208 -31.713  1.00  0.00    -0.267 OA
BRANCH  12  15
HETATM   15  C   UNL     1      -5.047  -0.722 -33.687  1.00  0.00     0.035 A 
HETATM   16  C   UNL     1      -4.346  -1.928 -33.772  1.00  0.00     0.039 A 
HETATM   17  C   UNL     1      -4.954  -3.090 -34.283  1.00  0.00    -0.028 A 
HETATM   18  C   UNL     1      -6.289  -3.023 -34.702  1.00  0.00     0.010 A 
HETATM   19  C   UNL     1      -6.995  -1.825 -34.624  1.00  0.00     0.003 A 
HETATM   20  C   UNL     1      -6.378  -0.680 -34.118  1.00  0.00     0.029 A 
BRANCH  17  21
HETATM   21  C   UNL     1      -4.165  -4.381 -34.331  1.00  0.00     0.147 C 
HETATM   22  C   UNL     1      -3.396  -4.612 -33.036  1.00  0.00     0.044 C 
BRANCH  21  23
HETATM   23  O   UNL     1      -5.033  -5.492 -34.556  1.00  0.00    -0.391 OA
HETATM   24  H   UNL     1      -4.967  -6.064 -33.774  1.00  0.00     0.210 HD
ENDBRANCH  21  23
ENDBRANCH  17  21
ENDBRANCH  12  15
ENDBRANCH   1  11
BRANCH   4  25
HETATM   25  C   UNL     1      -2.712   6.829 -31.760  1.00  0.00     0.409 C 
HETATM   26  F   UNL     1      -3.009   8.103 -31.416  1.00  0.00    -0.169 F 
HETATM   27  F   UNL     1      -1.357   6.713 -31.676  1.00  0.00    -0.169 F 
HETATM   28  F   UNL     1      -3.021   6.656 -33.061  1.00  0.00    -0.169 F 
ENDBRANCH   4  25
BRANCH   6  29
HETATM   29  C   UNL     1      -6.849   5.753 -29.227  1.00  0.00     0.075 A 
HETATM   30  O   UNL     1      -7.942   5.422 -29.974  1.00  0.00    -0.325 OA
HETATM   31  C   UNL     1      -9.019   5.988 -29.374  1.00  0.00     0.142 A 
HETATM   32  C   UNL     1      -8.636   6.679 -28.247  1.00  0.00     0.027 A 
HETATM   33  C   UNL     1      -7.232   6.528 -28.151  1.00  0.00     0.037 A 
ENDBRANCH   6  29
TORSDOF 6
ENDMDL
MODEL 10
REMARK VINA RESULT:      -8.1      5.001      9.383
REMARK  6 active torsions:
REMARK  status: ('A' for Active; 'I' for Inactive)
REMARK    1  A    between atoms: C_2  and  O_3 
REMARK    2  A    between atoms: C_2  and  C_4 
REMARK    3  A    between atoms: C_6  and  N_7 
REMARK       I    between atoms: N_7  and  C_8 
REMARK    4  A    between atoms: C_8  and  C_9 
REMARK    5  A    between atoms: C_12  and  C_13 
REMARK    6  A    between atoms: C_18  and  C_19 
ROOT
HETATM    1  C   UNL     1      -8.864   1.641 -32.641  1.00  0.00     0.096 C 
HETATM    2  C   UNL     1      -9.825   2.258 -33.422  1.00  0.00     0.138 C 
HETATM    3  N   UNL     1     -10.823   1.327 -33.597  1.00  0.00    -0.240 N 
HETATM    4  C   UNL     1     -12.009   1.538 -34.408  1.00  0.00     0.221 C 
HETATM    5  C   UNL     1     -12.215   3.040 -34.676  1.00  0.00     0.068 C 
HETATM    6  C   UNL     1     -10.890   3.703 -35.069  1.00  0.00     0.143 C 
HETATM    7  N   UNL     1      -9.909   3.495 -33.988  1.00  0.00    -0.363 N 
HETATM    8  N   UNL     1     -10.503   0.111 -33.129  1.00  0.00    -0.181 NA
HETATM    9  C   UNL     1      -9.331   0.310 -32.521  1.00  0.00     0.160 C 
HETATM   10  H   UNL     1      -9.029   3.971 -34.208  1.00  0.00     0.162 HD
ENDROOT
BRANCH   1  11
HETATM   11  C   UNL     1      -7.624   2.175 -32.098  1.00  0.00     0.261 C 
HETATM   12  N   UNL     1      -6.694   2.492 -33.068  1.00  0.00    -0.323 N 
HETATM   13  H   UNL     1      -7.026   2.432 -34.024  1.00  0.00     0.169 HD
HETATM   14  O   UNL     1      -7.492   2.331 -30.890  1.00  0.00    -0.267 OA
BRANCH  12  15
HETATM   15  C   UNL     1      -5.373   2.947 -32.887  1.00  0.00     0.035 A 
HETATM   16  C   UNL     1      -4.803   3.995 -33.614  1.00  0.00     0.039 A 
HETATM   17  C   UNL     1      -3.482   4.418 -33.372  1.00  0.00    -0.028 A 
HETATM   18  C   UNL     1      -2.741   3.772 -32.374  1.00  0.00     0.010 A 
HETATM   19  C   UNL     1      -3.299   2.724 -31.646  1.00  0.00     0.003 A 
HETATM   20  C   UNL     1      -4.608   2.314 -31.900  1.00  0.00     0.029 A 
BRANCH  17  21
HETATM   21  C   UNL     1      -2.916   5.576 -34.166  1.00  0.00     0.147 C 
HETATM   22  C   UNL     1      -1.449   5.350 -34.511  1.00  0.00     0.044 C 
BRANCH  21  23
HETATM   23  O   UNL     1      -3.651   5.762 -35.375  1.00  0.00    -0.391 OA
HETATM   24  H   UNL     1      -4.420   6.313 -35.156  1.00  0.00     0.210 HD
ENDBRANCH  21  23
ENDBRANCH  17  21
ENDBRANCH  12  15
ENDBRANCH   1  11
BRANCH   4  25
HETATM   25  C   UNL     1     -13.248   0.963 -33.759  1.00  0.00     0.409 C 
HETATM   26  F   UNL     1     -13.613   1.647 -32.651  1.00  0.00    -0.169 F 
HETATM   27  F   UNL     1     -14.295   1.050 -34.627  1.00  0.00    -0.169 F 
HETATM   28  F   UNL     1     -13.138  -0.341 -33.438  1.00  0.00    -0.169 F 
ENDBRANCH   4  25
BRANCH   6  29
HETATM   29  C   UNL     1     -11.116   5.148 -35.380  1.00  0.00     0.075 A 
HETATM   30  O   UNL     1     -10.006   5.885 -35.676  1.00  0.00    -0.325 OA
HETATM   31  C   UNL     1     -10.427   7.150 -35.933  1.00  0.00     0.142 A 
HETATM   32  C   UNL     1     -11.794   7.238 -35.808  1.00  0.00     0.027 A 
HETATM   33  C   UNL     1     -12.241   5.943 -35.450  1.00  0.00     0.037 A 
ENDBRANCH   6  29
TORSDOF 6
ENDMDL
