MODEL 1
REMARK VINA RESULT:      -9.0      0.000      0.000
REMARK  5 active torsions:
REMARK  status: ('A' for Active; 'I' for Inactive)
REMARK    1  A    between atoms: C_9  and  C_10 
REMARK       I    between atoms: C_10  and  N_11 
REMARK    2  A    between atoms: N_11  and  C_12 
REMARK    3  A    between atoms: C_12  and  C_13 
REMARK    4  A    between atoms: C_13  and  N_14 
REMARK       I    between atoms: N_14  and  C_15 
REMARK    5  A    between atoms: C_15  and  C_16 
ROOT
HETATM    1  C   UNL     1      -1.523   4.861 -31.623  1.00  0.00     0.272 C 
HETATM    2  N   UNL     1      -2.477   3.918 -31.306  1.00  0.00    -0.354 N 
HETATM    3  O   UNL     1      -1.437   5.378 -32.734  1.00  0.00    -0.266 OA
HETATM    4  H   UNL     1      -2.413   3.522 -30.372  1.00  0.00     0.162 HD
ENDROOT
BRANCH   2   5
HETATM    5  C   UNL     1      -3.432   3.412 -32.265  1.00  0.00     0.142 C 
BRANCH   5   6
HETATM    6  C   UNL     1      -4.539   2.578 -31.612  1.00  0.00     0.142 C 
BRANCH   6   7
HETATM    7  N   UNL     1      -4.928   1.436 -32.420  1.00  0.00    -0.355 N 
HETATM    8  C   UNL     1      -4.644   0.147 -32.022  1.00  0.00     0.251 C 
HETATM    9  O   UNL     1      -4.064  -0.108 -30.971  1.00  0.00    -0.268 OA
HETATM   10  H   UNL     1      -5.566   1.610 -33.183  1.00  0.00     0.162 HD
BRANCH   8  11
HETATM   11  C   UNL     1      -5.098  -0.962 -32.915  1.00  0.00     0.032 A 
HETATM   12  C   UNL     1      -6.409  -1.057 -33.404  1.00  0.00     0.018 A 
HETATM   13  C   UNL     1      -6.771  -2.115 -34.246  1.00  0.00     0.025 A 
HETATM   14  C   UNL     1      -5.825  -3.072 -34.610  1.00  0.00     0.034 A 
HETATM   15 CL   UNL     1      -6.275  -4.366 -35.651  1.00  0.00    -0.084 Cl
HETATM   16  C   UNL     1      -4.517  -2.981 -34.143  1.00  0.00     0.025 A 
HETATM   17  C   UNL     1      -4.154  -1.928 -33.298  1.00  0.00     0.018 A 
ENDBRANCH   8  11
ENDBRANCH   6   7
ENDBRANCH   5   6
ENDBRANCH   2   5
BRANCH   1  18
HETATM   18  C   UNL     1      -0.612   5.164 -30.508  1.00  0.00     0.157 A 
HETATM   19  C   UNL     1      -0.572   6.352 -29.719  1.00  0.00     0.029 A 
HETATM   20  C   UNL     1      -1.283   7.568 -29.676  1.00  0.00     0.023 A 
HETATM   21  C   UNL     1       0.461   6.149 -28.812  1.00  0.00     0.063 A 
HETATM   22  C   UNL     1      -0.936   8.540 -28.722  1.00  0.00    -0.061 A 
HETATM   23  C   UNL     1      -1.678   9.844 -28.660  1.00  0.00     0.048 C 
HETATM   24  C   UNL     1       0.112   8.293 -27.826  1.00  0.00     0.009 A 
HETATM   25  C   UNL     1       0.832   7.093 -27.852  1.00  0.00     0.032 A 
HETATM   26  N   UNL     1       0.954   4.906 -29.099  1.00  0.00    -0.277 N 
HETATM   27  H   UNL     1       1.716   4.427 -28.633  1.00  0.00     0.189 HD
HETATM   28  N   UNL     1       0.337   4.283 -30.117  1.00  0.00    -0.168 NA
ENDBRANCH   1  18
TORSDOF 5
ENDMDL
MODEL 2
REMARK VINA RESULT:      -8.9      4.569      7.972
REMARK  5 active torsions:
REMARK  status: ('A' for Active; 'I' for Inactive)
REMARK    1  A    between atoms: C_9  and  C_10 
REMARK       I    between atoms: C_10  and  N_11 
REMARK    2  A    between atoms: N_11  and  C_12 
REMARK    3  A    between atoms: C_12  and  C_13 
REMARK    4  A    between atoms: C_13  and  N_14 
REMARK       I    between atoms: N_14  and  C_15 
REMARK    5  A    between atoms: C_15  and  C_16 
ROOT
HETATM    1  C   UNL     1      -3.129   0.068 -31.694  1.00  0.00     0.272 C 
HETATM    2  N   UNL     1      -3.758   1.225 -32.101  1.00  0.00    -0.354 N 
HETATM    3  O   UNL     1      -2.240   0.052 -30.846  1.00  0.00    -0.266 OA
HETATM    4  H   UNL     1      -4.439   1.119 -32.848  1.00  0.00     0.162 HD
ENDROOT
BRANCH   2   5
HETATM    5  C   UNL     1      -3.395   2.533 -31.605  1.00  0.00     0.142 C 
BRANCH   5   6
HETATM    6  C   UNL     1      -4.592   3.299 -31.031  1.00  0.00     0.142 C 
BRANCH   6   7
HETATM    7  N   UNL     1      -5.850   2.907 -31.641  1.00  0.00    -0.355 N 
HETATM    8  C   UNL     1      -6.643   1.930 -31.079  1.00  0.00     0.251 C 
HETATM    9  O   UNL     1      -6.343   1.350 -30.040  1.00  0.00    -0.268 OA
HETATM   10  H   UNL     1      -6.205   3.495 -32.381  1.00  0.00     0.162 HD
BRANCH   8  11
HETATM   11  C   UNL     1      -7.927   1.606 -31.772  1.00  0.00     0.032 A 
HETATM   12  C   UNL     1      -8.532   0.342 -31.702  1.00  0.00     0.018 A 
HETATM   13  C   UNL     1      -9.742   0.104 -32.366  1.00  0.00     0.025 A 
HETATM   14  C   UNL     1     -10.354   1.125 -33.089  1.00  0.00     0.034 A 
HETATM   15 CL   UNL     1     -11.844   0.827 -33.896  1.00  0.00    -0.084 Cl
HETATM   16  C   UNL     1      -9.771   2.388 -33.154  1.00  0.00     0.025 A 
HETATM   17  C   UNL     1      -8.561   2.627 -32.497  1.00  0.00     0.018 A 
ENDBRANCH   8  11
ENDBRANCH   6   7
ENDBRANCH   5   6
ENDBRANCH   2   5
BRANCH   1  18
HETATM   18  C   UNL     1      -3.614  -1.133 -32.393  1.00  0.00     0.157 A 
HETATM   19  C   UNL     1      -4.706  -1.223 -33.307  1.00  0.00     0.029 A 
HETATM   20  C   UNL     1      -5.650  -0.331 -33.854  1.00  0.00     0.023 A 
HETATM   21  C   UNL     1      -4.759  -2.561 -33.675  1.00  0.00     0.063 A 
HETATM   22  C   UNL     1      -6.616  -0.811 -34.754  1.00  0.00    -0.061 A 
HETATM   23  C   UNL     1      -7.634   0.121 -35.346  1.00  0.00     0.048 C 
HETATM   24  C   UNL     1      -6.633  -2.168 -35.099  1.00  0.00     0.009 A 
HETATM   25  C   UNL     1      -5.705  -3.071 -34.568  1.00  0.00     0.032 A 
HETATM   26  N   UNL     1      -3.740  -3.165 -32.992  1.00  0.00    -0.277 N 
HETATM   27  H   UNL     1      -3.480  -4.144 -33.019  1.00  0.00     0.189 HD
HETATM   28  N   UNL     1      -3.031  -2.339 -32.204  1.00  0.00    -0.168 NA
ENDBRANCH   1  18
TORSDOF 5
ENDMDL
MODEL 3
REMARK VINA RESULT:      -8.9      4.134     10.065
REMARK  5 active torsions:
REMARK  status: ('A' for Active; 'I' for Inactive)
REMARK    1  A    between atoms: C_9  and  C_10 
REMARK       I    between atoms: C_10  and  N_11 
REMARK    2  A    between atoms: N_11  and  C_12 
REMARK    3  A    between atoms: C_12  and  C_13 
REMARK    4  A    between atoms: C_13  and  N_14 
REMARK       I    between atoms: N_14  and  C_15 
REMARK    5  A    between atoms: C_15  and  C_16 
ROOT
HETATM    1  C   UNL     1      -3.907   2.211 -31.200  1.00  0.00     0.272 C 
HETATM    2  N   UNL     1      -3.049   3.110 -31.796  1.00  0.00    -0.354 N 
HETATM    3  O   UNL     1      -4.791   2.548 -30.416  1.00  0.00    -0.266 OA
HETATM    4  H   UNL     1      -2.324   2.706 -32.383  1.00  0.00     0.162 HD
ENDROOT
BRANCH   2   5
HETATM    5  C   UNL     1      -3.075   4.526 -31.515  1.00  0.00     0.142 C 
BRANCH   5   6
HETATM    6  C   UNL     1      -1.718   5.200 -31.748  1.00  0.00     0.142 C 
BRANCH   6   7
HETATM    7  N   UNL     1      -1.269   5.964 -30.598  1.00  0.00    -0.355 N 
HETATM    8  C   UNL     1      -0.142   5.601 -29.892  1.00  0.00     0.251 C 
HETATM    9  O   UNL     1       0.545   4.631 -30.197  1.00  0.00    -0.268 OA
HETATM   10  H   UNL     1      -1.704   6.863 -30.446  1.00  0.00     0.162 HD
BRANCH   8  11
HETATM   11  C   UNL     1       0.247   6.459 -28.733  1.00  0.00     0.032 A 
HETATM   12  C   UNL     1      -0.043   6.119 -27.403  1.00  0.00     0.018 A 
HETATM   13  C   UNL     1       0.359   6.960 -26.358  1.00  0.00     0.025 A 
HETATM   14  C   UNL     1       1.058   8.133 -26.636  1.00  0.00     0.034 A 
HETATM   15 CL   UNL     1       1.555   9.157 -25.346  1.00  0.00    -0.084 Cl
HETATM   16  C   UNL     1       1.365   8.474 -27.950  1.00  0.00     0.025 A 
HETATM   17  C   UNL     1       0.961   7.638 -28.996  1.00  0.00     0.018 A 
ENDBRANCH   8  11
ENDBRANCH   6   7
ENDBRANCH   5   6
ENDBRANCH   2   5
BRANCH   1  18
HETATM   18  C   UNL     1      -3.641   0.814 -31.581  1.00  0.00     0.157 A 
HETATM   19  C   UNL     1      -4.375   0.013 -32.507  1.00  0.00     0.029 A 
HETATM   20  C   UNL     1      -5.502   0.190 -33.334  1.00  0.00     0.023 A 
HETATM   21  C   UNL     1      -3.733  -1.219 -32.505  1.00  0.00     0.063 A 
HETATM   22  C   UNL     1      -5.948  -0.876 -34.134  1.00  0.00    -0.061 A 
HETATM   23  C   UNL     1      -7.149  -0.711 -35.020  1.00  0.00     0.048 C 
HETATM   24  C   UNL     1      -5.270  -2.102 -34.102  1.00  0.00     0.009 A 
HETATM   25  C   UNL     1      -4.149  -2.299 -33.288  1.00  0.00     0.032 A 
HETATM   26  N   UNL     1      -2.700  -1.087 -31.619  1.00  0.00    -0.277 N 
HETATM   27  H   UNL     1      -2.017  -1.792 -31.365  1.00  0.00     0.189 HD
HETATM   28  N   UNL     1      -2.615   0.121 -31.037  1.00  0.00    -0.168 NA
ENDBRANCH   1  18
TORSDOF 5
ENDMDL
MODEL 4
REMARK VINA RESULT:      -8.9      4.384      9.647
REMARK  5 active torsions:
REMARK  status: ('A' for Active; 'I' for Inactive)
REMARK    1  A    between atoms: C_9  and  C_10 
REMARK       I    between atoms: C_10  and  N_11 
REMARK    2  A    between atoms: N_11  and  C_12 
REMARK    3  A    between atoms: C_12  and  C_13 
REMARK    4  A    between atoms: C_13  and  N_14 
REMARK       I    between atoms: N_14  and  C_15 
REMARK    5  A    between atoms: C_15  and  C_16 
ROOT
HETATM    1  C   UNL     1      -6.530   0.993 -33.710  1.00  0.00     0.272 C 
HETATM    2  N   UNL     1      -6.217   2.275 -33.311  1.00  0.00    -0.354 N 
HETATM    3  O   UNL     1      -7.610   0.694 -34.215  1.00  0.00    -0.266 OA
HETATM    4  H   UNL     1      -5.314   2.388 -32.856  1.00  0.00     0.162 HD
ENDROOT
BRANCH   2   5
HETATM    5  C   UNL     1      -7.148   3.375 -33.401  1.00  0.00     0.142 C 
BRANCH   5   6
HETATM    6  C   UNL     1      -6.533   4.616 -34.059  1.00  0.00     0.142 C 
BRANCH   6   7
HETATM    7  N   UNL     1      -5.270   5.000 -33.454  1.00  0.00    -0.355 N 
HETATM    8  C   UNL     1      -4.166   5.293 -34.226  1.00  0.00     0.251 C 
HETATM    9  O   UNL     1      -4.189   5.258 -35.453  1.00  0.00    -0.268 OA
HETATM   10  H   UNL     1      -5.281   5.218 -32.468  1.00  0.00     0.162 HD
BRANCH   8  11
HETATM   11  C   UNL     1      -2.916   5.692 -33.512  1.00  0.00     0.032 A 
HETATM   12  C   UNL     1      -2.239   6.891 -33.777  1.00  0.00     0.018 A 
HETATM   13  C   UNL     1      -1.077   7.215 -33.066  1.00  0.00     0.025 A 
HETATM   14  C   UNL     1      -0.596   6.350 -32.084  1.00  0.00     0.034 A 
HETATM   15 CL   UNL     1       0.828   6.758 -31.209  1.00  0.00    -0.084 Cl
HETATM   16  C   UNL     1      -1.268   5.164 -31.802  1.00  0.00     0.025 A 
HETATM   17  C   UNL     1      -2.425   4.836 -32.514  1.00  0.00     0.018 A 
ENDBRANCH   8  11
ENDBRANCH   6   7
ENDBRANCH   5   6
ENDBRANCH   2   5
BRANCH   1  18
HETATM   18  C   UNL     1      -5.453   0.024 -33.450  1.00  0.00     0.157 A 
HETATM   19  C   UNL     1      -5.403  -1.345 -33.849  1.00  0.00     0.029 A 
HETATM   20  C   UNL     1      -6.240  -2.228 -34.560  1.00  0.00     0.023 A 
HETATM   21  C   UNL     1      -4.194  -1.821 -33.356  1.00  0.00     0.063 A 
HETATM   22  C   UNL     1      -5.836  -3.559 -34.756  1.00  0.00    -0.061 A 
HETATM   23  C   UNL     1      -6.714  -4.518 -35.507  1.00  0.00     0.048 C 
HETATM   24  C   UNL     1      -4.608  -3.997 -34.243  1.00  0.00     0.009 A 
HETATM   25  C   UNL     1      -3.762  -3.137 -33.533  1.00  0.00     0.032 A 
HETATM   26  N   UNL     1      -3.619  -0.755 -32.722  1.00  0.00    -0.277 N 
HETATM   27  H   UNL     1      -2.725  -0.737 -32.244  1.00  0.00     0.189 HD
HETATM   28  N   UNL     1      -4.349   0.373 -32.751  1.00  0.00    -0.168 NA
ENDBRANCH   1  18
TORSDOF 5
ENDMDL
MODEL 5
REMARK VINA RESULT:      -8.9      2.254      3.196
REMARK  5 active torsions:
REMARK  status: ('A' for Active; 'I' for Inactive)
REMARK    1  A    between atoms: C_9  and  C_10 
REMARK       I    between atoms: C_10  and  N_11 
REMARK    2  A    between atoms: N_11  and  C_12 
REMARK    3  A    between atoms: C_12  and  C_13 
REMARK    4  A    between atoms: C_13  and  N_14 
REMARK       I    between atoms: N_14  and  C_15 
REMARK    5  A    between atoms: C_15  and  C_16 
ROOT
HETATM    1  C   UNL     1      -3.374   2.908 -31.424  1.00  0.00     0.272 C 
HETATM    2  N   UNL     1      -4.597   3.271 -30.902  1.00  0.00    -0.354 N 
HETATM    3  O   UNL     1      -2.870   1.803 -31.242  1.00  0.00    -0.266 OA
HETATM    4  H   UNL     1      -4.885   4.231 -31.075  1.00  0.00     0.162 HD
ENDROOT
BRANCH   2   5
HETATM    5  C   UNL     1      -5.375   2.403 -30.049  1.00  0.00     0.142 C 
BRANCH   5   6
HETATM    6  C   UNL     1      -6.680   1.942 -30.709  1.00  0.00     0.142 C 
BRANCH   6   7
HETATM    7  N   UNL     1      -6.527   0.697 -31.439  1.00  0.00    -0.355 N 
HETATM    8  C   UNL     1      -6.177   0.687 -32.772  1.00  0.00     0.251 C 
HETATM    9  O   UNL     1      -5.967   1.715 -33.408  1.00  0.00    -0.268 OA
HETATM   10  H   UNL     1      -6.508  -0.154 -30.896  1.00  0.00     0.162 HD
BRANCH   8  11
HETATM   11  C   UNL     1      -6.029  -0.645 -33.433  1.00  0.00     0.032 A 
HETATM   12  C   UNL     1      -4.793  -1.292 -33.571  1.00  0.00     0.018 A 
HETATM   13  C   UNL     1      -4.720  -2.546 -34.191  1.00  0.00     0.025 A 
HETATM   14  C   UNL     1      -5.880  -3.160 -34.662  1.00  0.00     0.034 A 
HETATM   15 CL   UNL     1      -5.784  -4.703 -35.415  1.00  0.00    -0.084 Cl
HETATM   16  C   UNL     1      -7.115  -2.534 -34.517  1.00  0.00     0.025 A 
HETATM   17  C   UNL     1      -7.189  -1.280 -33.903  1.00  0.00     0.018 A 
ENDBRANCH   8  11
ENDBRANCH   6   7
ENDBRANCH   5   6
ENDBRANCH   2   5
BRANCH   1  18
HETATM   18  C   UNL     1      -2.732   3.983 -32.198  1.00  0.00     0.157 A 
HETATM   19  C   UNL     1      -1.777   4.936 -31.732  1.00  0.00     0.029 A 
HETATM   20  C   UNL     1      -1.133   5.215 -30.510  1.00  0.00     0.023 A 
HETATM   21  C   UNL     1      -1.492   5.730 -32.835  1.00  0.00     0.063 A 
HETATM   22  C   UNL     1      -0.222   6.283 -30.436  1.00  0.00    -0.061 A 
HETATM   23  C   UNL     1       0.472   6.601 -29.143  1.00  0.00     0.048 C 
HETATM   24  C   UNL     1       0.037   7.058 -31.573  1.00  0.00     0.009 A 
HETATM   25  C   UNL     1      -0.592   6.798 -32.796  1.00  0.00     0.032 A 
HETATM   26  N   UNL     1      -2.258   5.227 -33.851  1.00  0.00    -0.277 N 
HETATM   27  H   UNL     1      -2.304   5.561 -34.806  1.00  0.00     0.189 HD
HETATM   28  N   UNL     1      -3.022   4.177 -33.505  1.00  0.00    -0.168 NA
ENDBRANCH   1  18
TORSDOF 5
ENDMDL
MODEL 6
REMARK VINA RESULT:      -8.9      3.077      4.160
REMARK  5 active torsions:
REMARK  status: ('A' for Active; 'I' for Inactive)
REMARK    1  A    between atoms: C_9  and  C_10 
REMARK       I    between atoms: C_10  and  N_11 
REMARK    2  A    between atoms: N_11  and  C_12 
REMARK    3  A    between atoms: C_12  and  C_13 
REMARK    4  A    between atoms: C_13  and  N_14 
REMARK       I    between atoms: N_14  and  C_15 
REMARK    5  A    between atoms: C_15  and  C_16 
ROOT
HETATM    1  C   UNL     1      -4.847   3.557 -33.009  1.00  0.00     0.272 C 
HETATM    2  N   UNL     1      -6.159   3.974 -32.919  1.00  0.00    -0.354 N 
HETATM    3  O   UNL     1      -4.471   2.448 -32.638  1.00  0.00    -0.266 OA
HETATM    4  H   UNL     1      -6.338   4.932 -33.208  1.00  0.00     0.162 HD
ENDROOT
BRANCH   2   5
HETATM    5  C   UNL     1      -7.201   3.165 -32.332  1.00  0.00     0.142 C 
BRANCH   5   6
HETATM    6  C   UNL     1      -7.755   2.118 -33.306  1.00  0.00     0.142 C 
BRANCH   6   7
HETATM    7  N   UNL     1      -7.016   0.870 -33.263  1.00  0.00    -0.355 N 
HETATM    8  C   UNL     1      -6.709   0.179 -34.416  1.00  0.00     0.251 C 
HETATM    9  O   UNL     1      -7.028   0.579 -35.531  1.00  0.00    -0.268 OA
HETATM   10  H   UNL     1      -6.584   0.623 -32.385  1.00  0.00     0.162 HD
BRANCH   8  11
HETATM   11  C   UNL     1      -5.932  -1.088 -34.270  1.00  0.00     0.032 A 
HETATM   12  C   UNL     1      -6.278  -2.274 -34.935  1.00  0.00     0.018 A 
HETATM   13  C   UNL     1      -5.503  -3.428 -34.766  1.00  0.00     0.025 A 
HETATM   14  C   UNL     1      -4.378  -3.398 -33.944  1.00  0.00     0.034 A 
HETATM   15 CL   UNL     1      -3.427  -4.818 -33.746  1.00  0.00    -0.084 Cl
HETATM   16  C   UNL     1      -4.017  -2.224 -33.289  1.00  0.00     0.025 A 
HETATM   17  C   UNL     1      -4.791  -1.072 -33.453  1.00  0.00     0.018 A 
ENDBRANCH   8  11
ENDBRANCH   6   7
ENDBRANCH   5   6
ENDBRANCH   2   5
BRANCH   1  18
HETATM   18  C   UNL     1      -3.950   4.579 -33.572  1.00  0.00     0.157 A 
HETATM   19  C   UNL     1      -2.759   5.103 -32.988  1.00  0.00     0.029 A 
HETATM   20  C   UNL     1      -2.034   4.897 -31.797  1.00  0.00     0.023 A 
HETATM   21  C   UNL     1      -2.290   6.039 -33.902  1.00  0.00     0.063 A 
HETATM   22  C   UNL     1      -0.862   5.635 -31.562  1.00  0.00    -0.061 A 
HETATM   23  C   UNL     1      -0.076   5.434 -30.298  1.00  0.00     0.048 C 
HETATM   24  C   UNL     1      -0.424   6.568 -32.512  1.00  0.00     0.009 A 
HETATM   25  C   UNL     1      -1.128   6.789 -33.701  1.00  0.00     0.032 A 
HETATM   26  N   UNL     1      -3.189   6.019 -34.932  1.00  0.00    -0.277 N 
HETATM   27  H   UNL     1      -3.163   6.576 -35.779  1.00  0.00     0.189 HD
HETATM   28  N   UNL     1      -4.206   5.156 -34.768  1.00  0.00    -0.168 NA
ENDBRANCH   1  18
TORSDOF 5
ENDMDL
MODEL 7
REMARK VINA RESULT:      -8.6      5.277      9.006
REMARK  5 active torsions:
REMARK  status: ('A' for Active; 'I' for Inactive)
REMARK    1  A    between atoms: C_9  and  C_10 
REMARK       I    between atoms: C_10  and  N_11 
REMARK    2  A    between atoms: N_11  and  C_12 
REMARK    3  A    between atoms: C_12  and  C_13 
REMARK    4  A    between atoms: C_13  and  N_14 
REMARK       I    between atoms: N_14  and  C_15 
REMARK    5  A    between atoms: C_15  and  C_16 
ROOT
HETATM    1  C   UNL     1      -8.609   1.976 -31.876  1.00  0.00     0.272 C 
HETATM    2  N   UNL     1      -7.671   2.845 -31.362  1.00  0.00    -0.354 N 
HETATM    3  O   UNL     1      -8.767   0.834 -31.451  1.00  0.00    -0.266 OA
HETATM    4  H   UNL     1      -7.597   3.744 -31.832  1.00  0.00     0.162 HD
ENDROOT
BRANCH   2   5
HETATM    5  C   UNL     1      -6.751   2.477 -30.311  1.00  0.00     0.142 C 
BRANCH   5   6
HETATM    6  C   UNL     1      -5.393   2.014 -30.850  1.00  0.00     0.142 C 
BRANCH   6   7
HETATM    7  N   UNL     1      -5.473   0.743 -31.547  1.00  0.00    -0.355 N 
HETATM    8  C   UNL     1      -5.604   0.685 -32.918  1.00  0.00     0.251 C 
HETATM    9  O   UNL     1      -5.650   1.689 -33.621  1.00  0.00    -0.268 OA
HETATM   10  H   UNL     1      -5.249  -0.086 -31.016  1.00  0.00     0.162 HD
BRANCH   8  11
HETATM   11  C   UNL     1      -5.664  -0.670 -33.544  1.00  0.00     0.032 A 
HETATM   12  C   UNL     1      -4.542  -1.503 -33.664  1.00  0.00     0.018 A 
HETATM   13  C   UNL     1      -4.664  -2.768 -34.251  1.00  0.00     0.025 A 
HETATM   14  C   UNL     1      -5.905  -3.208 -34.710  1.00  0.00     0.034 A 
HETATM   15 CL   UNL     1      -6.049  -4.766 -35.424  1.00  0.00    -0.084 Cl
HETATM   16  C   UNL     1      -7.028  -2.396 -34.584  1.00  0.00     0.025 A 
HETATM   17  C   UNL     1      -6.908  -1.131 -34.002  1.00  0.00     0.018 A 
ENDBRANCH   8  11
ENDBRANCH   6   7
ENDBRANCH   5   6
ENDBRANCH   2   5
BRANCH   1  18
HETATM   18  C   UNL     1      -9.380   2.546 -32.993  1.00  0.00     0.157 A 
HETATM   19  C   UNL     1     -10.615   2.071 -33.526  1.00  0.00     0.029 A 
HETATM   20  C   UNL     1     -11.499   1.008 -33.252  1.00  0.00     0.023 A 
HETATM   21  C   UNL     1     -10.919   2.943 -34.564  1.00  0.00     0.063 A 
HETATM   22  C   UNL     1     -12.660   0.855 -34.029  1.00  0.00    -0.061 A 
HETATM   23  C   UNL     1     -13.614  -0.273 -33.757  1.00  0.00     0.048 C 
HETATM   24  C   UNL     1     -12.928   1.758 -35.066  1.00  0.00     0.009 A 
HETATM   25  C   UNL     1     -12.064   2.820 -35.355  1.00  0.00     0.032 A 
HETATM   26  N   UNL     1      -9.893   3.847 -34.589  1.00  0.00    -0.277 N 
HETATM   27  H   UNL     1      -9.784   4.632 -35.220  1.00  0.00     0.189 HD
HETATM   28  N   UNL     1      -8.944   3.639 -33.661  1.00  0.00    -0.168 NA
ENDBRANCH   1  18
TORSDOF 5
ENDMDL
MODEL 8
REMARK VINA RESULT:      -8.6      5.308      8.515
REMARK  5 active torsions:
REMARK  status: ('A' for Active; 'I' for Inactive)
REMARK    1  A    between atoms: C_9  and  C_10 
REMARK       I    between atoms: C_10  and  N_11 
REMARK    2  A    between atoms: N_11  and  C_12 
REMARK    3  A    between atoms: C_12  and  C_13 
REMARK    4  A    between atoms: C_13  and  N_14 
REMARK       I    between atoms: N_14  and  C_15 
REMARK    5  A    between atoms: C_15  and  C_16 
ROOT
HETATM    1  C   UNL     1      -7.146  -0.030 -34.897  1.00  0.00     0.272 C 
HETATM    2  N   UNL     1      -8.163   0.191 -33.993  1.00  0.00    -0.354 N 
HETATM    3  O   UNL     1      -6.977   0.666 -35.896  1.00  0.00    -0.266 OA
HETATM    4  H   UNL     1      -8.234  -0.485 -33.236  1.00  0.00     0.162 HD
ENDROOT
BRANCH   2   5
HETATM    5  C   UNL     1      -9.154   1.227 -34.161  1.00  0.00     0.142 C 
BRANCH   5   6
HETATM    6  C   UNL     1      -8.829   2.491 -33.357  1.00  0.00     0.142 C 
BRANCH   6   7
HETATM    7  N   UNL     1      -7.558   3.082 -33.736  1.00  0.00    -0.355 N 
HETATM    8  C   UNL     1      -6.490   3.100 -32.865  1.00  0.00     0.251 C 
HETATM    9  O   UNL     1      -6.545   2.615 -31.739  1.00  0.00    -0.268 OA
HETATM   10  H   UNL     1      -7.432   3.313 -34.711  1.00  0.00     0.162 HD
BRANCH   8  11
HETATM   11  C   UNL     1      -5.219   3.717 -33.352  1.00  0.00     0.032 A 
HETATM   12  C   UNL     1      -5.171   4.609 -34.433  1.00  0.00     0.018 A 
HETATM   13  C   UNL     1      -3.950   5.163 -34.835  1.00  0.00     0.025 A 
HETATM   14  C   UNL     1      -2.778   4.838 -34.153  1.00  0.00     0.034 A 
HETATM   15 CL   UNL     1      -1.282   5.528 -34.648  1.00  0.00    -0.084 Cl
HETATM   16  C   UNL     1      -2.815   3.966 -33.069  1.00  0.00     0.025 A 
HETATM   17  C   UNL     1      -4.032   3.408 -32.669  1.00  0.00     0.018 A 
ENDBRANCH   8  11
ENDBRANCH   6   7
ENDBRANCH   5   6
ENDBRANCH   2   5
BRANCH   1  18
HETATM   18  C   UNL     1      -6.306  -1.189 -34.556  1.00  0.00     0.157 A 
HETATM   19  C   UNL     1      -5.231  -1.235 -33.618  1.00  0.00     0.029 A 
HETATM   20  C   UNL     1      -4.606  -0.324 -32.743  1.00  0.00     0.023 A 
HETATM   21  C   UNL     1      -4.762  -2.541 -33.671  1.00  0.00     0.063 A 
HETATM   22  C   UNL     1      -3.531  -0.755 -31.948  1.00  0.00    -0.061 A 
HETATM   23  C   UNL     1      -2.847   0.199 -31.011  1.00  0.00     0.048 C 
HETATM   24  C   UNL     1      -3.090  -2.082 -32.032  1.00  0.00     0.009 A 
HETATM   25  C   UNL     1      -3.696  -3.003 -32.895  1.00  0.00     0.032 A 
HETATM   26  N   UNL     1      -5.549  -3.171 -34.596  1.00  0.00    -0.277 N 
HETATM   27  H   UNL     1      -5.492  -4.139 -34.891  1.00  0.00     0.189 HD
HETATM   28  N   UNL     1      -6.487  -2.388 -35.155  1.00  0.00    -0.168 NA
ENDBRANCH   1  18
TORSDOF 5
ENDMDL
MODEL 9
REMARK VINA RESULT:      -8.5      4.806      8.043
REMARK  5 active torsions:
REMARK  status: ('A' for Active; 'I' for Inactive)
REMARK    1  A    between atoms: C_9  and  C_10 
REMARK       I    between atoms: C_10  and  N_11 
REMARK    2  A    between atoms: N_11  and  C_12 
REMARK    3  A    between atoms: C_12  and  C_13 
REMARK    4  A    between atoms: C_13  and  N_14 
REMARK       I    between atoms: N_14  and  C_15 
REMARK    5  A    between atoms: C_15  and  C_16 
ROOT
HETATM    1  C   UNL     1      -7.310   4.832 -33.312  1.00  0.00     0.272 C 
HETATM    2  N   UNL     1      -6.254   4.120 -33.840  1.00  0.00    -0.354 N 
HETATM    3  O   UNL     1      -7.187   5.607 -32.367  1.00  0.00    -0.266 OA
HETATM    4  H   UNL     1      -6.490   3.469 -34.585  1.00  0.00     0.162 HD
ENDROOT
BRANCH   2   5
HETATM    5  C   UNL     1      -4.917   4.179 -33.298  1.00  0.00     0.142 C 
BRANCH   5   6
HETATM    6  C   UNL     1      -4.560   2.938 -32.470  1.00  0.00     0.142 C 
BRANCH   6   7
HETATM    7  N   UNL     1      -5.059   1.710 -33.062  1.00  0.00    -0.355 N 
HETATM    8  C   UNL     1      -4.542   0.483 -32.706  1.00  0.00     0.251 C 
HETATM    9  O   UNL     1      -3.651   0.357 -31.873  1.00  0.00    -0.268 OA
HETATM   10  H   UNL     1      -5.911   1.773 -33.600  1.00  0.00     0.162 HD
BRANCH   8  11
HETATM   11  C   UNL     1      -5.132  -0.725 -33.360  1.00  0.00     0.032 A 
HETATM   12  C   UNL     1      -6.500  -0.845 -33.643  1.00  0.00     0.018 A 
HETATM   13  C   UNL     1      -6.990  -1.999 -34.268  1.00  0.00     0.025 A 
HETATM   14  C   UNL     1      -6.118  -3.027 -34.619  1.00  0.00     0.034 A 
HETATM   15 CL   UNL     1      -6.726  -4.438 -35.392  1.00  0.00    -0.084 Cl
HETATM   16  C   UNL     1      -4.755  -2.913 -34.356  1.00  0.00     0.025 A 
HETATM   17  C   UNL     1      -4.264  -1.765 -33.728  1.00  0.00     0.018 A 
ENDBRANCH   8  11
ENDBRANCH   6   7
ENDBRANCH   5   6
ENDBRANCH   2   5
BRANCH   1  18
HETATM   18  C   UNL     1      -8.591   4.552 -33.979  1.00  0.00     0.157 A 
HETATM   19  C   UNL     1      -9.365   3.356 -33.905  1.00  0.00     0.029 A 
HETATM   20  C   UNL     1      -9.252   2.111 -33.254  1.00  0.00     0.023 A 
HETATM   21  C   UNL     1     -10.471   3.590 -34.713  1.00  0.00     0.063 A 
HETATM   22  C   UNL     1     -10.253   1.141 -33.435  1.00  0.00    -0.061 A 
HETATM   23  C   UNL     1     -10.150  -0.194 -32.755  1.00  0.00     0.048 C 
HETATM   24  C   UNL     1     -11.352   1.419 -34.258  1.00  0.00     0.009 A 
HETATM   25  C   UNL     1     -11.484   2.649 -34.914  1.00  0.00     0.032 A 
HETATM   26  N   UNL     1     -10.300   4.856 -35.200  1.00  0.00    -0.277 N 
HETATM   27  H   UNL     1     -10.919   5.360 -35.825  1.00  0.00     0.189 HD
HETATM   28  N   UNL     1      -9.178   5.467 -34.785  1.00  0.00    -0.168 NA
ENDBRANCH   1  18
TORSDOF 5
ENDMDL
MODEL 10
REMARK VINA RESULT:      -8.5      3.704     10.359
REMARK  5 active torsions:
REMARK  status: ('A' for Active; 'I' for Inactive)
REMARK    1  A    between atoms: C_9  and  C_10 
REMARK       I    between atoms: C_10  and  N_11 
REMARK    2  A    between atoms: N_11  and  C_12 
REMARK    3  A    between atoms: C_12  and  C_13 
REMARK    4  A    between atoms: C_13  and  N_14 
REMARK       I    between atoms: N_14  and  C_15 
REMARK    5  A    between atoms: C_15  and  C_16 
ROOT
HETATM    1  C   UNL     1      -4.692   0.664 -32.350  1.00  0.00     0.272 C 
HETATM    2  N   UNL     1      -5.356   1.709 -31.744  1.00  0.00    -0.354 N 
HETATM    3  O   UNL     1      -3.487   0.467 -32.210  1.00  0.00    -0.266 OA
HETATM    4  H   UNL     1      -6.341   1.801 -31.979  1.00  0.00     0.162 HD
ENDROOT
BRANCH   2   5
HETATM    5  C   UNL     1      -4.689   2.699 -30.931  1.00  0.00     0.142 C 
BRANCH   5   6
HETATM    6  C   UNL     1      -4.103   3.846 -31.762  1.00  0.00     0.142 C 
BRANCH   6   7
HETATM    7  N   UNL     1      -3.227   4.705 -30.986  1.00  0.00    -0.355 N 
HETATM    8  C   UNL     1      -1.927   4.944 -31.379  1.00  0.00     0.251 C 
HETATM    9  O   UNL     1      -1.444   4.460 -32.398  1.00  0.00    -0.268 OA
HETATM   10  H   UNL     1      -3.654   5.259 -30.258  1.00  0.00     0.162 HD
BRANCH   8  11
HETATM   11  C   UNL     1      -1.108   5.853 -30.522  1.00  0.00     0.032 A 
HETATM   12  C   UNL     1      -1.417   7.209 -30.339  1.00  0.00     0.018 A 
HETATM   13  C   UNL     1      -0.616   8.008 -29.514  1.00  0.00     0.025 A 
HETATM   14  C   UNL     1       0.486   7.456 -28.864  1.00  0.00     0.034 A 
HETATM   15 CL   UNL     1       1.462   8.442 -27.847  1.00  0.00    -0.084 Cl
HETATM   16  C   UNL     1       0.795   6.108 -29.027  1.00  0.00     0.025 A 
HETATM   17  C   UNL     1       0.000   5.309 -29.853  1.00  0.00     0.018 A 
ENDBRANCH   8  11
ENDBRANCH   6   7
ENDBRANCH   5   6
ENDBRANCH   2   5
BRANCH   1  18
HETATM   18  C   UNL     1      -5.565  -0.170 -33.191  1.00  0.00     0.157 A 
HETATM   19  C   UNL     1      -5.331  -1.510 -33.622  1.00  0.00     0.029 A 
HETATM   20  C   UNL     1      -4.314  -2.471 -33.451  1.00  0.00     0.023 A 
HETATM   21  C   UNL     1      -6.438  -1.839 -34.395  1.00  0.00     0.063 A 
HETATM   22  C   UNL     1      -4.441  -3.731 -34.059  1.00  0.00    -0.061 A 
HETATM   23  C   UNL     1      -3.368  -4.768 -33.893  1.00  0.00     0.048 C 
HETATM   24  C   UNL     1      -5.575  -4.021 -34.829  1.00  0.00     0.009 A 
HETATM   25  C   UNL     1      -6.597  -3.082 -35.013  1.00  0.00     0.032 A 
HETATM   26  N   UNL     1      -7.232  -0.727 -34.380  1.00  0.00    -0.277 N 
HETATM   27  H   UNL     1      -8.128  -0.607 -34.840  1.00  0.00     0.189 HD
HETATM   28  N   UNL     1      -6.738   0.302 -33.670  1.00  0.00    -0.168 NA
ENDBRANCH   1  18
TORSDOF 5
ENDMDL
