MODEL 1
REMARK VINA RESULT:      -8.7      0.000      0.000
REMARK  5 active torsions:
REMARK  status: ('A' for Active; 'I' for Inactive)
REMARK    1  A    between atoms: C_7  and  C_8 
REMARK    2  A    between atoms: C_8  and  C_9 
REMARK    3  A    between atoms: C_9  and  N_10 
REMARK       I    between atoms: N_10  and  C_11 
REMARK       I    between atoms: C_11  and  N_12 
REMARK    4  A    between atoms: N_12  and  C_13 
REMARK    5  A    between atoms: C_14  and  O_15 
ROOT
HETATM    1  C   UNL     1      -6.677   1.376 -34.340  1.00  0.00     0.129 C 
ENDROOT
BRANCH   1   2
HETATM    2  C   UNL     1      -6.900   0.202 -33.380  1.00  0.00     0.061 C 
BRANCH   2   3
HETATM    3  C   UNL     1      -5.766  -0.784 -33.369  1.00  0.00    -0.022 A 
HETATM    4  C   UNL     1      -4.521  -0.604 -32.782  1.00  0.00     0.013 A 
HETATM    5  C   UNL     1      -3.954   0.551 -32.036  1.00  0.00     0.068 C 
HETATM    6  N   UNL     1      -3.792  -1.750 -32.981  1.00  0.00    -0.356 N 
HETATM    7  H   UNL     1      -2.848  -1.913 -32.656  1.00  0.00     0.166 HD
HETATM    8  C   UNL     1      -4.530  -2.669 -33.684  1.00  0.00     0.082 A 
HETATM    9  C   UNL     1      -5.771  -2.094 -33.949  1.00  0.00     0.005 A 
HETATM   10  C   UNL     1      -4.196  -3.959 -34.101  1.00  0.00     0.146 A 
HETATM   11  C   UNL     1      -6.716  -2.854 -34.670  1.00  0.00     0.056 A 
HETATM   12  C   UNL     1      -6.374  -4.146 -35.082  1.00  0.00     0.120 A 
HETATM   13  C   UNL     1      -5.134  -4.702 -34.807  1.00  0.00     0.086 A 
HETATM   14  F   UNL     1      -7.275  -4.867 -35.765  1.00  0.00    -0.206 F 
HETATM   15  F   UNL     1      -2.993  -4.479 -33.827  1.00  0.00    -0.204 F 
ENDBRANCH   2   3
ENDBRANCH   1   2
BRANCH   1  16
HETATM   16  N   UNL     1      -7.252   2.622 -33.851  1.00  0.00    -0.343 N 
HETATM   17  C   UNL     1      -8.596   2.855 -33.730  1.00  0.00     0.320 C 
HETATM   18  N   UNL     1      -9.373   2.238 -34.673  1.00  0.00    -0.303 N 
HETATM   19  O   UNL     1      -8.983   3.607 -32.841  1.00  0.00    -0.247 OA
HETATM   20  H   UNL     1      -8.969   2.159 -35.592  1.00  0.00     0.171 HD
HETATM   21  H   UNL     1      -6.777   3.036 -33.055  1.00  0.00     0.164 HD
BRANCH  18  22
HETATM   22  C   UNL     1     -10.748   2.121 -34.572  1.00  0.00     0.115 A 
HETATM   23  C   UNL     1     -11.785   2.924 -35.097  1.00  0.00     0.212 A 
HETATM   24  N   UNL     1     -13.000   2.499 -34.750  1.00  0.00    -0.145 NA
HETATM   25  N   UNL     1     -12.744   1.406 -34.006  1.00  0.00    -0.274 N 
HETATM   26  C   UNL     1     -13.857   0.664 -33.458  1.00  0.00     0.180 C 
HETATM   27  C   UNL     1     -11.402   1.145 -33.841  1.00  0.00     0.057 A 
HETATM   28  C   UNL     1     -10.872   0.003 -33.055  1.00  0.00     0.072 C 
BRANCH  23  29
HETATM   29  O   UNL     1     -11.660   4.107 -35.731  1.00  0.00    -0.337 OA
HETATM   30  C   UNL     1     -11.662   5.206 -34.829  1.00  0.00     0.212 C 
ENDBRANCH  23  29
ENDBRANCH  18  22
ENDBRANCH   1  16
TORSDOF 5
ENDMDL
MODEL 2
REMARK VINA RESULT:      -8.7      1.437      2.289
REMARK  5 active torsions:
REMARK  status: ('A' for Active; 'I' for Inactive)
REMARK    1  A    between atoms: C_7  and  C_8 
REMARK    2  A    between atoms: C_8  and  C_9 
REMARK    3  A    between atoms: C_9  and  N_10 
REMARK       I    between atoms: N_10  and  C_11 
REMARK       I    between atoms: C_11  and  N_12 
REMARK    4  A    between atoms: N_12  and  C_13 
REMARK    5  A    between atoms: C_14  and  O_15 
ROOT
HETATM    1  C   UNL     1      -7.285   0.026 -32.349  1.00  0.00     0.129 C 
ENDROOT
BRANCH   1   2
HETATM    2  C   UNL     1      -6.011   0.230 -33.176  1.00  0.00     0.061 C 
BRANCH   2   3
HETATM    3  C   UNL     1      -5.067  -0.939 -33.117  1.00  0.00    -0.022 A 
HETATM    4  C   UNL     1      -3.868  -0.997 -32.420  1.00  0.00     0.013 A 
HETATM    5  C   UNL     1      -3.183   0.015 -31.575  1.00  0.00     0.068 C 
HETATM    6  N   UNL     1      -3.331  -2.246 -32.612  1.00  0.00    -0.356 N 
HETATM    7  H   UNL     1      -2.462  -2.582 -32.217  1.00  0.00     0.166 HD
HETATM    8  C   UNL     1      -4.148  -2.999 -33.418  1.00  0.00     0.082 A 
HETATM    9  C   UNL     1      -5.244  -2.208 -33.758  1.00  0.00     0.005 A 
HETATM   10  C   UNL     1      -4.003  -4.313 -33.867  1.00  0.00     0.146 A 
HETATM   11  C   UNL     1      -6.235  -2.768 -34.591  1.00  0.00     0.056 A 
HETATM   12  C   UNL     1      -6.083  -4.085 -35.035  1.00  0.00     0.120 A 
HETATM   13  C   UNL     1      -4.987  -4.857 -34.684  1.00  0.00     0.086 A 
HETATM   14  F   UNL     1      -7.028  -4.615 -35.825  1.00  0.00    -0.206 F 
HETATM   15  F   UNL     1      -2.936  -5.043 -33.519  1.00  0.00    -0.204 F 
ENDBRANCH   2   3
ENDBRANCH   1   2
BRANCH   1  16
HETATM   16  N   UNL     1      -7.710   1.236 -31.660  1.00  0.00    -0.343 N 
HETATM   17  C   UNL     1      -8.848   1.936 -31.963  1.00  0.00     0.320 C 
HETATM   18  N   UNL     1      -9.195   1.921 -33.287  1.00  0.00    -0.303 N 
HETATM   19  O   UNL     1      -9.424   2.537 -31.062  1.00  0.00    -0.247 OA
HETATM   20  H   UNL     1      -8.431   1.919 -33.943  1.00  0.00     0.171 HD
HETATM   21  H   UNL     1      -7.594   1.225 -30.651  1.00  0.00     0.164 HD
BRANCH  18  22
HETATM   22  C   UNL     1     -10.433   2.327 -33.756  1.00  0.00     0.115 A 
HETATM   23  C   UNL     1     -11.679   1.662 -33.771  1.00  0.00     0.212 A 
HETATM   24  N   UNL     1     -12.645   2.378 -34.345  1.00  0.00    -0.145 NA
HETATM   25  N   UNL     1     -12.019   3.520 -34.690  1.00  0.00    -0.274 N 
HETATM   26  C   UNL     1     -12.784   4.559 -35.343  1.00  0.00     0.180 C 
HETATM   27  C   UNL     1     -10.677   3.535 -34.385  1.00  0.00     0.057 A 
HETATM   28  C   UNL     1      -9.775   4.676 -34.677  1.00  0.00     0.072 C 
BRANCH  23  29
HETATM   29  O   UNL     1     -11.923   0.378 -33.437  1.00  0.00    -0.337 OA
HETATM   30  C   UNL     1     -13.261  -0.008 -33.719  1.00  0.00     0.212 C 
ENDBRANCH  23  29
ENDBRANCH  18  22
ENDBRANCH   1  16
TORSDOF 5
ENDMDL
MODEL 3
REMARK VINA RESULT:      -8.6      3.327      5.744
REMARK  5 active torsions:
REMARK  status: ('A' for Active; 'I' for Inactive)
REMARK    1  A    between atoms: C_7  and  C_8 
REMARK    2  A    between atoms: C_8  and  C_9 
REMARK    3  A    between atoms: C_9  and  N_10 
REMARK       I    between atoms: N_10  and  C_11 
REMARK       I    between atoms: C_11  and  N_12 
REMARK    4  A    between atoms: N_12  and  C_13 
REMARK    5  A    between atoms: C_14  and  O_15 
ROOT
HETATM    1  C   UNL     1      -6.340   1.622 -34.410  1.00  0.00     0.129 C 
ENDROOT
BRANCH   1   2
HETATM    2  C   UNL     1      -6.656   0.481 -33.438  1.00  0.00     0.061 C 
BRANCH   2   3
HETATM    3  C   UNL     1      -5.581  -0.567 -33.377  1.00  0.00    -0.022 A 
HETATM    4  C   UNL     1      -4.344  -0.446 -32.759  1.00  0.00     0.013 A 
HETATM    5  C   UNL     1      -3.732   0.689 -32.020  1.00  0.00     0.068 C 
HETATM    6  N   UNL     1      -3.677  -1.636 -32.917  1.00  0.00    -0.356 N 
HETATM    7  H   UNL     1      -2.753  -1.846 -32.562  1.00  0.00     0.166 HD
HETATM    8  C   UNL     1      -4.448  -2.526 -33.622  1.00  0.00     0.082 A 
HETATM    9  C   UNL     1      -5.647  -1.887 -33.932  1.00  0.00     0.005 A 
HETATM   10  C   UNL     1      -4.178  -3.841 -34.006  1.00  0.00     0.146 A 
HETATM   11  C   UNL     1      -6.614  -2.606 -34.664  1.00  0.00     0.056 A 
HETATM   12  C   UNL     1      -6.337  -3.923 -35.042  1.00  0.00     0.120 A 
HETATM   13  C   UNL     1      -5.138  -4.543 -34.723  1.00  0.00     0.086 A 
HETATM   14  F   UNL     1      -7.259  -4.606 -35.736  1.00  0.00    -0.206 F 
HETATM   15  F   UNL     1      -3.014  -4.423 -33.689  1.00  0.00    -0.204 F 
ENDBRANCH   2   3
ENDBRANCH   1   2
BRANCH   1  16
HETATM   16  N   UNL     1      -7.068   2.846 -34.101  1.00  0.00    -0.343 N 
HETATM   17  C   UNL     1      -6.474   4.023 -33.732  1.00  0.00     0.320 C 
HETATM   18  N   UNL     1      -5.325   3.883 -33.002  1.00  0.00    -0.303 N 
HETATM   19  O   UNL     1      -7.022   5.077 -34.038  1.00  0.00    -0.247 OA
HETATM   20  H   UNL     1      -5.298   3.101 -32.368  1.00  0.00     0.171 HD
HETATM   21  H   UNL     1      -7.848   3.053 -34.716  1.00  0.00     0.164 HD
BRANCH  18  22
HETATM   22  C   UNL     1      -4.438   4.919 -32.768  1.00  0.00     0.115 A 
HETATM   23  C   UNL     1      -4.172   5.661 -31.595  1.00  0.00     0.212 A 
HETATM   24  N   UNL     1      -3.258   6.613 -31.777  1.00  0.00    -0.145 NA
HETATM   25  N   UNL     1      -2.922   6.476 -33.074  1.00  0.00    -0.274 N 
HETATM   26  C   UNL     1      -1.922   7.360 -33.629  1.00  0.00     0.180 C 
HETATM   27  C   UNL     1      -3.622   5.488 -33.729  1.00  0.00     0.057 A 
HETATM   28  C   UNL     1      -3.435   5.155 -35.164  1.00  0.00     0.072 C 
BRANCH  23  29
HETATM   29  O   UNL     1      -4.845   5.611 -30.428  1.00  0.00    -0.337 OA
HETATM   30  C   UNL     1      -6.028   6.397 -30.452  1.00  0.00     0.212 C 
ENDBRANCH  23  29
ENDBRANCH  18  22
ENDBRANCH   1  16
TORSDOF 5
ENDMDL
MODEL 4
REMARK VINA RESULT:      -8.6      3.566      6.277
REMARK  5 active torsions:
REMARK  status: ('A' for Active; 'I' for Inactive)
REMARK    1  A    between atoms: C_7  and  C_8 
REMARK    2  A    between atoms: C_8  and  C_9 
REMARK    3  A    between atoms: C_9  and  N_10 
REMARK       I    between atoms: N_10  and  C_11 
REMARK       I    between atoms: C_11  and  N_12 
REMARK    4  A    between atoms: N_12  and  C_13 
REMARK    5  A    between atoms: C_14  and  O_15 
ROOT
HETATM    1  C   UNL     1      -4.303   0.170 -32.033  1.00  0.00     0.129 C 
ENDROOT
BRANCH   1   2
HETATM    2  C   UNL     1      -5.100   0.517 -33.295  1.00  0.00     0.061 C 
BRANCH   2   3
HETATM    3  C   UNL     1      -5.776  -0.671 -33.921  1.00  0.00    -0.022 A 
HETATM    4  C   UNL     1      -7.000  -0.674 -34.574  1.00  0.00     0.013 A 
HETATM    5  C   UNL     1      -7.968   0.424 -34.835  1.00  0.00     0.068 C 
HETATM    6  N   UNL     1      -7.239  -1.953 -35.014  1.00  0.00    -0.356 N 
HETATM    7  H   UNL     1      -8.053  -2.257 -35.532  1.00  0.00     0.166 HD
HETATM    8  C   UNL     1      -6.202  -2.780 -34.661  1.00  0.00     0.082 A 
HETATM    9  C   UNL     1      -5.269  -2.010 -33.968  1.00  0.00     0.005 A 
HETATM   10  C   UNL     1      -6.018  -4.143 -34.902  1.00  0.00     0.146 A 
HETATM   11  C   UNL     1      -4.102  -2.645 -33.497  1.00  0.00     0.056 A 
HETATM   12  C   UNL     1      -3.925  -4.009 -33.745  1.00  0.00     0.120 A 
HETATM   13  C   UNL     1      -4.863  -4.759 -34.437  1.00  0.00     0.086 A 
HETATM   14  F   UNL     1      -2.812  -4.610 -33.297  1.00  0.00    -0.206 F 
HETATM   15  F   UNL     1      -6.936  -4.851 -35.572  1.00  0.00    -0.204 F 
ENDBRANCH   2   3
ENDBRANCH   1   2
BRANCH   1  16
HETATM   16  N   UNL     1      -4.367   1.214 -31.019  1.00  0.00    -0.343 N 
HETATM   17  C   UNL     1      -4.243   2.552 -31.282  1.00  0.00     0.320 C 
HETATM   18  N   UNL     1      -3.399   2.858 -32.316  1.00  0.00    -0.303 N 
HETATM   19  O   UNL     1      -4.844   3.349 -30.568  1.00  0.00    -0.247 OA
HETATM   20  H   UNL     1      -2.595   2.260 -32.420  1.00  0.00     0.171 HD
HETATM   21  H   UNL     1      -5.082   1.087 -30.310  1.00  0.00     0.164 HD
BRANCH  18  22
HETATM   22  C   UNL     1      -3.343   4.106 -32.913  1.00  0.00     0.115 A 
HETATM   23  C   UNL     1      -4.234   4.745 -33.804  1.00  0.00     0.212 A 
HETATM   24  N   UNL     1      -3.812   5.949 -34.188  1.00  0.00    -0.145 NA
HETATM   25  N   UNL     1      -2.646   6.093 -33.529  1.00  0.00    -0.274 N 
HETATM   26  C   UNL     1      -1.898   7.317 -33.703  1.00  0.00     0.180 C 
HETATM   27  C   UNL     1      -2.299   5.001 -32.765  1.00  0.00     0.057 A 
HETATM   28  C   UNL     1      -1.057   4.918 -31.958  1.00  0.00     0.072 C 
BRANCH  23  29
HETATM   29  O   UNL     1      -5.317   4.207 -34.401  1.00  0.00    -0.337 OA
HETATM   30  C   UNL     1      -6.534   4.675 -33.836  1.00  0.00     0.212 C 
ENDBRANCH  23  29
ENDBRANCH  18  22
ENDBRANCH   1  16
TORSDOF 5
ENDMDL
MODEL 5
REMARK VINA RESULT:      -8.5      3.623      6.115
REMARK  5 active torsions:
REMARK  status: ('A' for Active; 'I' for Inactive)
REMARK    1  A    between atoms: C_7  and  C_8 
REMARK    2  A    between atoms: C_8  and  C_9 
REMARK    3  A    between atoms: C_9  and  N_10 
REMARK       I    between atoms: N_10  and  C_11 
REMARK       I    between atoms: C_11  and  N_12 
REMARK    4  A    between atoms: N_12  and  C_13 
REMARK    5  A    between atoms: C_14  and  O_15 
ROOT
HETATM    1  C   UNL     1      -6.426   1.552 -33.188  1.00  0.00     0.129 C 
ENDROOT
BRANCH   1   2
HETATM    2  C   UNL     1      -6.278   0.454 -34.247  1.00  0.00     0.061 C 
BRANCH   2   3
HETATM    3  C   UNL     1      -5.302  -0.621 -33.861  1.00  0.00    -0.022 A 
HETATM    4  C   UNL     1      -4.151  -0.458 -33.102  1.00  0.00     0.013 A 
HETATM    5  C   UNL     1      -3.558   0.756 -32.482  1.00  0.00     0.068 C 
HETATM    6  N   UNL     1      -3.560  -1.689 -32.964  1.00  0.00    -0.356 N 
HETATM    7  H   UNL     1      -2.709  -1.882 -32.452  1.00  0.00     0.166 HD
HETATM    8  C   UNL     1      -4.296  -2.648 -33.615  1.00  0.00     0.082 A 
HETATM    9  C   UNL     1      -5.392  -2.012 -34.194  1.00  0.00     0.005 A 
HETATM   10  C   UNL     1      -4.077  -4.021 -33.733  1.00  0.00     0.146 A 
HETATM   11  C   UNL     1      -6.306  -2.797 -34.927  1.00  0.00     0.056 A 
HETATM   12  C   UNL     1      -6.081  -4.173 -35.038  1.00  0.00     0.120 A 
HETATM   13  C   UNL     1      -4.985  -4.788 -34.454  1.00  0.00     0.086 A 
HETATM   14  F   UNL     1      -6.953  -4.917 -35.734  1.00  0.00    -0.206 F 
HETATM   15  F   UNL     1      -3.012  -4.599 -33.162  1.00  0.00    -0.204 F 
ENDBRANCH   2   3
ENDBRANCH   1   2
BRANCH   1  16
HETATM   16  N   UNL     1      -6.596   2.877 -33.767  1.00  0.00    -0.343 N 
HETATM   17  C   UNL     1      -5.746   3.929 -33.548  1.00  0.00     0.320 C 
HETATM   18  N   UNL     1      -5.174   3.954 -32.304  1.00  0.00    -0.303 N 
HETATM   19  O   UNL     1      -5.601   4.761 -34.437  1.00  0.00    -0.247 OA
HETATM   20  H   UNL     1      -5.749   3.623 -31.548  1.00  0.00     0.171 HD
HETATM   21  H   UNL     1      -6.887   2.892 -34.739  1.00  0.00     0.164 HD
BRANCH  18  22
HETATM   22  C   UNL     1      -4.097   4.760 -31.976  1.00  0.00     0.115 A 
HETATM   23  C   UNL     1      -2.836   4.914 -32.594  1.00  0.00     0.212 A 
HETATM   24  N   UNL     1      -2.044   5.774 -31.954  1.00  0.00    -0.145 NA
HETATM   25  N   UNL     1      -2.806   6.187 -30.923  1.00  0.00    -0.274 N 
HETATM   26  C   UNL     1      -2.258   7.157 -30.002  1.00  0.00     0.180 C 
HETATM   27  C   UNL     1      -4.044   5.589 -30.869  1.00  0.00     0.057 A 
HETATM   28  C   UNL     1      -5.055   5.873 -29.821  1.00  0.00     0.072 C 
BRANCH  23  29
HETATM   29  O   UNL     1      -2.329   4.184 -33.607  1.00  0.00    -0.337 OA
HETATM   30  C   UNL     1      -1.994   4.982 -34.734  1.00  0.00     0.212 C 
ENDBRANCH  23  29
ENDBRANCH  18  22
ENDBRANCH   1  16
TORSDOF 5
ENDMDL
MODEL 6
REMARK VINA RESULT:      -8.4      4.669      7.929
REMARK  5 active torsions:
REMARK  status: ('A' for Active; 'I' for Inactive)
REMARK    1  A    between atoms: C_7  and  C_8 
REMARK    2  A    between atoms: C_8  and  C_9 
REMARK    3  A    between atoms: C_9  and  N_10 
REMARK       I    between atoms: N_10  and  C_11 
REMARK       I    between atoms: C_11  and  N_12 
REMARK    4  A    between atoms: N_12  and  C_13 
REMARK    5  A    between atoms: C_14  and  O_15 
ROOT
HETATM    1  C   UNL     1      -6.321   2.566 -34.272  1.00  0.00     0.129 C 
ENDROOT
BRANCH   1   2
HETATM    2  C   UNL     1      -6.290   3.889 -33.499  1.00  0.00     0.061 C 
BRANCH   2   3
HETATM    3  C   UNL     1      -5.127   4.000 -32.553  1.00  0.00    -0.022 A 
HETATM    4  C   UNL     1      -5.129   3.683 -31.202  1.00  0.00     0.013 A 
HETATM    5  C   UNL     1      -6.214   3.174 -30.322  1.00  0.00     0.068 C 
HETATM    6  N   UNL     1      -3.864   3.906 -30.716  1.00  0.00    -0.356 N 
HETATM    7  H   UNL     1      -3.563   3.754 -29.762  1.00  0.00     0.166 HD
HETATM    8  C   UNL     1      -3.042   4.363 -31.716  1.00  0.00     0.082 A 
HETATM    9  C   UNL     1      -3.803   4.440 -32.881  1.00  0.00     0.005 A 
HETATM   10  C   UNL     1      -1.690   4.710 -31.679  1.00  0.00     0.146 A 
HETATM   11  C   UNL     1      -3.172   4.890 -34.059  1.00  0.00     0.056 A 
HETATM   12  C   UNL     1      -1.817   5.233 -34.014  1.00  0.00     0.120 A 
HETATM   13  C   UNL     1      -1.076   5.149 -32.845  1.00  0.00     0.086 A 
HETATM   14  F   UNL     1      -1.219   5.659 -35.136  1.00  0.00    -0.206 F 
HETATM   15  F   UNL     1      -0.990   4.623 -30.540  1.00  0.00    -0.204 F 
ENDBRANCH   2   3
ENDBRANCH   1   2
BRANCH   1  16
HETATM   16  N   UNL     1      -7.124   1.545 -33.613  1.00  0.00    -0.343 N 
HETATM   17  C   UNL     1      -6.633   0.347 -33.169  1.00  0.00     0.320 C 
HETATM   18  N   UNL     1      -5.617  -0.173 -33.925  1.00  0.00    -0.303 N 
HETATM   19  O   UNL     1      -7.152  -0.171 -32.185  1.00  0.00    -0.247 OA
HETATM   20  H   UNL     1      -5.675  -0.003 -34.916  1.00  0.00     0.171 HD
HETATM   21  H   UNL     1      -7.797   1.892 -32.936  1.00  0.00     0.164 HD
BRANCH  18  22
HETATM   22  C   UNL     1      -4.811  -1.217 -33.506  1.00  0.00     0.115 A 
HETATM   23  C   UNL     1      -3.752  -1.250 -32.572  1.00  0.00     0.212 A 
HETATM   24  N   UNL     1      -3.190  -2.453 -32.463  1.00  0.00    -0.145 NA
HETATM   25  N   UNL     1      -3.901  -3.205 -33.324  1.00  0.00    -0.274 N 
HETATM   26  C   UNL     1      -3.566  -4.605 -33.462  1.00  0.00     0.180 C 
HETATM   27  C   UNL     1      -4.874  -2.507 -34.003  1.00  0.00     0.057 A 
HETATM   28  C   UNL     1      -5.778  -3.115 -35.011  1.00  0.00     0.072 C 
BRANCH  23  29
HETATM   29  O   UNL     1      -3.180  -0.199 -31.950  1.00  0.00    -0.337 OA
HETATM   30  C   UNL     1      -3.869   0.168 -30.763  1.00  0.00     0.212 C 
ENDBRANCH  23  29
ENDBRANCH  18  22
ENDBRANCH   1  16
TORSDOF 5
ENDMDL
MODEL 7
REMARK VINA RESULT:      -8.3      3.350      4.998
REMARK  5 active torsions:
REMARK  status: ('A' for Active; 'I' for Inactive)
REMARK    1  A    between atoms: C_7  and  C_8 
REMARK    2  A    between atoms: C_8  and  C_9 
REMARK    3  A    between atoms: C_9  and  N_10 
REMARK       I    between atoms: N_10  and  C_11 
REMARK       I    between atoms: C_11  and  N_12 
REMARK    4  A    between atoms: N_12  and  C_13 
REMARK    5  A    between atoms: C_14  and  O_15 
ROOT
HETATM    1  C   UNL     1      -7.061   0.260 -32.769  1.00  0.00     0.129 C 
ENDROOT
BRANCH   1   2
HETATM    2  C   UNL     1      -5.851   0.175 -33.705  1.00  0.00     0.061 C 
BRANCH   2   3
HETATM    3  C   UNL     1      -4.990  -1.032 -33.461  1.00  0.00    -0.022 A 
HETATM    4  C   UNL     1      -3.850  -1.087 -32.670  1.00  0.00     0.013 A 
HETATM    5  C   UNL     1      -3.164  -0.034 -31.876  1.00  0.00     0.068 C 
HETATM    6  N   UNL     1      -3.380  -2.377 -32.699  1.00  0.00    -0.356 N 
HETATM    7  H   UNL     1      -2.565  -2.719 -32.207  1.00  0.00     0.166 HD
HETATM    8  C   UNL     1      -4.184  -3.160 -33.489  1.00  0.00     0.082 A 
HETATM    9  C   UNL     1      -5.200  -2.348 -33.988  1.00  0.00     0.005 A 
HETATM   10  C   UNL     1      -4.090  -4.519 -33.796  1.00  0.00     0.146 A 
HETATM   11  C   UNL     1      -6.162  -2.933 -34.837  1.00  0.00     0.056 A 
HETATM   12  C   UNL     1      -6.063  -4.294 -35.138  1.00  0.00     0.120 A 
HETATM   13  C   UNL     1      -5.045  -5.087 -34.630  1.00  0.00     0.086 A 
HETATM   14  F   UNL     1      -6.981  -4.848 -35.944  1.00  0.00    -0.206 F 
HETATM   15  F   UNL     1      -3.100  -5.269 -33.297  1.00  0.00    -0.204 F 
ENDBRANCH   2   3
ENDBRANCH   1   2
BRANCH   1  16
HETATM   16  N   UNL     1      -6.778   0.995 -31.544  1.00  0.00    -0.343 N 
HETATM   17  C   UNL     1      -6.280   2.271 -31.509  1.00  0.00     0.320 C 
HETATM   18  N   UNL     1      -5.428   2.583 -32.533  1.00  0.00    -0.303 N 
HETATM   19  O   UNL     1      -6.594   2.996 -30.571  1.00  0.00    -0.247 OA
HETATM   20  H   UNL     1      -4.837   1.835 -32.858  1.00  0.00     0.171 HD
HETATM   21  H   UNL     1      -7.469   0.895 -30.808  1.00  0.00     0.164 HD
BRANCH  18  22
HETATM   22  C   UNL     1      -5.036   3.876 -32.833  1.00  0.00     0.115 A 
HETATM   23  C   UNL     1      -5.693   4.897 -33.556  1.00  0.00     0.212 A 
HETATM   24  N   UNL     1      -4.969   6.011 -33.659  1.00  0.00    -0.145 NA
HETATM   25  N   UNL     1      -3.842   5.711 -32.986  1.00  0.00    -0.274 N 
HETATM   26  C   UNL     1      -2.809   6.716 -32.881  1.00  0.00     0.180 C 
HETATM   27  C   UNL     1      -3.815   4.427 -32.489  1.00  0.00     0.057 A 
HETATM   28  C   UNL     1      -2.677   3.862 -31.722  1.00  0.00     0.072 C 
BRANCH  23  29
HETATM   29  O   UNL     1      -6.840   4.791 -34.257  1.00  0.00    -0.337 OA
HETATM   30  C   UNL     1      -7.974   5.196 -33.503  1.00  0.00     0.212 C 
ENDBRANCH  23  29
ENDBRANCH  18  22
ENDBRANCH   1  16
TORSDOF 5
ENDMDL
MODEL 8
REMARK VINA RESULT:      -8.3      2.259      3.035
REMARK  5 active torsions:
REMARK  status: ('A' for Active; 'I' for Inactive)
REMARK    1  A    between atoms: C_7  and  C_8 
REMARK    2  A    between atoms: C_8  and  C_9 
REMARK    3  A    between atoms: C_9  and  N_10 
REMARK       I    between atoms: N_10  and  C_11 
REMARK       I    between atoms: C_11  and  N_12 
REMARK    4  A    between atoms: N_12  and  C_13 
REMARK    5  A    between atoms: C_14  and  O_15 
ROOT
HETATM    1  C   UNL     1      -8.073  -0.016 -34.102  1.00  0.00     0.129 C 
ENDROOT
BRANCH   1   2
HETATM    2  C   UNL     1      -6.643   0.392 -34.473  1.00  0.00     0.061 C 
BRANCH   2   3
HETATM    3  C   UNL     1      -5.600  -0.571 -33.978  1.00  0.00    -0.022 A 
HETATM    4  C   UNL     1      -4.532  -0.273 -33.143  1.00  0.00     0.013 A 
HETATM    5  C   UNL     1      -4.108   1.011 -32.523  1.00  0.00     0.068 C 
HETATM    6  N   UNL     1      -3.837  -1.435 -32.918  1.00  0.00    -0.356 N 
HETATM    7  H   UNL     1      -3.013  -1.528 -32.338  1.00  0.00     0.166 HD
HETATM    8  C   UNL     1      -4.425  -2.480 -33.587  1.00  0.00     0.082 A 
HETATM    9  C   UNL     1      -5.530  -1.972 -34.267  1.00  0.00     0.005 A 
HETATM   10  C   UNL     1      -4.066  -3.828 -33.640  1.00  0.00     0.146 A 
HETATM   11  C   UNL     1      -6.305  -2.865 -35.037  1.00  0.00     0.056 A 
HETATM   12  C   UNL     1      -5.939  -4.213 -35.083  1.00  0.00     0.120 A 
HETATM   13  C   UNL     1      -4.837  -4.701 -34.397  1.00  0.00     0.086 A 
HETATM   14  F   UNL     1      -6.679  -5.060 -35.814  1.00  0.00    -0.206 F 
HETATM   15  F   UNL     1      -2.997  -4.280 -32.972  1.00  0.00    -0.204 F 
ENDBRANCH   2   3
ENDBRANCH   1   2
BRANCH   1  16
HETATM   16  N   UNL     1      -9.077   0.894 -34.636  1.00  0.00    -0.343 N 
HETATM   17  C   UNL     1      -9.523   2.015 -33.989  1.00  0.00     0.320 C 
HETATM   18  N   UNL     1      -9.562   1.913 -32.624  1.00  0.00    -0.303 N 
HETATM   19  O   UNL     1      -9.880   2.977 -34.661  1.00  0.00    -0.247 OA
HETATM   20  H   UNL     1      -9.802   1.006 -32.257  1.00  0.00     0.171 HD
HETATM   21  H   UNL     1      -8.991   1.103 -35.626  1.00  0.00     0.164 HD
BRANCH  18  22
HETATM   22  C   UNL     1      -9.717   3.000 -31.781  1.00  0.00     0.115 A 
HETATM   23  C   UNL     1     -10.852   3.787 -31.487  1.00  0.00     0.212 A 
HETATM   24  N   UNL     1     -10.592   4.780 -30.637  1.00  0.00    -0.145 NA
HETATM   25  N   UNL     1      -9.281   4.623 -30.370  1.00  0.00    -0.274 N 
HETATM   26  C   UNL     1      -8.646   5.541 -29.452  1.00  0.00     0.180 C 
HETATM   27  C   UNL     1      -8.694   3.582 -31.053  1.00  0.00     0.057 A 
HETATM   28  C   UNL     1      -7.260   3.218 -30.933  1.00  0.00     0.072 C 
BRANCH  23  29
HETATM   29  O   UNL     1     -12.058   3.736 -32.088  1.00  0.00    -0.337 OA
HETATM   30  C   UNL     1     -12.419   4.975 -32.682  1.00  0.00     0.212 C 
ENDBRANCH  23  29
ENDBRANCH  18  22
ENDBRANCH   1  16
TORSDOF 5
ENDMDL
MODEL 9
REMARK VINA RESULT:      -8.2      4.823      7.294
REMARK  5 active torsions:
REMARK  status: ('A' for Active; 'I' for Inactive)
REMARK    1  A    between atoms: C_7  and  C_8 
REMARK    2  A    between atoms: C_8  and  C_9 
REMARK    3  A    between atoms: C_9  and  N_10 
REMARK       I    between atoms: N_10  and  C_11 
REMARK       I    between atoms: C_11  and  N_12 
REMARK    4  A    between atoms: N_12  and  C_13 
REMARK    5  A    between atoms: C_14  and  O_15 
ROOT
HETATM    1  C   UNL     1      -4.717   2.535 -32.656  1.00  0.00     0.129 C 
ENDROOT
BRANCH   1   2
HETATM    2  C   UNL     1      -5.353   1.297 -32.014  1.00  0.00     0.061 C 
BRANCH   2   3
HETATM    3  C   UNL     1      -5.494   0.138 -32.962  1.00  0.00    -0.022 A 
HETATM    4  C   UNL     1      -6.324   0.077 -34.073  1.00  0.00     0.013 A 
HETATM    5  C   UNL     1      -7.278   1.070 -34.631  1.00  0.00     0.068 C 
HETATM    6  N   UNL     1      -6.132  -1.143 -34.673  1.00  0.00    -0.356 N 
HETATM    7  H   UNL     1      -6.597  -1.468 -35.511  1.00  0.00     0.166 HD
HETATM    8  C   UNL     1      -5.201  -1.876 -33.980  1.00  0.00     0.082 A 
HETATM    9  C   UNL     1      -4.784  -1.105 -32.897  1.00  0.00     0.005 A 
HETATM   10  C   UNL     1      -4.698  -3.154 -34.229  1.00  0.00     0.146 A 
HETATM   11  C   UNL     1      -3.818  -1.650 -32.025  1.00  0.00     0.056 A 
HETATM   12  C   UNL     1      -3.318  -2.930 -32.283  1.00  0.00     0.120 A 
HETATM   13  C   UNL     1      -3.744  -3.681 -33.367  1.00  0.00     0.086 A 
HETATM   14  F   UNL     1      -2.398  -3.444 -31.454  1.00  0.00    -0.206 F 
HETATM   15  F   UNL     1      -5.123  -3.866 -35.281  1.00  0.00    -0.204 F 
ENDBRANCH   2   3
ENDBRANCH   1   2
BRANCH   1  16
HETATM   16  N   UNL     1      -3.307   2.683 -32.322  1.00  0.00    -0.343 N 
HETATM   17  C   UNL     1      -2.690   3.885 -32.099  1.00  0.00     0.320 C 
HETATM   18  N   UNL     1      -3.181   4.927 -32.839  1.00  0.00    -0.303 N 
HETATM   19  O   UNL     1      -1.751   3.924 -31.312  1.00  0.00    -0.247 OA
HETATM   20  H   UNL     1      -3.490   4.700 -33.769  1.00  0.00     0.171 HD
HETATM   21  H   UNL     1      -2.943   2.003 -31.662  1.00  0.00     0.164 HD
BRANCH  18  22
HETATM   22  C   UNL     1      -2.891   6.255 -32.573  1.00  0.00     0.115 A 
HETATM   23  C   UNL     1      -1.899   7.109 -33.106  1.00  0.00     0.212 A 
HETATM   24  N   UNL     1      -1.918   8.328 -32.567  1.00  0.00    -0.145 NA
HETATM   25  N   UNL     1      -2.937   8.262 -31.689  1.00  0.00    -0.274 N 
HETATM   26  C   UNL     1      -3.260   9.439 -30.913  1.00  0.00     0.180 C 
HETATM   27  C   UNL     1      -3.544   7.028 -31.630  1.00  0.00     0.057 A 
HETATM   28  C   UNL     1      -4.682   6.708 -30.733  1.00  0.00     0.072 C 
BRANCH  23  29
HETATM   29  O   UNL     1      -0.888   6.770 -33.930  1.00  0.00    -0.337 OA
HETATM   30  C   UNL     1      -1.264   5.767 -34.863  1.00  0.00     0.212 C 
ENDBRANCH  23  29
ENDBRANCH  18  22
ENDBRANCH   1  16
TORSDOF 5
ENDMDL
MODEL 10
REMARK VINA RESULT:      -8.2      1.972      2.789
REMARK  5 active torsions:
REMARK  status: ('A' for Active; 'I' for Inactive)
REMARK    1  A    between atoms: C_7  and  C_8 
REMARK    2  A    between atoms: C_8  and  C_9 
REMARK    3  A    between atoms: C_9  and  N_10 
REMARK       I    between atoms: N_10  and  C_11 
REMARK       I    between atoms: C_11  and  N_12 
REMARK    4  A    between atoms: N_12  and  C_13 
REMARK    5  A    between atoms: C_14  and  O_15 
ROOT
HETATM    1  C   UNL     1      -7.027   0.472 -32.064  1.00  0.00     0.129 C 
ENDROOT
BRANCH   1   2
HETATM    2  C   UNL     1      -5.845   0.527 -33.037  1.00  0.00     0.061 C 
BRANCH   2   3
HETATM    3  C   UNL     1      -4.956  -0.682 -32.966  1.00  0.00    -0.022 A 
HETATM    4  C   UNL     1      -3.782  -0.803 -32.234  1.00  0.00     0.013 A 
HETATM    5  C   UNL     1      -3.079   0.169 -31.356  1.00  0.00     0.068 C 
HETATM    6  N   UNL     1      -3.295  -2.071 -32.427  1.00  0.00    -0.356 N 
HETATM    7  H   UNL     1      -2.454  -2.450 -32.011  1.00  0.00     0.166 HD
HETATM    8  C   UNL     1      -4.119  -2.778 -33.267  1.00  0.00     0.082 A 
HETATM    9  C   UNL     1      -5.168  -1.935 -33.629  1.00  0.00     0.005 A 
HETATM   10  C   UNL     1      -4.019  -4.091 -33.729  1.00  0.00     0.146 A 
HETATM   11  C   UNL     1      -6.158  -2.440 -34.498  1.00  0.00     0.056 A 
HETATM   12  C   UNL     1      -6.051  -3.757 -34.954  1.00  0.00     0.120 A 
HETATM   13  C   UNL     1      -5.000  -4.582 -34.582  1.00  0.00     0.086 A 
HETATM   14  F   UNL     1      -6.994  -4.236 -35.779  1.00  0.00    -0.206 F 
HETATM   15  F   UNL     1      -2.996  -4.872 -33.359  1.00  0.00    -0.204 F 
ENDBRANCH   2   3
ENDBRANCH   1   2
BRANCH   1  16
HETATM   16  N   UNL     1      -8.301   0.251 -32.734  1.00  0.00    -0.343 N 
HETATM   17  C   UNL     1      -9.007   1.226 -33.388  1.00  0.00     0.320 C 
HETATM   18  N   UNL     1      -8.894   2.478 -32.846  1.00  0.00    -0.303 N 
HETATM   19  O   UNL     1      -9.695   0.905 -34.352  1.00  0.00    -0.247 OA
HETATM   20  H   UNL     1      -8.817   2.518 -31.843  1.00  0.00     0.171 HD
HETATM   21  H   UNL     1      -8.369  -0.611 -33.265  1.00  0.00     0.164 HD
BRANCH  18  22
HETATM   22  C   UNL     1      -9.296   3.631 -33.498  1.00  0.00     0.115 A 
HETATM   23  C   UNL     1      -8.546   4.629 -34.159  1.00  0.00     0.212 A 
HETATM   24  N   UNL     1      -9.301   5.615 -34.641  1.00  0.00    -0.145 NA
HETATM   25  N   UNL     1     -10.550   5.243 -34.301  1.00  0.00    -0.274 N 
HETATM   26  C   UNL     1     -11.654   6.093 -34.683  1.00  0.00     0.180 C 
HETATM   27  C   UNL     1     -10.606   4.068 -33.586  1.00  0.00     0.057 A 
HETATM   28  C   UNL     1     -11.867   3.461 -33.091  1.00  0.00     0.072 C 
BRANCH  23  29
HETATM   29  O   UNL     1      -7.204   4.754 -34.189  1.00  0.00    -0.337 OA
HETATM   30  C   UNL     1      -6.698   5.423 -33.041  1.00  0.00     0.212 C 
ENDBRANCH  23  29
ENDBRANCH  18  22
ENDBRANCH   1  16
TORSDOF 5
ENDMDL
