MODEL 1
REMARK VINA RESULT:      -8.1      0.000      0.000
REMARK  5 active torsions:
REMARK  status: ('A' for Active; 'I' for Inactive)
REMARK       I    between atoms: C_2  and  N_3 
REMARK    1  A    between atoms: C_2  and  O_16 
REMARK    2  A    between atoms: N_3  and  C_4 
REMARK    3  A    between atoms: C_7  and  C_10 
REMARK    4  A    between atoms: O_16  and  C_17 
REMARK    5  A    between atoms: C_17  and  C_18 
ROOT
HETATM    1  C   UNL     1      -4.306   0.692 -32.778  1.00  0.00     0.036 A 
HETATM    2  C   UNL     1      -5.555   0.571 -33.388  1.00  0.00     0.030 A 
HETATM    3  C   UNL     1      -5.988  -0.666 -33.885  1.00  0.00     0.014 A 
HETATM    4  C   UNL     1      -5.180  -1.805 -33.783  1.00  0.00    -0.023 A 
HETATM    5  C   UNL     1      -3.934  -1.683 -33.159  1.00  0.00     0.014 A 
HETATM    6  C   UNL     1      -3.504  -0.448 -32.658  1.00  0.00     0.030 A 
ENDROOT
BRANCH   1   7
HETATM    7  N   UNL     1      -3.785   1.902 -32.291  1.00  0.00    -0.303 N 
HETATM    8  C   UNL     1      -4.161   2.603 -31.179  1.00  0.00     0.365 C 
HETATM    9  O   UNL     1      -4.995   2.290 -30.344  1.00  0.00    -0.238 OA
HETATM   10  H   UNL     1      -3.070   2.366 -32.832  1.00  0.00     0.171 HD
BRANCH   8  11
HETATM   11  O   UNL     1      -3.457   3.764 -31.163  1.00  0.00    -0.299 OA
BRANCH  11  12
HETATM   12  C   UNL     1      -2.592   3.993 -32.283  1.00  0.00     0.219 C 
BRANCH  12  13
HETATM   13  C   UNL     1      -1.541   5.005 -31.907  1.00  0.00    -0.034 A 
HETATM   14  C   UNL     1      -1.372   6.175 -32.662  1.00  0.00     0.009 A 
HETATM   15  C   UNL     1      -0.401   7.112 -32.304  1.00  0.00     0.001 A 
HETATM   16  C   UNL     1       0.413   6.885 -31.196  1.00  0.00     0.000 A 
HETATM   17  C   UNL     1       0.263   5.718 -30.449  1.00  0.00     0.001 A 
HETATM   18  C   UNL     1      -0.706   4.780 -30.805  1.00  0.00     0.009 A 
ENDBRANCH  12  13
ENDBRANCH  11  12
ENDBRANCH   8  11
ENDBRANCH   1   7
BRANCH   4  19
HETATM   19  C   UNL     1      -5.606  -3.082 -34.327  1.00  0.00     0.010 A 
HETATM   20  C   UNL     1      -4.893  -4.291 -34.513  1.00  0.00     0.152 A 
HETATM   21  N   UNL     1      -5.644  -5.260 -35.045  1.00  0.00    -0.187 NA
HETATM   22  N   UNL     1      -6.841  -4.675 -35.204  1.00  0.00    -0.289 N 
HETATM   23  H   UNL     1      -7.596  -5.225 -35.602  1.00  0.00     0.188 HD
HETATM   24  C   UNL     1      -6.872  -3.376 -34.788  1.00  0.00     0.123 A 
ENDBRANCH   4  19
TORSDOF 5
ENDMDL
MODEL 2
REMARK VINA RESULT:      -7.9      2.678      8.880
REMARK  5 active torsions:
REMARK  status: ('A' for Active; 'I' for Inactive)
REMARK       I    between atoms: C_2  and  N_3 
REMARK    1  A    between atoms: C_2  and  O_16 
REMARK    2  A    between atoms: N_3  and  C_4 
REMARK    3  A    between atoms: C_7  and  C_10 
REMARK    4  A    between atoms: O_16  and  C_17 
REMARK    5  A    between atoms: C_17  and  C_18 
ROOT
HETATM    1  C   UNL     1      -4.918   2.342 -32.960  1.00  0.00     0.036 A 
HETATM    2  C   UNL     1      -3.644   2.360 -32.394  1.00  0.00     0.030 A 
HETATM    3  C   UNL     1      -2.883   3.537 -32.390  1.00  0.00     0.014 A 
HETATM    4  C   UNL     1      -3.380   4.718 -32.952  1.00  0.00    -0.023 A 
HETATM    5  C   UNL     1      -4.664   4.700 -33.507  1.00  0.00     0.014 A 
HETATM    6  C   UNL     1      -5.427   3.526 -33.507  1.00  0.00     0.030 A 
ENDROOT
BRANCH   1   7
HETATM    7  N   UNL     1      -5.726   1.196 -33.039  1.00  0.00    -0.303 N 
HETATM    8  C   UNL     1      -6.201   0.420 -32.019  1.00  0.00     0.365 C 
HETATM    9  O   UNL     1      -6.067   0.597 -30.818  1.00  0.00    -0.238 OA
HETATM   10  H   UNL     1      -5.968   0.845 -33.954  1.00  0.00     0.171 HD
BRANCH   8  11
HETATM   11  O   UNL     1      -6.846  -0.640 -32.570  1.00  0.00    -0.299 OA
BRANCH  11  12
HETATM   12  C   UNL     1      -6.636  -0.847 -33.973  1.00  0.00     0.219 C 
BRANCH  12  13
HETATM   13  C   UNL     1      -6.076  -2.227 -34.200  1.00  0.00    -0.034 A 
HETATM   14  C   UNL     1      -6.891  -3.260 -34.684  1.00  0.00     0.009 A 
HETATM   15  C   UNL     1      -6.363  -4.534 -34.899  1.00  0.00     0.001 A 
HETATM   16  C   UNL     1      -5.021  -4.789 -34.624  1.00  0.00     0.000 A 
HETATM   17  C   UNL     1      -4.206  -3.773 -34.128  1.00  0.00     0.001 A 
HETATM   18  C   UNL     1      -4.732  -2.498 -33.913  1.00  0.00     0.009 A 
ENDBRANCH  12  13
ENDBRANCH  11  12
ENDBRANCH   8  11
ENDBRANCH   1   7
BRANCH   4  19
HETATM   19  C   UNL     1      -2.585   5.932 -32.984  1.00  0.00     0.010 A 
HETATM   20  C   UNL     1      -2.246   6.788 -34.059  1.00  0.00     0.152 A 
HETATM   21  N   UNL     1      -1.490   7.823 -33.682  1.00  0.00    -0.187 NA
HETATM   22  N   UNL     1      -1.339   7.634 -32.362  1.00  0.00    -0.289 N 
HETATM   23  H   UNL     1      -0.789   8.308 -31.840  1.00  0.00     0.188 HD
HETATM   24  C   UNL     1      -1.975   6.520 -31.895  1.00  0.00     0.123 A 
ENDBRANCH   4  19
TORSDOF 5
ENDMDL
MODEL 3
REMARK VINA RESULT:      -7.9      2.045      2.847
REMARK  5 active torsions:
REMARK  status: ('A' for Active; 'I' for Inactive)
REMARK       I    between atoms: C_2  and  N_3 
REMARK    1  A    between atoms: C_2  and  O_16 
REMARK    2  A    between atoms: N_3  and  C_4 
REMARK    3  A    between atoms: C_7  and  C_10 
REMARK    4  A    between atoms: O_16  and  C_17 
REMARK    5  A    between atoms: C_17  and  C_18 
ROOT
HETATM    1  C   UNL     1      -6.171   1.032 -33.834  1.00  0.00     0.036 A 
HETATM    2  C   UNL     1      -6.995   0.332 -34.716  1.00  0.00     0.030 A 
HETATM    3  C   UNL     1      -6.803  -1.038 -34.934  1.00  0.00     0.014 A 
HETATM    4  C   UNL     1      -5.782  -1.736 -34.277  1.00  0.00    -0.023 A 
HETATM    5  C   UNL     1      -4.966  -1.034 -33.383  1.00  0.00     0.014 A 
HETATM    6  C   UNL     1      -5.162   0.335 -33.161  1.00  0.00     0.030 A 
ENDROOT
BRANCH   1   7
HETATM    7  N   UNL     1      -6.274   2.411 -33.591  1.00  0.00    -0.303 N 
HETATM    8  C   UNL     1      -6.584   3.047 -32.421  1.00  0.00     0.365 C 
HETATM    9  O   UNL     1      -6.779   2.545 -31.325  1.00  0.00    -0.238 OA
HETATM   10  H   UNL     1      -6.157   3.043 -34.370  1.00  0.00     0.171 HD
BRANCH   8  11
HETATM   11  O   UNL     1      -6.674   4.376 -32.683  1.00  0.00    -0.299 OA
BRANCH  11  12
HETATM   12  C   UNL     1      -5.664   5.206 -32.094  1.00  0.00     0.219 C 
BRANCH  12  13
HETATM   13  C   UNL     1      -4.390   5.089 -32.889  1.00  0.00    -0.034 A 
HETATM   14  C   UNL     1      -3.199   4.678 -32.276  1.00  0.00     0.009 A 
HETATM   15  C   UNL     1      -2.023   4.565 -33.020  1.00  0.00     0.001 A 
HETATM   16  C   UNL     1      -2.026   4.869 -34.380  1.00  0.00     0.000 A 
HETATM   17  C   UNL     1      -3.202   5.295 -34.996  1.00  0.00     0.001 A 
HETATM   18  C   UNL     1      -4.378   5.408 -34.253  1.00  0.00     0.009 A 
ENDBRANCH  12  13
ENDBRANCH  11  12
ENDBRANCH   8  11
ENDBRANCH   1   7
BRANCH   4  19
HETATM   19  C   UNL     1      -5.553  -3.148 -34.524  1.00  0.00     0.010 A 
HETATM   20  C   UNL     1      -6.363  -4.119 -35.160  1.00  0.00     0.152 A 
HETATM   21  N   UNL     1      -5.794  -5.327 -35.197  1.00  0.00    -0.187 NA
HETATM   22  N   UNL     1      -4.616  -5.136 -34.584  1.00  0.00    -0.289 N 
HETATM   23  H   UNL     1      -3.990  -5.929 -34.488  1.00  0.00     0.188 HD
HETATM   24  C   UNL     1      -4.422  -3.852 -34.165  1.00  0.00     0.123 A 
ENDBRANCH   4  19
TORSDOF 5
ENDMDL
MODEL 4
REMARK VINA RESULT:      -7.7      1.784      2.235
REMARK  5 active torsions:
REMARK  status: ('A' for Active; 'I' for Inactive)
REMARK       I    between atoms: C_2  and  N_3 
REMARK    1  A    between atoms: C_2  and  O_16 
REMARK    2  A    between atoms: N_3  and  C_4 
REMARK    3  A    between atoms: C_7  and  C_10 
REMARK    4  A    between atoms: O_16  and  C_17 
REMARK    5  A    between atoms: C_17  and  C_18 
ROOT
HETATM    1  C   UNL     1      -5.442   1.023 -33.001  1.00  0.00     0.036 A 
HETATM    2  C   UNL     1      -4.349   0.159 -32.948  1.00  0.00     0.030 A 
HETATM    3  C   UNL     1      -4.457  -1.156 -33.420  1.00  0.00     0.014 A 
HETATM    4  C   UNL     1      -5.661  -1.632 -33.952  1.00  0.00    -0.023 A 
HETATM    5  C   UNL     1      -6.752  -0.759 -34.017  1.00  0.00     0.014 A 
HETATM    6  C   UNL     1      -6.641   0.557 -33.550  1.00  0.00     0.030 A 
ENDROOT
BRANCH   1   7
HETATM    7  N   UNL     1      -5.425   2.341 -32.515  1.00  0.00    -0.303 N 
HETATM    8  C   UNL     1      -5.564   3.508 -33.214  1.00  0.00     0.365 C 
HETATM    9  O   UNL     1      -5.791   3.643 -34.406  1.00  0.00    -0.238 OA
HETATM   10  H   UNL     1      -5.241   2.485 -31.532  1.00  0.00     0.171 HD
BRANCH   8  11
HETATM   11  O   UNL     1      -5.373   4.535 -32.348  1.00  0.00    -0.299 OA
BRANCH  11  12
HETATM   12  C   UNL     1      -4.118   4.552 -31.654  1.00  0.00     0.219 C 
BRANCH  12  13
HETATM   13  C   UNL     1      -3.097   5.290 -32.478  1.00  0.00    -0.034 A 
HETATM   14  C   UNL     1      -3.011   6.689 -32.427  1.00  0.00     0.009 A 
HETATM   15  C   UNL     1      -2.057   7.367 -33.189  1.00  0.00     0.001 A 
HETATM   16  C   UNL     1      -1.188   6.654 -34.013  1.00  0.00     0.000 A 
HETATM   17  C   UNL     1      -1.276   5.265 -34.083  1.00  0.00     0.001 A 
HETATM   18  C   UNL     1      -2.229   4.586 -33.323  1.00  0.00     0.009 A 
ENDBRANCH  12  13
ENDBRANCH  11  12
ENDBRANCH   8  11
ENDBRANCH   1   7
BRANCH   4  19
HETATM   19  C   UNL     1      -5.793  -3.004 -34.410  1.00  0.00     0.010 A 
HETATM   20  C   UNL     1      -4.842  -4.050 -34.486  1.00  0.00     0.152 A 
HETATM   21  N   UNL     1      -5.355  -5.186 -34.965  1.00  0.00    -0.187 NA
HETATM   22  N   UNL     1      -6.639  -4.873 -35.200  1.00  0.00    -0.289 N 
HETATM   23  H   UNL     1      -7.247  -5.593 -35.577  1.00  0.00     0.188 HD
HETATM   24  C   UNL     1      -6.952  -3.583 -34.884  1.00  0.00     0.123 A 
ENDBRANCH   4  19
TORSDOF 5
ENDMDL
MODEL 5
REMARK VINA RESULT:      -7.6      5.083      7.613
REMARK  5 active torsions:
REMARK  status: ('A' for Active; 'I' for Inactive)
REMARK       I    between atoms: C_2  and  N_3 
REMARK    1  A    between atoms: C_2  and  O_16 
REMARK    2  A    between atoms: N_3  and  C_4 
REMARK    3  A    between atoms: C_7  and  C_10 
REMARK    4  A    between atoms: O_16  and  C_17 
REMARK    5  A    between atoms: C_17  and  C_18 
ROOT
HETATM    1  C   UNL     1      -7.295   0.553 -33.851  1.00  0.00     0.036 A 
HETATM    2  C   UNL     1      -6.292   0.142 -32.974  1.00  0.00     0.030 A 
HETATM    3  C   UNL     1      -5.675  -1.106 -33.132  1.00  0.00     0.014 A 
HETATM    4  C   UNL     1      -6.050  -1.968 -34.170  1.00  0.00    -0.023 A 
HETATM    5  C   UNL     1      -7.047  -1.547 -35.056  1.00  0.00     0.014 A 
HETATM    6  C   UNL     1      -7.660  -0.297 -34.901  1.00  0.00     0.030 A 
ENDROOT
BRANCH   1   7
HETATM    7  N   UNL     1      -7.987   1.770 -33.736  1.00  0.00    -0.303 N 
HETATM    8  C   UNL     1      -8.884   2.151 -32.777  1.00  0.00     0.365 C 
HETATM    9  O   UNL     1      -9.228   1.528 -31.785  1.00  0.00    -0.238 OA
HETATM   10  H   UNL     1      -7.864   2.459 -34.464  1.00  0.00     0.171 HD
BRANCH   8  11
HETATM   11  O   UNL     1      -9.377   3.365 -33.130  1.00  0.00    -0.299 OA
BRANCH  11  12
HETATM   12  C   UNL     1     -10.125   3.413 -34.352  1.00  0.00     0.219 C 
BRANCH  12  13
HETATM   13  C   UNL     1     -11.481   2.792 -34.137  1.00  0.00    -0.034 A 
HETATM   14  C   UNL     1     -11.883   1.676 -34.884  1.00  0.00     0.009 A 
HETATM   15  C   UNL     1     -13.137   1.100 -34.675  1.00  0.00     0.001 A 
HETATM   16  C   UNL     1     -14.003   1.639 -33.725  1.00  0.00     0.000 A 
HETATM   17  C   UNL     1     -13.618   2.759 -32.988  1.00  0.00     0.001 A 
HETATM   18  C   UNL     1     -12.365   3.335 -33.196  1.00  0.00     0.009 A 
ENDBRANCH  12  13
ENDBRANCH  11  12
ENDBRANCH   8  11
ENDBRANCH   1   7
BRANCH   4  19
HETATM   19  C   UNL     1      -5.442  -3.278 -34.321  1.00  0.00     0.010 A 
HETATM   20  C   UNL     1      -5.965  -4.486 -34.842  1.00  0.00     0.152 A 
HETATM   21  N   UNL     1      -5.082  -5.488 -34.816  1.00  0.00    -0.187 NA
HETATM   22  N   UNL     1      -3.989  -4.927 -34.276  1.00  0.00    -0.289 N 
HETATM   23  H   UNL     1      -3.164  -5.505 -34.150  1.00  0.00     0.188 HD
HETATM   24  C   UNL     1      -4.151  -3.608 -33.964  1.00  0.00     0.123 A 
ENDBRANCH   4  19
TORSDOF 5
ENDMDL
MODEL 6
REMARK VINA RESULT:      -7.6      4.814      5.936
REMARK  5 active torsions:
REMARK  status: ('A' for Active; 'I' for Inactive)
REMARK       I    between atoms: C_2  and  N_3 
REMARK    1  A    between atoms: C_2  and  O_16 
REMARK    2  A    between atoms: N_3  and  C_4 
REMARK    3  A    between atoms: C_7  and  C_10 
REMARK    4  A    between atoms: O_16  and  C_17 
REMARK    5  A    between atoms: C_17  and  C_18 
ROOT
HETATM    1  C   UNL     1      -8.378   1.450 -32.937  1.00  0.00     0.036 A 
HETATM    2  C   UNL     1      -9.025   0.297 -32.494  1.00  0.00     0.030 A 
HETATM    3  C   UNL     1     -10.367   0.063 -32.823  1.00  0.00     0.014 A 
HETATM    4  C   UNL     1     -11.087   0.978 -33.600  1.00  0.00    -0.023 A 
HETATM    5  C   UNL     1     -10.431   2.127 -34.054  1.00  0.00     0.014 A 
HETATM    6  C   UNL     1      -9.088   2.358 -33.729  1.00  0.00     0.030 A 
ENDROOT
BRANCH   1   7
HETATM    7  N   UNL     1      -7.049   1.775 -32.618  1.00  0.00    -0.303 N 
HETATM    8  C   UNL     1      -5.898   1.239 -33.123  1.00  0.00     0.365 C 
HETATM    9  O   UNL     1      -5.786   0.401 -34.005  1.00  0.00    -0.238 OA
HETATM   10  H   UNL     1      -6.886   2.457 -31.891  1.00  0.00     0.171 HD
BRANCH   8  11
HETATM   11  O   UNL     1      -4.854   1.782 -32.446  1.00  0.00    -0.299 OA
BRANCH  11  12
HETATM   12  C   UNL     1      -4.946   3.185 -32.163  1.00  0.00     0.219 C 
BRANCH  12  13
HETATM   13  C   UNL     1      -4.042   3.946 -33.098  1.00  0.00    -0.034 A 
HETATM   14  C   UNL     1      -2.661   4.008 -32.865  1.00  0.00     0.009 A 
HETATM   15  C   UNL     1      -1.828   4.709 -33.739  1.00  0.00     0.001 A 
HETATM   16  C   UNL     1      -2.368   5.360 -34.846  1.00  0.00     0.000 A 
HETATM   17  C   UNL     1      -3.743   5.318 -35.077  1.00  0.00     0.001 A 
HETATM   18  C   UNL     1      -4.576   4.617 -34.205  1.00  0.00     0.009 A 
ENDBRANCH  12  13
ENDBRANCH  11  12
ENDBRANCH   8  11
ENDBRANCH   1   7
BRANCH   4  19
HETATM   19  C   UNL     1     -12.488   0.761 -33.916  1.00  0.00     0.010 A 
HETATM   20  C   UNL     1     -13.401   1.548 -34.659  1.00  0.00     0.152 A 
HETATM   21  N   UNL     1     -14.618   1.002 -34.733  1.00  0.00    -0.187 NA
HETATM   22  N   UNL     1     -14.490  -0.138 -34.036  1.00  0.00    -0.289 N 
HETATM   23  H   UNL     1     -15.302  -0.741 -33.948  1.00  0.00     0.188 HD
HETATM   24  C   UNL     1     -13.237  -0.330 -33.530  1.00  0.00     0.123 A 
ENDBRANCH   4  19
TORSDOF 5
ENDMDL
MODEL 7
REMARK VINA RESULT:      -7.6     15.320     16.837
REMARK  5 active torsions:
REMARK  status: ('A' for Active; 'I' for Inactive)
REMARK       I    between atoms: C_2  and  N_3 
REMARK    1  A    between atoms: C_2  and  O_16 
REMARK    2  A    between atoms: N_3  and  C_4 
REMARK    3  A    between atoms: C_7  and  C_10 
REMARK    4  A    between atoms: O_16  and  C_17 
REMARK    5  A    between atoms: C_17  and  C_18 
ROOT
HETATM    1  C   UNL     1      -5.277 -12.827 -39.248  1.00  0.00     0.036 A 
HETATM    2  C   UNL     1      -5.821 -12.086 -40.296  1.00  0.00     0.030 A 
HETATM    3  C   UNL     1      -7.186 -12.176 -40.599  1.00  0.00     0.014 A 
HETATM    4  C   UNL     1      -8.033 -13.011 -39.861  1.00  0.00    -0.023 A 
HETATM    5  C   UNL     1      -7.487 -13.744 -38.802  1.00  0.00     0.014 A 
HETATM    6  C   UNL     1      -6.124 -13.649 -38.496  1.00  0.00     0.030 A 
ENDROOT
BRANCH   1   7
HETATM    7  N   UNL     1      -3.914 -12.821 -38.907  1.00  0.00    -0.303 N 
HETATM    8  C   UNL     1      -3.342 -12.528 -37.701  1.00  0.00     0.365 C 
HETATM    9  O   UNL     1      -3.904 -12.265 -36.649  1.00  0.00    -0.238 OA
HETATM   10  H   UNL     1      -3.239 -13.007 -39.635  1.00  0.00     0.171 HD
BRANCH   8  11
HETATM   11  O   UNL     1      -1.994 -12.545 -37.867  1.00  0.00    -0.299 OA
BRANCH  11  12
HETATM   12  C   UNL     1      -1.496 -13.401 -38.902  1.00  0.00     0.219 C 
BRANCH  12  13
HETATM   13  C   UNL     1      -0.394 -14.268 -38.351  1.00  0.00    -0.034 A 
HETATM   14  C   UNL     1       0.855 -14.327 -38.985  1.00  0.00     0.009 A 
HETATM   15  C   UNL     1       1.874 -15.127 -38.465  1.00  0.00     0.001 A 
HETATM   16  C   UNL     1       1.651 -15.881 -37.315  1.00  0.00     0.000 A 
HETATM   17  C   UNL     1       0.406 -15.843 -36.687  1.00  0.00     0.001 A 
HETATM   18  C   UNL     1      -0.613 -15.043 -37.205  1.00  0.00     0.009 A 
ENDBRANCH  12  13
ENDBRANCH  11  12
ENDBRANCH   8  11
ENDBRANCH   1   7
BRANCH   4  19
HETATM   19  C   UNL     1      -9.442 -13.139 -40.191  1.00  0.00     0.010 A 
HETATM   20  C   UNL     1     -10.237 -14.287 -40.422  1.00  0.00     0.152 A 
HETATM   21  N   UNL     1     -11.510 -13.990 -40.697  1.00  0.00    -0.187 NA
HETATM   22  N   UNL     1     -11.536 -12.649 -40.644  1.00  0.00    -0.289 N 
HETATM   23  H   UNL     1     -12.418 -12.178 -40.823  1.00  0.00     0.188 HD
HETATM   24  C   UNL     1     -10.327 -12.092 -40.343  1.00  0.00     0.123 A 
ENDBRANCH   4  19
TORSDOF 5
ENDMDL
MODEL 8
REMARK VINA RESULT:      -7.5      1.383      2.320
REMARK  5 active torsions:
REMARK  status: ('A' for Active; 'I' for Inactive)
REMARK       I    between atoms: C_2  and  N_3 
REMARK    1  A    between atoms: C_2  and  O_16 
REMARK    2  A    between atoms: N_3  and  C_4 
REMARK    3  A    between atoms: C_7  and  C_10 
REMARK    4  A    between atoms: O_16  and  C_17 
REMARK    5  A    between atoms: C_17  and  C_18 
ROOT
HETATM    1  C   UNL     1      -3.959   1.698 -32.354  1.00  0.00     0.036 A 
HETATM    2  C   UNL     1      -5.265   1.640 -32.841  1.00  0.00     0.030 A 
HETATM    3  C   UNL     1      -5.771   0.451 -33.381  1.00  0.00     0.014 A 
HETATM    4  C   UNL     1      -4.981  -0.703 -33.447  1.00  0.00    -0.023 A 
HETATM    5  C   UNL     1      -3.677  -0.646 -32.945  1.00  0.00     0.014 A 
HETATM    6  C   UNL     1      -3.173   0.541 -32.400  1.00  0.00     0.030 A 
ENDROOT
BRANCH   1   7
HETATM    7  N   UNL     1      -3.366   2.860 -31.833  1.00  0.00    -0.303 N 
HETATM    8  C   UNL     1      -2.741   3.871 -32.508  1.00  0.00     0.365 C 
HETATM    9  O   UNL     1      -2.618   4.000 -33.716  1.00  0.00    -0.238 OA
HETATM   10  H   UNL     1      -3.340   2.974 -30.830  1.00  0.00     0.171 HD
BRANCH   8  11
HETATM   11  O   UNL     1      -2.229   4.729 -31.589  1.00  0.00    -0.299 OA
BRANCH  11  12
HETATM   12  C   UNL     1      -0.904   5.213 -31.844  1.00  0.00     0.219 C 
BRANCH  12  13
HETATM   13  C   UNL     1      -0.347   5.839 -30.593  1.00  0.00    -0.034 A 
HETATM   14  C   UNL     1       0.346   5.064 -29.652  1.00  0.00     0.009 A 
HETATM   15  C   UNL     1       0.866   5.652 -28.498  1.00  0.00     0.001 A 
HETATM   16  C   UNL     1       0.690   7.015 -28.269  1.00  0.00     0.000 A 
HETATM   17  C   UNL     1      -0.011   7.791 -29.191  1.00  0.00     0.001 A 
HETATM   18  C   UNL     1      -0.531   7.205 -30.345  1.00  0.00     0.009 A 
ENDBRANCH  12  13
ENDBRANCH  11  12
ENDBRANCH   8  11
ENDBRANCH   1   7
BRANCH   4  19
HETATM   19  C   UNL     1      -5.485  -1.930 -34.038  1.00  0.00     0.010 A 
HETATM   20  C   UNL     1      -6.810  -2.355 -34.298  1.00  0.00     0.152 A 
HETATM   21  N   UNL     1      -6.867  -3.564 -34.865  1.00  0.00    -0.187 NA
HETATM   22  N   UNL     1      -5.577  -3.919 -34.969  1.00  0.00    -0.289 N 
HETATM   23  H   UNL     1      -5.360  -4.822 -35.380  1.00  0.00     0.188 HD
HETATM   24  C   UNL     1      -4.712  -2.978 -34.492  1.00  0.00     0.123 A 
ENDBRANCH   4  19
TORSDOF 5
ENDMDL
MODEL 9
REMARK VINA RESULT:      -7.5      1.015      1.608
REMARK  5 active torsions:
REMARK  status: ('A' for Active; 'I' for Inactive)
REMARK       I    between atoms: C_2  and  N_3 
REMARK    1  A    between atoms: C_2  and  O_16 
REMARK    2  A    between atoms: N_3  and  C_4 
REMARK    3  A    between atoms: C_7  and  C_10 
REMARK    4  A    between atoms: O_16  and  C_17 
REMARK    5  A    between atoms: C_17  and  C_18 
ROOT
HETATM    1  C   UNL     1      -3.912   0.305 -32.423  1.00  0.00     0.036 A 
HETATM    2  C   UNL     1      -3.243  -0.915 -32.327  1.00  0.00     0.030 A 
HETATM    3  C   UNL     1      -3.755  -2.059 -32.953  1.00  0.00     0.014 A 
HETATM    4  C   UNL     1      -4.947  -2.006 -33.685  1.00  0.00    -0.023 A 
HETATM    5  C   UNL     1      -5.609  -0.778 -33.791  1.00  0.00     0.014 A 
HETATM    6  C   UNL     1      -5.094   0.367 -33.170  1.00  0.00     0.030 A 
ENDROOT
BRANCH   1   7
HETATM    7  N   UNL     1      -3.485   1.486 -31.794  1.00  0.00    -0.303 N 
HETATM    8  C   UNL     1      -3.781   2.780 -32.122  1.00  0.00     0.365 C 
HETATM    9  O   UNL     1      -4.530   3.175 -33.002  1.00  0.00    -0.238 OA
HETATM   10  H   UNL     1      -2.836   1.409 -31.023  1.00  0.00     0.171 HD
BRANCH   8  11
HETATM   11  O   UNL     1      -3.061   3.590 -31.306  1.00  0.00    -0.299 OA
BRANCH  11  12
HETATM   12  C   UNL     1      -3.153   4.996 -31.570  1.00  0.00     0.219 C 
BRANCH  12  13
HETATM   13  C   UNL     1      -1.894   5.679 -31.103  1.00  0.00    -0.034 A 
HETATM   14  C   UNL     1      -0.635   5.134 -31.390  1.00  0.00     0.009 A 
HETATM   15  C   UNL     1       0.528   5.775 -30.960  1.00  0.00     0.001 A 
HETATM   16  C   UNL     1       0.443   6.961 -30.234  1.00  0.00     0.000 A 
HETATM   17  C   UNL     1      -0.805   7.504 -29.929  1.00  0.00     0.001 A 
HETATM   18  C   UNL     1      -1.968   6.863 -30.358  1.00  0.00     0.009 A 
ENDBRANCH  12  13
ENDBRANCH  11  12
ENDBRANCH   8  11
ENDBRANCH   1   7
BRANCH   4  19
HETATM   19  C   UNL     1      -5.504  -3.194 -34.307  1.00  0.00     0.010 A 
HETATM   20  C   UNL     1      -4.918  -4.451 -34.592  1.00  0.00     0.152 A 
HETATM   21  N   UNL     1      -5.767  -5.301 -35.174  1.00  0.00    -0.187 NA
HETATM   22  N   UNL     1      -6.903  -4.593 -35.266  1.00  0.00    -0.289 N 
HETATM   23  H   UNL     1      -7.714  -5.037 -35.686  1.00  0.00     0.188 HD
HETATM   24  C   UNL     1      -6.800  -3.329 -34.761  1.00  0.00     0.123 A 
ENDBRANCH   4  19
TORSDOF 5
ENDMDL
MODEL 10
REMARK VINA RESULT:      -7.4      6.628      9.616
REMARK  5 active torsions:
REMARK  status: ('A' for Active; 'I' for Inactive)
REMARK       I    between atoms: C_2  and  N_3 
REMARK    1  A    between atoms: C_2  and  O_16 
REMARK    2  A    between atoms: N_3  and  C_4 
REMARK    3  A    between atoms: C_7  and  C_10 
REMARK    4  A    between atoms: O_16  and  C_17 
REMARK    5  A    between atoms: C_17  and  C_18 
ROOT
HETATM    1  C   UNL     1     -10.674   1.394 -33.968  1.00  0.00     0.036 A 
HETATM    2  C   UNL     1     -10.818   2.672 -33.429  1.00  0.00     0.030 A 
HETATM    3  C   UNL     1     -12.071   3.123 -32.993  1.00  0.00     0.014 A 
HETATM    4  C   UNL     1     -13.203   2.306 -33.088  1.00  0.00    -0.023 A 
HETATM    5  C   UNL     1     -13.053   1.019 -33.617  1.00  0.00     0.014 A 
HETATM    6  C   UNL     1     -11.799   0.566 -34.048  1.00  0.00     0.030 A 
ENDROOT
BRANCH   1   7
HETATM    7  N   UNL     1      -9.462   0.882 -34.462  1.00  0.00    -0.303 N 
HETATM    8  C   UNL     1      -8.390   0.406 -33.759  1.00  0.00     0.365 C 
HETATM    9  O   UNL     1      -8.289   0.273 -32.550  1.00  0.00    -0.238 OA
HETATM   10  H   UNL     1      -9.310   0.897 -35.460  1.00  0.00     0.171 HD
BRANCH   8  11
HETATM   11  O   UNL     1      -7.405   0.121 -34.648  1.00  0.00    -0.299 OA
BRANCH  11  12
HETATM   12  C   UNL     1      -6.138  -0.250 -34.089  1.00  0.00     0.219 C 
BRANCH  12  13
HETATM   13  C   UNL     1      -5.908  -1.724 -34.299  1.00  0.00    -0.034 A 
HETATM   14  C   UNL     1      -6.969  -2.571 -34.651  1.00  0.00     0.009 A 
HETATM   15  C   UNL     1      -6.748  -3.935 -34.851  1.00  0.00     0.001 A 
HETATM   16  C   UNL     1      -5.468  -4.465 -34.692  1.00  0.00     0.000 A 
HETATM   17  C   UNL     1      -4.410  -3.634 -34.327  1.00  0.00     0.001 A 
HETATM   18  C   UNL     1      -4.630  -2.271 -34.127  1.00  0.00     0.009 A 
ENDBRANCH  12  13
ENDBRANCH  11  12
ENDBRANCH   8  11
ENDBRANCH   1   7
BRANCH   4  19
HETATM   19  C   UNL     1     -14.512   2.778 -32.672  1.00  0.00     0.010 A 
HETATM   20  C   UNL     1     -15.725   2.078 -32.464  1.00  0.00     0.152 A 
HETATM   21  N   UNL     1     -16.724   2.874 -32.072  1.00  0.00    -0.187 NA
HETATM   22  N   UNL     1     -16.155   4.089 -32.029  1.00  0.00    -0.289 N 
HETATM   23  H   UNL     1     -16.730   4.879 -31.752  1.00  0.00     0.188 HD
HETATM   24  C   UNL     1     -14.835   4.086 -32.376  1.00  0.00     0.123 A 
ENDBRANCH   4  19
TORSDOF 5
ENDMDL
