MODEL 1
REMARK VINA RESULT:      -8.8      0.000      0.000
REMARK  7 active torsions:
REMARK  status: ('A' for Active; 'I' for Inactive)
REMARK    1  A    between atoms: O_2  and  C_3 
REMARK    2  A    between atoms: C_4  and  C_5 
REMARK    3  A    between atoms: C_5  and  C_6 
REMARK       I    between atoms: C_6  and  N_7 
REMARK    4  A    between atoms: N_7  and  N_8 
REMARK       I    between atoms: N_8  and  C_9 
REMARK    5  A    between atoms: C_9  and  C_10 
REMARK    6  A    between atoms: C_15  and  O_16 
REMARK    7  A    between atoms: O_16  and  C_17 
ROOT
HETATM    1  N   UNL     1      -3.418   2.106 -31.710  1.00  0.00    -0.262 N 
HETATM    2  C   UNL     1      -4.576   1.488 -32.131  1.00  0.00     0.286 C 
HETATM    3  O   UNL     1      -5.649   2.088 -32.185  1.00  0.00    -0.264 OA
HETATM    4  H   UNL     1      -2.517   1.639 -31.653  1.00  0.00     0.190 HD
ENDROOT
BRANCH   2   5
HETATM    5  C   UNL     1      -4.445   0.096 -32.495  1.00  0.00     0.103 A 
HETATM    6  N   UNL     1      -3.685  -0.773 -31.742  1.00  0.00    -0.351 N 
HETATM    7  H   UNL     1      -3.189  -0.499 -30.904  1.00  0.00     0.166 HD
HETATM    8  C   UNL     1      -3.670  -2.030 -32.298  1.00  0.00     0.045 A 
HETATM    9  C   UNL     1      -4.451  -1.978 -33.451  1.00  0.00     0.026 A 
HETATM   10  C   UNL     1      -3.018  -3.194 -31.877  1.00  0.00     0.030 A 
HETATM   11  C   UNL     1      -4.597  -3.142 -34.237  1.00  0.00     0.087 A 
HETATM   12  C   UNL     1      -4.943  -0.643 -33.554  1.00  0.00     0.052 A 
HETATM   13  C   UNL     1      -3.921  -4.308 -33.842  1.00  0.00     0.038 A 
HETATM   14  C   UNL     1      -3.154  -4.331 -32.676  1.00  0.00     0.005 A 
BRANCH  11  15
HETATM   15  O   UNL     1      -5.341  -3.054 -35.385  1.00  0.00    -0.289 OA
BRANCH  15  16
HETATM   16  C   UNL     1      -6.639  -3.615 -35.279  1.00  0.00     0.505 C 
HETATM   17  F   UNL     1      -6.508  -4.961 -35.386  1.00  0.00    -0.184 F 
HETATM   18  F   UNL     1      -7.120  -3.373 -34.033  1.00  0.00    -0.184 F 
ENDBRANCH  15  16
ENDBRANCH  11  15
ENDBRANCH   2   5
BRANCH   1  19
HETATM   19  N   UNL     1      -3.479   3.412 -31.219  1.00  0.00    -0.267 N 
HETATM   20  C   UNL     1      -3.119   4.446 -32.060  1.00  0.00     0.240 C 
HETATM   21  O   UNL     1      -2.817   4.258 -33.238  1.00  0.00    -0.272 OA
HETATM   22  H   UNL     1      -3.785   3.538 -30.255  1.00  0.00     0.190 HD
BRANCH  20  23
HETATM   23  C   UNL     1      -3.122   5.810 -31.408  1.00  0.00     0.146 C 
BRANCH  23  24
HETATM   24  C   UNL     1      -1.806   6.290 -30.831  1.00  0.00    -0.016 A 
HETATM   25  C   UNL     1      -1.802   6.870 -29.544  1.00  0.00     0.074 A 
HETATM   26  C   UNL     1      -0.606   7.340 -28.991  1.00  0.00     0.037 A 
HETATM   27  C   UNL     1       0.588   7.235 -29.704  1.00  0.00     0.003 A 
HETATM   28  C   UNL     1       0.595   6.661 -30.971  1.00  0.00     0.001 A 
HETATM   29  C   UNL     1      -0.593   6.192 -31.532  1.00  0.00     0.010 A 
BRANCH  25  30
HETATM   30  O   UNL     1      -3.023   6.943 -28.922  1.00  0.00    -0.355 OA
HETATM   31  C   UNL     1      -3.210   7.983 -27.972  1.00  0.00     0.210 C 
ENDBRANCH  25  30
ENDBRANCH  23  24
ENDBRANCH  20  23
ENDBRANCH   1  19
TORSDOF 7
ENDMDL
MODEL 2
REMARK VINA RESULT:      -8.7      5.903      8.238
REMARK  7 active torsions:
REMARK  status: ('A' for Active; 'I' for Inactive)
REMARK    1  A    between atoms: O_2  and  C_3 
REMARK    2  A    between atoms: C_4  and  C_5 
REMARK    3  A    between atoms: C_5  and  C_6 
REMARK       I    between atoms: C_6  and  N_7 
REMARK    4  A    between atoms: N_7  and  N_8 
REMARK       I    between atoms: N_8  and  C_9 
REMARK    5  A    between atoms: C_9  and  C_10 
REMARK    6  A    between atoms: C_15  and  O_16 
REMARK    7  A    between atoms: O_16  and  C_17 
ROOT
HETATM    1  N   UNL     1      -9.288   1.200 -34.733  1.00  0.00    -0.262 N 
HETATM    2  C   UNL     1      -9.198   0.330 -33.668  1.00  0.00     0.286 C 
HETATM    3  O   UNL     1     -10.142   0.145 -32.900  1.00  0.00    -0.264 OA
HETATM    4  H   UNL     1      -8.527   1.377 -35.385  1.00  0.00     0.190 HD
ENDROOT
BRANCH   2   5
HETATM    5  C   UNL     1      -7.927  -0.338 -33.512  1.00  0.00     0.103 A 
HETATM    6  N   UNL     1      -7.050   0.016 -32.510  1.00  0.00    -0.351 N 
HETATM    7  H   UNL     1      -7.239   0.743 -31.832  1.00  0.00     0.166 HD
HETATM    8  C   UNL     1      -5.891  -0.722 -32.579  1.00  0.00     0.045 A 
HETATM    9  C   UNL     1      -6.022  -1.588 -33.663  1.00  0.00     0.026 A 
HETATM   10  C   UNL     1      -4.745  -0.676 -31.780  1.00  0.00     0.030 A 
HETATM   11  C   UNL     1      -4.957  -2.461 -33.978  1.00  0.00     0.087 A 
HETATM   12  C   UNL     1      -7.309  -1.348 -34.230  1.00  0.00     0.052 A 
HETATM   13  C   UNL     1      -3.788  -2.402 -33.203  1.00  0.00     0.038 A 
HETATM   14  C   UNL     1      -3.692  -1.530 -32.117  1.00  0.00     0.005 A 
BRANCH  11  15
HETATM   15  O   UNL     1      -5.097  -3.277 -35.070  1.00  0.00    -0.289 OA
BRANCH  15  16
HETATM   16  C   UNL     1      -5.732  -4.514 -34.792  1.00  0.00     0.505 C 
HETATM   17  F   UNL     1      -6.569  -4.781 -35.826  1.00  0.00    -0.184 F 
HETATM   18  F   UNL     1      -4.796  -5.497 -34.792  1.00  0.00    -0.184 F 
ENDBRANCH  15  16
ENDBRANCH  11  15
ENDBRANCH   2   5
BRANCH   1  19
HETATM   19  N   UNL     1     -10.435   1.983 -34.883  1.00  0.00    -0.267 N 
HETATM   20  C   UNL     1     -10.354   3.328 -34.582  1.00  0.00     0.240 C 
HETATM   21  O   UNL     1      -9.296   3.865 -34.257  1.00  0.00    -0.272 OA
HETATM   22  H   UNL     1     -11.282   1.518 -35.207  1.00  0.00     0.190 HD
BRANCH  20  23
HETATM   23  C   UNL     1     -11.669   4.069 -34.680  1.00  0.00     0.146 C 
BRANCH  23  24
HETATM   24  C   UNL     1     -12.594   3.971 -33.484  1.00  0.00    -0.016 A 
HETATM   25  C   UNL     1     -13.561   2.942 -33.459  1.00  0.00     0.074 A 
HETATM   26  C   UNL     1     -14.443   2.836 -32.378  1.00  0.00     0.037 A 
HETATM   27  C   UNL     1     -14.369   3.741 -31.319  1.00  0.00     0.003 A 
HETATM   28  C   UNL     1     -13.418   4.755 -31.333  1.00  0.00     0.001 A 
HETATM   29  C   UNL     1     -12.536   4.871 -32.408  1.00  0.00     0.010 A 
BRANCH  25  30
HETATM   30  O   UNL     1     -13.568   2.107 -34.548  1.00  0.00    -0.355 OA
HETATM   31  C   UNL     1     -13.762   0.719 -34.305  1.00  0.00     0.210 C 
ENDBRANCH  25  30
ENDBRANCH  23  24
ENDBRANCH  20  23
ENDBRANCH   1  19
TORSDOF 7
ENDMDL
MODEL 3
REMARK VINA RESULT:      -8.6      1.864      2.508
REMARK  7 active torsions:
REMARK  status: ('A' for Active; 'I' for Inactive)
REMARK    1  A    between atoms: O_2  and  C_3 
REMARK    2  A    between atoms: C_4  and  C_5 
REMARK    3  A    between atoms: C_5  and  C_6 
REMARK       I    between atoms: C_6  and  N_7 
REMARK    4  A    between atoms: N_7  and  N_8 
REMARK       I    between atoms: N_8  and  C_9 
REMARK    5  A    between atoms: C_9  and  C_10 
REMARK    6  A    between atoms: C_15  and  O_16 
REMARK    7  A    between atoms: O_16  and  C_17 
ROOT
HETATM    1  N   UNL     1      -3.706   3.492 -32.672  1.00  0.00    -0.262 N 
HETATM    2  C   UNL     1      -3.442   2.292 -32.047  1.00  0.00     0.286 C 
HETATM    3  O   UNL     1      -2.741   2.225 -31.038  1.00  0.00    -0.264 OA
HETATM    4  H   UNL     1      -4.280   3.581 -33.506  1.00  0.00     0.190 HD
ENDROOT
BRANCH   2   5
HETATM    5  C   UNL     1      -4.036   1.125 -32.659  1.00  0.00     0.103 A 
HETATM    6  N   UNL     1      -5.266   1.189 -33.278  1.00  0.00    -0.351 N 
HETATM    7  H   UNL     1      -5.814   2.037 -33.348  1.00  0.00     0.166 HD
HETATM    8  C   UNL     1      -5.650  -0.045 -33.749  1.00  0.00     0.045 A 
HETATM    9  C   UNL     1      -4.632  -0.940 -33.428  1.00  0.00     0.026 A 
HETATM   10  C   UNL     1      -6.816  -0.431 -34.416  1.00  0.00     0.030 A 
HETATM   11  C   UNL     1      -4.773  -2.300 -33.785  1.00  0.00     0.087 A 
HETATM   12  C   UNL     1      -3.619  -0.191 -32.759  1.00  0.00     0.052 A 
HETATM   13  C   UNL     1      -5.954  -2.706 -34.426  1.00  0.00     0.038 A 
HETATM   14  C   UNL     1      -6.952  -1.783 -34.744  1.00  0.00     0.005 A 
BRANCH  11  15
HETATM   15  O   UNL     1      -3.773  -3.166 -33.426  1.00  0.00    -0.289 OA
BRANCH  15  16
HETATM   16  C   UNL     1      -3.964  -4.494 -33.886  1.00  0.00     0.505 C 
HETATM   17  F   UNL     1      -2.875  -4.828 -34.622  1.00  0.00    -0.184 F 
HETATM   18  F   UNL     1      -3.977  -5.330 -32.818  1.00  0.00    -0.184 F 
ENDBRANCH  15  16
ENDBRANCH  11  15
ENDBRANCH   2   5
BRANCH   1  19
HETATM   19  N   UNL     1      -3.069   4.652 -32.222  1.00  0.00    -0.267 N 
HETATM   20  C   UNL     1      -2.056   5.183 -32.994  1.00  0.00     0.240 C 
HETATM   21  O   UNL     1      -1.748   4.711 -34.089  1.00  0.00    -0.272 OA
HETATM   22  H   UNL     1      -3.385   5.049 -31.339  1.00  0.00     0.190 HD
BRANCH  20  23
HETATM   23  C   UNL     1      -1.363   6.377 -32.378  1.00  0.00     0.146 C 
BRANCH  23  24
HETATM   24  C   UNL     1      -0.677   6.151 -31.046  1.00  0.00    -0.016 A 
HETATM   25  C   UNL     1      -1.006   6.995 -29.963  1.00  0.00     0.074 A 
HETATM   26  C   UNL     1      -0.376   6.825 -28.726  1.00  0.00     0.037 A 
HETATM   27  C   UNL     1       0.575   5.819 -28.553  1.00  0.00     0.003 A 
HETATM   28  C   UNL     1       0.903   4.981 -29.612  1.00  0.00     0.001 A 
HETATM   29  C   UNL     1       0.282   5.144 -30.851  1.00  0.00     0.010 A 
BRANCH  25  30
HETATM   30  O   UNL     1      -1.943   7.963 -30.228  1.00  0.00    -0.355 OA
HETATM   31  C   UNL     1      -3.184   7.875 -29.541  1.00  0.00     0.210 C 
ENDBRANCH  25  30
ENDBRANCH  23  24
ENDBRANCH  20  23
ENDBRANCH   1  19
TORSDOF 7
ENDMDL
MODEL 4
REMARK VINA RESULT:      -8.5      2.248      2.959
REMARK  7 active torsions:
REMARK  status: ('A' for Active; 'I' for Inactive)
REMARK    1  A    between atoms: O_2  and  C_3 
REMARK    2  A    between atoms: C_4  and  C_5 
REMARK    3  A    between atoms: C_5  and  C_6 
REMARK       I    between atoms: C_6  and  N_7 
REMARK    4  A    between atoms: N_7  and  N_8 
REMARK       I    between atoms: N_8  and  C_9 
REMARK    5  A    between atoms: C_9  and  C_10 
REMARK    6  A    between atoms: C_15  and  O_16 
REMARK    7  A    between atoms: O_16  and  C_17 
ROOT
HETATM    1  N   UNL     1      -3.287   3.012 -32.719  1.00  0.00    -0.262 N 
HETATM    2  C   UNL     1      -3.337   1.844 -31.990  1.00  0.00     0.286 C 
HETATM    3  O   UNL     1      -2.696   1.700 -30.949  1.00  0.00    -0.264 OA
HETATM    4  H   UNL     1      -3.802   3.163 -33.582  1.00  0.00     0.190 HD
ENDROOT
BRANCH   2   5
HETATM    5  C   UNL     1      -4.182   0.805 -32.532  1.00  0.00     0.103 A 
HETATM    6  N   UNL     1      -3.647  -0.342 -33.079  1.00  0.00    -0.351 N 
HETATM    7  H   UNL     1      -2.653  -0.527 -33.127  1.00  0.00     0.166 HD
HETATM    8  C   UNL     1      -4.631  -1.167 -33.568  1.00  0.00     0.045 A 
HETATM    9  C   UNL     1      -5.851  -0.535 -33.328  1.00  0.00     0.026 A 
HETATM   10  C   UNL     1      -4.533  -2.404 -34.211  1.00  0.00     0.030 A 
HETATM   11  C   UNL     1      -7.045  -1.162 -33.749  1.00  0.00     0.087 A 
HETATM   12  C   UNL     1      -5.556   0.692 -32.664  1.00  0.00     0.052 A 
HETATM   13  C   UNL     1      -6.957  -2.390 -34.424  1.00  0.00     0.038 A 
HETATM   14  C   UNL     1      -5.721  -3.002 -34.641  1.00  0.00     0.005 A 
BRANCH  11  15
HETATM   15  O   UNL     1      -8.227  -0.504 -33.532  1.00  0.00    -0.289 OA
BRANCH  15  16
HETATM   16  C   UNL     1      -8.511   0.506 -34.486  1.00  0.00     0.505 C 
HETATM   17  F   UNL     1      -8.217   0.000 -35.711  1.00  0.00    -0.184 F 
HETATM   18  F   UNL     1      -9.846   0.751 -34.482  1.00  0.00    -0.184 F 
ENDBRANCH  15  16
ENDBRANCH  11  15
ENDBRANCH   2   5
BRANCH   1  19
HETATM   19  N   UNL     1      -2.398   4.020 -32.336  1.00  0.00    -0.267 N 
HETATM   20  C   UNL     1      -1.877   4.840 -33.316  1.00  0.00     0.240 C 
HETATM   21  O   UNL     1      -2.224   4.757 -34.495  1.00  0.00    -0.272 OA
HETATM   22  H   UNL     1      -2.174   4.097 -31.346  1.00  0.00     0.190 HD
BRANCH  20  23
HETATM   23  C   UNL     1      -0.851   5.833 -32.818  1.00  0.00     0.146 C 
BRANCH  23  24
HETATM   24  C   UNL     1      -1.330   6.855 -31.807  1.00  0.00    -0.016 A 
HETATM   25  C   UNL     1      -1.218   6.551 -30.432  1.00  0.00     0.074 A 
HETATM   26  C   UNL     1      -1.669   7.464 -29.474  1.00  0.00     0.037 A 
HETATM   27  C   UNL     1      -2.226   8.681 -29.868  1.00  0.00     0.003 A 
HETATM   28  C   UNL     1      -2.337   8.991 -31.220  1.00  0.00     0.001 A 
HETATM   29  C   UNL     1      -1.893   8.085 -32.183  1.00  0.00     0.010 A 
BRANCH  25  30
HETATM   30  O   UNL     1      -0.670   5.328 -30.138  1.00  0.00    -0.355 OA
HETATM   31  C   UNL     1       0.592   5.319 -29.483  1.00  0.00     0.210 C 
ENDBRANCH  25  30
ENDBRANCH  23  24
ENDBRANCH  20  23
ENDBRANCH   1  19
TORSDOF 7
ENDMDL
MODEL 5
REMARK VINA RESULT:      -8.1      2.100      2.642
REMARK  7 active torsions:
REMARK  status: ('A' for Active; 'I' for Inactive)
REMARK    1  A    between atoms: O_2  and  C_3 
REMARK    2  A    between atoms: C_4  and  C_5 
REMARK    3  A    between atoms: C_5  and  C_6 
REMARK       I    between atoms: C_6  and  N_7 
REMARK    4  A    between atoms: N_7  and  N_8 
REMARK       I    between atoms: N_8  and  C_9 
REMARK    5  A    between atoms: C_9  and  C_10 
REMARK    6  A    between atoms: C_15  and  O_16 
REMARK    7  A    between atoms: O_16  and  C_17 
ROOT
HETATM    1  N   UNL     1      -4.456   4.041 -32.095  1.00  0.00    -0.262 N 
HETATM    2  C   UNL     1      -3.731   2.886 -31.895  1.00  0.00     0.286 C 
HETATM    3  O   UNL     1      -2.638   2.895 -31.330  1.00  0.00    -0.264 OA
HETATM    4  H   UNL     1      -5.360   4.069 -32.559  1.00  0.00     0.190 HD
ENDROOT
BRANCH   2   5
HETATM    5  C   UNL     1      -4.336   1.675 -32.399  1.00  0.00     0.103 A 
HETATM    6  N   UNL     1      -3.578   0.556 -32.674  1.00  0.00    -0.351 N 
HETATM    7  H   UNL     1      -2.576   0.512 -32.536  1.00  0.00     0.166 HD
HETATM    8  C   UNL     1      -4.354  -0.458 -33.181  1.00  0.00     0.045 A 
HETATM    9  C   UNL     1      -5.663   0.016 -33.236  1.00  0.00     0.026 A 
HETATM   10  C   UNL     1      -3.996  -1.742 -33.605  1.00  0.00     0.030 A 
HETATM   11  C   UNL     1      -6.681  -0.826 -33.739  1.00  0.00     0.087 A 
HETATM   12  C   UNL     1      -5.640   1.349 -32.728  1.00  0.00     0.052 A 
HETATM   13  C   UNL     1      -6.327  -2.105 -34.198  1.00  0.00     0.038 A 
HETATM   14  C   UNL     1      -5.008  -2.555 -34.120  1.00  0.00     0.005 A 
BRANCH  11  15
HETATM   15  O   UNL     1      -7.953  -0.322 -33.815  1.00  0.00    -0.289 OA
BRANCH  15  16
HETATM   16  C   UNL     1      -8.234   0.362 -35.024  1.00  0.00     0.505 C 
HETATM   17  F   UNL     1      -8.491   1.656 -34.707  1.00  0.00    -0.184 F 
HETATM   18  F   UNL     1      -7.117   0.369 -35.794  1.00  0.00    -0.184 F 
ENDBRANCH  15  16
ENDBRANCH  11  15
ENDBRANCH   2   5
BRANCH   1  19
HETATM   19  N   UNL     1      -3.889   5.272 -31.753  1.00  0.00    -0.267 N 
HETATM   20  C   UNL     1      -3.686   6.200 -32.755  1.00  0.00     0.240 C 
HETATM   21  O   UNL     1      -4.050   6.003 -33.915  1.00  0.00    -0.272 OA
HETATM   22  H   UNL     1      -3.650   5.424 -30.775  1.00  0.00     0.190 HD
BRANCH  20  23
HETATM   23  C   UNL     1      -2.979   7.458 -32.306  1.00  0.00     0.146 C 
BRANCH  23  24
HETATM   24  C   UNL     1      -1.765   7.274 -31.416  1.00  0.00    -0.016 A 
HETATM   25  C   UNL     1      -1.906   7.483 -30.027  1.00  0.00     0.074 A 
HETATM   26  C   UNL     1      -0.801   7.341 -29.182  1.00  0.00     0.037 A 
HETATM   27  C   UNL     1       0.443   6.987 -29.704  1.00  0.00     0.003 A 
HETATM   28  C   UNL     1       0.591   6.775 -31.070  1.00  0.00     0.001 A 
HETATM   29  C   UNL     1      -0.505   6.918 -31.922  1.00  0.00     0.010 A 
BRANCH  25  30
HETATM   30  O   UNL     1      -3.163   7.840 -29.605  1.00  0.00    -0.355 OA
HETATM   31  C   UNL     1      -3.745   7.066 -28.564  1.00  0.00     0.210 C 
ENDBRANCH  25  30
ENDBRANCH  23  24
ENDBRANCH  20  23
ENDBRANCH   1  19
TORSDOF 7
ENDMDL
MODEL 6
REMARK VINA RESULT:      -8.1      2.374      3.973
REMARK  7 active torsions:
REMARK  status: ('A' for Active; 'I' for Inactive)
REMARK    1  A    between atoms: O_2  and  C_3 
REMARK    2  A    between atoms: C_4  and  C_5 
REMARK    3  A    between atoms: C_5  and  C_6 
REMARK       I    between atoms: C_6  and  N_7 
REMARK    4  A    between atoms: N_7  and  N_8 
REMARK       I    between atoms: N_8  and  C_9 
REMARK    5  A    between atoms: C_9  and  C_10 
REMARK    6  A    between atoms: C_15  and  O_16 
REMARK    7  A    between atoms: O_16  and  C_17 
ROOT
HETATM    1  N   UNL     1      -2.307   4.494 -30.905  1.00  0.00    -0.262 N 
HETATM    2  C   UNL     1      -2.542   4.056 -32.190  1.00  0.00     0.286 C 
HETATM    3  O   UNL     1      -2.022   4.597 -33.165  1.00  0.00    -0.264 OA
HETATM    4  H   UNL     1      -2.722   4.070 -30.078  1.00  0.00     0.190 HD
ENDROOT
BRANCH   2   5
HETATM    5  C   UNL     1      -3.441   2.932 -32.313  1.00  0.00     0.103 A 
HETATM    6  N   UNL     1      -4.674   3.063 -32.916  1.00  0.00    -0.351 N 
HETATM    7  H   UNL     1      -5.016   3.932 -33.307  1.00  0.00     0.166 HD
HETATM    8  C   UNL     1      -5.372   1.879 -32.882  1.00  0.00     0.045 A 
HETATM    9  C   UNL     1      -4.564   0.945 -32.238  1.00  0.00     0.026 A 
HETATM   10  C   UNL     1      -6.652   1.574 -33.356  1.00  0.00     0.030 A 
HETATM   11  C   UNL     1      -5.046  -0.370 -32.049  1.00  0.00     0.087 A 
HETATM   12  C   UNL     1      -3.350   1.614 -31.900  1.00  0.00     0.052 A 
HETATM   13  C   UNL     1      -6.342  -0.679 -32.492  1.00  0.00     0.038 A 
HETATM   14  C   UNL     1      -7.124   0.277 -33.144  1.00  0.00     0.005 A 
BRANCH  11  15
HETATM   15  O   UNL     1      -4.245  -1.259 -31.381  1.00  0.00    -0.289 OA
BRANCH  15  16
HETATM   16  C   UNL     1      -3.341  -1.964 -32.215  1.00  0.00     0.505 C 
HETATM   17  F   UNL     1      -2.919  -3.053 -31.525  1.00  0.00    -0.184 F 
HETATM   18  F   UNL     1      -4.015  -2.432 -33.296  1.00  0.00    -0.184 F 
ENDBRANCH  15  16
ENDBRANCH  11  15
ENDBRANCH   2   5
BRANCH   1  19
HETATM   19  N   UNL     1      -1.553   5.653 -30.703  1.00  0.00    -0.267 N 
HETATM   20  C   UNL     1      -0.236   5.518 -30.314  1.00  0.00     0.240 C 
HETATM   21  O   UNL     1       0.308   4.418 -30.208  1.00  0.00    -0.272 OA
HETATM   22  H   UNL     1      -2.018   6.547 -30.852  1.00  0.00     0.190 HD
BRANCH  20  23
HETATM   23  C   UNL     1       0.466   6.825 -30.025  1.00  0.00     0.146 C 
BRANCH  23  24
HETATM   24  C   UNL     1       0.296   7.394 -28.630  1.00  0.00    -0.016 A 
HETATM   25  C   UNL     1      -0.720   8.348 -28.407  1.00  0.00     0.074 A 
HETATM   26  C   UNL     1      -0.890   8.906 -27.136  1.00  0.00     0.037 A 
HETATM   27  C   UNL     1      -0.062   8.520 -26.081  1.00  0.00     0.003 A 
HETATM   28  C   UNL     1       0.939   7.578 -26.290  1.00  0.00     0.001 A 
HETATM   29  C   UNL     1       1.119   7.018 -27.556  1.00  0.00     0.010 A 
BRANCH  25  30
HETATM   30  O   UNL     1      -1.478   8.675 -29.503  1.00  0.00    -0.355 OA
HETATM   31  C   UNL     1      -2.872   8.866 -29.300  1.00  0.00     0.210 C 
ENDBRANCH  25  30
ENDBRANCH  23  24
ENDBRANCH  20  23
ENDBRANCH   1  19
TORSDOF 7
ENDMDL
MODEL 7
REMARK VINA RESULT:      -8.1      6.694     10.231
REMARK  7 active torsions:
REMARK  status: ('A' for Active; 'I' for Inactive)
REMARK    1  A    between atoms: O_2  and  C_3 
REMARK    2  A    between atoms: C_4  and  C_5 
REMARK    3  A    between atoms: C_5  and  C_6 
REMARK       I    between atoms: C_6  and  N_7 
REMARK    4  A    between atoms: N_7  and  N_8 
REMARK       I    between atoms: N_8  and  C_9 
REMARK    5  A    between atoms: C_9  and  C_10 
REMARK    6  A    between atoms: C_15  and  O_16 
REMARK    7  A    between atoms: O_16  and  C_17 
ROOT
HETATM    1  N   UNL     1      -9.225   0.719 -34.843  1.00  0.00    -0.262 N 
HETATM    2  C   UNL     1      -9.439   1.920 -34.203  1.00  0.00     0.286 C 
HETATM    3  O   UNL     1      -8.540   2.748 -34.060  1.00  0.00    -0.264 OA
HETATM    4  H   UNL     1      -9.945   0.013 -34.977  1.00  0.00     0.190 HD
ENDROOT
BRANCH   2   5
HETATM    5  C   UNL     1     -10.779   2.135 -33.708  1.00  0.00     0.103 A 
HETATM    6  N   UNL     1     -11.781   1.215 -33.931  1.00  0.00    -0.351 N 
HETATM    7  H   UNL     1     -11.643   0.349 -34.437  1.00  0.00     0.166 HD
HETATM    8  C   UNL     1     -12.978   1.645 -33.408  1.00  0.00     0.045 A 
HETATM    9  C   UNL     1     -12.744   2.888 -32.822  1.00  0.00     0.026 A 
HETATM   10  C   UNL     1     -14.238   1.040 -33.424  1.00  0.00     0.030 A 
HETATM   11  C   UNL     1     -13.819   3.576 -32.215  1.00  0.00     0.087 A 
HETATM   12  C   UNL     1     -11.359   3.176 -33.003  1.00  0.00     0.052 A 
HETATM   13  C   UNL     1     -15.095   2.993 -32.253  1.00  0.00     0.038 A 
HETATM   14  C   UNL     1     -15.295   1.741 -32.839  1.00  0.00     0.005 A 
BRANCH  11  15
HETATM   15  O   UNL     1     -13.570   4.812 -31.677  1.00  0.00    -0.289 OA
BRANCH  15  16
HETATM   16  C   UNL     1     -13.718   4.871 -30.269  1.00  0.00     0.505 C 
HETATM   17  F   UNL     1     -13.001   3.847 -29.742  1.00  0.00    -0.184 F 
HETATM   18  F   UNL     1     -13.144   6.015 -29.815  1.00  0.00    -0.184 F 
ENDBRANCH  15  16
ENDBRANCH  11  15
ENDBRANCH   2   5
BRANCH   1  19
HETATM   19  N   UNL     1      -7.930   0.375 -35.240  1.00  0.00    -0.267 N 
HETATM   20  C   UNL     1      -7.250  -0.573 -34.503  1.00  0.00     0.240 C 
HETATM   21  O   UNL     1      -7.770  -1.169 -33.560  1.00  0.00    -0.272 OA
HETATM   22  H   UNL     1      -7.549   0.847 -36.058  1.00  0.00     0.190 HD
BRANCH  20  23
HETATM   23  C   UNL     1      -5.824  -0.805 -34.949  1.00  0.00     0.146 C 
BRANCH  23  24
HETATM   24  C   UNL     1      -4.948  -1.628 -34.025  1.00  0.00    -0.016 A 
HETATM   25  C   UNL     1      -4.765  -2.998 -34.310  1.00  0.00     0.074 A 
HETATM   26  C   UNL     1      -3.979  -3.790 -33.466  1.00  0.00     0.037 A 
HETATM   27  C   UNL     1      -3.368  -3.230 -32.343  1.00  0.00     0.003 A 
HETATM   28  C   UNL     1      -3.540  -1.880 -32.057  1.00  0.00     0.001 A 
HETATM   29  C   UNL     1      -4.325  -1.083 -32.891  1.00  0.00     0.010 A 
BRANCH  25  30
HETATM   30  O   UNL     1      -5.412  -3.465 -35.426  1.00  0.00    -0.355 OA
HETATM   31  C   UNL     1      -6.368  -4.501 -35.241  1.00  0.00     0.210 C 
ENDBRANCH  25  30
ENDBRANCH  23  24
ENDBRANCH  20  23
ENDBRANCH   1  19
TORSDOF 7
ENDMDL
MODEL 8
REMARK VINA RESULT:      -8.0      1.575      2.377
REMARK  7 active torsions:
REMARK  status: ('A' for Active; 'I' for Inactive)
REMARK    1  A    between atoms: O_2  and  C_3 
REMARK    2  A    between atoms: C_4  and  C_5 
REMARK    3  A    between atoms: C_5  and  C_6 
REMARK       I    between atoms: C_6  and  N_7 
REMARK    4  A    between atoms: N_7  and  N_8 
REMARK       I    between atoms: N_8  and  C_9 
REMARK    5  A    between atoms: C_9  and  C_10 
REMARK    6  A    between atoms: C_15  and  O_16 
REMARK    7  A    between atoms: O_16  and  C_17 
ROOT
HETATM    1  N   UNL     1      -4.693   1.884 -32.673  1.00  0.00    -0.262 N 
HETATM    2  C   UNL     1      -5.284   0.862 -31.962  1.00  0.00     0.286 C 
HETATM    3  O   UNL     1      -6.035   1.082 -31.012  1.00  0.00    -0.264 OA
HETATM    4  H   UNL     1      -4.067   1.737 -33.461  1.00  0.00     0.190 HD
ENDROOT
BRANCH   2   5
HETATM    5  C   UNL     1      -4.956  -0.475 -32.400  1.00  0.00     0.103 A 
HETATM    6  N   UNL     1      -3.993  -1.224 -31.758  1.00  0.00    -0.351 N 
HETATM    7  H   UNL     1      -3.473  -0.895 -30.954  1.00  0.00     0.166 HD
HETATM    8  C   UNL     1      -3.820  -2.443 -32.371  1.00  0.00     0.045 A 
HETATM    9  C   UNL     1      -4.704  -2.489 -33.447  1.00  0.00     0.026 A 
HETATM   10  C   UNL     1      -2.946  -3.489 -32.063  1.00  0.00     0.030 A 
HETATM   11  C   UNL     1      -4.727  -3.636 -34.270  1.00  0.00     0.087 A 
HETATM   12  C   UNL     1      -5.421  -1.255 -33.445  1.00  0.00     0.052 A 
HETATM   13  C   UNL     1      -3.831  -4.681 -33.991  1.00  0.00     0.038 A 
HETATM   14  C   UNL     1      -2.964  -4.609 -32.899  1.00  0.00     0.005 A 
BRANCH  11  15
HETATM   15  O   UNL     1      -5.580  -3.642 -35.343  1.00  0.00    -0.289 OA
BRANCH  15  16
HETATM   16  C   UNL     1      -6.647  -4.568 -35.230  1.00  0.00     0.505 C 
HETATM   17  F   UNL     1      -7.404  -4.186 -34.171  1.00  0.00    -0.184 F 
HETATM   18  F   UNL     1      -7.439  -4.460 -36.327  1.00  0.00    -0.184 F 
ENDBRANCH  15  16
ENDBRANCH  11  15
ENDBRANCH   2   5
BRANCH   1  19
HETATM   19  N   UNL     1      -4.853   3.202 -32.238  1.00  0.00    -0.267 N 
HETATM   20  C   UNL     1      -3.850   3.767 -31.477  1.00  0.00     0.240 C 
HETATM   21  O   UNL     1      -2.799   3.174 -31.231  1.00  0.00    -0.272 OA
HETATM   22  H   UNL     1      -5.710   3.683 -32.504  1.00  0.00     0.190 HD
BRANCH  20  23
HETATM   23  C   UNL     1      -4.158   5.158 -30.972  1.00  0.00     0.146 C 
BRANCH  23  24
HETATM   24  C   UNL     1      -3.155   6.242 -31.312  1.00  0.00    -0.016 A 
HETATM   25  C   UNL     1      -3.003   6.624 -32.662  1.00  0.00     0.074 A 
HETATM   26  C   UNL     1      -2.072   7.608 -33.012  1.00  0.00     0.037 A 
HETATM   27  C   UNL     1      -1.292   8.219 -32.029  1.00  0.00     0.003 A 
HETATM   28  C   UNL     1      -1.437   7.852 -30.696  1.00  0.00     0.001 A 
HETATM   29  C   UNL     1      -2.361   6.870 -30.338  1.00  0.00     0.010 A 
BRANCH  25  30
HETATM   30  O   UNL     1      -3.802   5.962 -33.560  1.00  0.00    -0.355 OA
HETATM   31  C   UNL     1      -3.192   5.496 -34.757  1.00  0.00     0.210 C 
ENDBRANCH  25  30
ENDBRANCH  23  24
ENDBRANCH  20  23
ENDBRANCH   1  19
TORSDOF 7
ENDMDL
MODEL 9
REMARK VINA RESULT:      -8.0      2.287      3.370
REMARK  7 active torsions:
REMARK  status: ('A' for Active; 'I' for Inactive)
REMARK    1  A    between atoms: O_2  and  C_3 
REMARK    2  A    between atoms: C_4  and  C_5 
REMARK    3  A    between atoms: C_5  and  C_6 
REMARK       I    between atoms: C_6  and  N_7 
REMARK    4  A    between atoms: N_7  and  N_8 
REMARK       I    between atoms: N_8  and  C_9 
REMARK    5  A    between atoms: C_9  and  C_10 
REMARK    6  A    between atoms: C_15  and  O_16 
REMARK    7  A    between atoms: O_16  and  C_17 
ROOT
HETATM    1  N   UNL     1      -3.598   3.594 -31.478  1.00  0.00    -0.262 N 
HETATM    2  C   UNL     1      -3.686   2.219 -31.465  1.00  0.00     0.286 C 
HETATM    3  O   UNL     1      -2.747   1.511 -31.104  1.00  0.00    -0.264 OA
HETATM    4  H   UNL     1      -4.354   4.207 -31.771  1.00  0.00     0.190 HD
ENDROOT
BRANCH   2   5
HETATM    5  C   UNL     1      -4.947   1.670 -31.911  1.00  0.00     0.103 A 
HETATM    6  N   UNL     1      -6.119   1.927 -31.233  1.00  0.00    -0.351 N 
HETATM    7  H   UNL     1      -6.171   2.507 -30.406  1.00  0.00     0.166 HD
HETATM    8  C   UNL     1      -7.181   1.270 -31.809  1.00  0.00     0.045 A 
HETATM    9  C   UNL     1      -6.681   0.564 -32.902  1.00  0.00     0.026 A 
HETATM   10  C   UNL     1      -8.528   1.238 -31.439  1.00  0.00     0.030 A 
HETATM   11  C   UNL     1      -7.563  -0.221 -33.677  1.00  0.00     0.087 A 
HETATM   12  C   UNL     1      -5.282   0.836 -32.964  1.00  0.00     0.052 A 
HETATM   13  C   UNL     1      -8.913  -0.287 -33.295  1.00  0.00     0.038 A 
HETATM   14  C   UNL     1      -9.385   0.440 -32.201  1.00  0.00     0.005 A 
BRANCH  11  15
HETATM   15  O   UNL     1      -7.040  -0.933 -34.724  1.00  0.00    -0.289 OA
BRANCH  15  16
HETATM   16  C   UNL     1      -6.405  -2.142 -34.343  1.00  0.00     0.505 C 
HETATM   17  F   UNL     1      -7.366  -3.096 -34.259  1.00  0.00    -0.184 F 
HETATM   18  F   UNL     1      -5.565  -2.529 -35.336  1.00  0.00    -0.184 F 
ENDBRANCH  15  16
ENDBRANCH  11  15
ENDBRANCH   2   5
BRANCH   1  19
HETATM   19  N   UNL     1      -2.375   4.204 -31.185  1.00  0.00    -0.267 N 
HETATM   20  C   UNL     1      -1.640   4.730 -32.228  1.00  0.00     0.240 C 
HETATM   21  O   UNL     1      -2.057   4.741 -33.386  1.00  0.00    -0.272 OA
HETATM   22  H   UNL     1      -2.083   4.227 -30.209  1.00  0.00     0.190 HD
BRANCH  20  23
HETATM   23  C   UNL     1      -0.289   5.279 -31.825  1.00  0.00     0.146 C 
BRANCH  23  24
HETATM   24  C   UNL     1      -0.211   5.969 -30.478  1.00  0.00    -0.016 A 
HETATM   25  C   UNL     1      -0.891   7.195 -30.305  1.00  0.00     0.074 A 
HETATM   26  C   UNL     1      -0.822   7.866 -29.080  1.00  0.00     0.037 A 
HETATM   27  C   UNL     1      -0.089   7.328 -28.022  1.00  0.00     0.003 A 
HETATM   28  C   UNL     1       0.580   6.119 -28.181  1.00  0.00     0.001 A 
HETATM   29  C   UNL     1       0.520   5.443 -29.401  1.00  0.00     0.010 A 
BRANCH  25  30
HETATM   30  O   UNL     1      -1.576   7.654 -31.402  1.00  0.00    -0.355 OA
HETATM   31  C   UNL     1      -2.240   8.904 -31.280  1.00  0.00     0.210 C 
ENDBRANCH  25  30
ENDBRANCH  23  24
ENDBRANCH  20  23
ENDBRANCH   1  19
TORSDOF 7
ENDMDL
MODEL 10
REMARK VINA RESULT:      -7.9      2.567      3.527
REMARK  7 active torsions:
REMARK  status: ('A' for Active; 'I' for Inactive)
REMARK    1  A    between atoms: O_2  and  C_3 
REMARK    2  A    between atoms: C_4  and  C_5 
REMARK    3  A    between atoms: C_5  and  C_6 
REMARK       I    between atoms: C_6  and  N_7 
REMARK    4  A    between atoms: N_7  and  N_8 
REMARK       I    between atoms: N_8  and  C_9 
REMARK    5  A    between atoms: C_9  and  C_10 
REMARK    6  A    between atoms: C_15  and  O_16 
REMARK    7  A    between atoms: O_16  and  C_17 
ROOT
HETATM    1  N   UNL     1      -4.440   4.142 -32.017  1.00  0.00    -0.262 N 
HETATM    2  C   UNL     1      -3.860   2.902 -31.862  1.00  0.00     0.286 C 
HETATM    3  O   UNL     1      -2.765   2.761 -31.318  1.00  0.00    -0.264 OA
HETATM    4  H   UNL     1      -5.342   4.293 -32.462  1.00  0.00     0.190 HD
ENDROOT
BRANCH   2   5
HETATM    5  C   UNL     1      -4.617   1.788 -32.385  1.00  0.00     0.103 A 
HETATM    6  N   UNL     1      -4.000   0.609 -32.746  1.00  0.00    -0.351 N 
HETATM    7  H   UNL     1      -3.004   0.451 -32.662  1.00  0.00     0.166 HD
HETATM    8  C   UNL     1      -4.906  -0.291 -33.255  1.00  0.00     0.045 A 
HETATM    9  C   UNL     1      -6.156   0.324 -33.221  1.00  0.00     0.026 A 
HETATM   10  C   UNL     1      -4.711  -1.583 -33.751  1.00  0.00     0.030 A 
HETATM   11  C   UNL     1      -7.282  -0.379 -33.706  1.00  0.00     0.087 A 
HETATM   12  C   UNL     1      -5.963   1.621 -32.659  1.00  0.00     0.052 A 
HETATM   13  C   UNL     1      -7.093  -1.665 -34.236  1.00  0.00     0.038 A 
HETATM   14  C   UNL     1      -5.829  -2.257 -34.247  1.00  0.00     0.005 A 
BRANCH  11  15
HETATM   15  O   UNL     1      -8.494   0.262 -33.694  1.00  0.00    -0.289 OA
BRANCH  15  16
HETATM   16  C   UNL     1      -9.278  -0.002 -32.543  1.00  0.00     0.505 C 
HETATM   17  F   UNL     1      -9.365   1.154 -31.838  1.00  0.00    -0.184 F 
HETATM   18  F   UNL     1     -10.540  -0.311 -32.932  1.00  0.00    -0.184 F 
ENDBRANCH  15  16
ENDBRANCH  11  15
ENDBRANCH   2   5
BRANCH   1  19
HETATM   19  N   UNL     1      -3.721   5.285 -31.655  1.00  0.00    -0.267 N 
HETATM   20  C   UNL     1      -4.323   6.516 -31.819  1.00  0.00     0.240 C 
HETATM   21  O   UNL     1      -5.487   6.632 -32.202  1.00  0.00    -0.272 OA
HETATM   22  H   UNL     1      -2.780   5.150 -31.290  1.00  0.00     0.190 HD
BRANCH  20  23
HETATM   23  C   UNL     1      -3.432   7.693 -31.494  1.00  0.00     0.146 C 
BRANCH  23  24
HETATM   24  C   UNL     1      -2.053   7.372 -30.952  1.00  0.00    -0.016 A 
HETATM   25  C   UNL     1      -0.962   7.349 -31.848  1.00  0.00     0.074 A 
HETATM   26  C   UNL     1       0.320   7.037 -31.383  1.00  0.00     0.037 A 
HETATM   27  C   UNL     1       0.529   6.754 -30.033  1.00  0.00     0.003 A 
HETATM   28  C   UNL     1      -0.539   6.778 -29.142  1.00  0.00     0.001 A 
HETATM   29  C   UNL     1      -1.822   7.085 -29.597  1.00  0.00     0.010 A 
BRANCH  25  30
HETATM   30  O   UNL     1      -1.263   7.628 -33.158  1.00  0.00    -0.355 OA
HETATM   31  C   UNL     1      -1.191   6.555 -34.087  1.00  0.00     0.210 C 
ENDBRANCH  25  30
ENDBRANCH  23  24
ENDBRANCH  20  23
ENDBRANCH   1  19
TORSDOF 7
ENDMDL
