MODEL 1
REMARK VINA RESULT:      -9.0      0.000      0.000
REMARK  5 active torsions:
REMARK  status: ('A' for Active; 'I' for Inactive)
REMARK    1  A    between atoms: C_3  and  C_4 
REMARK    2  A    between atoms: C_6  and  N_7 
REMARK       I    between atoms: N_7  and  C_8 
REMARK    3  A    between atoms: C_8  and  C_9 
REMARK    4  A    between atoms: C_14  and  O_15 
REMARK    5  A    between atoms: O_15  and  C_16 
ROOT
HETATM    1  N   UNL     1      -3.383   2.328 -32.682  1.00  0.00    -0.322 N 
HETATM    2  C   UNL     1      -4.487   1.548 -32.382  1.00  0.00     0.272 C 
HETATM    3  O   UNL     1      -5.536   1.978 -31.907  1.00  0.00    -0.266 OA
HETATM    4  H   UNL     1      -2.547   1.832 -32.962  1.00  0.00     0.169 HD
ENDROOT
BRANCH   2   5
HETATM    5  C   UNL     1      -4.315   0.131 -32.635  1.00  0.00     0.102 A 
HETATM    6  N   UNL     1      -3.490  -0.642 -31.843  1.00  0.00    -0.351 N 
HETATM    7  H   UNL     1      -2.970  -0.280 -31.053  1.00  0.00     0.166 HD
HETATM    8  C   UNL     1      -3.476  -1.950 -32.261  1.00  0.00     0.045 A 
HETATM    9  C   UNL     1      -4.327  -2.038 -33.358  1.00  0.00     0.026 A 
HETATM   10  C   UNL     1      -2.787  -3.053 -31.748  1.00  0.00     0.030 A 
HETATM   11  C   UNL     1      -4.506  -3.286 -33.996  1.00  0.00     0.087 A 
HETATM   12  C   UNL     1      -4.849  -0.728 -33.582  1.00  0.00     0.052 A 
HETATM   13  C   UNL     1      -3.844  -4.407 -33.471  1.00  0.00     0.038 A 
HETATM   14  C   UNL     1      -2.992  -4.286 -32.372  1.00  0.00     0.005 A 
BRANCH  11  15
HETATM   15  O   UNL     1      -5.363  -3.341 -35.063  1.00  0.00    -0.289 OA
BRANCH  15  16
HETATM   16  C   UNL     1      -6.452  -4.234 -34.887  1.00  0.00     0.505 C 
HETATM   17  F   UNL     1      -7.457  -3.577 -34.256  1.00  0.00    -0.184 F 
HETATM   18  F   UNL     1      -6.912  -4.551 -36.124  1.00  0.00    -0.184 F 
ENDBRANCH  15  16
ENDBRANCH  11  15
ENDBRANCH   2   5
BRANCH   1  19
HETATM   19  C   UNL     1      -3.260   3.725 -32.540  1.00  0.00     0.035 A 
HETATM   20  C   UNL     1      -2.622   4.336 -31.457  1.00  0.00     0.044 A 
HETATM   21  C   UNL     1      -2.479   5.724 -31.388  1.00  0.00     0.010 A 
HETATM   22  C   UNL     1      -3.034   6.520 -32.397  1.00  0.00     0.015 A 
HETATM   23  C   UNL     1      -3.704   5.922 -33.466  1.00  0.00     0.003 A 
HETATM   24  C   UNL     1      -3.814   4.532 -33.538  1.00  0.00     0.029 A 
BRANCH  21  25
HETATM   25  C   UNL     1      -1.751   6.378 -30.234  1.00  0.00     0.117 A 
HETATM   26  N   UNL     1      -0.459   6.774 -30.102  1.00  0.00    -0.346 N 
HETATM   27  C   UNL     1       0.574   6.783 -31.140  1.00  0.00     0.157 C 
HETATM   28  C   UNL     1      -0.242   7.264 -28.816  1.00  0.00     0.109 A 
HETATM   29  C   UNL     1      -1.435   7.223 -28.168  1.00  0.00     0.107 A 
HETATM   30  N   UNL     1      -2.332   6.703 -29.061  1.00  0.00    -0.350 N 
HETATM   31  H   UNL     1      -3.307   6.519 -28.853  1.00  0.00     0.166 HD
ENDBRANCH  21  25
ENDBRANCH   1  19
TORSDOF 5
ENDMDL
MODEL 2
REMARK VINA RESULT:      -9.0      1.957      2.787
REMARK  5 active torsions:
REMARK  status: ('A' for Active; 'I' for Inactive)
REMARK    1  A    between atoms: C_3  and  C_4 
REMARK    2  A    between atoms: C_6  and  N_7 
REMARK       I    between atoms: N_7  and  C_8 
REMARK    3  A    between atoms: C_8  and  C_9 
REMARK    4  A    between atoms: C_14  and  O_15 
REMARK    5  A    between atoms: O_15  and  C_16 
ROOT
HETATM    1  N   UNL     1      -2.781   3.217 -32.809  1.00  0.00    -0.322 N 
HETATM    2  C   UNL     1      -3.769   2.600 -32.059  1.00  0.00     0.272 C 
HETATM    3  O   UNL     1      -4.190   3.017 -30.983  1.00  0.00    -0.266 OA
HETATM    4  H   UNL     1      -2.450   2.709 -33.618  1.00  0.00     0.169 HD
ENDROOT
BRANCH   2   5
HETATM    5  C   UNL     1      -4.272   1.363 -32.623  1.00  0.00     0.102 A 
HETATM    6  N   UNL     1      -5.544   1.284 -33.154  1.00  0.00    -0.351 N 
HETATM    7  H   UNL     1      -6.187   2.064 -33.186  1.00  0.00     0.166 HD
HETATM    8  C   UNL     1      -5.810   0.024 -33.631  1.00  0.00     0.045 A 
HETATM    9  C   UNL     1      -4.671  -0.745 -33.412  1.00  0.00     0.026 A 
HETATM   10  C   UNL     1      -6.961  -0.484 -34.240  1.00  0.00     0.030 A 
HETATM   11  C   UNL     1      -4.666  -2.100 -33.812  1.00  0.00     0.087 A 
HETATM   12  C   UNL     1      -3.713   0.105 -32.782  1.00  0.00     0.052 A 
HETATM   13  C   UNL     1      -5.803  -2.614 -34.454  1.00  0.00     0.038 A 
HETATM   14  C   UNL     1      -6.933  -1.819 -34.654  1.00  0.00     0.005 A 
BRANCH  11  15
HETATM   15  O   UNL     1      -3.524  -2.825 -33.597  1.00  0.00    -0.289 OA
BRANCH  15  16
HETATM   16  C   UNL     1      -3.748  -4.207 -33.366  1.00  0.00     0.505 C 
HETATM   17  F   UNL     1      -2.929  -4.924 -34.175  1.00  0.00    -0.184 F 
HETATM   18  F   UNL     1      -3.359  -4.467 -32.091  1.00  0.00    -0.184 F 
ENDBRANCH  15  16
ENDBRANCH  11  15
ENDBRANCH   2   5
BRANCH   1  19
HETATM   19  C   UNL     1      -2.111   4.422 -32.512  1.00  0.00     0.035 A 
HETATM   20  C   UNL     1      -1.780   4.820 -31.214  1.00  0.00     0.044 A 
HETATM   21  C   UNL     1      -1.068   5.998 -30.976  1.00  0.00     0.010 A 
HETATM   22  C   UNL     1      -0.729   6.822 -32.055  1.00  0.00     0.015 A 
HETATM   23  C   UNL     1      -1.085   6.452 -33.353  1.00  0.00     0.003 A 
HETATM   24  C   UNL     1      -1.771   5.257 -33.580  1.00  0.00     0.029 A 
BRANCH  21  25
HETATM   25  C   UNL     1      -0.675   6.404 -29.572  1.00  0.00     0.117 A 
HETATM   26  N   UNL     1      -0.878   7.558 -28.886  1.00  0.00    -0.346 N 
HETATM   27  C   UNL     1      -1.676   8.710 -29.310  1.00  0.00     0.157 C 
HETATM   28  C   UNL     1      -0.265   7.482 -27.638  1.00  0.00     0.109 A 
HETATM   29  C   UNL     1       0.272   6.238 -27.533  1.00  0.00     0.107 A 
HETATM   30  N   UNL     1      -0.014   5.604 -28.711  1.00  0.00    -0.350 N 
HETATM   31  H   UNL     1       0.289   4.665 -28.945  1.00  0.00     0.166 HD
ENDBRANCH  21  25
ENDBRANCH   1  19
TORSDOF 5
ENDMDL
MODEL 3
REMARK VINA RESULT:      -8.9      6.120      8.068
REMARK  5 active torsions:
REMARK  status: ('A' for Active; 'I' for Inactive)
REMARK    1  A    between atoms: C_3  and  C_4 
REMARK    2  A    between atoms: C_6  and  N_7 
REMARK       I    between atoms: N_7  and  C_8 
REMARK    3  A    between atoms: C_8  and  C_9 
REMARK    4  A    between atoms: C_14  and  O_15 
REMARK    5  A    between atoms: O_15  and  C_16 
ROOT
HETATM    1  N   UNL     1      -8.916   1.322 -33.884  1.00  0.00    -0.322 N 
HETATM    2  C   UNL     1      -7.905   1.355 -32.939  1.00  0.00     0.272 C 
HETATM    3  O   UNL     1      -7.789   2.218 -32.071  1.00  0.00    -0.266 OA
HETATM    4  H   UNL     1      -8.830   0.621 -34.608  1.00  0.00     0.169 HD
ENDROOT
BRANCH   2   5
HETATM    5  C   UNL     1      -6.930   0.288 -33.058  1.00  0.00     0.102 A 
HETATM    6  N   UNL     1      -5.875   0.183 -32.174  1.00  0.00    -0.351 N 
HETATM    7  H   UNL     1      -5.721   0.822 -31.405  1.00  0.00     0.166 HD
HETATM    8  C   UNL     1      -5.078  -0.896 -32.472  1.00  0.00     0.045 A 
HETATM    9  C   UNL     1      -5.636  -1.522 -33.583  1.00  0.00     0.026 A 
HETATM   10  C   UNL     1      -3.922  -1.364 -31.841  1.00  0.00     0.030 A 
HETATM   11  C   UNL     1      -5.014  -2.676 -34.110  1.00  0.00     0.087 A 
HETATM   12  C   UNL     1      -6.797  -0.772 -33.940  1.00  0.00     0.052 A 
HETATM   13  C   UNL     1      -3.871  -3.174 -33.467  1.00  0.00     0.038 A 
HETATM   14  C   UNL     1      -3.332  -2.521 -32.357  1.00  0.00     0.005 A 
BRANCH  11  15
HETATM   15  O   UNL     1      -5.598  -3.277 -35.193  1.00  0.00    -0.289 OA
BRANCH  15  16
HETATM   16  C   UNL     1      -6.341  -4.445 -34.879  1.00  0.00     0.505 C 
HETATM   17  F   UNL     1      -7.436  -4.086 -34.163  1.00  0.00    -0.184 F 
HETATM   18  F   UNL     1      -6.794  -4.958 -36.051  1.00  0.00    -0.184 F 
ENDBRANCH  15  16
ENDBRANCH  11  15
ENDBRANCH   2   5
BRANCH   1  19
HETATM   19  C   UNL     1      -9.994   2.222 -34.014  1.00  0.00     0.035 A 
HETATM   20  C   UNL     1     -11.285   1.949 -33.554  1.00  0.00     0.044 A 
HETATM   21  C   UNL     1     -12.307   2.895 -33.658  1.00  0.00     0.010 A 
HETATM   22  C   UNL     1     -12.046   4.118 -34.285  1.00  0.00     0.015 A 
HETATM   23  C   UNL     1     -10.768   4.388 -34.780  1.00  0.00     0.003 A 
HETATM   24  C   UNL     1      -9.747   3.446 -34.643  1.00  0.00     0.029 A 
BRANCH  21  25
HETATM   25  C   UNL     1     -13.693   2.610 -33.122  1.00  0.00     0.117 A 
HETATM   26  N   UNL     1     -14.296   2.980 -31.962  1.00  0.00    -0.346 N 
HETATM   27  C   UNL     1     -13.773   3.898 -30.948  1.00  0.00     0.157 C 
HETATM   28  C   UNL     1     -15.564   2.411 -31.884  1.00  0.00     0.109 A 
HETATM   29  C   UNL     1     -15.767   1.729 -33.042  1.00  0.00     0.107 A 
HETATM   30  N   UNL     1     -14.624   1.889 -33.778  1.00  0.00    -0.350 N 
HETATM   31  H   UNL     1     -14.462   1.463 -34.684  1.00  0.00     0.166 HD
ENDBRANCH  21  25
ENDBRANCH   1  19
TORSDOF 5
ENDMDL
MODEL 4
REMARK VINA RESULT:      -8.8      6.354      8.240
REMARK  5 active torsions:
REMARK  status: ('A' for Active; 'I' for Inactive)
REMARK    1  A    between atoms: C_3  and  C_4 
REMARK    2  A    between atoms: C_6  and  N_7 
REMARK       I    between atoms: N_7  and  C_8 
REMARK    3  A    between atoms: C_8  and  C_9 
REMARK    4  A    between atoms: C_14  and  O_15 
REMARK    5  A    between atoms: O_15  and  C_16 
ROOT
HETATM    1  N   UNL     1     -10.102   0.519 -33.650  1.00  0.00    -0.322 N 
HETATM    2  C   UNL     1      -9.176   0.672 -32.631  1.00  0.00     0.272 C 
HETATM    3  O   UNL     1      -9.344   1.375 -31.637  1.00  0.00    -0.266 OA
HETATM    4  H   UNL     1      -9.792   0.001 -34.462  1.00  0.00     0.169 HD
ENDROOT
BRANCH   2   5
HETATM    5  C   UNL     1      -7.932  -0.044 -32.830  1.00  0.00     0.102 A 
HETATM    6  N   UNL     1      -6.865   0.123 -31.970  1.00  0.00    -0.351 N 
HETATM    7  H   UNL     1      -6.884   0.736 -31.166  1.00  0.00     0.166 HD
HETATM    8  C   UNL     1      -5.793  -0.650 -32.346  1.00  0.00     0.045 A 
HETATM    9  C   UNL     1      -6.175  -1.353 -33.485  1.00  0.00     0.026 A 
HETATM   10  C   UNL     1      -4.530  -0.783 -31.763  1.00  0.00     0.030 A 
HETATM   11  C   UNL     1      -5.255  -2.237 -34.092  1.00  0.00     0.087 A 
HETATM   12  C   UNL     1      -7.518  -0.967 -33.778  1.00  0.00     0.052 A 
HETATM   13  C   UNL     1      -3.995  -2.404 -33.497  1.00  0.00     0.038 A 
HETATM   14  C   UNL     1      -3.639  -1.680 -32.358  1.00  0.00     0.005 A 
BRANCH  11  15
HETATM   15  O   UNL     1      -5.668  -2.926 -35.202  1.00  0.00    -0.289 OA
BRANCH  15  16
HETATM   16  C   UNL     1      -6.065  -4.263 -34.940  1.00  0.00     0.505 C 
HETATM   17  F   UNL     1      -7.248  -4.245 -34.277  1.00  0.00    -0.184 F 
HETATM   18  F   UNL     1      -6.301  -4.851 -36.141  1.00  0.00    -0.184 F 
ENDBRANCH  15  16
ENDBRANCH  11  15
ENDBRANCH   2   5
BRANCH   1  19
HETATM   19  C   UNL     1     -11.388   1.092 -33.729  1.00  0.00     0.035 A 
HETATM   20  C   UNL     1     -11.612   2.457 -33.926  1.00  0.00     0.044 A 
HETATM   21  C   UNL     1     -12.907   2.968 -34.051  1.00  0.00     0.010 A 
HETATM   22  C   UNL     1     -13.999   2.103 -33.922  1.00  0.00     0.015 A 
HETATM   23  C   UNL     1     -13.787   0.743 -33.690  1.00  0.00     0.003 A 
HETATM   24  C   UNL     1     -12.488   0.240 -33.597  1.00  0.00     0.029 A 
BRANCH  21  25
HETATM   25  C   UNL     1     -13.143   4.441 -34.305  1.00  0.00     0.117 A 
HETATM   26  N   UNL     1     -13.407   5.464 -33.452  1.00  0.00    -0.346 N 
HETATM   27  C   UNL     1     -13.404   5.417 -31.988  1.00  0.00     0.157 C 
HETATM   28  C   UNL     1     -13.620   6.637 -34.169  1.00  0.00     0.109 A 
HETATM   29  C   UNL     1     -13.425   6.344 -35.481  1.00  0.00     0.107 A 
HETATM   30  N   UNL     1     -13.116   5.012 -35.527  1.00  0.00    -0.350 N 
HETATM   31  H   UNL     1     -12.948   4.490 -36.381  1.00  0.00     0.166 HD
ENDBRANCH  21  25
ENDBRANCH   1  19
TORSDOF 5
ENDMDL
MODEL 5
REMARK VINA RESULT:      -8.7      2.631      3.126
REMARK  5 active torsions:
REMARK  status: ('A' for Active; 'I' for Inactive)
REMARK    1  A    between atoms: C_3  and  C_4 
REMARK    2  A    between atoms: C_6  and  N_7 
REMARK       I    between atoms: N_7  and  C_8 
REMARK    3  A    between atoms: C_8  and  C_9 
REMARK    4  A    between atoms: C_14  and  O_15 
REMARK    5  A    between atoms: O_15  and  C_16 
ROOT
HETATM    1  N   UNL     1      -6.058   1.393 -31.049  1.00  0.00    -0.322 N 
HETATM    2  C   UNL     1      -5.356   1.279 -32.237  1.00  0.00     0.272 C 
HETATM    3  O   UNL     1      -5.085   2.220 -32.979  1.00  0.00    -0.266 OA
HETATM    4  H   UNL     1      -6.310   0.526 -30.592  1.00  0.00     0.169 HD
ENDROOT
BRANCH   2   5
HETATM    5  C   UNL     1      -4.976  -0.075 -32.588  1.00  0.00     0.102 A 
HETATM    6  N   UNL     1      -4.026  -0.762 -31.860  1.00  0.00    -0.351 N 
HETATM    7  H   UNL     1      -3.550  -0.377 -31.054  1.00  0.00     0.166 HD
HETATM    8  C   UNL     1      -3.823  -2.024 -32.365  1.00  0.00     0.045 A 
HETATM    9  C   UNL     1      -4.676  -2.169 -33.456  1.00  0.00     0.026 A 
HETATM   10  C   UNL     1      -2.963  -3.038 -31.937  1.00  0.00     0.030 A 
HETATM   11  C   UNL     1      -4.677  -3.385 -34.174  1.00  0.00     0.087 A 
HETATM   12  C   UNL     1      -5.395  -0.942 -33.584  1.00  0.00     0.052 A 
HETATM   13  C   UNL     1      -3.841  -4.423 -33.735  1.00  0.00     0.038 A 
HETATM   14  C   UNL     1      -2.993  -4.246 -32.641  1.00  0.00     0.005 A 
BRANCH  11  15
HETATM   15  O   UNL     1      -5.540  -3.502 -35.232  1.00  0.00    -0.289 OA
BRANCH  15  16
HETATM   16  C   UNL     1      -6.569  -4.460 -35.038  1.00  0.00     0.505 C 
HETATM   17  F   UNL     1      -7.440  -3.984 -34.114  1.00  0.00    -0.184 F 
HETATM   18  F   UNL     1      -7.254  -4.551 -36.207  1.00  0.00    -0.184 F 
ENDBRANCH  15  16
ENDBRANCH  11  15
ENDBRANCH   2   5
BRANCH   1  19
HETATM   19  C   UNL     1      -6.553   2.575 -30.459  1.00  0.00     0.035 A 
HETATM   20  C   UNL     1      -5.767   3.443 -29.697  1.00  0.00     0.044 A 
HETATM   21  C   UNL     1      -6.292   4.630 -29.178  1.00  0.00     0.010 A 
HETATM   22  C   UNL     1      -7.645   4.925 -29.380  1.00  0.00     0.015 A 
HETATM   23  C   UNL     1      -8.448   4.048 -30.111  1.00  0.00     0.003 A 
HETATM   24  C   UNL     1      -7.904   2.880 -30.649  1.00  0.00     0.029 A 
BRANCH  21  25
HETATM   25  C   UNL     1      -5.427   5.587 -28.388  1.00  0.00     0.117 A 
HETATM   26  N   UNL     1      -4.780   6.722 -28.759  1.00  0.00    -0.346 N 
HETATM   27  C   UNL     1      -4.867   7.406 -30.052  1.00  0.00     0.157 C 
HETATM   28  C   UNL     1      -4.046   7.222 -27.688  1.00  0.00     0.109 A 
HETATM   29  C   UNL     1      -4.293   6.414 -26.624  1.00  0.00     0.107 A 
HETATM   30  N   UNL     1      -5.150   5.448 -27.075  1.00  0.00    -0.350 N 
HETATM   31  H   UNL     1      -5.490   4.675 -26.514  1.00  0.00     0.166 HD
ENDBRANCH  21  25
ENDBRANCH   1  19
TORSDOF 5
ENDMDL
MODEL 6
REMARK VINA RESULT:      -8.6      2.457      3.073
REMARK  5 active torsions:
REMARK  status: ('A' for Active; 'I' for Inactive)
REMARK    1  A    between atoms: C_3  and  C_4 
REMARK    2  A    between atoms: C_6  and  N_7 
REMARK       I    between atoms: N_7  and  C_8 
REMARK    3  A    between atoms: C_8  and  C_9 
REMARK    4  A    between atoms: C_14  and  O_15 
REMARK    5  A    between atoms: O_15  and  C_16 
ROOT
HETATM    1  N   UNL     1      -3.185   3.306 -32.888  1.00  0.00    -0.322 N 
HETATM    2  C   UNL     1      -3.358   2.164 -32.124  1.00  0.00     0.272 C 
HETATM    3  O   UNL     1      -2.777   1.939 -31.065  1.00  0.00    -0.266 OA
HETATM    4  H   UNL     1      -3.639   3.314 -33.792  1.00  0.00     0.169 HD
ENDROOT
BRANCH   2   5
HETATM    5  C   UNL     1      -4.276   1.193 -32.687  1.00  0.00     0.102 A 
HETATM    6  N   UNL     1      -3.845  -0.064 -33.060  1.00  0.00    -0.351 N 
HETATM    7  H   UNL     1      -2.889  -0.382 -32.963  1.00  0.00     0.166 HD
HETATM    8  C   UNL     1      -4.877  -0.817 -33.566  1.00  0.00     0.045 A 
HETATM    9  C   UNL     1      -6.022  -0.028 -33.514  1.00  0.00     0.026 A 
HETATM   10  C   UNL     1      -4.882  -2.127 -34.053  1.00  0.00     0.030 A 
HETATM   11  C   UNL     1      -7.247  -0.559 -33.977  1.00  0.00     0.087 A 
HETATM   12  C   UNL     1      -5.634   1.228 -32.960  1.00  0.00     0.052 A 
HETATM   13  C   UNL     1      -7.272  -1.884 -34.438  1.00  0.00     0.038 A 
HETATM   14  C   UNL     1      -6.106  -2.648 -34.483  1.00  0.00     0.005 A 
BRANCH  11  15
HETATM   15  O   UNL     1      -8.359   0.238 -33.897  1.00  0.00    -0.289 OA
BRANCH  15  16
HETATM   16  C   UNL     1      -9.244  -0.105 -32.841  1.00  0.00     0.505 C 
HETATM   17  F   UNL     1      -8.931   0.640 -31.751  1.00  0.00    -0.184 F 
HETATM   18  F   UNL     1     -10.489   0.274 -33.225  1.00  0.00    -0.184 F 
ENDBRANCH  15  16
ENDBRANCH  11  15
ENDBRANCH   2   5
BRANCH   1  19
HETATM   19  C   UNL     1      -2.361   4.413 -32.596  1.00  0.00     0.035 A 
HETATM   20  C   UNL     1      -2.054   4.821 -31.295  1.00  0.00     0.044 A 
HETATM   21  C   UNL     1      -1.189   5.893 -31.057  1.00  0.00     0.010 A 
HETATM   22  C   UNL     1      -0.665   6.603 -32.143  1.00  0.00     0.015 A 
HETATM   23  C   UNL     1      -0.992   6.225 -33.446  1.00  0.00     0.003 A 
HETATM   24  C   UNL     1      -1.834   5.134 -33.671  1.00  0.00     0.029 A 
BRANCH  21  25
HETATM   25  C   UNL     1      -0.827   6.306 -29.648  1.00  0.00     0.117 A 
HETATM   26  N   UNL     1      -1.140   7.419 -28.934  1.00  0.00    -0.346 N 
HETATM   27  C   UNL     1      -2.056   8.492 -29.327  1.00  0.00     0.157 C 
HETATM   28  C   UNL     1      -0.511   7.379 -27.693  1.00  0.00     0.109 A 
HETATM   29  C   UNL     1       0.151   6.195 -27.619  1.00  0.00     0.107 A 
HETATM   30  N   UNL     1      -0.079   5.560 -28.809  1.00  0.00    -0.350 N 
HETATM   31  H   UNL     1       0.316   4.662 -29.066  1.00  0.00     0.166 HD
ENDBRANCH  21  25
ENDBRANCH   1  19
TORSDOF 5
ENDMDL
MODEL 7
REMARK VINA RESULT:      -8.3      6.663      8.778
REMARK  5 active torsions:
REMARK  status: ('A' for Active; 'I' for Inactive)
REMARK    1  A    between atoms: C_3  and  C_4 
REMARK    2  A    between atoms: C_6  and  N_7 
REMARK       I    between atoms: N_7  and  C_8 
REMARK    3  A    between atoms: C_8  and  C_9 
REMARK    4  A    between atoms: C_14  and  O_15 
REMARK    5  A    between atoms: O_15  and  C_16 
ROOT
HETATM    1  N   UNL     1      -9.417   1.303 -34.276  1.00  0.00    -0.322 N 
HETATM    2  C   UNL     1      -8.532   1.088 -33.233  1.00  0.00     0.272 C 
HETATM    3  O   UNL     1      -8.533   1.715 -32.176  1.00  0.00    -0.266 OA
HETATM    4  H   UNL     1      -9.234   0.794 -35.130  1.00  0.00     0.169 HD
ENDROOT
BRANCH   2   5
HETATM    5  C   UNL     1      -7.539   0.061 -33.484  1.00  0.00     0.102 A 
HETATM    6  N   UNL     1      -7.884  -1.139 -34.071  1.00  0.00    -0.351 N 
HETATM    7  H   UNL     1      -8.825  -1.372 -34.360  1.00  0.00     0.166 HD
HETATM    8  C   UNL     1      -6.791  -1.959 -34.214  1.00  0.00     0.045 A 
HETATM    9  C   UNL     1      -5.693  -1.268 -33.711  1.00  0.00     0.026 A 
HETATM   10  C   UNL     1      -6.694  -3.244 -34.754  1.00  0.00     0.030 A 
HETATM   11  C   UNL     1      -4.421  -1.883 -33.734  1.00  0.00     0.087 A 
HETATM   12  C   UNL     1      -6.173  -0.002 -33.258  1.00  0.00     0.052 A 
HETATM   13  C   UNL     1      -4.305  -3.160 -34.303  1.00  0.00     0.038 A 
HETATM   14  C   UNL     1      -5.426  -3.830 -34.794  1.00  0.00     0.005 A 
BRANCH  11  15
HETATM   15  O   UNL     1      -3.358  -1.169 -33.247  1.00  0.00    -0.289 OA
BRANCH  15  16
HETATM   16  C   UNL     1      -3.007  -1.492 -31.910  1.00  0.00     0.505 C 
HETATM   17  F   UNL     1      -3.701  -0.685 -31.069  1.00  0.00    -0.184 F 
HETATM   18  F   UNL     1      -3.439  -2.758 -31.679  1.00  0.00    -0.184 F 
ENDBRANCH  15  16
ENDBRANCH  11  15
ENDBRANCH   2   5
BRANCH   1  19
HETATM   19  C   UNL     1     -10.479   2.229 -34.317  1.00  0.00     0.035 A 
HETATM   20  C   UNL     1     -11.733   1.990 -33.748  1.00  0.00     0.044 A 
HETATM   21  C   UNL     1     -12.737   2.962 -33.769  1.00  0.00     0.010 A 
HETATM   22  C   UNL     1     -12.498   4.177 -34.420  1.00  0.00     0.015 A 
HETATM   23  C   UNL     1     -11.262   4.414 -35.022  1.00  0.00     0.003 A 
HETATM   24  C   UNL     1     -10.256   3.446 -34.968  1.00  0.00     0.029 A 
BRANCH  21  25
HETATM   25  C   UNL     1     -14.079   2.713 -33.116  1.00  0.00     0.117 A 
HETATM   26  N   UNL     1     -15.041   1.790 -33.375  1.00  0.00    -0.346 N 
HETATM   27  C   UNL     1     -14.962   0.671 -34.316  1.00  0.00     0.157 C 
HETATM   28  C   UNL     1     -16.139   2.004 -32.546  1.00  0.00     0.109 A 
HETATM   29  C   UNL     1     -15.822   3.037 -31.723  1.00  0.00     0.107 A 
HETATM   30  N   UNL     1     -14.559   3.428 -32.079  1.00  0.00    -0.350 N 
HETATM   31  H   UNL     1     -14.061   4.206 -31.661  1.00  0.00     0.166 HD
ENDBRANCH  21  25
ENDBRANCH   1  19
TORSDOF 5
ENDMDL
MODEL 8
REMARK VINA RESULT:      -8.1      4.352      9.717
REMARK  5 active torsions:
REMARK  status: ('A' for Active; 'I' for Inactive)
REMARK    1  A    between atoms: C_3  and  C_4 
REMARK    2  A    between atoms: C_6  and  N_7 
REMARK       I    between atoms: N_7  and  C_8 
REMARK    3  A    between atoms: C_8  and  C_9 
REMARK    4  A    between atoms: C_14  and  O_15 
REMARK    5  A    between atoms: O_15  and  C_16 
ROOT
HETATM    1  N   UNL     1      -5.278   2.169 -33.245  1.00  0.00    -0.322 N 
HETATM    2  C   UNL     1      -4.677   2.547 -32.056  1.00  0.00     0.272 C 
HETATM    3  O   UNL     1      -4.845   1.981 -30.979  1.00  0.00    -0.266 OA
HETATM    4  H   UNL     1      -5.141   2.788 -34.033  1.00  0.00     0.169 HD
ENDROOT
BRANCH   2   5
HETATM    5  C   UNL     1      -3.830   3.720 -32.153  1.00  0.00     0.102 A 
HETATM    6  N   UNL     1      -3.705   4.416 -33.338  1.00  0.00    -0.351 N 
HETATM    7  H   UNL     1      -4.186   4.162 -34.191  1.00  0.00     0.166 HD
HETATM    8  C   UNL     1      -2.857   5.489 -33.203  1.00  0.00     0.045 A 
HETATM    9  C   UNL     1      -2.420   5.499 -31.882  1.00  0.00     0.026 A 
HETATM   10  C   UNL     1      -2.457   6.445 -34.140  1.00  0.00     0.030 A 
HETATM   11  C   UNL     1      -1.527   6.509 -31.458  1.00  0.00     0.087 A 
HETATM   12  C   UNL     1      -3.037   4.387 -31.233  1.00  0.00     0.052 A 
HETATM   13  C   UNL     1      -1.142   7.493 -32.381  1.00  0.00     0.038 A 
HETATM   14  C   UNL     1      -1.594   7.453 -33.701  1.00  0.00     0.005 A 
BRANCH  11  15
HETATM   15  O   UNL     1      -1.128   6.500 -30.147  1.00  0.00    -0.289 OA
BRANCH  15  16
HETATM   16  C   UNL     1       0.247   6.204 -29.961  1.00  0.00     0.505 C 
HETATM   17  F   UNL     1       0.680   5.463 -31.011  1.00  0.00    -0.184 F 
HETATM   18  F   UNL     1       0.919   7.382 -30.013  1.00  0.00    -0.184 F 
ENDBRANCH  15  16
ENDBRANCH  11  15
ENDBRANCH   2   5
BRANCH   1  19
HETATM   19  C   UNL     1      -6.146   1.077 -33.454  1.00  0.00     0.035 A 
HETATM   20  C   UNL     1      -5.706  -0.198 -33.817  1.00  0.00     0.044 A 
HETATM   21  C   UNL     1      -6.602  -1.261 -33.960  1.00  0.00     0.010 A 
HETATM   22  C   UNL     1      -7.971  -1.029 -33.789  1.00  0.00     0.015 A 
HETATM   23  C   UNL     1      -8.425   0.249 -33.460  1.00  0.00     0.003 A 
HETATM   24  C   UNL     1      -7.517   1.296 -33.290  1.00  0.00     0.029 A 
BRANCH  21  25
HETATM   25  C   UNL     1      -6.116  -2.649 -34.314  1.00  0.00     0.117 A 
HETATM   26  N   UNL     1      -4.946  -3.283 -34.043  1.00  0.00    -0.346 N 
HETATM   27  C   UNL     1      -3.858  -2.802 -33.189  1.00  0.00     0.157 C 
HETATM   28  C   UNL     1      -4.935  -4.538 -34.645  1.00  0.00     0.109 A 
HETATM   29  C   UNL     1      -6.142  -4.703 -35.246  1.00  0.00     0.107 A 
HETATM   30  N   UNL     1      -6.841  -3.550 -35.008  1.00  0.00    -0.350 N 
HETATM   31  H   UNL     1      -7.772  -3.360 -35.363  1.00  0.00     0.166 HD
ENDBRANCH  21  25
ENDBRANCH   1  19
TORSDOF 5
ENDMDL
MODEL 9
REMARK VINA RESULT:      -8.0      2.579      3.599
REMARK  5 active torsions:
REMARK  status: ('A' for Active; 'I' for Inactive)
REMARK    1  A    between atoms: C_3  and  C_4 
REMARK    2  A    between atoms: C_6  and  N_7 
REMARK       I    between atoms: N_7  and  C_8 
REMARK    3  A    between atoms: C_8  and  C_9 
REMARK    4  A    between atoms: C_14  and  O_15 
REMARK    5  A    between atoms: O_15  and  C_16 
ROOT
HETATM    1  N   UNL     1      -3.653   4.328 -32.348  1.00  0.00    -0.322 N 
HETATM    2  C   UNL     1      -3.666   3.030 -31.866  1.00  0.00     0.272 C 
HETATM    3  O   UNL     1      -2.727   2.495 -31.280  1.00  0.00    -0.266 OA
HETATM    4  H   UNL     1      -4.448   4.606 -32.908  1.00  0.00     0.169 HD
ENDROOT
BRANCH   2   5
HETATM    5  C   UNL     1      -4.887   2.296 -32.135  1.00  0.00     0.102 A 
HETATM    6  N   UNL     1      -6.124   2.890 -31.988  1.00  0.00    -0.351 N 
HETATM    7  H   UNL     1      -6.255   3.850 -31.696  1.00  0.00     0.166 HD
HETATM    8  C   UNL     1      -7.138   2.016 -32.295  1.00  0.00     0.045 A 
HETATM    9  C   UNL     1      -6.543   0.812 -32.663  1.00  0.00     0.026 A 
HETATM   10  C   UNL     1      -8.523   2.202 -32.283  1.00  0.00     0.030 A 
HETATM   11  C   UNL     1      -7.362  -0.277 -33.035  1.00  0.00     0.087 A 
HETATM   12  C   UNL     1      -5.132   1.001 -32.561  1.00  0.00     0.052 A 
HETATM   13  C   UNL     1      -8.753  -0.093 -33.057  1.00  0.00     0.038 A 
HETATM   14  C   UNL     1      -9.320   1.124 -32.678  1.00  0.00     0.005 A 
BRANCH  11  15
HETATM   15  O   UNL     1      -6.745  -1.442 -33.408  1.00  0.00    -0.289 OA
BRANCH  15  16
HETATM   16  C   UNL     1      -6.888  -1.761 -34.783  1.00  0.00     0.505 C 
HETATM   17  F   UNL     1      -6.575  -0.666 -35.520  1.00  0.00    -0.184 F 
HETATM   18  F   UNL     1      -5.956  -2.704 -35.073  1.00  0.00    -0.184 F 
ENDBRANCH  15  16
ENDBRANCH  11  15
ENDBRANCH   2   5
BRANCH   1  19
HETATM   19  C   UNL     1      -2.610   5.271 -32.237  1.00  0.00     0.035 A 
HETATM   20  C   UNL     1      -2.014   5.620 -31.023  1.00  0.00     0.044 A 
HETATM   21  C   UNL     1      -0.946   6.521 -30.971  1.00  0.00     0.010 A 
HETATM   22  C   UNL     1      -0.504   7.125 -32.153  1.00  0.00     0.015 A 
HETATM   23  C   UNL     1      -1.115   6.809 -33.368  1.00  0.00     0.003 A 
HETATM   24  C   UNL     1      -2.161   5.885 -33.410  1.00  0.00     0.029 A 
BRANCH  21  25
HETATM   25  C   UNL     1      -0.278   6.865 -29.659  1.00  0.00     0.117 A 
HETATM   26  N   UNL     1       0.520   6.129 -28.842  1.00  0.00    -0.346 N 
HETATM   27  C   UNL     1       1.062   4.794 -29.105  1.00  0.00     0.157 C 
HETATM   28  C   UNL     1       0.837   6.861 -27.701  1.00  0.00     0.109 A 
HETATM   29  C   UNL     1       0.273   8.089 -27.847  1.00  0.00     0.107 A 
HETATM   30  N   UNL     1      -0.375   8.065 -29.052  1.00  0.00    -0.350 N 
HETATM   31  H   UNL     1      -0.923   8.834 -29.424  1.00  0.00     0.166 HD
ENDBRANCH  21  25
ENDBRANCH   1  19
TORSDOF 5
ENDMDL
MODEL 10
REMARK VINA RESULT:      -8.0      6.631      8.651
REMARK  5 active torsions:
REMARK  status: ('A' for Active; 'I' for Inactive)
REMARK    1  A    between atoms: C_3  and  C_4 
REMARK    2  A    between atoms: C_6  and  N_7 
REMARK       I    between atoms: N_7  and  C_8 
REMARK    3  A    between atoms: C_8  and  C_9 
REMARK    4  A    between atoms: C_14  and  O_15 
REMARK    5  A    between atoms: O_15  and  C_16 
ROOT
HETATM    1  N   UNL     1     -10.055   0.520 -33.527  1.00  0.00    -0.322 N 
HETATM    2  C   UNL     1      -9.146   0.737 -32.506  1.00  0.00     0.272 C 
HETATM    3  O   UNL     1      -9.340   1.482 -31.548  1.00  0.00    -0.266 OA
HETATM    4  H   UNL     1      -9.726  -0.029 -34.311  1.00  0.00     0.169 HD
ENDROOT
BRANCH   2   5
HETATM    5  C   UNL     1      -7.887   0.035 -32.656  1.00  0.00     0.102 A 
HETATM    6  N   UNL     1      -7.677  -0.841 -33.702  1.00  0.00    -0.351 N 
HETATM    7  H   UNL     1      -8.368  -1.041 -34.414  1.00  0.00     0.166 HD
HETATM    8  C   UNL     1      -6.420  -1.391 -33.650  1.00  0.00     0.045 A 
HETATM    9  C   UNL     1      -5.783  -0.850 -32.537  1.00  0.00     0.026 A 
HETATM   10  C   UNL     1      -5.803  -2.312 -34.502  1.00  0.00     0.030 A 
HETATM   11  C   UNL     1      -4.459  -1.245 -32.240  1.00  0.00     0.087 A 
HETATM   12  C   UNL     1      -6.711   0.044 -31.923  1.00  0.00     0.052 A 
HETATM   13  C   UNL     1      -3.817  -2.143 -33.105  1.00  0.00     0.038 A 
HETATM   14  C   UNL     1      -4.485  -2.673 -34.211  1.00  0.00     0.005 A 
BRANCH  11  15
HETATM   15  O   UNL     1      -3.854  -0.681 -31.147  1.00  0.00    -0.289 OA
BRANCH  15  16
HETATM   16  C   UNL     1      -3.151   0.520 -31.427  1.00  0.00     0.505 C 
HETATM   17  F   UNL     1      -3.192   0.747 -32.764  1.00  0.00    -0.184 F 
HETATM   18  F   UNL     1      -3.840   1.531 -30.840  1.00  0.00    -0.184 F 
ENDBRANCH  15  16
ENDBRANCH  11  15
ENDBRANCH   2   5
BRANCH   1  19
HETATM   19  C   UNL     1     -11.350   1.064 -33.649  1.00  0.00     0.035 A 
HETATM   20  C   UNL     1     -11.601   2.433 -33.780  1.00  0.00     0.044 A 
HETATM   21  C   UNL     1     -12.899   2.919 -33.952  1.00  0.00     0.010 A 
HETATM   22  C   UNL     1     -13.973   2.022 -33.937  1.00  0.00     0.015 A 
HETATM   23  C   UNL     1     -13.737   0.656 -33.773  1.00  0.00     0.003 A 
HETATM   24  C   UNL     1     -12.432   0.180 -33.632  1.00  0.00     0.029 A 
BRANCH  21  25
HETATM   25  C   UNL     1     -13.162   4.398 -34.134  1.00  0.00     0.117 A 
HETATM   26  N   UNL     1     -13.317   5.396 -33.226  1.00  0.00    -0.346 N 
HETATM   27  C   UNL     1     -13.135   5.308 -31.776  1.00  0.00     0.157 C 
HETATM   28  C   UNL     1     -13.614   6.589 -33.879  1.00  0.00     0.109 A 
HETATM   29  C   UNL     1     -13.581   6.333 -35.213  1.00  0.00     0.107 A 
HETATM   30  N   UNL     1     -13.283   5.003 -35.333  1.00  0.00    -0.350 N 
HETATM   31  H   UNL     1     -13.222   4.506 -36.215  1.00  0.00     0.166 HD
ENDBRANCH  21  25
ENDBRANCH   1  19
TORSDOF 5
ENDMDL
