MODEL 1
REMARK VINA RESULT:      -8.3      0.000      0.000
REMARK  3 active torsions:
REMARK  status: ('A' for Active; 'I' for Inactive)
REMARK    1  A    between atoms: C_9  and  C_10 
REMARK       I    between atoms: C_10  and  N_11 
REMARK    2  A    between atoms: N_11  and  C_12 
REMARK    3  A    between atoms: C_12  and  C_13 
ROOT
HETATM    1  C   UNL     1      -5.974   1.002 -32.473  1.00  0.00     0.258 C 
HETATM    2  N   UNL     1      -5.303   2.042 -33.071  1.00  0.00    -0.342 N 
HETATM    3  O   UNL     1      -6.432   1.056 -31.338  1.00  0.00    -0.267 OA
HETATM    4  H   UNL     1      -5.107   1.917 -34.065  1.00  0.00     0.164 HD
ENDROOT
BRANCH   1   5
HETATM    5  C   UNL     1      -6.103  -0.194 -33.291  1.00  0.00     0.105 A 
HETATM    6  C   UNL     1      -5.347  -1.351 -33.225  1.00  0.00     0.169 A 
HETATM    7  N   UNL     1      -4.304  -1.706 -32.408  1.00  0.00    -0.233 NA
HETATM    8  N   UNL     1      -5.825  -2.195 -34.234  1.00  0.00    -0.219 N 
HETATM    9  C   UNL     1      -3.766  -2.871 -32.629  1.00  0.00     0.035 A 
HETATM   10  C   UNL     1      -2.600  -3.302 -31.774  1.00  0.00     0.070 C 
HETATM   11  C   UNL     1      -4.209  -3.836 -33.684  1.00  0.00     0.053 A 
HETATM   12  C   UNL     1      -5.241  -3.451 -34.454  1.00  0.00     0.036 A 
HETATM   13  C   UNL     1      -5.799  -4.304 -35.552  1.00  0.00     0.070 C 
HETATM   14  N   UNL     1      -6.856  -1.631 -34.907  1.00  0.00    -0.170 NA
HETATM   15  C   UNL     1      -7.016  -0.425 -34.352  1.00  0.00     0.071 A 
HETATM   16  C   UNL     1      -8.070   0.489 -34.862  1.00  0.00     0.073 C 
ENDBRANCH   1   5
BRANCH   2  17
HETATM   17  C   UNL     1      -5.226   3.410 -32.542  1.00  0.00     0.079 C 
HETATM   18  C   UNL     1      -6.626   4.051 -32.604  1.00  0.00     0.046 C 
HETATM   19  C   UNL     1      -4.719   3.469 -31.085  1.00  0.00     0.046 C 
BRANCH  17  20
HETATM   20  C   UNL     1      -4.257   4.193 -33.428  1.00  0.00     0.128 A 
HETATM   21  S   UNL     1      -2.556   4.215 -33.117  1.00  0.00    -0.031 SA
HETATM   22  C   UNL     1      -2.392   5.291 -34.441  1.00  0.00     0.187 A 
HETATM   23  N   UNL     1      -1.198   5.813 -34.783  1.00  0.00    -0.377 N 
HETATM   24  N   UNL     1      -3.523   5.559 -35.050  1.00  0.00    -0.124 NA
HETATM   25  H   UNL     1      -0.479   5.850 -34.069  1.00  0.00     0.158 HD
HETATM   26  H   UNL     1      -1.235   6.637 -35.373  1.00  0.00     0.158 HD
HETATM   27  N   UNL     1      -4.602   4.926 -34.469  1.00  0.00    -0.142 NA
ENDBRANCH  17  20
ENDBRANCH   2  17
TORSDOF 3
ENDMDL
MODEL 2
REMARK VINA RESULT:      -7.7      2.846      4.183
REMARK  3 active torsions:
REMARK  status: ('A' for Active; 'I' for Inactive)
REMARK    1  A    between atoms: C_9  and  C_10 
REMARK       I    between atoms: C_10  and  N_11 
REMARK    2  A    between atoms: N_11  and  C_12 
REMARK    3  A    between atoms: C_12  and  C_13 
ROOT
HETATM    1  C   UNL     1      -4.204   4.304 -32.095  1.00  0.00     0.258 C 
HETATM    2  N   UNL     1      -3.298   4.939 -32.912  1.00  0.00    -0.342 N 
HETATM    3  O   UNL     1      -4.333   4.557 -30.903  1.00  0.00    -0.267 OA
HETATM    4  H   UNL     1      -3.398   4.740 -33.907  1.00  0.00     0.164 HD
ENDROOT
BRANCH   1   5
HETATM    5  C   UNL     1      -5.012   3.289 -32.752  1.00  0.00     0.105 A 
HETATM    6  C   UNL     1      -4.796   1.923 -32.782  1.00  0.00     0.169 A 
HETATM    7  N   UNL     1      -3.807   1.150 -32.228  1.00  0.00    -0.233 NA
HETATM    8  N   UNL     1      -5.820   1.376 -33.564  1.00  0.00    -0.219 N 
HETATM    9  C   UNL     1      -3.860  -0.127 -32.479  1.00  0.00     0.035 A 
HETATM   10  C   UNL     1      -2.785  -1.020 -31.913  1.00  0.00     0.070 C 
HETATM   11  C   UNL     1      -4.915  -0.797 -33.304  1.00  0.00     0.053 A 
HETATM   12  C   UNL     1      -5.869  -0.002 -33.818  1.00  0.00     0.036 A 
HETATM   13  C   UNL     1      -6.990  -0.522 -34.665  1.00  0.00     0.070 C 
HETATM   14  N   UNL     1      -6.676   2.330 -33.999  1.00  0.00    -0.170 NA
HETATM   15  C   UNL     1      -6.187   3.480 -33.525  1.00  0.00     0.071 A 
HETATM   16  C   UNL     1      -6.880   4.759 -33.827  1.00  0.00     0.073 C 
ENDBRANCH   1   5
BRANCH   2  17
HETATM   17  C   UNL     1      -2.524   6.132 -32.544  1.00  0.00     0.079 C 
HETATM   18  C   UNL     1      -1.814   6.675 -33.799  1.00  0.00     0.046 C 
HETATM   19  C   UNL     1      -3.392   7.256 -31.941  1.00  0.00     0.046 C 
BRANCH  17  20
HETATM   20  C   UNL     1      -1.487   5.705 -31.505  1.00  0.00     0.128 A 
HETATM   21  S   UNL     1      -1.352   6.501 -29.976  1.00  0.00    -0.031 SA
HETATM   22  C   UNL     1      -0.025   5.472 -29.629  1.00  0.00     0.187 A 
HETATM   23  N   UNL     1       0.674   5.583 -28.482  1.00  0.00    -0.377 N 
HETATM   24  N   UNL     1       0.240   4.609 -30.580  1.00  0.00    -0.124 NA
HETATM   25  H   UNL     1       0.644   6.473 -27.998  1.00  0.00     0.158 HD
HETATM   26  H   UNL     1       1.589   5.147 -28.486  1.00  0.00     0.158 HD
HETATM   27  N   UNL     1      -0.603   4.739 -31.665  1.00  0.00    -0.142 NA
ENDBRANCH  17  20
ENDBRANCH   2  17
TORSDOF 3
ENDMDL
MODEL 3
REMARK VINA RESULT:      -7.7      1.658      2.258
REMARK  3 active torsions:
REMARK  status: ('A' for Active; 'I' for Inactive)
REMARK    1  A    between atoms: C_9  and  C_10 
REMARK       I    between atoms: C_10  and  N_11 
REMARK    2  A    between atoms: N_11  and  C_12 
REMARK    3  A    between atoms: C_12  and  C_13 
ROOT
HETATM    1  C   UNL     1      -6.016   0.935 -32.457  1.00  0.00     0.258 C 
HETATM    2  N   UNL     1      -4.800   1.572 -32.532  1.00  0.00    -0.342 N 
HETATM    3  O   UNL     1      -6.939   1.320 -31.750  1.00  0.00    -0.267 OA
HETATM    4  H   UNL     1      -4.178   1.236 -33.267  1.00  0.00     0.164 HD
ENDROOT
BRANCH   1   5
HETATM    5  C   UNL     1      -6.135  -0.253 -33.288  1.00  0.00     0.105 A 
HETATM    6  C   UNL     1      -5.373  -1.406 -33.231  1.00  0.00     0.169 A 
HETATM    7  N   UNL     1      -4.331  -1.763 -32.413  1.00  0.00    -0.233 NA
HETATM    8  N   UNL     1      -5.843  -2.243 -34.250  1.00  0.00    -0.219 N 
HETATM    9  C   UNL     1      -3.786  -2.923 -32.643  1.00  0.00     0.035 A 
HETATM   10  C   UNL     1      -2.621  -3.356 -31.788  1.00  0.00     0.070 C 
HETATM   11  C   UNL     1      -4.220  -3.880 -33.709  1.00  0.00     0.053 A 
HETATM   12  C   UNL     1      -5.251  -3.493 -34.480  1.00  0.00     0.036 A 
HETATM   13  C   UNL     1      -5.799  -4.339 -35.588  1.00  0.00     0.070 C 
HETATM   14  N   UNL     1      -6.874  -1.679 -34.921  1.00  0.00    -0.170 NA
HETATM   15  C   UNL     1      -7.044  -0.479 -34.355  1.00  0.00     0.071 A 
HETATM   16  C   UNL     1      -8.101   0.434 -34.860  1.00  0.00     0.073 C 
ENDBRANCH   1   5
BRANCH   2  17
HETATM   17  C   UNL     1      -4.505   2.894 -31.961  1.00  0.00     0.079 C 
HETATM   18  C   UNL     1      -4.765   2.853 -30.443  1.00  0.00     0.046 C 
HETATM   19  C   UNL     1      -3.049   3.347 -32.202  1.00  0.00     0.046 C 
BRANCH  17  20
HETATM   20  C   UNL     1      -5.446   3.901 -32.622  1.00  0.00     0.128 A 
HETATM   21  S   UNL     1      -6.464   4.942 -31.689  1.00  0.00    -0.031 SA
HETATM   22  C   UNL     1      -7.097   5.541 -33.166  1.00  0.00     0.187 A 
HETATM   23  N   UNL     1      -8.083   6.458 -33.190  1.00  0.00    -0.377 N 
HETATM   24  N   UNL     1      -6.550   5.008 -34.233  1.00  0.00    -0.124 NA
HETATM   25  H   UNL     1      -8.677   6.532 -32.372  1.00  0.00     0.158 HD
HETATM   26  H   UNL     1      -8.582   6.539 -34.069  1.00  0.00     0.158 HD
HETATM   27  N   UNL     1      -5.595   4.062 -33.923  1.00  0.00    -0.142 NA
ENDBRANCH  17  20
ENDBRANCH   2  17
TORSDOF 3
ENDMDL
MODEL 4
REMARK VINA RESULT:      -7.7      3.676      7.103
REMARK  3 active torsions:
REMARK  status: ('A' for Active; 'I' for Inactive)
REMARK    1  A    between atoms: C_9  and  C_10 
REMARK       I    between atoms: C_10  and  N_11 
REMARK    2  A    between atoms: N_11  and  C_12 
REMARK    3  A    between atoms: C_12  and  C_13 
ROOT
HETATM    1  C   UNL     1      -8.067   1.559 -32.451  1.00  0.00     0.258 C 
HETATM    2  N   UNL     1      -7.190   0.769 -33.156  1.00  0.00    -0.342 N 
HETATM    3  O   UNL     1      -8.071   1.641 -31.229  1.00  0.00    -0.267 OA
HETATM    4  H   UNL     1      -7.197   0.908 -34.167  1.00  0.00     0.164 HD
ENDROOT
BRANCH   1   5
HETATM    5  C   UNL     1      -9.010   2.305 -33.269  1.00  0.00     0.105 A 
HETATM    6  C   UNL     1     -10.296   1.938 -33.626  1.00  0.00     0.169 A 
HETATM    7  N   UNL     1     -11.034   0.821 -33.330  1.00  0.00    -0.233 NA
HETATM    8  N   UNL     1     -10.788   2.963 -34.444  1.00  0.00    -0.219 N 
HETATM    9  C   UNL     1     -12.220   0.752 -33.864  1.00  0.00     0.035 A 
HETATM   10  C   UNL     1     -13.066  -0.466 -33.590  1.00  0.00     0.070 C 
HETATM   11  C   UNL     1     -12.826   1.796 -34.749  1.00  0.00     0.053 A 
HETATM   12  C   UNL     1     -12.070   2.879 -35.004  1.00  0.00     0.036 A 
HETATM   13  C   UNL     1     -12.535   4.007 -35.872  1.00  0.00     0.070 C 
HETATM   14  N   UNL     1      -9.883   3.959 -34.592  1.00  0.00    -0.170 NA
HETATM   15  C   UNL     1      -8.810   3.561 -33.899  1.00  0.00     0.071 A 
HETATM   16  C   UNL     1      -7.600   4.420 -33.854  1.00  0.00     0.073 C 
ENDBRANCH   1   5
BRANCH   2  17
HETATM   17  C   UNL     1      -6.019   0.091 -32.583  1.00  0.00     0.079 C 
HETATM   18  C   UNL     1      -4.819   1.058 -32.606  1.00  0.00     0.046 C 
HETATM   19  C   UNL     1      -6.244  -0.384 -31.132  1.00  0.00     0.046 C 
BRANCH  17  20
HETATM   20  C   UNL     1      -5.721  -1.128 -33.456  1.00  0.00     0.128 A 
HETATM   21  S   UNL     1      -6.984  -2.041 -34.204  1.00  0.00    -0.031 SA
HETATM   22  C   UNL     1      -5.776  -3.098 -34.807  1.00  0.00     0.187 A 
HETATM   23  N   UNL     1      -6.091  -4.193 -35.526  1.00  0.00    -0.377 N 
HETATM   24  N   UNL     1      -4.554  -2.749 -34.481  1.00  0.00    -0.124 NA
HETATM   25  H   UNL     1      -7.023  -4.575 -35.417  1.00  0.00     0.158 HD
HETATM   26  H   UNL     1      -5.363  -4.896 -35.592  1.00  0.00     0.158 HD
HETATM   27  N   UNL     1      -4.518  -1.611 -33.702  1.00  0.00    -0.142 NA
ENDBRANCH  17  20
ENDBRANCH   2  17
TORSDOF 3
ENDMDL
MODEL 5
REMARK VINA RESULT:      -7.6      1.182      1.253
REMARK  3 active torsions:
REMARK  status: ('A' for Active; 'I' for Inactive)
REMARK    1  A    between atoms: C_9  and  C_10 
REMARK       I    between atoms: C_10  and  N_11 
REMARK    2  A    between atoms: N_11  and  C_12 
REMARK    3  A    between atoms: C_12  and  C_13 
ROOT
HETATM    1  C   UNL     1      -6.903   2.103 -32.578  1.00  0.00     0.258 C 
HETATM    2  N   UNL     1      -5.840   2.920 -32.884  1.00  0.00    -0.342 N 
HETATM    3  O   UNL     1      -7.817   2.432 -31.832  1.00  0.00    -0.267 OA
HETATM    4  H   UNL     1      -5.232   2.581 -33.629  1.00  0.00     0.164 HD
ENDROOT
BRANCH   1   5
HETATM    5  C   UNL     1      -6.867   0.793 -33.209  1.00  0.00     0.105 A 
HETATM    6  C   UNL     1      -5.860  -0.154 -33.138  1.00  0.00     0.169 A 
HETATM    7  N   UNL     1      -4.656  -0.148 -32.482  1.00  0.00    -0.233 NA
HETATM    8  N   UNL     1      -6.270  -1.228 -33.936  1.00  0.00    -0.219 N 
HETATM    9  C   UNL     1      -3.898  -1.194 -32.651  1.00  0.00     0.035 A 
HETATM   10  C   UNL     1      -2.553  -1.229 -31.971  1.00  0.00     0.070 C 
HETATM   11  C   UNL     1      -4.253  -2.385 -33.486  1.00  0.00     0.053 A 
HETATM   12  C   UNL     1      -5.448  -2.352 -34.102  1.00  0.00     0.036 A 
HETATM   13  C   UNL     1      -5.944  -3.466 -34.971  1.00  0.00     0.070 C 
HETATM   14  N   UNL     1      -7.491  -1.008 -34.479  1.00  0.00    -0.170 NA
HETATM   15  C   UNL     1      -7.845   0.209 -34.055  1.00  0.00     0.071 A 
HETATM   16  C   UNL     1      -9.146   0.789 -34.478  1.00  0.00     0.073 C 
ENDBRANCH   1   5
BRANCH   2  17
HETATM   17  C   UNL     1      -5.752   4.348 -32.548  1.00  0.00     0.079 C 
HETATM   18  C   UNL     1      -7.049   5.050 -32.995  1.00  0.00     0.046 C 
HETATM   19  C   UNL     1      -5.546   4.604 -31.039  1.00  0.00     0.046 C 
BRANCH  17  20
HETATM   20  C   UNL     1      -4.559   4.927 -33.308  1.00  0.00     0.128 A 
HETATM   21  S   UNL     1      -3.033   5.193 -32.540  1.00  0.00    -0.031 SA
HETATM   22  C   UNL     1      -2.474   5.852 -34.021  1.00  0.00     0.187 A 
HETATM   23  N   UNL     1      -1.232   6.360 -34.143  1.00  0.00    -0.377 N 
HETATM   24  N   UNL     1      -3.366   5.829 -34.982  1.00  0.00    -0.124 NA
HETATM   25  H   UNL     1      -0.764   6.667 -33.297  1.00  0.00     0.158 HD
HETATM   26  H   UNL     1      -1.088   6.972 -34.938  1.00  0.00     0.158 HD
HETATM   27  N   UNL     1      -4.571   5.295 -34.575  1.00  0.00    -0.142 NA
ENDBRANCH  17  20
ENDBRANCH   2  17
TORSDOF 3
ENDMDL
MODEL 6
REMARK VINA RESULT:      -7.5      3.847      6.503
REMARK  3 active torsions:
REMARK  status: ('A' for Active; 'I' for Inactive)
REMARK    1  A    between atoms: C_9  and  C_10 
REMARK       I    between atoms: C_10  and  N_11 
REMARK    2  A    between atoms: N_11  and  C_12 
REMARK    3  A    between atoms: C_12  and  C_13 
ROOT
HETATM    1  C   UNL     1      -7.659   2.943 -33.517  1.00  0.00     0.258 C 
HETATM    2  N   UNL     1      -8.794   2.181 -33.372  1.00  0.00    -0.342 N 
HETATM    3  O   UNL     1      -7.666   4.092 -33.944  1.00  0.00    -0.267 OA
HETATM    4  H   UNL     1      -8.666   1.303 -32.869  1.00  0.00     0.164 HD
ENDROOT
BRANCH   1   5
HETATM    5  C   UNL     1      -6.425   2.281 -33.126  1.00  0.00     0.105 A 
HETATM    6  C   UNL     1      -6.069   0.960 -33.336  1.00  0.00     0.169 A 
HETATM    7  N   UNL     1      -6.736  -0.071 -33.947  1.00  0.00    -0.233 NA
HETATM    8  N   UNL     1      -4.809   0.792 -32.752  1.00  0.00    -0.219 N 
HETATM    9  C   UNL     1      -6.140  -1.229 -33.945  1.00  0.00     0.035 A 
HETATM   10  C   UNL     1      -6.838  -2.402 -34.584  1.00  0.00     0.070 C 
HETATM   11  C   UNL     1      -4.796  -1.501 -33.344  1.00  0.00     0.053 A 
HETATM   12  C   UNL     1      -4.175  -0.459 -32.765  1.00  0.00     0.036 A 
HETATM   13  C   UNL     1      -2.828  -0.573 -32.119  1.00  0.00     0.070 C 
HETATM   14  N   UNL     1      -4.351   1.946 -32.212  1.00  0.00    -0.170 NA
HETATM   15  C   UNL     1      -5.325   2.838 -32.424  1.00  0.00     0.071 A 
HETATM   16  C   UNL     1      -5.165   4.234 -31.941  1.00  0.00     0.073 C 
ENDBRANCH   1   5
BRANCH   2  17
HETATM   17  C   UNL     1     -10.169   2.685 -33.495  1.00  0.00     0.079 C 
HETATM   18  C   UNL     1     -10.472   3.610 -32.300  1.00  0.00     0.046 C 
HETATM   19  C   UNL     1     -10.412   3.470 -34.802  1.00  0.00     0.046 C 
BRANCH  17  20
HETATM   20  C   UNL     1     -11.106   1.478 -33.469  1.00  0.00     0.128 A 
HETATM   21  S   UNL     1     -12.785   1.622 -33.855  1.00  0.00    -0.031 SA
HETATM   22  C   UNL     1     -12.946  -0.047 -33.497  1.00  0.00     0.187 A 
HETATM   23  N   UNL     1     -14.140  -0.669 -33.551  1.00  0.00    -0.377 N 
HETATM   24  N   UNL     1     -11.820  -0.627 -33.154  1.00  0.00    -0.124 NA
HETATM   25  H   UNL     1     -14.972  -0.098 -33.461  1.00  0.00     0.158 HD
HETATM   26  H   UNL     1     -14.193  -1.554 -33.059  1.00  0.00     0.158 HD
HETATM   27  N   UNL     1     -10.755   0.250 -33.137  1.00  0.00    -0.142 NA
ENDBRANCH  17  20
ENDBRANCH   2  17
TORSDOF 3
ENDMDL
MODEL 7
REMARK VINA RESULT:      -7.5      2.006      3.821
REMARK  3 active torsions:
REMARK  status: ('A' for Active; 'I' for Inactive)
REMARK    1  A    between atoms: C_9  and  C_10 
REMARK       I    between atoms: C_10  and  N_11 
REMARK    2  A    between atoms: N_11  and  C_12 
REMARK    3  A    between atoms: C_12  and  C_13 
ROOT
HETATM    1  C   UNL     1      -3.873   1.631 -32.044  1.00  0.00     0.258 C 
HETATM    2  N   UNL     1      -3.199   2.483 -32.886  1.00  0.00    -0.342 N 
HETATM    3  O   UNL     1      -4.266   1.952 -30.930  1.00  0.00    -0.267 OA
HETATM    4  H   UNL     1      -3.062   2.137 -33.836  1.00  0.00     0.164 HD
ENDROOT
BRANCH   1   5
HETATM    5  C   UNL     1      -4.088   0.293 -32.574  1.00  0.00     0.105 A 
HETATM    6  C   UNL     1      -5.132  -0.144 -33.371  1.00  0.00     0.169 A 
HETATM    7  N   UNL     1      -6.222   0.517 -33.879  1.00  0.00    -0.233 NA
HETATM    8  N   UNL     1      -4.918  -1.509 -33.590  1.00  0.00    -0.219 N 
HETATM    9  C   UNL     1      -7.062  -0.198 -34.570  1.00  0.00     0.035 A 
HETATM   10  C   UNL     1      -8.289   0.474 -35.133  1.00  0.00     0.070 C 
HETATM   11  C   UNL     1      -6.916  -1.660 -34.854  1.00  0.00     0.053 A 
HETATM   12  C   UNL     1      -5.828  -2.264 -34.345  1.00  0.00     0.036 A 
HETATM   13  C   UNL     1      -5.542  -3.722 -34.540  1.00  0.00     0.070 C 
HETATM   14  N   UNL     1      -3.782  -1.937 -32.993  1.00  0.00    -0.170 NA
HETATM   15  C   UNL     1      -3.288  -0.861 -32.371  1.00  0.00     0.071 A 
HETATM   16  C   UNL     1      -2.031  -0.971 -31.588  1.00  0.00     0.073 C 
ENDBRANCH   1   5
BRANCH   2  17
HETATM   17  C   UNL     1      -3.045   3.929 -32.674  1.00  0.00     0.079 C 
HETATM   18  C   UNL     1      -2.360   4.166 -31.314  1.00  0.00     0.046 C 
HETATM   19  C   UNL     1      -2.209   4.618 -33.775  1.00  0.00     0.046 C 
BRANCH  17  20
HETATM   20  C   UNL     1      -4.443   4.545 -32.665  1.00  0.00     0.128 A 
HETATM   21  S   UNL     1      -5.492   4.437 -34.036  1.00  0.00    -0.031 SA
HETATM   22  C   UNL     1      -6.626   5.382 -33.163  1.00  0.00     0.187 A 
HETATM   23  N   UNL     1      -7.797   5.763 -33.710  1.00  0.00    -0.377 N 
HETATM   24  N   UNL     1      -6.231   5.702 -31.954  1.00  0.00    -0.124 NA
HETATM   25  H   UNL     1      -7.856   5.792 -34.721  1.00  0.00     0.158 HD
HETATM   26  H   UNL     1      -8.263   6.536 -33.248  1.00  0.00     0.158 HD
HETATM   27  N   UNL     1      -4.971   5.219 -31.662  1.00  0.00    -0.142 NA
ENDBRANCH  17  20
ENDBRANCH   2  17
TORSDOF 3
ENDMDL
MODEL 8
REMARK VINA RESULT:      -7.3      5.647      7.718
REMARK  3 active torsions:
REMARK  status: ('A' for Active; 'I' for Inactive)
REMARK    1  A    between atoms: C_9  and  C_10 
REMARK       I    between atoms: C_10  and  N_11 
REMARK    2  A    between atoms: N_11  and  C_12 
REMARK    3  A    between atoms: C_12  and  C_13 
ROOT
HETATM    1  C   UNL     1     -10.369   1.956 -33.402  1.00  0.00     0.258 C 
HETATM    2  N   UNL     1     -11.488   1.201 -33.142  1.00  0.00    -0.342 N 
HETATM    3  O   UNL     1     -10.264   2.700 -34.370  1.00  0.00    -0.267 OA
HETATM    4  H   UNL     1     -11.501   0.744 -32.230  1.00  0.00     0.164 HD
ENDROOT
BRANCH   1   5
HETATM    5  C   UNL     1      -9.293   1.809 -32.434  1.00  0.00     0.105 A 
HETATM    6  C   UNL     1      -8.232   0.921 -32.475  1.00  0.00     0.169 A 
HETATM    7  N   UNL     1      -7.888  -0.036 -33.396  1.00  0.00    -0.233 NA
HETATM    8  N   UNL     1      -7.490   1.137 -31.309  1.00  0.00    -0.219 N 
HETATM    9  C   UNL     1      -6.834  -0.751 -33.121  1.00  0.00     0.035 A 
HETATM   10  C   UNL     1      -6.423  -1.832 -34.088  1.00  0.00     0.070 C 
HETATM   11  C   UNL     1      -5.983  -0.592 -31.900  1.00  0.00     0.053 A 
HETATM   12  C   UNL     1      -6.352   0.365 -31.031  1.00  0.00     0.036 A 
HETATM   13  C   UNL     1      -5.604   0.644 -29.764  1.00  0.00     0.070 C 
HETATM   14  N   UNL     1      -8.021   2.130 -30.557  1.00  0.00    -0.170 NA
HETATM   15  C   UNL     1      -9.110   2.526 -31.223  1.00  0.00     0.071 A 
HETATM   16  C   UNL     1      -9.961   3.611 -30.670  1.00  0.00     0.073 C 
ENDBRANCH   1   5
BRANCH   2  17
HETATM   17  C   UNL     1     -12.773   1.331 -33.842  1.00  0.00     0.079 C 
HETATM   18  C   UNL     1     -12.505   1.594 -35.337  1.00  0.00     0.046 C 
HETATM   19  C   UNL     1     -13.663   0.076 -33.712  1.00  0.00     0.046 C 
BRANCH  17  20
HETATM   20  C   UNL     1     -13.512   2.520 -33.230  1.00  0.00     0.128 A 
HETATM   21  S   UNL     1     -14.970   2.315 -32.322  1.00  0.00    -0.031 SA
HETATM   22  C   UNL     1     -15.039   4.021 -32.168  1.00  0.00     0.187 A 
HETATM   23  N   UNL     1     -16.062   4.632 -31.540  1.00  0.00    -0.377 N 
HETATM   24  N   UNL     1     -14.032   4.646 -32.732  1.00  0.00    -0.124 NA
HETATM   25  H   UNL     1     -16.939   4.129 -31.469  1.00  0.00     0.158 HD
HETATM   26  H   UNL     1     -16.170   5.620 -31.741  1.00  0.00     0.158 HD
HETATM   27  N   UNL     1     -13.148   3.783 -33.345  1.00  0.00    -0.142 NA
ENDBRANCH  17  20
ENDBRANCH   2  17
TORSDOF 3
ENDMDL
MODEL 9
REMARK VINA RESULT:      -7.3      2.499      7.204
REMARK  3 active torsions:
REMARK  status: ('A' for Active; 'I' for Inactive)
REMARK    1  A    between atoms: C_9  and  C_10 
REMARK       I    between atoms: C_10  and  N_11 
REMARK    2  A    between atoms: N_11  and  C_12 
REMARK    3  A    between atoms: C_12  and  C_13 
ROOT
HETATM    1  C   UNL     1      -6.156   2.780 -33.110  1.00  0.00     0.258 C 
HETATM    2  N   UNL     1      -5.732   1.473 -33.067  1.00  0.00    -0.342 N 
HETATM    3  O   UNL     1      -7.085   3.167 -33.808  1.00  0.00    -0.267 OA
HETATM    4  H   UNL     1      -5.052   1.262 -32.336  1.00  0.00     0.164 HD
ENDROOT
BRANCH   1   5
HETATM    5  C   UNL     1      -5.411   3.693 -32.256  1.00  0.00     0.105 A 
HETATM    6  C   UNL     1      -4.251   4.383 -32.563  1.00  0.00     0.169 A 
HETATM    7  N   UNL     1      -3.494   4.417 -33.706  1.00  0.00    -0.233 NA
HETATM    8  N   UNL     1      -3.901   5.100 -31.413  1.00  0.00    -0.219 N 
HETATM    9  C   UNL     1      -2.415   5.146 -33.664  1.00  0.00     0.035 A 
HETATM   10  C   UNL     1      -1.533   5.202 -34.886  1.00  0.00     0.070 C 
HETATM   11  C   UNL     1      -1.962   5.942 -32.481  1.00  0.00     0.053 A 
HETATM   12  C   UNL     1      -2.741   5.887 -31.386  1.00  0.00     0.036 A 
HETATM   13  C   UNL     1      -2.421   6.627 -30.123  1.00  0.00     0.070 C 
HETATM   14  N   UNL     1      -4.797   4.910 -30.416  1.00  0.00    -0.170 NA
HETATM   15  C   UNL     1      -5.697   4.056 -30.915  1.00  0.00     0.071 A 
HETATM   16  C   UNL     1      -6.836   3.609 -30.073  1.00  0.00     0.073 C 
ENDBRANCH   1   5
BRANCH   2  17
HETATM   17  C   UNL     1      -6.445   0.336 -33.665  1.00  0.00     0.079 C 
HETATM   18  C   UNL     1      -7.703   0.036 -32.827  1.00  0.00     0.046 C 
HETATM   19  C   UNL     1      -6.873   0.590 -35.126  1.00  0.00     0.046 C 
BRANCH  17  20
HETATM   20  C   UNL     1      -5.501  -0.866 -33.635  1.00  0.00     0.128 A 
HETATM   21  S   UNL     1      -5.789  -2.272 -34.599  1.00  0.00    -0.031 SA
HETATM   22  C   UNL     1      -4.400  -2.973 -33.878  1.00  0.00     0.187 A 
HETATM   23  N   UNL     1      -4.014  -4.231 -34.167  1.00  0.00    -0.377 N 
HETATM   24  N   UNL     1      -3.791  -2.185 -33.024  1.00  0.00    -0.124 NA
HETATM   25  H   UNL     1      -4.715  -4.867 -34.528  1.00  0.00     0.158 HD
HETATM   26  H   UNL     1      -3.376  -4.655 -33.503  1.00  0.00     0.158 HD
HETATM   27  N   UNL     1      -4.422  -0.967 -32.882  1.00  0.00    -0.142 NA
ENDBRANCH  17  20
ENDBRANCH   2  17
TORSDOF 3
ENDMDL
MODEL 10
REMARK VINA RESULT:      -7.3      3.313      7.219
REMARK  3 active torsions:
REMARK  status: ('A' for Active; 'I' for Inactive)
REMARK    1  A    between atoms: C_9  and  C_10 
REMARK       I    between atoms: C_10  and  N_11 
REMARK    2  A    between atoms: N_11  and  C_12 
REMARK    3  A    between atoms: C_12  and  C_13 
ROOT
HETATM    1  C   UNL     1      -6.140   1.566 -32.150  1.00  0.00     0.258 C 
HETATM    2  N   UNL     1      -6.342   1.329 -33.489  1.00  0.00    -0.342 N 
HETATM    3  O   UNL     1      -6.918   1.205 -31.275  1.00  0.00    -0.267 OA
HETATM    4  H   UNL     1      -5.549   1.550 -34.093  1.00  0.00     0.164 HD
ENDROOT
BRANCH   1   5
HETATM    5  C   UNL     1      -4.919   2.291 -31.834  1.00  0.00     0.105 A 
HETATM    6  C   UNL     1      -4.740   3.662 -31.777  1.00  0.00     0.169 A 
HETATM    7  N   UNL     1      -5.613   4.699 -31.984  1.00  0.00    -0.233 NA
HETATM    8  N   UNL     1      -3.391   3.873 -31.470  1.00  0.00    -0.219 N 
HETATM    9  C   UNL     1      -5.118   5.900 -31.896  1.00  0.00     0.035 A 
HETATM   10  C   UNL     1      -6.029   7.078 -32.137  1.00  0.00     0.070 C 
HETATM   11  C   UNL     1      -3.690   6.219 -31.575  1.00  0.00     0.053 A 
HETATM   12  C   UNL     1      -2.873   5.172 -31.369  1.00  0.00     0.036 A 
HETATM   13  C   UNL     1      -1.420   5.328 -31.041  1.00  0.00     0.070 C 
HETATM   14  N   UNL     1      -2.728   2.703 -31.309  1.00  0.00    -0.170 NA
HETATM   15  C   UNL     1      -3.640   1.752 -31.540  1.00  0.00     0.071 A 
HETATM   16  C   UNL     1      -3.251   0.321 -31.463  1.00  0.00     0.073 C 
ENDBRANCH   1   5
BRANCH   2  17
HETATM   17  C   UNL     1      -7.377   0.445 -34.042  1.00  0.00     0.079 C 
HETATM   18  C   UNL     1      -7.111   0.242 -35.546  1.00  0.00     0.046 C 
HETATM   19  C   UNL     1      -7.421  -0.938 -33.357  1.00  0.00     0.046 C 
BRANCH  17  20
HETATM   20  C   UNL     1      -8.726   1.134 -33.841  1.00  0.00     0.128 A 
HETATM   21  S   UNL     1     -10.036   0.347 -33.031  1.00  0.00    -0.031 SA
HETATM   22  C   UNL     1     -10.988   1.736 -33.357  1.00  0.00     0.187 A 
HETATM   23  N   UNL     1     -12.286   1.800 -33.004  1.00  0.00    -0.377 N 
HETATM   24  N   UNL     1     -10.340   2.687 -33.987  1.00  0.00    -0.124 NA
HETATM   25  H   UNL     1     -12.781   0.926 -32.868  1.00  0.00     0.158 HD
HETATM   26  H   UNL     1     -12.831   2.513 -33.477  1.00  0.00     0.158 HD
HETATM   27  N   UNL     1      -9.033   2.344 -34.267  1.00  0.00    -0.142 NA
ENDBRANCH  17  20
ENDBRANCH   2  17
TORSDOF 3
ENDMDL
