MODEL 1
REMARK VINA RESULT:      -8.6      0.000      0.000
REMARK  3 active torsions:
REMARK  status: ('A' for Active; 'I' for Inactive)
REMARK    1  A    between atoms: C_5  and  N_6 
REMARK       I    between atoms: N_6  and  C_7 
REMARK    2  A    between atoms: C_7  and  C_8 
REMARK    3  A    between atoms: C_11  and  N_12 
ROOT
HETATM    1  C   UNL     1      -5.367  -3.939 -35.131  1.00  0.00     0.001 A 
HETATM    2  C   UNL     1      -4.450  -2.964 -34.735  1.00  0.00     0.008 A 
HETATM    3  C   UNL     1      -4.914  -1.867 -34.022  1.00  0.00    -0.043 A 
HETATM    4  C   UNL     1      -6.269  -1.727 -33.721  1.00  0.00    -0.028 A 
HETATM    5  C   UNL     1      -6.543  -0.481 -32.935  1.00  0.00     0.125 C 
HETATM    6  C   UNL     1      -5.170   0.246 -32.945  1.00  0.00     0.049 C 
HETATM    7  C   UNL     1      -4.101  -0.723 -33.504  1.00  0.00     0.053 C 
HETATM    8  C   UNL     1      -4.699   0.591 -31.541  1.00  0.00     0.239 C 
HETATM    9  N   UNL     1      -3.921  -0.615 -31.116  1.00  0.00    -0.074 N 
HETATM   10  H   UNL     1      -3.283  -0.399 -30.338  1.00  0.00     0.277 HD
HETATM   11  H   UNL     1      -4.559  -1.351 -30.780  1.00  0.00     0.277 HD
HETATM   12  C   UNL     1      -3.191  -1.085 -32.335  1.00  0.00     0.242 C 
HETATM   13  C   UNL     1      -7.183  -2.704 -34.097  1.00  0.00     0.010 A 
HETATM   14  C   UNL     1      -6.724  -3.812 -34.811  1.00  0.00     0.001 A 
ENDROOT
BRANCH   5  15
HETATM   15  N   UNL     1      -7.595   0.324 -33.510  1.00  0.00    -0.348 N 
HETATM   16  C   UNL     1      -8.696   0.659 -32.747  1.00  0.00     0.252 C 
HETATM   17  O   UNL     1      -8.739   0.408 -31.545  1.00  0.00    -0.268 OA
HETATM   18  H   UNL     1      -7.670   0.360 -34.519  1.00  0.00     0.163 HD
BRANCH  16  19
HETATM   19  C   UNL     1      -9.846   1.308 -33.439  1.00  0.00     0.032 A 
HETATM   20  C   UNL     1      -9.734   2.527 -34.114  1.00  0.00     0.019 A 
HETATM   21  C   UNL     1     -10.848   3.070 -34.767  1.00  0.00     0.024 A 
HETATM   22  C   UNL     1     -12.092   2.440 -34.711  1.00  0.00     0.005 A 
HETATM   23  C   UNL     1     -12.188   1.205 -34.068  1.00  0.00     0.024 A 
HETATM   24  C   UNL     1     -11.083   0.652 -33.414  1.00  0.00     0.019 A 
BRANCH  22  25
HETATM   25  N   UNL     1     -13.158   2.916 -35.480  1.00  0.00    -0.303 NA
HETATM   26  H   UNL     1     -12.916   3.670 -36.116  1.00  0.00     0.124 HD
HETATM   27  H   UNL     1     -13.999   3.121 -34.951  1.00  0.00     0.124 HD
ENDBRANCH  22  25
ENDBRANCH  16  19
ENDBRANCH   5  15
TORSDOF 3
ENDMDL
MODEL 2
REMARK VINA RESULT:      -8.3      2.958      6.714
REMARK  3 active torsions:
REMARK  status: ('A' for Active; 'I' for Inactive)
REMARK    1  A    between atoms: C_5  and  N_6 
REMARK       I    between atoms: N_6  and  C_7 
REMARK    2  A    between atoms: C_7  and  C_8 
REMARK    3  A    between atoms: C_11  and  N_12 
ROOT
HETATM    1  C   UNL     1      -2.781   4.598 -32.216  1.00  0.00     0.001 A 
HETATM    2  C   UNL     1      -3.845   4.986 -33.031  1.00  0.00     0.008 A 
HETATM    3  C   UNL     1      -4.867   4.075 -33.267  1.00  0.00    -0.043 A 
HETATM    4  C   UNL     1      -4.827   2.793 -32.718  1.00  0.00    -0.028 A 
HETATM    5  C   UNL     1      -6.035   1.987 -33.089  1.00  0.00     0.125 C 
HETATM    6  C   UNL     1      -6.761   2.899 -34.115  1.00  0.00     0.049 C 
HETATM    7  C   UNL     1      -6.090   4.293 -34.100  1.00  0.00     0.053 C 
HETATM    8  C   UNL     1      -8.209   3.150 -33.728  1.00  0.00     0.239 C 
HETATM    9  N   UNL     1      -8.145   4.374 -32.869  1.00  0.00    -0.074 N 
HETATM   10  H   UNL     1      -9.061   4.841 -32.806  1.00  0.00     0.277 HD
HETATM   11  H   UNL     1      -7.876   4.121 -31.907  1.00  0.00     0.277 HD
HETATM   12  C   UNL     1      -7.101   5.254 -33.481  1.00  0.00     0.242 C 
HETATM   13  C   UNL     1      -3.779   2.408 -31.891  1.00  0.00     0.010 A 
HETATM   14  C   UNL     1      -2.749   3.319 -31.647  1.00  0.00     0.001 A 
ENDROOT
BRANCH   5  15
HETATM   15  N   UNL     1      -5.699   0.696 -33.642  1.00  0.00    -0.348 N 
HETATM   16  C   UNL     1      -6.572  -0.363 -33.489  1.00  0.00     0.252 C 
HETATM   17  O   UNL     1      -7.693  -0.201 -33.015  1.00  0.00    -0.268 OA
HETATM   18  H   UNL     1      -4.725   0.503 -33.843  1.00  0.00     0.163 HD
BRANCH  16  19
HETATM   19  C   UNL     1      -6.094  -1.717 -33.889  1.00  0.00     0.032 A 
HETATM   20  C   UNL     1      -4.752  -2.102 -33.803  1.00  0.00     0.019 A 
HETATM   21  C   UNL     1      -4.372  -3.400 -34.170  1.00  0.00     0.024 A 
HETATM   22  C   UNL     1      -5.305  -4.307 -34.675  1.00  0.00     0.005 A 
HETATM   23  C   UNL     1      -6.648  -3.928 -34.722  1.00  0.00     0.024 A 
HETATM   24  C   UNL     1      -7.039  -2.636 -34.357  1.00  0.00     0.019 A 
BRANCH  22  25
HETATM   25  N   UNL     1      -4.942  -5.637 -34.904  1.00  0.00    -0.303 NA
HETATM   26  H   UNL     1      -4.098  -5.755 -35.457  1.00  0.00     0.124 HD
HETATM   27  H   UNL     1      -5.698  -6.228 -35.233  1.00  0.00     0.124 HD
ENDBRANCH  22  25
ENDBRANCH  16  19
ENDBRANCH   5  15
TORSDOF 3
ENDMDL
MODEL 3
REMARK VINA RESULT:      -7.9      2.978      6.535
REMARK  3 active torsions:
REMARK  status: ('A' for Active; 'I' for Inactive)
REMARK    1  A    between atoms: C_5  and  N_6 
REMARK       I    between atoms: N_6  and  C_7 
REMARK    2  A    between atoms: C_7  and  C_8 
REMARK    3  A    between atoms: C_11  and  N_12 
ROOT
HETATM    1  C   UNL     1      -9.172   2.786 -30.415  1.00  0.00     0.001 A 
HETATM    2  C   UNL     1      -7.925   3.384 -30.232  1.00  0.00     0.008 A 
HETATM    3  C   UNL     1      -6.911   3.096 -31.136  1.00  0.00    -0.043 A 
HETATM    4  C   UNL     1      -7.124   2.215 -32.197  1.00  0.00    -0.028 A 
HETATM    5  C   UNL     1      -5.903   2.064 -33.052  1.00  0.00     0.125 C 
HETATM    6  C   UNL     1      -4.821   2.847 -32.259  1.00  0.00     0.049 C 
HETATM    7  C   UNL     1      -5.515   3.633 -31.121  1.00  0.00     0.053 C 
HETATM    8  C   UNL     1      -4.141   3.903 -33.116  1.00  0.00     0.239 C 
HETATM    9  N   UNL     1      -4.989   5.121 -32.926  1.00  0.00    -0.074 N 
HETATM   10  H   UNL     1      -4.480   5.980 -33.176  1.00  0.00     0.277 HD
HETATM   11  H   UNL     1      -5.816   5.079 -33.539  1.00  0.00     0.277 HD
HETATM   12  C   UNL     1      -5.412   5.110 -31.491  1.00  0.00     0.242 C 
HETATM   13  C   UNL     1      -8.369   1.631 -32.394  1.00  0.00     0.010 A 
HETATM   14  C   UNL     1      -9.394   1.917 -31.491  1.00  0.00     0.001 A 
ENDROOT
BRANCH   5  15
HETATM   15  N   UNL     1      -5.536   0.683 -33.266  1.00  0.00    -0.348 N 
HETATM   16  C   UNL     1      -6.081  -0.015 -34.325  1.00  0.00     0.252 C 
HETATM   17  O   UNL     1      -6.765   0.549 -35.176  1.00  0.00    -0.268 OA
HETATM   18  H   UNL     1      -5.153   0.166 -32.484  1.00  0.00     0.163 HD
BRANCH  16  19
HETATM   19  C   UNL     1      -5.840  -1.485 -34.383  1.00  0.00     0.032 A 
HETATM   20  C   UNL     1      -6.821  -2.398 -34.782  1.00  0.00     0.019 A 
HETATM   21  C   UNL     1      -6.521  -3.766 -34.841  1.00  0.00     0.024 A 
HETATM   22  C   UNL     1      -5.268  -4.244 -34.454  1.00  0.00     0.005 A 
HETATM   23  C   UNL     1      -4.283  -3.324 -34.093  1.00  0.00     0.024 A 
HETATM   24  C   UNL     1      -4.570  -1.956 -34.033  1.00  0.00     0.019 A 
BRANCH  22  25
HETATM   25  N   UNL     1      -4.936  -5.588 -34.650  1.00  0.00    -0.303 NA
HETATM   26  H   UNL     1      -5.662  -6.245 -34.380  1.00  0.00     0.124 HD
HETATM   27  H   UNL     1      -4.027  -5.853 -34.284  1.00  0.00     0.124 HD
ENDBRANCH  22  25
ENDBRANCH  16  19
ENDBRANCH   5  15
TORSDOF 3
ENDMDL
MODEL 4
REMARK VINA RESULT:      -7.8      2.573      6.625
REMARK  3 active torsions:
REMARK  status: ('A' for Active; 'I' for Inactive)
REMARK    1  A    between atoms: C_5  and  N_6 
REMARK       I    between atoms: N_6  and  C_7 
REMARK    2  A    between atoms: C_7  and  C_8 
REMARK    3  A    between atoms: C_11  and  N_12 
ROOT
HETATM    1  C   UNL     1     -11.462   3.263 -33.396  1.00  0.00     0.001 A 
HETATM    2  C   UNL     1     -10.915   3.357 -32.115  1.00  0.00     0.008 A 
HETATM    3  C   UNL     1      -9.637   2.858 -31.901  1.00  0.00    -0.043 A 
HETATM    4  C   UNL     1      -8.917   2.258 -32.935  1.00  0.00    -0.028 A 
HETATM    5  C   UNL     1      -7.560   1.807 -32.485  1.00  0.00     0.125 C 
HETATM    6  C   UNL     1      -7.604   2.048 -30.951  1.00  0.00     0.049 C 
HETATM    7  C   UNL     1      -8.873   2.865 -30.615  1.00  0.00     0.053 C 
HETATM    8  C   UNL     1      -6.441   2.905 -30.477  1.00  0.00     0.239 C 
HETATM    9  N   UNL     1      -6.957   4.305 -30.589  1.00  0.00    -0.074 N 
HETATM   10  H   UNL     1      -6.412   4.957 -30.008  1.00  0.00     0.277 HD
HETATM   11  H   UNL     1      -6.877   4.639 -31.561  1.00  0.00     0.277 HD
HETATM   12  C   UNL     1      -8.396   4.249 -30.183  1.00  0.00     0.242 C 
HETATM   13  C   UNL     1      -9.450   2.179 -34.216  1.00  0.00     0.010 A 
HETATM   14  C   UNL     1     -10.732   2.681 -34.440  1.00  0.00     0.001 A 
ENDROOT
BRANCH   5  15
HETATM   15  N   UNL     1      -7.290   0.428 -32.818  1.00  0.00    -0.348 N 
HETATM   16  C   UNL     1      -6.016   0.051 -33.196  1.00  0.00     0.252 C 
HETATM   17  O   UNL     1      -5.072   0.833 -33.121  1.00  0.00    -0.268 OA
HETATM   18  H   UNL     1      -8.072  -0.162 -33.076  1.00  0.00     0.163 HD
BRANCH  16  19
HETATM   19  C   UNL     1      -5.832  -1.328 -33.729  1.00  0.00     0.032 A 
HETATM   20  C   UNL     1      -4.586  -1.961 -33.777  1.00  0.00     0.019 A 
HETATM   21  C   UNL     1      -4.485  -3.271 -34.266  1.00  0.00     0.024 A 
HETATM   22  C   UNL     1      -5.605  -3.942 -34.760  1.00  0.00     0.005 A 
HETATM   23  C   UNL     1      -6.851  -3.318 -34.674  1.00  0.00     0.024 A 
HETATM   24  C   UNL     1      -6.964  -2.013 -34.186  1.00  0.00     0.019 A 
BRANCH  22  25
HETATM   25  N   UNL     1      -5.518  -5.292 -35.113  1.00  0.00    -0.303 NA
HETATM   26  H   UNL     1      -5.268  -5.459 -36.083  1.00  0.00     0.124 HD
HETATM   27  H   UNL     1      -6.311  -5.854 -34.822  1.00  0.00     0.124 HD
ENDBRANCH  22  25
ENDBRANCH  16  19
ENDBRANCH   5  15
TORSDOF 3
ENDMDL
MODEL 5
REMARK VINA RESULT:      -7.6      1.615      7.415
REMARK  3 active torsions:
REMARK  status: ('A' for Active; 'I' for Inactive)
REMARK    1  A    between atoms: C_5  and  N_6 
REMARK       I    between atoms: N_6  and  C_7 
REMARK    2  A    between atoms: C_7  and  C_8 
REMARK    3  A    between atoms: C_11  and  N_12 
ROOT
HETATM    1  C   UNL     1      -9.367   5.499 -34.661  1.00  0.00     0.001 A 
HETATM    2  C   UNL     1     -10.517   4.824 -35.074  1.00  0.00     0.008 A 
HETATM    3  C   UNL     1     -10.691   3.505 -34.677  1.00  0.00    -0.043 A 
HETATM    4  C   UNL     1      -9.733   2.857 -33.897  1.00  0.00    -0.028 A 
HETATM    5  C   UNL     1     -10.133   1.449 -33.575  1.00  0.00     0.125 C 
HETATM    6  C   UNL     1     -11.413   1.245 -34.431  1.00  0.00     0.049 C 
HETATM    7  C   UNL     1     -11.847   2.614 -35.005  1.00  0.00     0.053 C 
HETATM    8  C   UNL     1     -12.589   0.774 -33.591  1.00  0.00     0.239 C 
HETATM    9  N   UNL     1     -13.240   2.043 -33.140  1.00  0.00    -0.074 N 
HETATM   10  H   UNL     1     -14.214   1.885 -32.845  1.00  0.00     0.277 HD
HETATM   11  H   UNL     1     -12.743   2.429 -32.324  1.00  0.00     0.277 HD
HETATM   12  C   UNL     1     -13.144   2.990 -34.295  1.00  0.00     0.242 C 
HETATM   13  C   UNL     1      -8.596   3.529 -33.468  1.00  0.00     0.010 A 
HETATM   14  C   UNL     1      -8.414   4.856 -33.860  1.00  0.00     0.001 A 
ENDROOT
BRANCH   5  15
HETATM   15  N   UNL     1      -9.102   0.488 -33.890  1.00  0.00    -0.348 N 
HETATM   16  C   UNL     1      -8.249   0.048 -32.897  1.00  0.00     0.252 C 
HETATM   17  O   UNL     1      -8.434   0.346 -31.720  1.00  0.00    -0.268 OA
HETATM   18  H   UNL     1      -8.815   0.397 -34.857  1.00  0.00     0.163 HD
BRANCH  16  19
HETATM   19  C   UNL     1      -7.076  -0.776 -33.307  1.00  0.00     0.032 A 
HETATM   20  C   UNL     1      -5.808  -0.626 -32.736  1.00  0.00     0.019 A 
HETATM   21  C   UNL     1      -4.754  -1.451 -33.147  1.00  0.00     0.024 A 
HETATM   22  C   UNL     1      -4.931  -2.392 -34.163  1.00  0.00     0.005 A 
HETATM   23  C   UNL     1      -6.207  -2.562 -34.701  1.00  0.00     0.024 A 
HETATM   24  C   UNL     1      -7.268  -1.746 -34.297  1.00  0.00     0.019 A 
BRANCH  22  25
HETATM   25  N   UNL     1      -3.913  -3.301 -34.466  1.00  0.00    -0.303 NA
HETATM   26  H   UNL     1      -3.518  -3.776 -33.660  1.00  0.00     0.124 HD
HETATM   27  H   UNL     1      -3.195  -2.937 -35.083  1.00  0.00     0.124 HD
ENDBRANCH  22  25
ENDBRANCH  16  19
ENDBRANCH   5  15
TORSDOF 3
ENDMDL
MODEL 6
REMARK VINA RESULT:      -7.6      3.763      6.830
REMARK  3 active torsions:
REMARK  status: ('A' for Active; 'I' for Inactive)
REMARK    1  A    between atoms: C_5  and  N_6 
REMARK       I    between atoms: N_6  and  C_7 
REMARK    2  A    between atoms: C_7  and  C_8 
REMARK    3  A    between atoms: C_11  and  N_12 
ROOT
HETATM    1  C   UNL     1      -2.710   5.825 -33.440  1.00  0.00     0.001 A 
HETATM    2  C   UNL     1      -3.881   6.058 -32.717  1.00  0.00     0.008 A 
HETATM    3  C   UNL     1      -4.519   4.979 -32.121  1.00  0.00    -0.043 A 
HETATM    4  C   UNL     1      -4.014   3.684 -32.252  1.00  0.00    -0.028 A 
HETATM    5  C   UNL     1      -4.850   2.681 -31.517  1.00  0.00     0.125 C 
HETATM    6  C   UNL     1      -6.072   3.518 -31.051  1.00  0.00     0.049 C 
HETATM    7  C   UNL     1      -5.772   5.014 -31.305  1.00  0.00     0.053 C 
HETATM    8  C   UNL     1      -6.299   3.407 -29.552  1.00  0.00     0.239 C 
HETATM    9  N   UNL     1      -5.474   4.516 -28.979  1.00  0.00    -0.074 N 
HETATM   10  H   UNL     1      -5.781   4.764 -28.028  1.00  0.00     0.277 HD
HETATM   11  H   UNL     1      -4.488   4.226 -28.905  1.00  0.00     0.277 HD
HETATM   12  C   UNL     1      -5.603   5.661 -29.933  1.00  0.00     0.242 C 
HETATM   13  C   UNL     1      -2.839   3.450 -32.955  1.00  0.00     0.010 A 
HETATM   14  C   UNL     1      -2.190   4.530 -33.555  1.00  0.00     0.001 A 
ENDROOT
BRANCH   5  15
HETATM   15  N   UNL     1      -5.235   1.560 -32.343  1.00  0.00    -0.348 N 
HETATM   16  C   UNL     1      -4.996   0.272 -31.905  1.00  0.00     0.252 C 
HETATM   17  O   UNL     1      -4.591   0.051 -30.767  1.00  0.00    -0.268 OA
HETATM   18  H   UNL     1      -5.372   1.723 -33.333  1.00  0.00     0.163 HD
BRANCH  16  19
HETATM   19  C   UNL     1      -5.215  -0.840 -32.873  1.00  0.00     0.032 A 
HETATM   20  C   UNL     1      -4.188  -1.691 -33.293  1.00  0.00     0.019 A 
HETATM   21  C   UNL     1      -4.466  -2.735 -34.185  1.00  0.00     0.024 A 
HETATM   22  C   UNL     1      -5.748  -2.911 -34.710  1.00  0.00     0.005 A 
HETATM   23  C   UNL     1      -6.775  -2.081 -34.257  1.00  0.00     0.024 A 
HETATM   24  C   UNL     1      -6.510  -1.037 -33.365  1.00  0.00     0.019 A 
BRANCH  22  25
HETATM   25  N   UNL     1      -6.043  -4.035 -35.486  1.00  0.00    -0.303 NA
HETATM   26  H   UNL     1      -6.944  -4.001 -35.953  1.00  0.00     0.124 HD
HETATM   27  H   UNL     1      -5.893  -4.922 -35.014  1.00  0.00     0.124 HD
ENDBRANCH  22  25
ENDBRANCH  16  19
ENDBRANCH   5  15
TORSDOF 3
ENDMDL
MODEL 7
REMARK VINA RESULT:      -7.6      1.893      3.599
REMARK  3 active torsions:
REMARK  status: ('A' for Active; 'I' for Inactive)
REMARK    1  A    between atoms: C_5  and  N_6 
REMARK       I    between atoms: N_6  and  C_7 
REMARK    2  A    between atoms: C_7  and  C_8 
REMARK    3  A    between atoms: C_11  and  N_12 
ROOT
HETATM    1  C   UNL     1      -5.096   3.057 -32.382  1.00  0.00     0.001 A 
HETATM    2  C   UNL     1      -5.172   1.702 -32.055  1.00  0.00     0.008 A 
HETATM    3  C   UNL     1      -5.965   0.874 -32.838  1.00  0.00    -0.043 A 
HETATM    4  C   UNL     1      -6.687   1.382 -33.918  1.00  0.00    -0.028 A 
HETATM    5  C   UNL     1      -7.460   0.312 -34.628  1.00  0.00     0.125 C 
HETATM    6  C   UNL     1      -7.260  -0.927 -33.714  1.00  0.00     0.049 C 
HETATM    7  C   UNL     1      -6.176  -0.597 -32.662  1.00  0.00     0.053 C 
HETATM    8  C   UNL     1      -6.717  -2.120 -34.484  1.00  0.00     0.239 C 
HETATM    9  N   UNL     1      -5.231  -1.963 -34.390  1.00  0.00    -0.074 N 
HETATM   10  H   UNL     1      -4.744  -2.851 -34.578  1.00  0.00     0.277 HD
HETATM   11  H   UNL     1      -4.899  -1.289 -35.094  1.00  0.00     0.277 HD
HETATM   12  C   UNL     1      -4.957  -1.446 -33.013  1.00  0.00     0.242 C 
HETATM   13  C   UNL     1      -6.601   2.726 -34.258  1.00  0.00     0.010 A 
HETATM   14  C   UNL     1      -5.804   3.565 -33.478  1.00  0.00     0.001 A 
ENDROOT
BRANCH   5  15
HETATM   15  N   UNL     1      -8.854   0.649 -34.801  1.00  0.00    -0.348 N 
HETATM   16  C   UNL     1      -9.684   0.713 -33.700  1.00  0.00     0.252 C 
HETATM   17  O   UNL     1      -9.238   0.630 -32.559  1.00  0.00    -0.268 OA
HETATM   18  H   UNL     1      -9.265   0.519 -35.718  1.00  0.00     0.163 HD
BRANCH  16  19
HETATM   19  C   UNL     1     -11.148   0.856 -33.944  1.00  0.00     0.032 A 
HETATM   20  C   UNL     1     -11.693   1.910 -34.685  1.00  0.00     0.019 A 
HETATM   21  C   UNL     1     -13.076   1.972 -34.901  1.00  0.00     0.024 A 
HETATM   22  C   UNL     1     -13.934   1.023 -34.342  1.00  0.00     0.005 A 
HETATM   23  C   UNL     1     -13.379  -0.047 -33.637  1.00  0.00     0.024 A 
HETATM   24  C   UNL     1     -12.001  -0.120 -33.416  1.00  0.00     0.019 A 
BRANCH  22  25
HETATM   25  N   UNL     1     -15.290   1.015 -34.679  1.00  0.00    -0.303 NA
HETATM   26  H   UNL     1     -15.480   1.160 -35.666  1.00  0.00     0.124 HD
HETATM   27  H   UNL     1     -15.873   1.599 -34.089  1.00  0.00     0.124 HD
ENDBRANCH  22  25
ENDBRANCH  16  19
ENDBRANCH   5  15
TORSDOF 3
ENDMDL
MODEL 8
REMARK VINA RESULT:      -7.5      2.254      4.148
REMARK  3 active torsions:
REMARK  status: ('A' for Active; 'I' for Inactive)
REMARK    1  A    between atoms: C_5  and  N_6 
REMARK       I    between atoms: N_6  and  C_7 
REMARK    2  A    between atoms: C_7  and  C_8 
REMARK    3  A    between atoms: C_11  and  N_12 
ROOT
HETATM    1  C   UNL     1      -6.337   1.826 -29.759  1.00  0.00     0.001 A 
HETATM    2  C   UNL     1      -6.081   0.636 -30.442  1.00  0.00     0.008 A 
HETATM    3  C   UNL     1      -6.811   0.359 -31.590  1.00  0.00    -0.043 A 
HETATM    4  C   UNL     1      -7.792   1.240 -32.047  1.00  0.00    -0.028 A 
HETATM    5  C   UNL     1      -8.441   0.750 -33.306  1.00  0.00     0.125 C 
HETATM    6  C   UNL     1      -7.844  -0.674 -33.475  1.00  0.00     0.049 C 
HETATM    7  C   UNL     1      -6.687  -0.849 -32.463  1.00  0.00     0.053 C 
HETATM    8  C   UNL     1      -7.208  -0.865 -34.843  1.00  0.00     0.239 C 
HETATM    9  N   UNL     1      -5.791  -0.426 -34.646  1.00  0.00    -0.074 N 
HETATM   10  H   UNL     1      -5.174  -0.800 -35.380  1.00  0.00     0.277 HD
HETATM   11  H   UNL     1      -5.725   0.601 -34.699  1.00  0.00     0.277 HD
HETATM   12  C   UNL     1      -5.399  -0.896 -33.281  1.00  0.00     0.242 C 
HETATM   13  C   UNL     1      -8.038   2.434 -31.381  1.00  0.00     0.010 A 
HETATM   14  C   UNL     1      -7.307   2.721 -30.228  1.00  0.00     0.001 A 
ENDROOT
BRANCH   5  15
HETATM   15  N   UNL     1      -9.883   0.735 -33.224  1.00  0.00    -0.348 N 
HETATM   16  C   UNL     1     -10.615   1.715 -33.865  1.00  0.00     0.252 C 
HETATM   17  O   UNL     1     -10.078   2.521 -34.621  1.00  0.00    -0.268 OA
HETATM   18  H   UNL     1     -10.311   0.222 -32.464  1.00  0.00     0.163 HD
BRANCH  16  19
HETATM   19  C   UNL     1     -12.077   1.783 -33.582  1.00  0.00     0.032 A 
HETATM   20  C   UNL     1     -12.696   2.924 -33.061  1.00  0.00     0.019 A 
HETATM   21  C   UNL     1     -14.079   2.932 -32.843  1.00  0.00     0.024 A 
HETATM   22  C   UNL     1     -14.852   1.795 -33.085  1.00  0.00     0.005 A 
HETATM   23  C   UNL     1     -14.234   0.673 -33.640  1.00  0.00     0.024 A 
HETATM   24  C   UNL     1     -12.854   0.654 -33.865  1.00  0.00     0.019 A 
BRANCH  22  25
HETATM   25  N   UNL     1     -16.245   1.858 -32.998  1.00  0.00    -0.303 NA
HETATM   26  H   UNL     1     -16.738   1.414 -33.767  1.00  0.00     0.124 HD
HETATM   27  H   UNL     1     -16.612   2.783 -32.796  1.00  0.00     0.124 HD
ENDBRANCH  22  25
ENDBRANCH  16  19
ENDBRANCH   5  15
TORSDOF 3
ENDMDL
MODEL 9
REMARK VINA RESULT:      -7.4      3.734      7.327
REMARK  3 active torsions:
REMARK  status: ('A' for Active; 'I' for Inactive)
REMARK    1  A    between atoms: C_5  and  N_6 
REMARK       I    between atoms: N_6  and  C_7 
REMARK    2  A    between atoms: C_7  and  C_8 
REMARK    3  A    between atoms: C_11  and  N_12 
ROOT
HETATM    1  C   UNL     1     -11.227   3.906 -35.196  1.00  0.00     0.001 A 
HETATM    2  C   UNL     1     -10.975   2.566 -34.901  1.00  0.00     0.008 A 
HETATM    3  C   UNL     1      -9.821   2.246 -34.199  1.00  0.00    -0.043 A 
HETATM    4  C   UNL     1      -8.919   3.237 -33.810  1.00  0.00    -0.028 A 
HETATM    5  C   UNL     1      -7.756   2.670 -33.053  1.00  0.00     0.125 C 
HETATM    6  C   UNL     1      -7.968   1.137 -33.185  1.00  0.00     0.049 C 
HETATM    7  C   UNL     1      -9.373   0.881 -33.781  1.00  0.00     0.053 C 
HETATM    8  C   UNL     1      -7.979   0.446 -31.831  1.00  0.00     0.239 C 
HETATM    9  N   UNL     1      -9.416   0.487 -31.417  1.00  0.00    -0.074 N 
HETATM   10  H   UNL     1      -9.622  -0.216 -30.693  1.00  0.00     0.277 HD
HETATM   11  H   UNL     1      -9.644   1.406 -31.010  1.00  0.00     0.277 HD
HETATM   12  C   UNL     1     -10.211   0.265 -32.665  1.00  0.00     0.242 C 
HETATM   13  C   UNL     1      -9.174   4.574 -34.085  1.00  0.00     0.010 A 
HETATM   14  C   UNL     1     -10.333   4.905 -34.788  1.00  0.00     0.001 A 
ENDROOT
BRANCH   5  15
HETATM   15  N   UNL     1      -6.482   3.096 -33.583  1.00  0.00    -0.348 N 
HETATM   16  C   UNL     1      -5.460   3.438 -32.719  1.00  0.00     0.252 C 
HETATM   17  O   UNL     1      -5.561   3.255 -31.509  1.00  0.00    -0.268 OA
HETATM   18  H   UNL     1      -6.453   3.439 -34.536  1.00  0.00     0.163 HD
BRANCH  16  19
HETATM   19  C   UNL     1      -4.242   4.069 -33.303  1.00  0.00     0.032 A 
HETATM   20  C   UNL     1      -2.975   3.944 -32.725  1.00  0.00     0.019 A 
HETATM   21  C   UNL     1      -1.865   4.540 -33.339  1.00  0.00     0.024 A 
HETATM   22  C   UNL     1      -2.008   5.307 -34.497  1.00  0.00     0.005 A 
HETATM   23  C   UNL     1      -3.270   5.394 -35.088  1.00  0.00     0.024 A 
HETATM   24  C   UNL     1      -4.385   4.803 -34.486  1.00  0.00     0.019 A 
BRANCH  22  25
HETATM   25  N   UNL     1      -0.880   5.776 -35.175  1.00  0.00    -0.303 NA
HETATM   26  H   UNL     1       0.006   5.494 -34.766  1.00  0.00     0.124 HD
HETATM   27  H   UNL     1      -0.902   6.768 -35.390  1.00  0.00     0.124 HD
ENDBRANCH  22  25
ENDBRANCH  16  19
ENDBRANCH   5  15
TORSDOF 3
ENDMDL
MODEL 10
REMARK VINA RESULT:      -7.4      1.702      3.516
REMARK  3 active torsions:
REMARK  status: ('A' for Active; 'I' for Inactive)
REMARK    1  A    between atoms: C_5  and  N_6 
REMARK       I    between atoms: N_6  and  C_7 
REMARK    2  A    between atoms: C_7  and  C_8 
REMARK    3  A    between atoms: C_11  and  N_12 
ROOT
HETATM    1  C   UNL     1      -3.312   2.722 -31.370  1.00  0.00     0.001 A 
HETATM    2  C   UNL     1      -3.453   1.341 -31.224  1.00  0.00     0.008 A 
HETATM    3  C   UNL     1      -4.458   0.697 -31.933  1.00  0.00    -0.043 A 
HETATM    4  C   UNL     1      -5.323   1.412 -32.762  1.00  0.00    -0.028 A 
HETATM    5  C   UNL     1      -6.317   0.517 -33.439  1.00  0.00     0.125 C 
HETATM    6  C   UNL     1      -6.065  -0.858 -32.762  1.00  0.00     0.049 C 
HETATM    7  C   UNL     1      -4.771  -0.766 -31.920  1.00  0.00     0.053 C 
HETATM    8  C   UNL     1      -5.798  -1.953 -33.783  1.00  0.00     0.239 C 
HETATM    9  N   UNL     1      -4.314  -1.912 -33.975  1.00  0.00    -0.074 N 
HETATM   10  H   UNL     1      -3.960  -2.790 -34.378  1.00  0.00     0.277 HD
HETATM   11  H   UNL     1      -4.060  -1.161 -34.633  1.00  0.00     0.277 HD
HETATM   12  C   UNL     1      -3.731  -1.631 -32.626  1.00  0.00     0.242 C 
HETATM   13  C   UNL     1      -5.175   2.783 -32.926  1.00  0.00     0.010 A 
HETATM   14  C   UNL     1      -4.165   3.438 -32.219  1.00  0.00     0.001 A 
ENDROOT
BRANCH   5  15
HETATM   15  N   UNL     1      -7.679   0.969 -33.275  1.00  0.00    -0.348 N 
HETATM   16  C   UNL     1      -8.572   0.847 -34.322  1.00  0.00     0.252 C 
HETATM   17  O   UNL     1      -8.275   0.235 -35.344  1.00  0.00    -0.268 OA
HETATM   18  H   UNL     1      -7.874   1.639 -32.541  1.00  0.00     0.163 HD
BRANCH  16  19
HETATM   19  C   UNL     1      -9.898   1.513 -34.181  1.00  0.00     0.032 A 
HETATM   20  C   UNL     1     -10.110   2.856 -34.509  1.00  0.00     0.019 A 
HETATM   21  C   UNL     1     -11.388   3.415 -34.379  1.00  0.00     0.024 A 
HETATM   22  C   UNL     1     -12.452   2.666 -33.873  1.00  0.00     0.005 A 
HETATM   23  C   UNL     1     -12.242   1.317 -33.584  1.00  0.00     0.024 A 
HETATM   24  C   UNL     1     -10.971   0.747 -33.712  1.00  0.00     0.019 A 
BRANCH  22  25
HETATM   25  N   UNL     1     -13.748   3.190 -33.881  1.00  0.00    -0.303 NA
HETATM   26  H   UNL     1     -14.010   3.680 -33.031  1.00  0.00     0.124 HD
HETATM   27  H   UNL     1     -14.464   2.535 -34.178  1.00  0.00     0.124 HD
ENDBRANCH  22  25
ENDBRANCH  16  19
ENDBRANCH   5  15
TORSDOF 3
ENDMDL
