MODEL 1
REMARK VINA RESULT:      -7.2      0.000      0.000
REMARK  3 active torsions:
REMARK  status: ('A' for Active; 'I' for Inactive)
REMARK       I    between atoms: C_2  and  N_3 
REMARK    1  A    between atoms: N_3  and  C_4 
REMARK    2  A    between atoms: C_7  and  N_8 
REMARK       I    between atoms: N_8  and  C_9 
REMARK    3  A    between atoms: C_9  and  C_10 
ROOT
HETATM    1  C   UNL     1      -5.278  -0.148 -32.767  1.00  0.00     0.034 A 
HETATM    2  C   UNL     1      -5.680   1.151 -33.091  1.00  0.00     0.032 A 
HETATM    3  C   UNL     1      -4.985   2.264 -32.600  1.00  0.00     0.032 A 
HETATM    4  C   UNL     1      -3.875   2.094 -31.775  1.00  0.00     0.035 A 
HETATM    5  C   UNL     1      -3.491   0.796 -31.426  1.00  0.00     0.032 A 
HETATM    6  C   UNL     1      -4.185  -0.317 -31.919  1.00  0.00     0.032 A 
ENDROOT
BRANCH   4   7
HETATM    7  N   UNL     1      -3.090   3.152 -31.288  1.00  0.00    -0.322 N 
HETATM    8  C   UNL     1      -2.344   4.066 -32.007  1.00  0.00     0.274 C 
HETATM    9  O   UNL     1      -2.285   4.185 -33.225  1.00  0.00    -0.266 OA
HETATM   10  H   UNL     1      -2.995   3.241 -30.279  1.00  0.00     0.169 HD
BRANCH   8  11
HETATM   11  C   UNL     1      -1.526   4.965 -31.127  1.00  0.00     0.126 A 
HETATM   12  N   UNL     1      -0.358   4.438 -30.655  1.00  0.00    -0.255 NA
HETATM   13  C   UNL     1       0.406   5.246 -29.890  1.00  0.00     0.119 A 
HETATM   14  C   UNL     1       0.066   6.550 -29.578  1.00  0.00     0.043 A 
HETATM   15  C   UNL     1      -1.131   7.047 -30.078  1.00  0.00     0.037 A 
HETATM   16 CL   UNL     1      -1.591   8.667 -29.723  1.00  0.00    -0.084 Cl
HETATM   17  C   UNL     1      -1.953   6.256 -30.865  1.00  0.00     0.061 A 
ENDBRANCH   8  11
ENDBRANCH   4   7
BRANCH   1  18
HETATM   18  N   UNL     1      -6.003  -1.211 -33.342  1.00  0.00    -0.328 N 
HETATM   19  C   UNL     1      -5.514  -2.228 -34.143  1.00  0.00     0.218 C 
HETATM   20  C   UNL     1      -6.615  -3.142 -34.622  1.00  0.00     0.117 C 
HETATM   21  O   UNL     1      -4.350  -2.414 -34.478  1.00  0.00    -0.274 OA
HETATM   22  H   UNL     1      -7.001  -1.207 -33.173  1.00  0.00     0.169 HD
ENDBRANCH   1  18
TORSDOF 3
ENDMDL
MODEL 2
REMARK VINA RESULT:      -7.2      6.539      8.246
REMARK  3 active torsions:
REMARK  status: ('A' for Active; 'I' for Inactive)
REMARK       I    between atoms: C_2  and  N_3 
REMARK    1  A    between atoms: N_3  and  C_4 
REMARK    2  A    between atoms: C_7  and  N_8 
REMARK       I    between atoms: N_8  and  C_9 
REMARK    3  A    between atoms: C_9  and  C_10 
ROOT
HETATM    1  C   UNL     1      -5.590  -1.891 -33.914  1.00  0.00     0.034 A 
HETATM    2  C   UNL     1      -5.870  -1.138 -32.769  1.00  0.00     0.032 A 
HETATM    3  C   UNL     1      -6.912  -0.202 -32.759  1.00  0.00     0.032 A 
HETATM    4  C   UNL     1      -7.692  -0.004 -33.896  1.00  0.00     0.035 A 
HETATM    5  C   UNL     1      -7.394  -0.734 -35.050  1.00  0.00     0.032 A 
HETATM    6  C   UNL     1      -6.353  -1.671 -35.059  1.00  0.00     0.032 A 
ENDROOT
BRANCH   4   7
HETATM    7  N   UNL     1      -8.790   0.871 -33.952  1.00  0.00    -0.322 N 
HETATM    8  C   UNL     1     -10.067   0.674 -33.466  1.00  0.00     0.274 C 
HETATM    9  O   UNL     1     -10.477  -0.279 -32.813  1.00  0.00    -0.266 OA
HETATM   10  H   UNL     1      -8.670   1.743 -34.463  1.00  0.00     0.169 HD
BRANCH   8  11
HETATM   11  C   UNL     1     -11.006   1.783 -33.839  1.00  0.00     0.126 A 
HETATM   12  N   UNL     1     -12.327   1.564 -33.572  1.00  0.00    -0.255 NA
HETATM   13  C   UNL     1     -13.181   2.566 -33.870  1.00  0.00     0.119 A 
HETATM   14  C   UNL     1     -12.783   3.773 -34.416  1.00  0.00     0.043 A 
HETATM   15  C   UNL     1     -11.429   3.956 -34.673  1.00  0.00     0.037 A 
HETATM   16 CL   UNL     1     -10.886   5.444 -35.344  1.00  0.00    -0.084 Cl
HETATM   17  C   UNL     1     -10.513   2.955 -34.389  1.00  0.00     0.061 A 
ENDBRANCH   8  11
ENDBRANCH   4   7
BRANCH   1  18
HETATM   18  N   UNL     1      -4.556  -2.844 -33.823  1.00  0.00    -0.328 N 
HETATM   19  C   UNL     1      -4.623  -4.191 -34.132  1.00  0.00     0.218 C 
HETATM   20  C   UNL     1      -3.323  -4.898 -33.838  1.00  0.00     0.117 C 
HETATM   21  O   UNL     1      -5.589  -4.804 -34.574  1.00  0.00    -0.274 OA
HETATM   22  H   UNL     1      -3.674  -2.505 -33.459  1.00  0.00     0.169 HD
ENDBRANCH   1  18
TORSDOF 3
ENDMDL
MODEL 3
REMARK VINA RESULT:      -6.9      4.592      5.445
REMARK  3 active torsions:
REMARK  status: ('A' for Active; 'I' for Inactive)
REMARK       I    between atoms: C_2  and  N_3 
REMARK    1  A    between atoms: N_3  and  C_4 
REMARK    2  A    between atoms: C_7  and  N_8 
REMARK       I    between atoms: N_8  and  C_9 
REMARK    3  A    between atoms: C_9  and  C_10 
ROOT
HETATM    1  C   UNL     1     -10.222   1.118 -33.233  1.00  0.00     0.034 A 
HETATM    2  C   UNL     1     -10.005   2.203 -32.377  1.00  0.00     0.032 A 
HETATM    3  C   UNL     1      -8.773   2.870 -32.357  1.00  0.00     0.032 A 
HETATM    4  C   UNL     1      -7.737   2.461 -33.194  1.00  0.00     0.035 A 
HETATM    5  C   UNL     1      -7.943   1.358 -34.027  1.00  0.00     0.032 A 
HETATM    6  C   UNL     1      -9.175   0.692 -34.049  1.00  0.00     0.032 A 
ENDROOT
BRANCH   4   7
HETATM    7  N   UNL     1      -6.493   3.109 -33.277  1.00  0.00    -0.322 N 
HETATM    8  C   UNL     1      -6.213   4.361 -33.788  1.00  0.00     0.274 C 
HETATM    9  O   UNL     1      -7.013   5.194 -34.200  1.00  0.00    -0.266 OA
HETATM   10  H   UNL     1      -5.671   2.587 -32.984  1.00  0.00     0.169 HD
BRANCH   8  11
HETATM   11  C   UNL     1      -4.742   4.653 -33.832  1.00  0.00     0.126 A 
HETATM   12  N   UNL     1      -4.261   5.128 -35.018  1.00  0.00    -0.255 NA
HETATM   13  C   UNL     1      -2.946   5.428 -35.063  1.00  0.00     0.119 A 
HETATM   14  C   UNL     1      -2.091   5.281 -33.986  1.00  0.00     0.043 A 
HETATM   15  C   UNL     1      -2.620   4.794 -32.797  1.00  0.00     0.037 A 
HETATM   16 CL   UNL     1      -1.595   4.602 -31.428  1.00  0.00    -0.084 Cl
HETATM   17  C   UNL     1      -3.963   4.467 -32.701  1.00  0.00     0.061 A 
ENDBRANCH   8  11
ENDBRANCH   4   7
BRANCH   1  18
HETATM   18  N   UNL     1     -11.505   0.535 -33.225  1.00  0.00    -0.328 N 
HETATM   19  C   UNL     1     -12.557   0.803 -34.082  1.00  0.00     0.218 C 
HETATM   20  C   UNL     1     -13.794   0.024 -33.710  1.00  0.00     0.117 C 
HETATM   21  O   UNL     1     -12.561   1.576 -35.033  1.00  0.00    -0.274 OA
HETATM   22  H   UNL     1     -11.681  -0.132 -32.484  1.00  0.00     0.169 HD
ENDBRANCH   1  18
TORSDOF 3
ENDMDL
MODEL 4
REMARK VINA RESULT:      -6.8      1.393      1.710
REMARK  3 active torsions:
REMARK  status: ('A' for Active; 'I' for Inactive)
REMARK       I    between atoms: C_2  and  N_3 
REMARK    1  A    between atoms: N_3  and  C_4 
REMARK    2  A    between atoms: C_7  and  N_8 
REMARK       I    between atoms: N_8  and  C_9 
REMARK    3  A    between atoms: C_9  and  C_10 
ROOT
HETATM    1  C   UNL     1      -5.957  -0.422 -33.161  1.00  0.00     0.034 A 
HETATM    2  C   UNL     1      -6.312   0.771 -33.798  1.00  0.00     0.032 A 
HETATM    3  C   UNL     1      -5.815   2.002 -33.350  1.00  0.00     0.032 A 
HETATM    4  C   UNL     1      -4.955   2.058 -32.256  1.00  0.00     0.035 A 
HETATM    5  C   UNL     1      -4.624   0.870 -31.600  1.00  0.00     0.032 A 
HETATM    6  C   UNL     1      -5.119  -0.362 -32.049  1.00  0.00     0.032 A 
ENDROOT
BRANCH   4   7
HETATM    7  N   UNL     1      -4.368   3.243 -31.779  1.00  0.00    -0.322 N 
HETATM    8  C   UNL     1      -3.228   3.876 -32.234  1.00  0.00     0.274 C 
HETATM    9  O   UNL     1      -2.542   3.571 -33.202  1.00  0.00    -0.266 OA
HETATM   10  H   UNL     1      -4.784   3.676 -30.958  1.00  0.00     0.169 HD
BRANCH   8  11
HETATM   11  C   UNL     1      -2.837   5.047 -31.380  1.00  0.00     0.126 A 
HETATM   12  N   UNL     1      -3.855   5.672 -30.720  1.00  0.00    -0.255 NA
HETATM   13  C   UNL     1      -3.516   6.706 -29.921  1.00  0.00     0.119 A 
HETATM   14  C   UNL     1      -2.215   7.142 -29.746  1.00  0.00     0.043 A 
HETATM   15  C   UNL     1      -1.208   6.478 -30.437  1.00  0.00     0.037 A 
HETATM   16 CL   UNL     1       0.427   6.980 -30.244  1.00  0.00    -0.084 Cl
HETATM   17  C   UNL     1      -1.506   5.414 -31.273  1.00  0.00     0.061 A 
ENDBRANCH   8  11
ENDBRANCH   4   7
BRANCH   1  18
HETATM   18  N   UNL     1      -6.462  -1.620 -33.705  1.00  0.00    -0.328 N 
HETATM   19  C   UNL     1      -5.762  -2.592 -34.399  1.00  0.00     0.218 C 
HETATM   20  C   UNL     1      -6.668  -3.697 -34.882  1.00  0.00     0.117 C 
HETATM   21  O   UNL     1      -4.562  -2.608 -34.644  1.00  0.00    -0.274 OA
HETATM   22  H   UNL     1      -7.459  -1.766 -33.602  1.00  0.00     0.169 HD
ENDBRANCH   1  18
TORSDOF 3
ENDMDL
MODEL 5
REMARK VINA RESULT:      -6.8      6.808      8.440
REMARK  3 active torsions:
REMARK  status: ('A' for Active; 'I' for Inactive)
REMARK       I    between atoms: C_2  and  N_3 
REMARK    1  A    between atoms: N_3  and  C_4 
REMARK    2  A    between atoms: C_7  and  N_8 
REMARK       I    between atoms: N_8  and  C_9 
REMARK    3  A    between atoms: C_9  and  C_10 
ROOT
HETATM    1  C   UNL     1      -6.110  -1.287 -33.850  1.00  0.00     0.034 A 
HETATM    2  C   UNL     1      -6.696  -0.977 -35.082  1.00  0.00     0.032 A 
HETATM    3  C   UNL     1      -7.751  -0.060 -35.167  1.00  0.00     0.032 A 
HETATM    4  C   UNL     1      -8.237   0.563 -34.019  1.00  0.00     0.035 A 
HETATM    5  C   UNL     1      -7.672   0.232 -32.785  1.00  0.00     0.032 A 
HETATM    6  C   UNL     1      -6.616  -0.684 -32.700  1.00  0.00     0.032 A 
ENDROOT
BRANCH   4   7
HETATM    7  N   UNL     1      -9.251   1.536 -34.024  1.00  0.00    -0.322 N 
HETATM    8  C   UNL     1     -10.589   1.379 -33.721  1.00  0.00     0.274 C 
HETATM    9  O   UNL     1     -11.146   0.368 -33.306  1.00  0.00    -0.266 OA
HETATM   10  H   UNL     1      -9.005   2.469 -34.346  1.00  0.00     0.169 HD
BRANCH   8  11
HETATM   11  C   UNL     1     -11.390   2.622 -33.974  1.00  0.00     0.126 A 
HETATM   12  N   UNL     1     -11.026   3.356 -35.066  1.00  0.00    -0.255 NA
HETATM   13  C   UNL     1     -11.759   4.459 -35.328  1.00  0.00     0.119 A 
HETATM   14  C   UNL     1     -12.836   4.861 -34.559  1.00  0.00     0.043 A 
HETATM   15  C   UNL     1     -13.174   4.086 -33.456  1.00  0.00     0.037 A 
HETATM   16 CL   UNL     1     -14.512   4.544 -32.476  1.00  0.00    -0.084 Cl
HETATM   17  C   UNL     1     -12.449   2.947 -33.143  1.00  0.00     0.061 A 
ENDBRANCH   8  11
ENDBRANCH   4   7
BRANCH   1  18
HETATM   18  N   UNL     1      -5.022  -2.183 -33.860  1.00  0.00    -0.328 N 
HETATM   19  C   UNL     1      -5.018  -3.499 -34.290  1.00  0.00     0.218 C 
HETATM   20  C   UNL     1      -3.675  -4.153 -34.078  1.00  0.00     0.117 C 
HETATM   21  O   UNL     1      -5.954  -4.123 -34.774  1.00  0.00    -0.274 OA
HETATM   22  H   UNL     1      -4.155  -1.828 -33.477  1.00  0.00     0.169 HD
ENDBRANCH   1  18
TORSDOF 3
ENDMDL
MODEL 6
REMARK VINA RESULT:      -6.7      1.808      2.108
REMARK  3 active torsions:
REMARK  status: ('A' for Active; 'I' for Inactive)
REMARK       I    between atoms: C_2  and  N_3 
REMARK    1  A    between atoms: N_3  and  C_4 
REMARK    2  A    between atoms: C_7  and  N_8 
REMARK       I    between atoms: N_8  and  C_9 
REMARK    3  A    between atoms: C_9  and  C_10 
ROOT
HETATM    1  C   UNL     1      -5.598  -0.672 -33.400  1.00  0.00     0.034 A 
HETATM    2  C   UNL     1      -6.331   0.514 -33.502  1.00  0.00     0.032 A 
HETATM    3  C   UNL     1      -5.759   1.747 -33.163  1.00  0.00     0.032 A 
HETATM    4  C   UNL     1      -4.441   1.812 -32.715  1.00  0.00     0.035 A 
HETATM    5  C   UNL     1      -3.718   0.624 -32.583  1.00  0.00     0.032 A 
HETATM    6  C   UNL     1      -4.289  -0.609 -32.925  1.00  0.00     0.032 A 
ENDROOT
BRANCH   4   7
HETATM    7  N   UNL     1      -3.775   3.010 -32.409  1.00  0.00    -0.322 N 
HETATM    8  C   UNL     1      -3.815   4.210 -33.091  1.00  0.00     0.274 C 
HETATM    9  O   UNL     1      -4.509   4.493 -34.061  1.00  0.00    -0.266 OA
HETATM   10  H   UNL     1      -3.128   3.001 -31.623  1.00  0.00     0.169 HD
BRANCH   8  11
HETATM   11  C   UNL     1      -2.858   5.224 -32.537  1.00  0.00     0.126 A 
HETATM   12  N   UNL     1      -3.311   6.511 -32.487  1.00  0.00    -0.255 NA
HETATM   13  C   UNL     1      -2.475   7.429 -31.959  1.00  0.00     0.119 A 
HETATM   14  C   UNL     1      -1.213   7.127 -31.478  1.00  0.00     0.043 A 
HETATM   15  C   UNL     1      -0.790   5.805 -31.548  1.00  0.00     0.037 A 
HETATM   16 CL   UNL     1       0.769   5.382 -30.954  1.00  0.00    -0.084 Cl
HETATM   17  C   UNL     1      -1.610   4.826 -32.085  1.00  0.00     0.061 A 
ENDBRANCH   8  11
ENDBRANCH   4   7
BRANCH   1  18
HETATM   18  N   UNL     1      -6.234  -1.862 -33.808  1.00  0.00    -0.328 N 
HETATM   19  C   UNL     1      -5.713  -2.865 -34.606  1.00  0.00     0.218 C 
HETATM   20  C   UNL     1      -6.727  -3.949 -34.876  1.00  0.00     0.117 C 
HETATM   21  O   UNL     1      -4.586  -2.922 -35.084  1.00  0.00    -0.274 OA
HETATM   22  H   UNL     1      -7.194  -1.975 -33.505  1.00  0.00     0.169 HD
ENDBRANCH   1  18
TORSDOF 3
ENDMDL
MODEL 7
REMARK VINA RESULT:      -6.7     17.487     18.326
REMARK  3 active torsions:
REMARK  status: ('A' for Active; 'I' for Inactive)
REMARK       I    between atoms: C_2  and  N_3 
REMARK    1  A    between atoms: N_3  and  C_4 
REMARK    2  A    between atoms: C_7  and  N_8 
REMARK       I    between atoms: N_8  and  C_9 
REMARK    3  A    between atoms: C_9  and  C_10 
ROOT
HETATM    1  C   UNL     1      -7.883 -12.354 -39.869  1.00  0.00     0.034 A 
HETATM    2  C   UNL     1      -7.649 -12.455 -38.494  1.00  0.00     0.032 A 
HETATM    3  C   UNL     1      -6.465 -13.021 -38.003  1.00  0.00     0.032 A 
HETATM    4  C   UNL     1      -5.494 -13.496 -38.883  1.00  0.00     0.035 A 
HETATM    5  C   UNL     1      -5.740 -13.422 -40.257  1.00  0.00     0.032 A 
HETATM    6  C   UNL     1      -6.923 -12.855 -40.747  1.00  0.00     0.032 A 
ENDROOT
BRANCH   4   7
HETATM    7  N   UNL     1      -4.258 -14.023 -38.476  1.00  0.00    -0.322 N 
HETATM    8  C   UNL     1      -3.112 -13.341 -38.117  1.00  0.00     0.274 C 
HETATM    9  O   UNL     1      -2.972 -12.128 -38.004  1.00  0.00    -0.266 OA
HETATM   10  H   UNL     1      -4.148 -15.035 -38.498  1.00  0.00     0.169 HD
BRANCH   8  11
HETATM   11  C   UNL     1      -1.946 -14.253 -37.876  1.00  0.00     0.126 A 
HETATM   12  N   UNL     1      -2.224 -15.420 -37.224  1.00  0.00    -0.255 NA
HETATM   13  C   UNL     1      -1.192 -16.268 -37.030  1.00  0.00     0.119 A 
HETATM   14  C   UNL     1       0.099 -16.011 -37.456  1.00  0.00     0.043 A 
HETATM   15  C   UNL     1       0.340 -14.811 -38.115  1.00  0.00     0.037 A 
HETATM   16 CL   UNL     1       1.929 -14.453 -38.671  1.00  0.00    -0.084 Cl
HETATM   17  C   UNL     1      -0.686 -13.906 -38.335  1.00  0.00     0.061 A 
ENDBRANCH   8  11
ENDBRANCH   4   7
BRANCH   1  18
HETATM   18  N   UNL     1      -9.077 -11.728 -40.277  1.00  0.00    -0.328 N 
HETATM   19  C   UNL     1     -10.357 -12.256 -40.252  1.00  0.00     0.218 C 
HETATM   20  C   UNL     1     -11.368 -11.301 -40.836  1.00  0.00     0.117 C 
HETATM   21  O   UNL     1     -10.696 -13.358 -39.839  1.00  0.00    -0.274 OA
HETATM   22  H   UNL     1      -8.978 -10.797 -40.662  1.00  0.00     0.169 HD
ENDBRANCH   1  18
TORSDOF 3
ENDMDL
MODEL 8
REMARK VINA RESULT:      -6.7      6.356      9.512
REMARK  3 active torsions:
REMARK  status: ('A' for Active; 'I' for Inactive)
REMARK       I    between atoms: C_2  and  N_3 
REMARK    1  A    between atoms: N_3  and  C_4 
REMARK    2  A    between atoms: C_7  and  N_8 
REMARK       I    between atoms: N_8  and  C_9 
REMARK    3  A    between atoms: C_9  and  C_10 
ROOT
HETATM    1  C   UNL     1      -6.362   0.029 -32.313  1.00  0.00     0.034 A 
HETATM    2  C   UNL     1      -6.857  -0.168 -33.606  1.00  0.00     0.032 A 
HETATM    3  C   UNL     1      -8.222  -0.021 -33.884  1.00  0.00     0.032 A 
HETATM    4  C   UNL     1      -9.115   0.326 -32.872  1.00  0.00     0.035 A 
HETATM    5  C   UNL     1      -8.625   0.494 -31.574  1.00  0.00     0.032 A 
HETATM    6  C   UNL     1      -7.259   0.349 -31.296  1.00  0.00     0.032 A 
ENDROOT
BRANCH   4   7
HETATM    7  N   UNL     1     -10.486   0.549 -33.077  1.00  0.00    -0.322 N 
HETATM    8  C   UNL     1     -11.094   1.603 -33.732  1.00  0.00     0.274 C 
HETATM    9  O   UNL     1     -10.548   2.518 -34.338  1.00  0.00    -0.266 OA
HETATM   10  H   UNL     1     -11.138  -0.103 -32.648  1.00  0.00     0.169 HD
BRANCH   8  11
HETATM   11  C   UNL     1     -12.590   1.566 -33.626  1.00  0.00     0.126 A 
HETATM   12  N   UNL     1     -13.207   0.517 -34.245  1.00  0.00    -0.255 NA
HETATM   13  C   UNL     1     -14.551   0.450 -34.129  1.00  0.00     0.119 A 
HETATM   14  C   UNL     1     -15.305   1.373 -33.427  1.00  0.00     0.043 A 
HETATM   15  C   UNL     1     -14.637   2.425 -32.812  1.00  0.00     0.037 A 
HETATM   16 CL   UNL     1     -15.533   3.593 -31.920  1.00  0.00    -0.084 Cl
HETATM   17  C   UNL     1     -13.259   2.541 -32.905  1.00  0.00     0.061 A 
ENDBRANCH   8  11
ENDBRANCH   4   7
BRANCH   1  18
HETATM   18  N   UNL     1      -4.970  -0.091 -32.130  1.00  0.00    -0.328 N 
HETATM   19  C   UNL     1      -4.167  -1.169 -32.458  1.00  0.00     0.218 C 
HETATM   20  C   UNL     1      -2.734  -0.947 -32.043  1.00  0.00     0.117 C 
HETATM   21  O   UNL     1      -4.511  -2.212 -33.002  1.00  0.00    -0.274 OA
HETATM   22  H   UNL     1      -4.515   0.691 -31.675  1.00  0.00     0.169 HD
ENDBRANCH   1  18
TORSDOF 3
ENDMDL
MODEL 9
REMARK VINA RESULT:      -6.6      2.879      3.207
REMARK  3 active torsions:
REMARK  status: ('A' for Active; 'I' for Inactive)
REMARK       I    between atoms: C_2  and  N_3 
REMARK    1  A    between atoms: N_3  and  C_4 
REMARK    2  A    between atoms: C_7  and  N_8 
REMARK       I    between atoms: N_8  and  C_9 
REMARK    3  A    between atoms: C_9  and  C_10 
ROOT
HETATM    1  C   UNL     1      -6.360  -1.038 -33.826  1.00  0.00     0.034 A 
HETATM    2  C   UNL     1      -6.755   0.050 -34.611  1.00  0.00     0.032 A 
HETATM    3  C   UNL     1      -6.384   1.357 -34.270  1.00  0.00     0.032 A 
HETATM    4  C   UNL     1      -5.611   1.597 -33.136  1.00  0.00     0.035 A 
HETATM    5  C   UNL     1      -5.241   0.514 -32.335  1.00  0.00     0.032 A 
HETATM    6  C   UNL     1      -5.610  -0.794 -32.676  1.00  0.00     0.032 A 
ENDROOT
BRANCH   4   7
HETATM    7  N   UNL     1      -5.149   2.868 -32.756  1.00  0.00    -0.322 N 
HETATM    8  C   UNL     1      -5.889   3.964 -32.357  1.00  0.00     0.274 C 
HETATM    9  O   UNL     1      -7.100   4.019 -32.176  1.00  0.00    -0.266 OA
HETATM   10  H   UNL     1      -4.150   3.047 -32.833  1.00  0.00     0.169 HD
BRANCH   8  11
HETATM   11  C   UNL     1      -5.048   5.191 -32.164  1.00  0.00     0.126 A 
HETATM   12  N   UNL     1      -5.283   5.904 -31.024  1.00  0.00    -0.255 NA
HETATM   13  C   UNL     1      -4.511   6.992 -30.818  1.00  0.00     0.119 A 
HETATM   14  C   UNL     1      -3.517   7.400 -31.689  1.00  0.00     0.043 A 
HETATM   15  C   UNL     1      -3.310   6.646 -32.839  1.00  0.00     0.037 A 
HETATM   16 CL   UNL     1      -2.079   7.111 -33.947  1.00  0.00    -0.084 Cl
HETATM   17  C   UNL     1      -4.079   5.523 -33.097  1.00  0.00     0.061 A 
ENDBRANCH   8  11
ENDBRANCH   4   7
BRANCH   1  18
HETATM   18  N   UNL     1      -6.735  -2.323 -34.266  1.00  0.00    -0.328 N 
HETATM   19  C   UNL     1      -5.926  -3.286 -34.843  1.00  0.00     0.218 C 
HETATM   20  C   UNL     1      -6.710  -4.510 -35.243  1.00  0.00     0.117 C 
HETATM   21  O   UNL     1      -4.720  -3.214 -35.049  1.00  0.00    -0.274 OA
HETATM   22  H   UNL     1      -7.718  -2.550 -34.179  1.00  0.00     0.169 HD
ENDBRANCH   1  18
TORSDOF 3
ENDMDL
MODEL 10
REMARK VINA RESULT:      -6.5      6.026      7.325
REMARK  3 active torsions:
REMARK  status: ('A' for Active; 'I' for Inactive)
REMARK       I    between atoms: C_2  and  N_3 
REMARK    1  A    between atoms: N_3  and  C_4 
REMARK    2  A    between atoms: C_7  and  N_8 
REMARK       I    between atoms: N_8  and  C_9 
REMARK    3  A    between atoms: C_9  and  C_10 
ROOT
HETATM    1  C   UNL     1      -5.233  -1.628 -34.001  1.00  0.00     0.034 A 
HETATM    2  C   UNL     1      -5.006  -0.586 -33.096  1.00  0.00     0.032 A 
HETATM    3  C   UNL     1      -5.770   0.587 -33.140  1.00  0.00     0.032 A 
HETATM    4  C   UNL     1      -6.776   0.736 -34.093  1.00  0.00     0.035 A 
HETATM    5  C   UNL     1      -6.983  -0.291 -35.017  1.00  0.00     0.032 A 
HETATM    6  C   UNL     1      -6.221  -1.465 -34.971  1.00  0.00     0.032 A 
ENDROOT
BRANCH   4   7
HETATM    7  N   UNL     1      -7.624   1.854 -34.169  1.00  0.00    -0.322 N 
HETATM    8  C   UNL     1      -8.976   1.922 -33.897  1.00  0.00     0.274 C 
HETATM    9  O   UNL     1      -9.693   1.032 -33.454  1.00  0.00    -0.266 OA
HETATM   10  H   UNL     1      -7.228   2.721 -34.524  1.00  0.00     0.169 HD
BRANCH   8  11
HETATM   11  C   UNL     1      -9.566   3.261 -34.227  1.00  0.00     0.126 A 
HETATM   12  N   UNL     1      -8.763   4.341 -34.001  1.00  0.00    -0.255 NA
HETATM   13  C   UNL     1      -9.267   5.551 -34.325  1.00  0.00     0.119 A 
HETATM   14  C   UNL     1     -10.526   5.735 -34.866  1.00  0.00     0.043 A 
HETATM   15  C   UNL     1     -11.313   4.609 -35.081  1.00  0.00     0.037 A 
HETATM   16 CL   UNL     1     -12.884   4.788 -35.760  1.00  0.00    -0.084 Cl
HETATM   17  C   UNL     1     -10.843   3.345 -34.760  1.00  0.00     0.061 A 
ENDBRANCH   8  11
ENDBRANCH   4   7
BRANCH   1  18
HETATM   18  N   UNL     1      -4.452  -2.792 -33.856  1.00  0.00    -0.328 N 
HETATM   19  C   UNL     1      -4.789  -4.083 -34.221  1.00  0.00     0.218 C 
HETATM   20  C   UNL     1      -3.714  -5.071 -33.841  1.00  0.00     0.117 C 
HETATM   21  O   UNL     1      -5.820  -4.454 -34.770  1.00  0.00    -0.274 OA
HETATM   22  H   UNL     1      -3.555  -2.668 -33.402  1.00  0.00     0.169 HD
ENDBRANCH   1  18
TORSDOF 3
ENDMDL
