MODEL 1
REMARK VINA RESULT:      -8.0      0.000      0.000
REMARK  3 active torsions:
REMARK  status: ('A' for Active; 'I' for Inactive)
REMARK    1  A    between atoms: C_3  and  N_4 
REMARK       I    between atoms: N_4  and  C_5 
REMARK    2  A    between atoms: C_5  and  C_6 
REMARK    3  A    between atoms: C_8  and  N_9 
REMARK       I    between atoms: N_9  and  C_10 
ROOT
HETATM    1  N   UNL     1      -5.344   0.855 -33.290  1.00  0.00    -0.321 N 
HETATM    2  C   UNL     1      -5.904   1.383 -32.138  1.00  0.00     0.256 C 
HETATM    3  O   UNL     1      -6.758   0.867 -31.428  1.00  0.00    -0.267 OA
HETATM    4  H   UNL     1      -4.535   1.342 -33.653  1.00  0.00     0.169 HD
ENDROOT
BRANCH   2   5
HETATM    5  C   UNL     1      -5.360   2.705 -31.713  1.00  0.00     0.034 A 
HETATM    6  C   UNL     1      -4.264   3.292 -32.361  1.00  0.00     0.046 A 
HETATM    7  C   UNL     1      -3.766   4.526 -31.939  1.00  0.00     0.035 A 
HETATM    8  C   UNL     1      -4.349   5.150 -30.829  1.00  0.00     0.029 A 
HETATM    9  C   UNL     1      -5.423   4.557 -30.161  1.00  0.00     0.003 A 
HETATM   10  C   UNL     1      -5.929   3.336 -30.601  1.00  0.00     0.017 A 
BRANCH   7  11
HETATM   11  N   UNL     1      -2.682   5.181 -32.561  1.00  0.00    -0.327 N 
HETATM   12  C   UNL     1      -2.691   5.821 -33.789  1.00  0.00     0.218 C 
HETATM   13  C   UNL     1      -1.342   6.377 -34.173  1.00  0.00     0.117 C 
HETATM   14  O   UNL     1      -3.663   5.984 -34.519  1.00  0.00    -0.274 OA
HETATM   15  H   UNL     1      -1.826   5.232 -32.023  1.00  0.00     0.169 HD
ENDBRANCH   7  11
ENDBRANCH   2   5
BRANCH   1  16
HETATM   16  C   UNL     1      -5.549  -0.449 -33.814  1.00  0.00     0.065 A 
HETATM   17  C   UNL     1      -6.633  -0.827 -34.622  1.00  0.00    -0.031 A 
HETATM   18  C   UNL     1      -7.652   0.119 -35.194  1.00  0.00     0.050 C 
HETATM   19  C   UNL     1      -6.763  -2.179 -34.981  1.00  0.00     0.035 A 
HETATM   20  C   UNL     1      -5.792  -3.097 -34.604  1.00  0.00     0.031 A 
HETATM   21  N   UNL     1      -4.696  -2.736 -33.910  1.00  0.00    -0.256 NA
HETATM   22  C   UNL     1      -5.933  -4.543 -34.970  1.00  0.00     0.070 C 
HETATM   23  C   UNL     1      -4.581  -1.437 -33.528  1.00  0.00     0.058 A 
HETATM   24  C   UNL     1      -3.348  -1.137 -32.718  1.00  0.00     0.073 C 
ENDBRANCH   1  16
TORSDOF 3
ENDMDL
MODEL 2
REMARK VINA RESULT:      -7.9      1.486      2.315
REMARK  3 active torsions:
REMARK  status: ('A' for Active; 'I' for Inactive)
REMARK    1  A    between atoms: C_3  and  N_4 
REMARK       I    between atoms: N_4  and  C_5 
REMARK    2  A    between atoms: C_5  and  C_6 
REMARK    3  A    between atoms: C_8  and  N_9 
REMARK       I    between atoms: N_9  and  C_10 
ROOT
HETATM    1  N   UNL     1      -5.300   0.754 -33.423  1.00  0.00    -0.321 N 
HETATM    2  C   UNL     1      -5.511   1.285 -32.161  1.00  0.00     0.256 C 
HETATM    3  O   UNL     1      -5.987   0.713 -31.189  1.00  0.00    -0.267 OA
HETATM    4  H   UNL     1      -4.744   1.316 -34.053  1.00  0.00     0.169 HD
ENDROOT
BRANCH   2   5
HETATM    5  C   UNL     1      -5.061   2.695 -31.980  1.00  0.00     0.034 A 
HETATM    6  C   UNL     1      -3.755   3.004 -31.572  1.00  0.00     0.046 A 
HETATM    7  C   UNL     1      -3.359   4.332 -31.400  1.00  0.00     0.035 A 
HETATM    8  C   UNL     1      -4.298   5.352 -31.598  1.00  0.00     0.029 A 
HETATM    9  C   UNL     1      -5.608   5.050 -31.977  1.00  0.00     0.003 A 
HETATM   10  C   UNL     1      -5.991   3.724 -32.168  1.00  0.00     0.017 A 
BRANCH   7  11
HETATM   11  N   UNL     1      -2.056   4.710 -31.014  1.00  0.00    -0.327 N 
HETATM   12  C   UNL     1      -1.015   5.082 -31.849  1.00  0.00     0.218 C 
HETATM   13  C   UNL     1       0.261   5.381 -31.102  1.00  0.00     0.117 C 
HETATM   14  O   UNL     1      -1.069   5.207 -33.068  1.00  0.00    -0.274 OA
HETATM   15  H   UNL     1      -1.887   4.767 -30.017  1.00  0.00     0.169 HD
ENDBRANCH   7  11
ENDBRANCH   2   5
BRANCH   1  16
HETATM   16  C   UNL     1      -5.472  -0.600 -33.814  1.00  0.00     0.065 A 
HETATM   17  C   UNL     1      -4.607  -1.651 -33.468  1.00  0.00    -0.031 A 
HETATM   18  C   UNL     1      -3.462  -1.541 -32.500  1.00  0.00     0.050 C 
HETATM   19  C   UNL     1      -4.846  -2.924 -34.015  1.00  0.00     0.035 A 
HETATM   20  C   UNL     1      -5.960  -3.141 -34.814  1.00  0.00     0.031 A 
HETATM   21  N   UNL     1      -6.853  -2.169 -35.079  1.00  0.00    -0.256 NA
HETATM   22  C   UNL     1      -6.210  -4.492 -35.413  1.00  0.00     0.070 C 
HETATM   23  C   UNL     1      -6.610  -0.927 -34.584  1.00  0.00     0.058 A 
HETATM   24  C   UNL     1      -7.637   0.104 -34.970  1.00  0.00     0.073 C 
ENDBRANCH   1  16
TORSDOF 3
ENDMDL
MODEL 3
REMARK VINA RESULT:      -7.4      3.451      4.678
REMARK  3 active torsions:
REMARK  status: ('A' for Active; 'I' for Inactive)
REMARK    1  A    between atoms: C_3  and  N_4 
REMARK       I    between atoms: N_4  and  C_5 
REMARK    2  A    between atoms: C_5  and  C_6 
REMARK    3  A    between atoms: C_8  and  N_9 
REMARK       I    between atoms: N_9  and  C_10 
ROOT
HETATM    1  N   UNL     1      -5.138   2.994 -31.953  1.00  0.00    -0.321 N 
HETATM    2  C   UNL     1      -3.865   2.599 -32.328  1.00  0.00     0.256 C 
HETATM    3  O   UNL     1      -3.510   1.479 -32.674  1.00  0.00    -0.267 OA
HETATM    4  H   UNL     1      -5.285   3.990 -31.862  1.00  0.00     0.169 HD
ENDROOT
BRANCH   2   5
HETATM    5  C   UNL     1      -2.841   3.684 -32.348  1.00  0.00     0.034 A 
HETATM    6  C   UNL     1      -2.310   4.217 -31.165  1.00  0.00     0.046 A 
HETATM    7  C   UNL     1      -1.360   5.238 -31.209  1.00  0.00     0.035 A 
HETATM    8  C   UNL     1      -0.976   5.756 -32.453  1.00  0.00     0.029 A 
HETATM    9  C   UNL     1      -1.521   5.248 -33.634  1.00  0.00     0.003 A 
HETATM   10  C   UNL     1      -2.453   4.214 -33.584  1.00  0.00     0.017 A 
BRANCH   7  11
HETATM   11  N   UNL     1      -0.771   5.802 -30.058  1.00  0.00    -0.327 N 
HETATM   12  C   UNL     1       0.353   5.345 -29.389  1.00  0.00     0.218 C 
HETATM   13  C   UNL     1       0.682   6.162 -28.164  1.00  0.00     0.117 C 
HETATM   14  O   UNL     1       1.067   4.405 -29.723  1.00  0.00    -0.274 OA
HETATM   15  H   UNL     1      -1.186   6.662 -29.723  1.00  0.00     0.169 HD
ENDBRANCH   7  11
ENDBRANCH   2   5
BRANCH   1  16
HETATM   16  C   UNL     1      -6.322   2.213 -32.015  1.00  0.00     0.065 A 
HETATM   17  C   UNL     1      -6.623   1.143 -31.158  1.00  0.00    -0.031 A 
HETATM   18  C   UNL     1      -5.825   0.762 -29.943  1.00  0.00     0.050 C 
HETATM   19  C   UNL     1      -7.786   0.392 -31.404  1.00  0.00     0.035 A 
HETATM   20  C   UNL     1      -8.649   0.760 -32.427  1.00  0.00     0.031 A 
HETATM   21  N   UNL     1      -8.427   1.839 -33.200  1.00  0.00    -0.256 NA
HETATM   22  C   UNL     1      -9.881  -0.046 -32.705  1.00  0.00     0.070 C 
HETATM   23  C   UNL     1      -7.286   2.550 -32.992  1.00  0.00     0.058 A 
HETATM   24  C   UNL     1      -7.100   3.710 -33.932  1.00  0.00     0.073 C 
ENDBRANCH   1  16
TORSDOF 3
ENDMDL
MODEL 4
REMARK VINA RESULT:      -7.3     16.135     18.580
REMARK  3 active torsions:
REMARK  status: ('A' for Active; 'I' for Inactive)
REMARK    1  A    between atoms: C_3  and  N_4 
REMARK       I    between atoms: N_4  and  C_5 
REMARK    2  A    between atoms: C_5  and  C_6 
REMARK    3  A    between atoms: C_8  and  N_9 
REMARK       I    between atoms: N_9  and  C_10 
ROOT
HETATM    1  N   UNL     1      -6.037 -13.866 -40.285  1.00  0.00    -0.321 N 
HETATM    2  C   UNL     1      -6.854 -12.784 -40.567  1.00  0.00     0.256 C 
HETATM    3  O   UNL     1      -6.503 -11.662 -40.909  1.00  0.00    -0.267 OA
HETATM    4  H   UNL     1      -6.501 -14.759 -40.183  1.00  0.00     0.169 HD
ENDROOT
BRANCH   2   5
HETATM    5  C   UNL     1      -8.318 -13.053 -40.480  1.00  0.00     0.034 A 
HETATM    6  C   UNL     1      -8.846 -14.333 -40.703  1.00  0.00     0.046 A 
HETATM    7  C   UNL     1     -10.222 -14.558 -40.625  1.00  0.00     0.035 A 
HETATM    8  C   UNL     1     -11.074 -13.477 -40.365  1.00  0.00     0.029 A 
HETATM    9  C   UNL     1     -10.557 -12.194 -40.169  1.00  0.00     0.003 A 
HETATM   10  C   UNL     1      -9.181 -11.980 -40.226  1.00  0.00     0.017 A 
BRANCH   7  11
HETATM   11  N   UNL     1     -10.815 -15.824 -40.816  1.00  0.00    -0.327 N 
HETATM   12  C   UNL     1     -11.299 -16.345 -42.003  1.00  0.00     0.218 C 
HETATM   13  C   UNL     1     -11.913 -17.713 -41.839  1.00  0.00     0.117 C 
HETATM   14  O   UNL     1     -11.237 -15.818 -43.109  1.00  0.00    -0.274 OA
HETATM   15  H   UNL     1     -10.836 -16.431 -40.005  1.00  0.00     0.169 HD
ENDBRANCH   7  11
ENDBRANCH   2   5
BRANCH   1  16
HETATM   16  C   UNL     1      -4.629 -13.935 -40.460  1.00  0.00     0.065 A 
HETATM   17  C   UNL     1      -3.984 -14.231 -41.672  1.00  0.00    -0.031 A 
HETATM   18  C   UNL     1      -4.670 -14.357 -43.004  1.00  0.00     0.050 C 
HETATM   19  C   UNL     1      -2.585 -14.368 -41.672  1.00  0.00     0.035 A 
HETATM   20  C   UNL     1      -1.862 -14.137 -40.510  1.00  0.00     0.031 A 
HETATM   21  N   UNL     1      -2.454 -13.760 -39.360  1.00  0.00    -0.256 NA
HETATM   22  C   UNL     1      -0.373 -14.298 -40.499  1.00  0.00     0.070 C 
HETATM   23  C   UNL     1      -3.809 -13.660 -39.343  1.00  0.00     0.058 A 
HETATM   24  C   UNL     1      -4.384 -13.278 -38.005  1.00  0.00     0.073 C 
ENDBRANCH   1  16
TORSDOF 3
ENDMDL
MODEL 5
REMARK VINA RESULT:      -7.2      4.134      6.413
REMARK  3 active torsions:
REMARK  status: ('A' for Active; 'I' for Inactive)
REMARK    1  A    between atoms: C_3  and  N_4 
REMARK       I    between atoms: N_4  and  C_5 
REMARK    2  A    between atoms: C_5  and  C_6 
REMARK    3  A    between atoms: C_8  and  N_9 
REMARK       I    between atoms: N_9  and  C_10 
ROOT
HETATM    1  N   UNL     1      -7.545   1.096 -32.740  1.00  0.00    -0.321 N 
HETATM    2  C   UNL     1      -7.636   2.297 -33.423  1.00  0.00     0.256 C 
HETATM    3  O   UNL     1      -6.734   2.886 -34.007  1.00  0.00    -0.267 OA
HETATM    4  H   UNL     1      -8.422   0.675 -32.464  1.00  0.00     0.169 HD
ENDROOT
BRANCH   2   5
HETATM    5  C   UNL     1      -9.000   2.897 -33.478  1.00  0.00     0.034 A 
HETATM    6  C   UNL     1     -10.155   2.113 -33.341  1.00  0.00     0.046 A 
HETATM    7  C   UNL     1     -11.422   2.696 -33.405  1.00  0.00     0.035 A 
HETATM    8  C   UNL     1     -11.525   4.071 -33.654  1.00  0.00     0.029 A 
HETATM    9  C   UNL     1     -10.380   4.853 -33.820  1.00  0.00     0.003 A 
HETATM   10  C   UNL     1      -9.118   4.268 -33.733  1.00  0.00     0.017 A 
BRANCH   7  11
HETATM   11  N   UNL     1     -12.621   1.969 -33.252  1.00  0.00    -0.327 N 
HETATM   12  C   UNL     1     -13.470   1.543 -34.259  1.00  0.00     0.218 C 
HETATM   13  C   UNL     1     -14.692   0.829 -33.736  1.00  0.00     0.117 C 
HETATM   14  O   UNL     1     -13.291   1.671 -35.466  1.00  0.00    -0.274 OA
HETATM   15  H   UNL     1     -12.850   1.685 -32.307  1.00  0.00     0.169 HD
ENDBRANCH   7  11
ENDBRANCH   2   5
BRANCH   1  16
HETATM   16  C   UNL     1      -6.418   0.234 -32.684  1.00  0.00     0.065 A 
HETATM   17  C   UNL     1      -6.075  -0.704 -33.670  1.00  0.00    -0.031 A 
HETATM   18  C   UNL     1      -6.747  -0.831 -35.008  1.00  0.00     0.050 C 
HETATM   19  C   UNL     1      -4.989  -1.564 -33.430  1.00  0.00     0.035 A 
HETATM   20  C   UNL     1      -4.232  -1.424 -32.275  1.00  0.00     0.031 A 
HETATM   21  N   UNL     1      -4.486  -0.468 -31.362  1.00  0.00    -0.256 NA
HETATM   22  C   UNL     1      -3.083  -2.348 -32.006  1.00  0.00     0.070 C 
HETATM   23  C   UNL     1      -5.557   0.344 -31.569  1.00  0.00     0.058 A 
HETATM   24  C   UNL     1      -5.790   1.351 -30.475  1.00  0.00     0.073 C 
ENDBRANCH   1  16
TORSDOF 3
ENDMDL
MODEL 6
REMARK VINA RESULT:      -7.2      2.021      3.020
REMARK  3 active torsions:
REMARK  status: ('A' for Active; 'I' for Inactive)
REMARK    1  A    between atoms: C_3  and  N_4 
REMARK       I    between atoms: N_4  and  C_5 
REMARK    2  A    between atoms: C_5  and  C_6 
REMARK    3  A    between atoms: C_8  and  N_9 
REMARK       I    between atoms: N_9  and  C_10 
ROOT
HETATM    1  N   UNL     1      -5.241   0.826 -33.237  1.00  0.00    -0.321 N 
HETATM    2  C   UNL     1      -5.762   1.345 -32.063  1.00  0.00     0.256 C 
HETATM    3  O   UNL     1      -6.611   0.836 -31.343  1.00  0.00    -0.267 OA
HETATM    4  H   UNL     1      -4.430   1.299 -33.610  1.00  0.00     0.169 HD
ENDROOT
BRANCH   2   5
HETATM    5  C   UNL     1      -5.175   2.644 -31.627  1.00  0.00     0.034 A 
HETATM    6  C   UNL     1      -5.944   3.617 -30.972  1.00  0.00     0.046 A 
HETATM    7  C   UNL     1      -5.375   4.830 -30.581  1.00  0.00     0.035 A 
HETATM    8  C   UNL     1      -4.032   5.082 -30.891  1.00  0.00     0.029 A 
HETATM    9  C   UNL     1      -3.267   4.129 -31.568  1.00  0.00     0.003 A 
HETATM   10  C   UNL     1      -3.836   2.911 -31.936  1.00  0.00     0.017 A 
BRANCH   7  11
HETATM   11  N   UNL     1      -6.087   5.839 -29.900  1.00  0.00    -0.327 N 
HETATM   12  C   UNL     1      -6.106   6.067 -28.534  1.00  0.00     0.218 C 
HETATM   13  C   UNL     1      -7.014   7.206 -28.140  1.00  0.00     0.117 C 
HETATM   14  O   UNL     1      -5.453   5.468 -27.686  1.00  0.00    -0.274 OA
HETATM   15  H   UNL     1      -6.592   6.496 -30.482  1.00  0.00     0.169 HD
ENDBRANCH   7  11
ENDBRANCH   2   5
BRANCH   1  16
HETATM   16  C   UNL     1      -5.492  -0.462 -33.780  1.00  0.00     0.065 A 
HETATM   17  C   UNL     1      -6.577  -0.786 -34.611  1.00  0.00    -0.031 A 
HETATM   18  C   UNL     1      -7.546   0.208 -35.188  1.00  0.00     0.050 C 
HETATM   19  C   UNL     1      -6.756  -2.128 -34.988  1.00  0.00     0.035 A 
HETATM   20  C   UNL     1      -5.830  -3.089 -34.607  1.00  0.00     0.031 A 
HETATM   21  N   UNL     1      -4.732  -2.782 -33.890  1.00  0.00    -0.256 NA
HETATM   22  C   UNL     1      -6.024  -4.524 -34.992  1.00  0.00     0.070 C 
HETATM   23  C   UNL     1      -4.570  -1.493 -33.490  1.00  0.00     0.058 A 
HETATM   24  C   UNL     1      -3.340  -1.254 -32.656  1.00  0.00     0.073 C 
ENDBRANCH   1  16
TORSDOF 3
ENDMDL
MODEL 7
REMARK VINA RESULT:      -7.1      3.354      6.523
REMARK  3 active torsions:
REMARK  status: ('A' for Active; 'I' for Inactive)
REMARK    1  A    between atoms: C_3  and  N_4 
REMARK       I    between atoms: N_4  and  C_5 
REMARK    2  A    between atoms: C_5  and  C_6 
REMARK    3  A    between atoms: C_8  and  N_9 
REMARK       I    between atoms: N_9  and  C_10 
ROOT
HETATM    1  N   UNL     1      -7.760   1.527 -33.319  1.00  0.00    -0.321 N 
HETATM    2  C   UNL     1      -7.096   1.242 -32.138  1.00  0.00     0.256 C 
HETATM    3  O   UNL     1      -7.527   1.367 -30.999  1.00  0.00    -0.267 OA
HETATM    4  H   UNL     1      -7.315   1.205 -34.168  1.00  0.00     0.169 HD
ENDROOT
BRANCH   2   5
HETATM    5  C   UNL     1      -5.724   0.679 -32.299  1.00  0.00     0.034 A 
HETATM    6  C   UNL     1      -5.507  -0.698 -32.453  1.00  0.00     0.046 A 
HETATM    7  C   UNL     1      -4.213  -1.202 -32.593  1.00  0.00     0.035 A 
HETATM    8  C   UNL     1      -3.128  -0.318 -32.532  1.00  0.00     0.029 A 
HETATM    9  C   UNL     1      -3.336   1.052 -32.351  1.00  0.00     0.003 A 
HETATM   10  C   UNL     1      -4.632   1.551 -32.235  1.00  0.00     0.017 A 
BRANCH   7  11
HETATM   11  N   UNL     1      -3.928  -2.572 -32.774  1.00  0.00    -0.327 N 
HETATM   12  C   UNL     1      -4.167  -3.329 -33.908  1.00  0.00     0.218 C 
HETATM   13  C   UNL     1      -3.781  -4.778 -33.741  1.00  0.00     0.117 C 
HETATM   14  O   UNL     1      -4.612  -2.921 -34.976  1.00  0.00    -0.274 OA
HETATM   15  H   UNL     1      -3.447  -3.030 -32.009  1.00  0.00     0.169 HD
ENDBRANCH   7  11
ENDBRANCH   2   5
BRANCH   1  16
HETATM   16  C   UNL     1      -9.123   1.903 -33.458  1.00  0.00     0.065 A 
HETATM   17  C   UNL     1     -10.215   1.036 -33.294  1.00  0.00    -0.031 A 
HETATM   18  C   UNL     1     -10.124  -0.377 -32.789  1.00  0.00     0.050 C 
HETATM   19  C   UNL     1     -11.505   1.523 -33.566  1.00  0.00     0.035 A 
HETATM   20  C   UNL     1     -11.689   2.855 -33.910  1.00  0.00     0.031 A 
HETATM   21  N   UNL     1     -10.665   3.726 -33.980  1.00  0.00    -0.256 NA
HETATM   22  C   UNL     1     -13.060   3.375 -34.217  1.00  0.00     0.070 C 
HETATM   23  C   UNL     1      -9.410   3.254 -33.754  1.00  0.00     0.058 A 
HETATM   24  C   UNL     1      -8.326   4.289 -33.898  1.00  0.00     0.073 C 
ENDBRANCH   1  16
TORSDOF 3
ENDMDL
MODEL 8
REMARK VINA RESULT:      -7.1      2.078      3.418
REMARK  3 active torsions:
REMARK  status: ('A' for Active; 'I' for Inactive)
REMARK    1  A    between atoms: C_3  and  N_4 
REMARK       I    between atoms: N_4  and  C_5 
REMARK    2  A    between atoms: C_5  and  C_6 
REMARK    3  A    between atoms: C_8  and  N_9 
REMARK       I    between atoms: N_9  and  C_10 
ROOT
HETATM    1  N   UNL     1      -4.864   0.681 -33.141  1.00  0.00    -0.321 N 
HETATM    2  C   UNL     1      -5.194   1.221 -31.909  1.00  0.00     0.256 C 
HETATM    3  O   UNL     1      -5.882   0.707 -31.036  1.00  0.00    -0.267 OA
HETATM    4  H   UNL     1      -4.151   1.172 -33.664  1.00  0.00     0.169 HD
ENDROOT
BRANCH   2   5
HETATM    5  C   UNL     1      -4.598   2.558 -31.620  1.00  0.00     0.034 A 
HETATM    6  C   UNL     1      -5.360   3.601 -31.075  1.00  0.00     0.046 A 
HETATM    7  C   UNL     1      -4.783   4.847 -30.822  1.00  0.00     0.035 A 
HETATM    8  C   UNL     1      -3.440   5.055 -31.161  1.00  0.00     0.029 A 
HETATM    9  C   UNL     1      -2.682   4.028 -31.729  1.00  0.00     0.003 A 
HETATM   10  C   UNL     1      -3.259   2.780 -31.959  1.00  0.00     0.017 A 
BRANCH   7  11
HETATM   11  N   UNL     1      -5.487   5.930 -30.255  1.00  0.00    -0.327 N 
HETATM   12  C   UNL     1      -5.807   6.107 -28.920  1.00  0.00     0.218 C 
HETATM   13  C   UNL     1      -6.611   7.359 -28.667  1.00  0.00     0.117 C 
HETATM   14  O   UNL     1      -5.475   5.381 -27.988  1.00  0.00    -0.274 OA
HETATM   15  H   UNL     1      -5.735   6.679 -30.890  1.00  0.00     0.169 HD
ENDBRANCH   7  11
ENDBRANCH   2   5
BRANCH   1  16
HETATM   16  C   UNL     1      -5.147  -0.635 -33.594  1.00  0.00     0.065 A 
HETATM   17  C   UNL     1      -4.411  -1.779 -33.247  1.00  0.00    -0.031 A 
HETATM   18  C   UNL     1      -3.316  -1.819 -32.218  1.00  0.00     0.050 C 
HETATM   19  C   UNL     1      -4.745  -3.001 -33.856  1.00  0.00     0.035 A 
HETATM   20  C   UNL     1      -5.829  -3.077 -34.719  1.00  0.00     0.031 A 
HETATM   21  N   UNL     1      -6.606  -2.011 -34.991  1.00  0.00    -0.256 NA
HETATM   22  C   UNL     1      -6.180  -4.373 -35.384  1.00  0.00     0.070 C 
HETATM   23  C   UNL     1      -6.269  -0.817 -34.434  1.00  0.00     0.058 A 
HETATM   24  C   UNL     1      -7.165   0.325 -34.830  1.00  0.00     0.073 C 
ENDBRANCH   1  16
TORSDOF 3
ENDMDL
MODEL 9
REMARK VINA RESULT:      -7.1      1.879      7.546
REMARK  3 active torsions:
REMARK  status: ('A' for Active; 'I' for Inactive)
REMARK    1  A    between atoms: C_3  and  N_4 
REMARK       I    between atoms: N_4  and  C_5 
REMARK    2  A    between atoms: C_5  and  C_6 
REMARK    3  A    between atoms: C_8  and  N_9 
REMARK       I    between atoms: N_9  and  C_10 
ROOT
HETATM    1  N   UNL     1      -5.019   3.139 -32.615  1.00  0.00    -0.321 N 
HETATM    2  C   UNL     1      -5.026   1.781 -32.343  1.00  0.00     0.256 C 
HETATM    3  O   UNL     1      -4.494   1.213 -31.398  1.00  0.00    -0.267 OA
HETATM    4  H   UNL     1      -5.649   3.449 -33.342  1.00  0.00     0.169 HD
ENDROOT
BRANCH   2   5
HETATM    5  C   UNL     1      -5.811   0.945 -33.298  1.00  0.00     0.034 A 
HETATM    6  C   UNL     1      -5.693  -0.452 -33.322  1.00  0.00     0.046 A 
HETATM    7  C   UNL     1      -6.432  -1.212 -34.230  1.00  0.00     0.035 A 
HETATM    8  C   UNL     1      -7.260  -0.557 -35.149  1.00  0.00     0.029 A 
HETATM    9  C   UNL     1      -7.361   0.836 -35.150  1.00  0.00     0.003 A 
HETATM   10  C   UNL     1      -6.638   1.588 -34.225  1.00  0.00     0.017 A 
BRANCH   7  11
HETATM   11  N   UNL     1      -6.376  -2.621 -34.291  1.00  0.00    -0.327 N 
HETATM   12  C   UNL     1      -5.306  -3.394 -34.707  1.00  0.00     0.218 C 
HETATM   13  C   UNL     1      -5.605  -4.873 -34.690  1.00  0.00     0.117 C 
HETATM   14  O   UNL     1      -4.196  -2.986 -35.034  1.00  0.00    -0.274 OA
HETATM   15  H   UNL     1      -7.189  -3.113 -33.940  1.00  0.00     0.169 HD
ENDBRANCH   7  11
ENDBRANCH   2   5
BRANCH   1  16
HETATM   16  C   UNL     1      -4.503   4.168 -31.783  1.00  0.00     0.065 A 
HETATM   17  C   UNL     1      -5.160   4.697 -30.660  1.00  0.00    -0.031 A 
HETATM   18  C   UNL     1      -6.427   4.149 -30.066  1.00  0.00     0.050 C 
HETATM   19  C   UNL     1      -4.575   5.786 -29.992  1.00  0.00     0.035 A 
HETATM   20  C   UNL     1      -3.337   6.269 -30.396  1.00  0.00     0.031 A 
HETATM   21  N   UNL     1      -2.648   5.714 -31.411  1.00  0.00    -0.256 NA
HETATM   22  C   UNL     1      -2.717   7.441 -29.699  1.00  0.00     0.070 C 
HETATM   23  C   UNL     1      -3.223   4.683 -32.085  1.00  0.00     0.058 A 
HETATM   24  C   UNL     1      -2.400   4.158 -33.231  1.00  0.00     0.073 C 
ENDBRANCH   1  16
TORSDOF 3
ENDMDL
MODEL 10
REMARK VINA RESULT:      -7.0     15.661     17.168
REMARK  3 active torsions:
REMARK  status: ('A' for Active; 'I' for Inactive)
REMARK    1  A    between atoms: C_3  and  N_4 
REMARK       I    between atoms: N_4  and  C_5 
REMARK    2  A    between atoms: C_5  and  C_6 
REMARK    3  A    between atoms: C_8  and  N_9 
REMARK       I    between atoms: N_9  and  C_10 
ROOT
HETATM    1  N   UNL     1      -3.362 -14.300 -38.297  1.00  0.00    -0.321 N 
HETATM    2  C   UNL     1      -4.080 -13.118 -38.222  1.00  0.00     0.256 C 
HETATM    3  O   UNL     1      -3.652 -11.982 -38.377  1.00  0.00    -0.267 OA
HETATM    4  H   UNL     1      -3.907 -15.151 -38.309  1.00  0.00     0.169 HD
ENDROOT
BRANCH   2   5
HETATM    5  C   UNL     1      -5.542 -13.277 -37.968  1.00  0.00     0.034 A 
HETATM    6  C   UNL     1      -6.496 -12.521 -38.665  1.00  0.00     0.046 A 
HETATM    7  C   UNL     1      -7.858 -12.680 -38.404  1.00  0.00     0.035 A 
HETATM    8  C   UNL     1      -8.258 -13.574 -37.403  1.00  0.00     0.029 A 
HETATM    9  C   UNL     1      -7.311 -14.310 -36.685  1.00  0.00     0.003 A 
HETATM   10  C   UNL     1      -5.954 -14.162 -36.966  1.00  0.00     0.017 A 
BRANCH   7  11
HETATM   11  N   UNL     1      -8.868 -11.969 -39.084  1.00  0.00    -0.327 N 
HETATM   12  C   UNL     1      -9.701 -12.453 -40.079  1.00  0.00     0.218 C 
HETATM   13  C   UNL     1     -10.640 -11.405 -40.623  1.00  0.00     0.117 C 
HETATM   14  O   UNL     1      -9.745 -13.606 -40.495  1.00  0.00    -0.274 OA
HETATM   15  H   UNL     1      -9.033 -11.021 -38.769  1.00  0.00     0.169 HD
ENDBRANCH   7  11
ENDBRANCH   2   5
BRANCH   1  16
HETATM   16  C   UNL     1      -2.007 -14.446 -38.696  1.00  0.00     0.065 A 
HETATM   17  C   UNL     1      -1.562 -14.482 -40.027  1.00  0.00    -0.031 A 
HETATM   18  C   UNL     1      -2.420 -14.209 -41.230  1.00  0.00     0.050 C 
HETATM   19  C   UNL     1      -0.201 -14.737 -40.272  1.00  0.00     0.035 A 
HETATM   20  C   UNL     1       0.686 -14.870 -39.213  1.00  0.00     0.031 A 
HETATM   21  N   UNL     1       0.295 -14.744 -37.931  1.00  0.00    -0.256 NA
HETATM   22  C   UNL     1       2.134 -15.158 -39.468  1.00  0.00     0.070 C 
HETATM   23  C   UNL     1      -1.025 -14.533 -37.683  1.00  0.00     0.058 A 
HETATM   24  C   UNL     1      -1.375 -14.450 -36.222  1.00  0.00     0.073 C 
ENDBRANCH   1  16
TORSDOF 3
ENDMDL
