MODEL 1
REMARK VINA RESULT:     -10.5      0.000      0.000
REMARK  7 active torsions:
REMARK  status: ('A' for Active; 'I' for Inactive)
REMARK    1  A    between atoms: C_3  and  N_4 
REMARK       I    between atoms: N_4  and  C_5 
REMARK    2  A    between atoms: C_5  and  C_6 
REMARK    3  A    between atoms: C_6  and  N_7 
REMARK    4  A    between atoms: N_10  and  C_11 
REMARK    5  A    between atoms: C_11  and  C_12 
REMARK    6  A    between atoms: C_27  and  C_28 
REMARK       I    between atoms: C_28  and  N_29 
REMARK    7  A    between atoms: N_29  and  C_30 
ROOT
HETATM    1  N   UNL     1      -5.562   2.160 -31.101  1.00  0.00    -0.290 N 
HETATM    2  C   UNL     1      -6.908   1.918 -30.823  1.00  0.00     0.332 C 
HETATM    3  O   UNL     1      -7.268   0.839 -30.338  1.00  0.00    -0.246 OA
HETATM    4  N   UNL     1      -7.801   2.946 -31.076  1.00  0.00    -0.261 N 
HETATM    5  C   UNL     1      -7.428   4.251 -31.344  1.00  0.00     0.264 C 
HETATM    6  O   UNL     1      -8.219   5.184 -31.477  1.00  0.00    -0.267 OA
HETATM    7  C   UNL     1      -5.985   4.527 -31.433  1.00  0.00     0.059 A 
HETATM    8  C   UNL     1      -5.076   3.473 -31.357  1.00  0.00     0.056 A 
HETATM    9  C   UNL     1      -5.549   5.858 -31.555  1.00  0.00     0.020 A 
HETATM   10  C   UNL     1      -4.187   6.155 -31.611  1.00  0.00     0.018 A 
HETATM   11  C   UNL     1      -3.257   5.115 -31.587  1.00  0.00     0.034 A 
HETATM   12  C   UNL     1      -3.712   3.784 -31.475  1.00  0.00     0.048 A 
ENDROOT
BRANCH   1  13
HETATM   13  C   UNL     1      -4.671   1.032 -30.831  1.00  0.00     0.237 C 
BRANCH  13  14
HETATM   14  C   UNL     1      -4.386   0.188 -32.090  1.00  0.00     0.240 C 
HETATM   15  N   UNL     1      -5.349  -0.788 -32.286  1.00  0.00    -0.323 N 
HETATM   16  H   UNL     1      -6.176  -0.755 -31.697  1.00  0.00     0.169 HD
HETATM   17  O   UNL     1      -3.381   0.367 -32.774  1.00  0.00    -0.271 OA
BRANCH  15  18
HETATM   18  C   UNL     1      -5.400  -1.788 -33.278  1.00  0.00     0.073 A 
HETATM   19  C   UNL     1      -4.325  -2.585 -33.664  1.00  0.00     0.033 A 
HETATM   20  C   UNL     1      -4.497  -3.561 -34.656  1.00  0.00     0.002 A 
HETATM   21  C   UNL     1      -5.740  -3.747 -35.266  1.00  0.00     0.003 A 
HETATM   22  C   UNL     1      -6.820  -2.957 -34.887  1.00  0.00     0.044 A 
HETATM   23  C   UNL     1      -6.640  -1.988 -33.904  1.00  0.00     0.143 A 
HETATM   24  F   UNL     1      -7.690  -1.233 -33.538  1.00  0.00    -0.204 F 
ENDBRANCH  15  18
ENDBRANCH  13  14
ENDBRANCH   1  13
BRANCH   4  25
HETATM   25  C   UNL     1      -9.218   2.672 -30.861  1.00  0.00     0.175 C 
BRANCH  25  26
HETATM   26  C   UNL     1      -9.981   2.413 -32.145  1.00  0.00    -0.037 A 
HETATM   27  C   UNL     1     -10.821   3.396 -32.694  1.00  0.00     0.048 A 
HETATM   28  C   UNL     1     -11.491   3.098 -33.863  1.00  0.00     0.105 A 
HETATM   29  C   UNL     1     -11.366   1.876 -34.483  1.00  0.00     0.105 A 
HETATM   30  O   UNL     1     -12.332   3.932 -34.532  1.00  0.00    -0.323 OA
HETATM   31  O   UNL     1     -12.110   1.787 -35.616  1.00  0.00    -0.323 OA
HETATM   32  C   UNL     1     -10.561   0.883 -33.970  1.00  0.00     0.040 A 
HETATM   33  C   UNL     1     -12.695   3.105 -35.658  1.00  0.00     0.352 A 
HETATM   34  C   UNL     1      -9.864   1.158 -32.791  1.00  0.00     0.012 A 
ENDBRANCH  25  26
ENDBRANCH   4  25
BRANCH  11  35
HETATM   35  C   UNL     1      -1.779   5.339 -31.619  1.00  0.00     0.252 C 
HETATM   36  N   UNL     1      -1.107   5.395 -30.414  1.00  0.00    -0.352 N 
HETATM   37  H   UNL     1      -1.618   5.371 -29.544  1.00  0.00     0.163 HD
HETATM   38  O   UNL     1      -1.217   5.477 -32.701  1.00  0.00    -0.268 OA
BRANCH  36  39
HETATM   39  C   UNL     1       0.328   5.664 -30.355  1.00  0.00     0.084 C 
HETATM   40  C   UNL     1       0.608   7.170 -30.461  1.00  0.00     0.025 C 
HETATM   41  C   UNL     1       0.258   7.933 -29.183  1.00  0.00     0.002 C 
HETATM   42  C   UNL     1       0.937   7.325 -27.961  1.00  0.00     0.000 C 
HETATM   43  C   UNL     1       0.615   5.841 -27.824  1.00  0.00     0.002 C 
HETATM   44  C   UNL     1       0.974   5.070 -29.093  1.00  0.00     0.025 C 
ENDBRANCH  36  39
ENDBRANCH  11  35
TORSDOF 7
ENDMDL
MODEL 2
REMARK VINA RESULT:     -10.2      1.773      2.375
REMARK  7 active torsions:
REMARK  status: ('A' for Active; 'I' for Inactive)
REMARK    1  A    between atoms: C_3  and  N_4 
REMARK       I    between atoms: N_4  and  C_5 
REMARK    2  A    between atoms: C_5  and  C_6 
REMARK    3  A    between atoms: C_6  and  N_7 
REMARK    4  A    between atoms: N_10  and  C_11 
REMARK    5  A    between atoms: C_11  and  C_12 
REMARK    6  A    between atoms: C_27  and  C_28 
REMARK       I    between atoms: C_28  and  N_29 
REMARK    7  A    between atoms: N_29  and  C_30 
ROOT
HETATM    1  N   UNL     1      -4.519   2.083 -31.839  1.00  0.00    -0.290 N 
HETATM    2  C   UNL     1      -5.789   1.849 -32.369  1.00  0.00     0.332 C 
HETATM    3  O   UNL     1      -6.492   0.928 -31.939  1.00  0.00    -0.246 OA
HETATM    4  N   UNL     1      -6.230   2.712 -33.359  1.00  0.00    -0.261 N 
HETATM    5  C   UNL     1      -5.616   3.911 -33.674  1.00  0.00     0.264 C 
HETATM    6  O   UNL     1      -6.057   4.722 -34.486  1.00  0.00    -0.267 OA
HETATM    7  C   UNL     1      -4.375   4.236 -32.950  1.00  0.00     0.059 A 
HETATM    8  C   UNL     1      -3.821   3.299 -32.079  1.00  0.00     0.056 A 
HETATM    9  C   UNL     1      -3.794   5.503 -33.123  1.00  0.00     0.020 A 
HETATM   10  C   UNL     1      -2.636   5.853 -32.428  1.00  0.00     0.018 A 
HETATM   11  C   UNL     1      -2.032   4.917 -31.588  1.00  0.00     0.034 A 
HETATM   12  C   UNL     1      -2.623   3.644 -31.433  1.00  0.00     0.048 A 
ENDROOT
BRANCH   1  13
HETATM   13  C   UNL     1      -4.103   1.128 -30.812  1.00  0.00     0.237 C 
BRANCH  13  14
HETATM   14  C   UNL     1      -3.389  -0.104 -31.404  1.00  0.00     0.240 C 
HETATM   15  N   UNL     1      -4.277  -0.966 -32.027  1.00  0.00    -0.323 N 
HETATM   16  H   UNL     1      -5.233  -0.644 -32.151  1.00  0.00     0.169 HD
HETATM   17  O   UNL     1      -2.180  -0.280 -31.267  1.00  0.00    -0.271 OA
BRANCH  15  18
HETATM   18  C   UNL     1      -4.020  -2.217 -32.622  1.00  0.00     0.073 A 
HETATM   19  C   UNL     1      -3.266  -3.236 -32.043  1.00  0.00     0.033 A 
HETATM   20  C   UNL     1      -3.088  -4.449 -32.725  1.00  0.00     0.002 A 
HETATM   21  C   UNL     1      -3.661  -4.651 -33.984  1.00  0.00     0.003 A 
HETATM   22  C   UNL     1      -4.415  -3.640 -34.569  1.00  0.00     0.044 A 
HETATM   23  C   UNL     1      -4.585  -2.438 -33.887  1.00  0.00     0.143 A 
HETATM   24  F   UNL     1      -5.321  -1.469 -34.457  1.00  0.00    -0.204 F 
ENDBRANCH  15  18
ENDBRANCH  13  14
ENDBRANCH   1  13
BRANCH   4  25
HETATM   25  C   UNL     1      -7.523   2.426 -33.971  1.00  0.00     0.175 C 
BRANCH  25  26
HETATM   26  C   UNL     1      -8.697   2.959 -33.174  1.00  0.00    -0.037 A 
HETATM   27  C   UNL     1     -10.017   2.704 -33.580  1.00  0.00     0.048 A 
HETATM   28  C   UNL     1     -11.042   3.220 -32.813  1.00  0.00     0.105 A 
HETATM   29  C   UNL     1     -10.801   3.976 -31.689  1.00  0.00     0.105 A 
HETATM   30  O   UNL     1     -12.372   3.063 -33.054  1.00  0.00    -0.323 OA
HETATM   31  O   UNL     1     -11.946   4.388 -31.082  1.00  0.00    -0.323 OA
HETATM   32  C   UNL     1      -9.522   4.256 -31.265  1.00  0.00     0.040 A 
HETATM   33  C   UNL     1     -12.937   3.779 -31.936  1.00  0.00     0.352 A 
HETATM   34  C   UNL     1      -8.463   3.741 -32.017  1.00  0.00     0.012 A 
ENDBRANCH  25  26
ENDBRANCH   4  25
BRANCH  11  35
HETATM   35  C   UNL     1      -0.804   5.209 -30.787  1.00  0.00     0.252 C 
HETATM   36  N   UNL     1      -0.951   5.927 -29.617  1.00  0.00    -0.352 N 
HETATM   37  H   UNL     1      -1.849   6.313 -29.365  1.00  0.00     0.163 HD
HETATM   38  O   UNL     1       0.286   4.817 -31.195  1.00  0.00    -0.268 OA
BRANCH  36  39
HETATM   39  C   UNL     1       0.205   6.301 -28.804  1.00  0.00     0.084 C 
HETATM   40  C   UNL     1       0.550   7.786 -28.993  1.00  0.00     0.025 C 
HETATM   41  C   UNL     1      -0.437   8.722 -28.293  1.00  0.00     0.002 C 
HETATM   42  C   UNL     1      -0.597   8.370 -26.819  1.00  0.00     0.000 C 
HETATM   43  C   UNL     1      -0.994   6.910 -26.633  1.00  0.00     0.002 C 
HETATM   44  C   UNL     1      -0.005   5.969 -27.319  1.00  0.00     0.025 C 
ENDBRANCH  36  39
ENDBRANCH  11  35
TORSDOF 7
ENDMDL
MODEL 3
REMARK VINA RESULT:     -10.0      1.995      8.841
REMARK  7 active torsions:
REMARK  status: ('A' for Active; 'I' for Inactive)
REMARK    1  A    between atoms: C_3  and  N_4 
REMARK       I    between atoms: N_4  and  C_5 
REMARK    2  A    between atoms: C_5  and  C_6 
REMARK    3  A    between atoms: C_6  and  N_7 
REMARK    4  A    between atoms: N_10  and  C_11 
REMARK    5  A    between atoms: C_11  and  C_12 
REMARK    6  A    between atoms: C_27  and  C_28 
REMARK       I    between atoms: C_28  and  N_29 
REMARK    7  A    between atoms: N_29  and  C_30 
ROOT
HETATM    1  N   UNL     1      -4.944   3.086 -31.150  1.00  0.00    -0.290 N 
HETATM    2  C   UNL     1      -3.607   3.255 -31.510  1.00  0.00     0.332 C 
HETATM    3  O   UNL     1      -2.748   2.445 -31.145  1.00  0.00    -0.246 OA
HETATM    4  N   UNL     1      -3.301   4.339 -32.317  1.00  0.00    -0.261 N 
HETATM    5  C   UNL     1      -4.244   5.104 -32.981  1.00  0.00     0.264 C 
HETATM    6  O   UNL     1      -3.971   6.006 -33.771  1.00  0.00    -0.267 OA
HETATM    7  C   UNL     1      -5.659   4.773 -32.743  1.00  0.00     0.059 A 
HETATM    8  C   UNL     1      -5.989   3.803 -31.798  1.00  0.00     0.056 A 
HETATM    9  C   UNL     1      -6.650   5.418 -33.502  1.00  0.00     0.020 A 
HETATM   10  C   UNL     1      -7.997   5.105 -33.322  1.00  0.00     0.018 A 
HETATM   11  C   UNL     1      -8.360   4.174 -32.349  1.00  0.00     0.034 A 
HETATM   12  C   UNL     1      -7.353   3.543 -31.586  1.00  0.00     0.048 A 
ENDROOT
BRANCH   1  13
HETATM   13  C   UNL     1      -5.201   1.937 -30.284  1.00  0.00     0.237 C 
BRANCH  13  14
HETATM   14  C   UNL     1      -5.805   0.741 -31.050  1.00  0.00     0.240 C 
HETATM   15  N   UNL     1      -4.999   0.343 -32.103  1.00  0.00    -0.323 N 
HETATM   16  H   UNL     1      -4.075   0.760 -32.170  1.00  0.00     0.169 HD
HETATM   17  O   UNL     1      -6.900   0.269 -30.752  1.00  0.00    -0.271 OA
BRANCH  15  18
HETATM   18  C   UNL     1      -5.238  -0.659 -33.065  1.00  0.00     0.073 A 
HETATM   19  C   UNL     1      -6.291  -0.655 -33.977  1.00  0.00     0.033 A 
HETATM   20  C   UNL     1      -6.422  -1.702 -34.901  1.00  0.00     0.002 A 
HETATM   21  C   UNL     1      -5.505  -2.756 -34.920  1.00  0.00     0.003 A 
HETATM   22  C   UNL     1      -4.450  -2.768 -34.014  1.00  0.00     0.044 A 
HETATM   23  C   UNL     1      -4.329  -1.727 -33.098  1.00  0.00     0.143 A 
HETATM   24  F   UNL     1      -3.302  -1.744 -32.230  1.00  0.00    -0.204 F 
ENDBRANCH  15  18
ENDBRANCH  13  14
ENDBRANCH   1  13
BRANCH   4  25
HETATM   25  C   UNL     1      -1.895   4.566 -32.632  1.00  0.00     0.175 C 
BRANCH  25  26
HETATM   26  C   UNL     1      -1.186   5.443 -31.618  1.00  0.00    -0.037 A 
HETATM   27  C   UNL     1      -1.898   6.388 -30.861  1.00  0.00     0.048 A 
HETATM   28  C   UNL     1      -1.195   7.158 -29.958  1.00  0.00     0.105 A 
HETATM   29  C   UNL     1       0.165   7.030 -29.795  1.00  0.00     0.105 A 
HETATM   30  O   UNL     1      -1.725   8.108 -29.141  1.00  0.00    -0.323 OA
HETATM   31  O   UNL     1       0.661   7.883 -28.859  1.00  0.00    -0.323 OA
HETATM   32  C   UNL     1       0.900   6.124 -30.525  1.00  0.00     0.040 A 
HETATM   33  C   UNL     1      -0.548   8.540 -28.427  1.00  0.00     0.352 A 
HETATM   34  C   UNL     1       0.214   5.324 -31.444  1.00  0.00     0.012 A 
ENDBRANCH  25  26
ENDBRANCH   4  25
BRANCH  11  35
HETATM   35  C   UNL     1      -9.774   3.759 -32.100  1.00  0.00     0.252 C 
HETATM   36  N   UNL     1     -10.417   3.033 -33.083  1.00  0.00    -0.352 N 
HETATM   37  H   UNL     1      -9.968   2.868 -33.971  1.00  0.00     0.163 HD
HETATM   38  O   UNL     1     -10.319   4.084 -31.049  1.00  0.00    -0.268 OA
BRANCH  36  39
HETATM   39  C   UNL     1     -11.817   2.636 -32.942  1.00  0.00     0.084 C 
HETATM   40  C   UNL     1     -12.752   3.708 -33.521  1.00  0.00     0.025 C 
HETATM   41  C   UNL     1     -12.755   3.735 -35.050  1.00  0.00     0.002 C 
HETATM   42  C   UNL     1     -13.055   2.360 -35.636  1.00  0.00     0.000 C 
HETATM   43  C   UNL     1     -12.091   1.305 -35.104  1.00  0.00     0.002 C 
HETATM   44  C   UNL     1     -12.092   1.264 -33.577  1.00  0.00     0.025 C 
ENDBRANCH  36  39
ENDBRANCH  11  35
TORSDOF 7
ENDMDL
MODEL 4
REMARK VINA RESULT:      -9.8      1.449      1.814
REMARK  7 active torsions:
REMARK  status: ('A' for Active; 'I' for Inactive)
REMARK    1  A    between atoms: C_3  and  N_4 
REMARK       I    between atoms: N_4  and  C_5 
REMARK    2  A    between atoms: C_5  and  C_6 
REMARK    3  A    between atoms: C_6  and  N_7 
REMARK    4  A    between atoms: N_10  and  C_11 
REMARK    5  A    between atoms: C_11  and  C_12 
REMARK    6  A    between atoms: C_27  and  C_28 
REMARK       I    between atoms: C_28  and  N_29 
REMARK    7  A    between atoms: N_29  and  C_30 
ROOT
HETATM    1  N   UNL     1      -6.486   3.464 -31.385  1.00  0.00    -0.290 N 
HETATM    2  C   UNL     1      -7.871   3.560 -31.243  1.00  0.00     0.332 C 
HETATM    3  O   UNL     1      -8.541   2.577 -30.908  1.00  0.00    -0.246 OA
HETATM    4  N   UNL     1      -8.443   4.804 -31.456  1.00  0.00    -0.261 N 
HETATM    5  C   UNL     1      -7.726   5.983 -31.552  1.00  0.00     0.264 C 
HETATM    6  O   UNL     1      -8.236   7.098 -31.647  1.00  0.00    -0.267 OA
HETATM    7  C   UNL     1      -6.258   5.878 -31.494  1.00  0.00     0.059 A 
HETATM    8  C   UNL     1      -5.659   4.619 -31.459  1.00  0.00     0.056 A 
HETATM    9  C   UNL     1      -5.489   7.053 -31.437  1.00  0.00     0.020 A 
HETATM   10  C   UNL     1      -4.098   6.986 -31.350  1.00  0.00     0.018 A 
HETATM   11  C   UNL     1      -3.470   5.741 -31.363  1.00  0.00     0.034 A 
HETATM   12  C   UNL     1      -4.256   4.570 -31.432  1.00  0.00     0.048 A 
ENDROOT
BRANCH   1  13
HETATM   13  C   UNL     1      -5.943   2.123 -31.166  1.00  0.00     0.237 C 
BRANCH  13  14
HETATM   14  C   UNL     1      -5.865   1.297 -32.466  1.00  0.00     0.240 C 
HETATM   15  N   UNL     1      -5.984  -0.061 -32.222  1.00  0.00    -0.323 N 
HETATM   16  H   UNL     1      -6.243  -0.348 -31.282  1.00  0.00     0.169 HD
HETATM   17  O   UNL     1      -5.667   1.825 -33.557  1.00  0.00    -0.271 OA
BRANCH  15  18
HETATM   18  C   UNL     1      -5.897  -1.132 -33.135  1.00  0.00     0.073 A 
HETATM   19  C   UNL     1      -6.978  -1.691 -33.815  1.00  0.00     0.033 A 
HETATM   20  C   UNL     1      -6.769  -2.747 -34.713  1.00  0.00     0.002 A 
HETATM   21  C   UNL     1      -5.485  -3.249 -34.938  1.00  0.00     0.003 A 
HETATM   22  C   UNL     1      -4.400  -2.697 -34.266  1.00  0.00     0.044 A 
HETATM   23  C   UNL     1      -4.616  -1.651 -33.373  1.00  0.00     0.143 A 
HETATM   24  F   UNL     1      -3.561  -1.119 -32.732  1.00  0.00    -0.204 F 
ENDBRANCH  15  18
ENDBRANCH  13  14
ENDBRANCH   1  13
BRANCH   4  25
HETATM   25  C   UNL     1      -9.897   4.894 -31.387  1.00  0.00     0.175 C 
BRANCH  25  26
HETATM   26  C   UNL     1     -10.597   4.231 -32.557  1.00  0.00    -0.037 A 
HETATM   27  C   UNL     1     -11.609   3.281 -32.346  1.00  0.00     0.048 A 
HETATM   28  C   UNL     1     -12.205   2.711 -33.453  1.00  0.00     0.105 A 
HETATM   29  C   UNL     1     -11.826   3.040 -34.734  1.00  0.00     0.105 A 
HETATM   30  O   UNL     1     -13.202   1.786 -33.431  1.00  0.00    -0.323 OA
HETATM   31  O   UNL     1     -12.534   2.364 -35.677  1.00  0.00    -0.323 OA
HETATM   32  C   UNL     1     -10.831   3.958 -34.981  1.00  0.00     0.040 A 
HETATM   33  C   UNL     1     -13.426   1.595 -34.844  1.00  0.00     0.352 A 
HETATM   34  C   UNL     1     -10.214   4.558 -33.881  1.00  0.00     0.012 A 
ENDBRANCH  25  26
ENDBRANCH   4  25
BRANCH  11  35
HETATM   35  C   UNL     1      -1.989   5.571 -31.252  1.00  0.00     0.252 C 
HETATM   36  N   UNL     1      -1.363   6.076 -30.130  1.00  0.00    -0.352 N 
HETATM   37  H   UNL     1      -1.883   6.616 -29.455  1.00  0.00     0.163 HD
HETATM   38  O   UNL     1      -1.380   5.007 -32.156  1.00  0.00    -0.268 OA
BRANCH  36  39
HETATM   39  C   UNL     1       0.088   6.000 -29.970  1.00  0.00     0.084 C 
HETATM   40  C   UNL     1       0.713   7.403 -29.962  1.00  0.00     0.025 C 
HETATM   41  C   UNL     1       0.456   8.163 -28.660  1.00  0.00     0.002 C 
HETATM   42  C   UNL     1       0.888   7.355 -27.442  1.00  0.00     0.000 C 
HETATM   43  C   UNL     1       0.225   5.982 -27.420  1.00  0.00     0.002 C 
HETATM   44  C   UNL     1       0.488   5.212 -28.712  1.00  0.00     0.025 C 
ENDBRANCH  36  39
ENDBRANCH  11  35
TORSDOF 7
ENDMDL
MODEL 5
REMARK VINA RESULT:      -9.7      3.863      8.790
REMARK  7 active torsions:
REMARK  status: ('A' for Active; 'I' for Inactive)
REMARK    1  A    between atoms: C_3  and  N_4 
REMARK       I    between atoms: N_4  and  C_5 
REMARK    2  A    between atoms: C_5  and  C_6 
REMARK    3  A    between atoms: C_6  and  N_7 
REMARK    4  A    between atoms: N_10  and  C_11 
REMARK    5  A    between atoms: C_11  and  C_12 
REMARK    6  A    between atoms: C_27  and  C_28 
REMARK       I    between atoms: C_28  and  N_29 
REMARK    7  A    between atoms: N_29  and  C_30 
ROOT
HETATM    1  N   UNL     1      -8.700   4.275 -32.436  1.00  0.00    -0.290 N 
HETATM    2  C   UNL     1      -8.595   2.966 -31.964  1.00  0.00     0.332 C 
HETATM    3  O   UNL     1      -7.999   2.722 -30.909  1.00  0.00    -0.246 OA
HETATM    4  N   UNL     1      -9.216   1.975 -32.706  1.00  0.00    -0.261 N 
HETATM    5  C   UNL     1     -10.122   2.217 -33.723  1.00  0.00     0.264 C 
HETATM    6  O   UNL     1     -10.744   1.341 -34.319  1.00  0.00    -0.267 OA
HETATM    7  C   UNL     1     -10.373   3.626 -34.070  1.00  0.00     0.059 A 
HETATM    8  C   UNL     1      -9.626   4.630 -33.456  1.00  0.00     0.056 A 
HETATM    9  C   UNL     1     -11.391   3.934 -34.989  1.00  0.00     0.020 A 
HETATM   10  C   UNL     1     -11.674   5.260 -35.316  1.00  0.00     0.018 A 
HETATM   11  C   UNL     1     -10.909   6.283 -34.754  1.00  0.00     0.034 A 
HETATM   12  C   UNL     1      -9.884   5.957 -33.840  1.00  0.00     0.048 A 
ENDROOT
BRANCH   1  13
HETATM   13  C   UNL     1      -8.010   5.274 -31.620  1.00  0.00     0.237 C 
BRANCH  13  14
HETATM   14  C   UNL     1      -6.708   5.777 -32.277  1.00  0.00     0.240 C 
HETATM   15  N   UNL     1      -5.882   4.731 -32.654  1.00  0.00    -0.323 N 
HETATM   16  H   UNL     1      -6.261   3.791 -32.595  1.00  0.00     0.169 HD
HETATM   17  O   UNL     1      -6.458   6.976 -32.383  1.00  0.00    -0.271 OA
BRANCH  15  18
HETATM   18  C   UNL     1      -4.591   4.787 -33.219  1.00  0.00     0.073 A 
HETATM   19  C   UNL     1      -4.309   5.176 -34.527  1.00  0.00     0.033 A 
HETATM   20  C   UNL     1      -2.981   5.206 -34.977  1.00  0.00     0.002 A 
HETATM   21  C   UNL     1      -1.931   4.851 -34.127  1.00  0.00     0.003 A 
HETATM   22  C   UNL     1      -2.203   4.462 -32.820  1.00  0.00     0.044 A 
HETATM   23  C   UNL     1      -3.524   4.431 -32.381  1.00  0.00     0.143 A 
HETATM   24  F   UNL     1      -3.777   4.061 -31.115  1.00  0.00    -0.204 F 
ENDBRANCH  15  18
ENDBRANCH  13  14
ENDBRANCH   1  13
BRANCH   4  25
HETATM   25  C   UNL     1      -9.043   0.596 -32.261  1.00  0.00     0.175 C 
BRANCH  25  26
HETATM   26  C   UNL     1      -7.768  -0.045 -32.773  1.00  0.00    -0.037 A 
HETATM   27  C   UNL     1      -6.669  -0.243 -31.920  1.00  0.00     0.048 A 
HETATM   28  C   UNL     1      -5.537  -0.828 -32.447  1.00  0.00     0.105 A 
HETATM   29  C   UNL     1      -5.458  -1.204 -33.768  1.00  0.00     0.105 A 
HETATM   30  O   UNL     1      -4.391  -1.101 -31.765  1.00  0.00    -0.323 OA
HETATM   31  O   UNL     1      -4.257  -1.758 -34.083  1.00  0.00    -0.323 OA
HETATM   32  C   UNL     1      -6.509  -1.017 -34.637  1.00  0.00     0.040 A 
HETATM   33  C   UNL     1      -3.598  -1.718 -32.800  1.00  0.00     0.352 A 
HETATM   34  C   UNL     1      -7.673  -0.433 -34.131  1.00  0.00     0.012 A 
ENDBRANCH  25  26
ENDBRANCH   4  25
BRANCH  11  35
HETATM   35  C   UNL     1     -11.154   7.732 -35.027  1.00  0.00     0.252 C 
HETATM   36  N   UNL     1     -11.471   8.102 -36.319  1.00  0.00    -0.352 N 
HETATM   37  H   UNL     1     -11.450   7.421 -37.063  1.00  0.00     0.163 HD
HETATM   38  O   UNL     1     -11.054   8.540 -34.109  1.00  0.00    -0.268 OA
BRANCH  36  39
HETATM   39  C   UNL     1     -11.671   9.504 -36.681  1.00  0.00     0.084 C 
HETATM   40  C   UNL     1     -10.352  10.146 -37.136  1.00  0.00     0.025 C 
HETATM   41  C   UNL     1      -9.917   9.691 -38.530  1.00  0.00     0.002 C 
HETATM   42  C   UNL     1     -11.021   9.897 -39.560  1.00  0.00     0.000 C 
HETATM   43  C   UNL     1     -12.316   9.212 -39.134  1.00  0.00     0.002 C 
HETATM   44  C   UNL     1     -12.764   9.672 -37.748  1.00  0.00     0.025 C 
ENDBRANCH  36  39
ENDBRANCH  11  35
TORSDOF 7
ENDMDL
MODEL 6
REMARK VINA RESULT:      -9.6      3.051      6.595
REMARK  7 active torsions:
REMARK  status: ('A' for Active; 'I' for Inactive)
REMARK    1  A    between atoms: C_3  and  N_4 
REMARK       I    between atoms: N_4  and  C_5 
REMARK    2  A    between atoms: C_5  and  C_6 
REMARK    3  A    between atoms: C_6  and  N_7 
REMARK    4  A    between atoms: N_10  and  C_11 
REMARK    5  A    between atoms: C_11  and  C_12 
REMARK    6  A    between atoms: C_27  and  C_28 
REMARK       I    between atoms: C_28  and  N_29 
REMARK    7  A    between atoms: N_29  and  C_30 
ROOT
HETATM    1  N   UNL     1      -6.149   4.708 -32.808  1.00  0.00    -0.290 N 
HETATM    2  C   UNL     1      -6.478   3.570 -33.546  1.00  0.00     0.332 C 
HETATM    3  O   UNL     1      -5.927   3.339 -34.628  1.00  0.00    -0.246 OA
HETATM    4  N   UNL     1      -7.409   2.705 -32.994  1.00  0.00    -0.261 N 
HETATM    5  C   UNL     1      -7.840   2.762 -31.680  1.00  0.00     0.264 C 
HETATM    6  O   UNL     1      -8.594   1.941 -31.163  1.00  0.00    -0.267 OA
HETATM    7  C   UNL     1      -7.317   3.864 -30.855  1.00  0.00     0.059 A 
HETATM    8  C   UNL     1      -6.519   4.845 -31.441  1.00  0.00     0.056 A 
HETATM    9  C   UNL     1      -7.604   3.883 -29.479  1.00  0.00     0.020 A 
HETATM   10  C   UNL     1      -7.098   4.896 -28.663  1.00  0.00     0.018 A 
HETATM   11  C   UNL     1      -6.337   5.918 -29.232  1.00  0.00     0.034 A 
HETATM   12  C   UNL     1      -6.067   5.890 -30.618  1.00  0.00     0.048 A 
ENDROOT
BRANCH   1  13
HETATM   13  C   UNL     1      -5.175   5.590 -33.450  1.00  0.00     0.237 C 
BRANCH  13  14
HETATM   14  C   UNL     1      -3.719   5.190 -33.138  1.00  0.00     0.240 C 
HETATM   15  N   UNL     1      -3.169   5.976 -32.139  1.00  0.00    -0.323 N 
HETATM   16  H   UNL     1      -3.794   6.603 -31.640  1.00  0.00     0.169 HD
HETATM   17  O   UNL     1      -3.143   4.305 -33.767  1.00  0.00    -0.271 OA
BRANCH  15  18
HETATM   18  C   UNL     1      -1.856   5.961 -31.628  1.00  0.00     0.073 A 
HETATM   19  C   UNL     1      -1.355   5.008 -30.743  1.00  0.00     0.033 A 
HETATM   20  C   UNL     1      -0.023   5.086 -30.310  1.00  0.00     0.002 A 
HETATM   21  C   UNL     1       0.814   6.111 -30.759  1.00  0.00     0.003 A 
HETATM   22  C   UNL     1       0.323   7.065 -31.644  1.00  0.00     0.044 A 
HETATM   23  C   UNL     1      -1.000   6.983 -32.065  1.00  0.00     0.143 A 
HETATM   24  F   UNL     1      -1.465   7.906 -32.925  1.00  0.00    -0.204 F 
ENDBRANCH  15  18
ENDBRANCH  13  14
ENDBRANCH   1  13
BRANCH   4  25
HETATM   25  C   UNL     1      -7.815   1.556 -33.795  1.00  0.00     0.175 C 
BRANCH  25  26
HETATM   26  C   UNL     1      -6.841   0.396 -33.719  1.00  0.00    -0.037 A 
HETATM   27  C   UNL     1      -5.874   0.334 -32.702  1.00  0.00     0.048 A 
HETATM   28  C   UNL     1      -5.015  -0.745 -32.690  1.00  0.00     0.105 A 
HETATM   29  C   UNL     1      -5.077  -1.737 -33.641  1.00  0.00     0.105 A 
HETATM   30  O   UNL     1      -4.031  -0.968 -31.777  1.00  0.00    -0.323 OA
HETATM   31  O   UNL     1      -4.142  -2.705 -33.448  1.00  0.00    -0.323 OA
HETATM   32  C   UNL     1      -6.003  -1.707 -34.659  1.00  0.00     0.040 A 
HETATM   33  C   UNL     1      -3.504  -2.226 -32.246  1.00  0.00     0.352 A 
HETATM   34  C   UNL     1      -6.893  -0.629 -34.694  1.00  0.00     0.012 A 
ENDBRANCH  25  26
ENDBRANCH   4  25
BRANCH  11  35
HETATM   35  C   UNL     1      -5.736   7.031 -28.436  1.00  0.00     0.252 C 
HETATM   36  N   UNL     1      -4.367   7.031 -28.256  1.00  0.00    -0.352 N 
HETATM   37  H   UNL     1      -3.810   6.255 -28.582  1.00  0.00     0.163 HD
HETATM   38  O   UNL     1      -6.469   7.893 -27.960  1.00  0.00    -0.268 OA
BRANCH  36  39
HETATM   39  C   UNL     1      -3.706   8.052 -27.445  1.00  0.00     0.084 C 
HETATM   40  C   UNL     1      -2.527   7.453 -26.664  1.00  0.00     0.025 C 
HETATM   41  C   UNL     1      -1.315   7.155 -27.549  1.00  0.00     0.002 C 
HETATM   42  C   UNL     1      -0.889   8.380 -28.350  1.00  0.00     0.000 C 
HETATM   43  C   UNL     1      -2.046   8.942 -29.169  1.00  0.00     0.002 C 
HETATM   44  C   UNL     1      -3.255   9.254 -28.289  1.00  0.00     0.025 C 
ENDBRANCH  36  39
ENDBRANCH  11  35
TORSDOF 7
ENDMDL
MODEL 7
REMARK VINA RESULT:      -9.5      2.396      3.659
REMARK  7 active torsions:
REMARK  status: ('A' for Active; 'I' for Inactive)
REMARK    1  A    between atoms: C_3  and  N_4 
REMARK       I    between atoms: N_4  and  C_5 
REMARK    2  A    between atoms: C_5  and  C_6 
REMARK    3  A    between atoms: C_6  and  N_7 
REMARK    4  A    between atoms: N_10  and  C_11 
REMARK    5  A    between atoms: C_11  and  C_12 
REMARK    6  A    between atoms: C_27  and  C_28 
REMARK       I    between atoms: C_28  and  N_29 
REMARK    7  A    between atoms: N_29  and  C_30 
ROOT
HETATM    1  N   UNL     1      -8.470   1.813 -32.398  1.00  0.00    -0.290 N 
HETATM    2  C   UNL     1      -9.649   1.373 -33.001  1.00  0.00     0.332 C 
HETATM    3  O   UNL     1     -10.258   0.394 -32.556  1.00  0.00    -0.246 OA
HETATM    4  N   UNL     1     -10.116   2.101 -34.083  1.00  0.00    -0.261 N 
HETATM    5  C   UNL     1      -9.641   3.350 -34.443  1.00  0.00     0.264 C 
HETATM    6  O   UNL     1     -10.116   4.038 -35.344  1.00  0.00    -0.267 OA
HETATM    7  C   UNL     1      -8.519   3.888 -33.656  1.00  0.00     0.059 A 
HETATM    8  C   UNL     1      -7.920   3.095 -32.678  1.00  0.00     0.056 A 
HETATM    9  C   UNL     1      -8.097   5.210 -33.881  1.00  0.00     0.020 A 
HETATM   10  C   UNL     1      -7.056   5.759 -33.132  1.00  0.00     0.018 A 
HETATM   11  C   UNL     1      -6.407   4.972 -32.181  1.00  0.00     0.034 A 
HETATM   12  C   UNL     1      -6.836   3.643 -31.974  1.00  0.00     0.048 A 
ENDROOT
BRANCH   1  13
HETATM   13  C   UNL     1      -8.018   0.994 -31.274  1.00  0.00     0.237 C 
BRANCH  13  14
HETATM   14  C   UNL     1      -7.011  -0.095 -31.702  1.00  0.00     0.240 C 
HETATM   15  N   UNL     1      -7.231  -0.519 -33.001  1.00  0.00    -0.323 N 
HETATM   16  H   UNL     1      -7.901   0.004 -33.558  1.00  0.00     0.169 HD
HETATM   17  O   UNL     1      -6.167  -0.535 -30.925  1.00  0.00    -0.271 OA
BRANCH  15  18
HETATM   18  C   UNL     1      -6.569  -1.536 -33.720  1.00  0.00     0.073 A 
HETATM   19  C   UNL     1      -7.174  -2.695 -34.202  1.00  0.00     0.033 A 
HETATM   20  C   UNL     1      -6.417  -3.633 -34.918  1.00  0.00     0.002 A 
HETATM   21  C   UNL     1      -5.057  -3.420 -35.158  1.00  0.00     0.003 A 
HETATM   22  C   UNL     1      -4.445  -2.265 -34.682  1.00  0.00     0.044 A 
HETATM   23  C   UNL     1      -5.203  -1.340 -33.969  1.00  0.00     0.143 A 
HETATM   24  F   UNL     1      -4.605  -0.224 -33.518  1.00  0.00    -0.204 F 
ENDBRANCH  15  18
ENDBRANCH  13  14
ENDBRANCH   1  13
BRANCH   4  25
HETATM   25  C   UNL     1     -11.304   1.601 -34.766  1.00  0.00     0.175 C 
BRANCH  25  26
HETATM   26  C   UNL     1     -12.593   1.894 -34.023  1.00  0.00    -0.037 A 
HETATM   27  C   UNL     1     -12.852   3.176 -33.511  1.00  0.00     0.048 A 
HETATM   28  C   UNL     1     -14.042   3.378 -32.841  1.00  0.00     0.105 A 
HETATM   29  C   UNL     1     -14.956   2.366 -32.657  1.00  0.00     0.105 A 
HETATM   30  O   UNL     1     -14.456   4.553 -32.293  1.00  0.00    -0.323 OA
HETATM   31  O   UNL     1     -16.056   2.775 -31.972  1.00  0.00    -0.323 OA
HETATM   32  C   UNL     1     -14.733   1.094 -33.135  1.00  0.00     0.040 A 
HETATM   33  C   UNL     1     -15.746   4.169 -31.772  1.00  0.00     0.352 A 
HETATM   34  C   UNL     1     -13.540   0.860 -33.824  1.00  0.00     0.012 A 
ENDBRANCH  25  26
ENDBRANCH   4  25
BRANCH  11  35
HETATM   35  C   UNL     1      -5.299   5.481 -31.316  1.00  0.00     0.252 C 
HETATM   36  N   UNL     1      -4.267   6.168 -31.925  1.00  0.00    -0.352 N 
HETATM   37  H   UNL     1      -4.228   6.243 -32.930  1.00  0.00     0.163 HD
HETATM   38  O   UNL     1      -5.332   5.264 -30.109  1.00  0.00    -0.268 OA
BRANCH  36  39
HETATM   39  C   UNL     1      -3.120   6.651 -31.159  1.00  0.00     0.084 C 
HETATM   40  C   UNL     1      -2.029   5.573 -31.068  1.00  0.00     0.025 C 
HETATM   41  C   UNL     1      -1.267   5.383 -32.380  1.00  0.00     0.002 C 
HETATM   42  C   UNL     1      -0.705   6.701 -32.900  1.00  0.00     0.000 C 
HETATM   43  C   UNL     1      -1.797   7.755 -33.044  1.00  0.00     0.002 C 
HETATM   44  C   UNL     1      -2.554   7.960 -31.733  1.00  0.00     0.025 C 
ENDBRANCH  36  39
ENDBRANCH  11  35
TORSDOF 7
ENDMDL
MODEL 8
REMARK VINA RESULT:      -9.4      2.437      8.911
REMARK  7 active torsions:
REMARK  status: ('A' for Active; 'I' for Inactive)
REMARK    1  A    between atoms: C_3  and  N_4 
REMARK       I    between atoms: N_4  and  C_5 
REMARK    2  A    between atoms: C_5  and  C_6 
REMARK    3  A    between atoms: C_6  and  N_7 
REMARK    4  A    between atoms: N_10  and  C_11 
REMARK    5  A    between atoms: C_11  and  C_12 
REMARK    6  A    between atoms: C_27  and  C_28 
REMARK       I    between atoms: C_28  and  N_29 
REMARK    7  A    between atoms: N_29  and  C_30 
ROOT
HETATM    1  N   UNL     1      -6.070   5.238 -32.731  1.00  0.00    -0.290 N 
HETATM    2  C   UNL     1      -4.970   6.097 -32.761  1.00  0.00     0.332 C 
HETATM    3  O   UNL     1      -4.187   6.085 -33.717  1.00  0.00    -0.246 OA
HETATM    4  N   UNL     1      -4.825   6.976 -31.701  1.00  0.00    -0.261 N 
HETATM    5  C   UNL     1      -5.808   7.228 -30.760  1.00  0.00     0.264 C 
HETATM    6  O   UNL     1      -5.717   8.076 -29.874  1.00  0.00    -0.267 OA
HETATM    7  C   UNL     1      -7.052   6.448 -30.871  1.00  0.00     0.059 A 
HETATM    8  C   UNL     1      -7.147   5.434 -31.823  1.00  0.00     0.056 A 
HETATM    9  C   UNL     1      -8.137   6.768 -30.036  1.00  0.00     0.020 A 
HETATM   10  C   UNL     1      -9.340   6.068 -30.137  1.00  0.00     0.018 A 
HETATM   11  C   UNL     1      -9.446   5.016 -31.047  1.00  0.00     0.034 A 
HETATM   12  C   UNL     1      -8.344   4.700 -31.870  1.00  0.00     0.048 A 
ENDROOT
BRANCH   1  13
HETATM   13  C   UNL     1      -6.159   4.322 -33.868  1.00  0.00     0.237 C 
BRANCH  13  14
HETATM   14  C   UNL     1      -5.652   2.905 -33.527  1.00  0.00     0.240 C 
HETATM   15  N   UNL     1      -6.308   1.932 -34.262  1.00  0.00    -0.323 N 
HETATM   16  H   UNL     1      -6.917   2.243 -35.013  1.00  0.00     0.169 HD
HETATM   17  O   UNL     1      -4.803   2.713 -32.660  1.00  0.00    -0.271 OA
BRANCH  15  18
HETATM   18  C   UNL     1      -6.173   0.530 -34.187  1.00  0.00     0.073 A 
HETATM   19  C   UNL     1      -5.161  -0.138 -33.502  1.00  0.00     0.033 A 
HETATM   20  C   UNL     1      -5.135  -1.540 -33.485  1.00  0.00     0.002 A 
HETATM   21  C   UNL     1      -6.117  -2.280 -34.148  1.00  0.00     0.003 A 
HETATM   22  C   UNL     1      -7.132  -1.621 -34.833  1.00  0.00     0.044 A 
HETATM   23  C   UNL     1      -7.149  -0.230 -34.849  1.00  0.00     0.143 A 
HETATM   24  F   UNL     1      -8.137   0.399 -35.508  1.00  0.00    -0.204 F 
ENDBRANCH  15  18
ENDBRANCH  13  14
ENDBRANCH   1  13
BRANCH   4  25
HETATM   25  C   UNL     1      -3.636   7.821 -31.687  1.00  0.00     0.175 C 
BRANCH  25  26
HETATM   26  C   UNL     1      -2.512   7.262 -30.837  1.00  0.00    -0.037 A 
HETATM   27  C   UNL     1      -1.735   6.183 -31.290  1.00  0.00     0.048 A 
HETATM   28  C   UNL     1      -0.729   5.719 -30.468  1.00  0.00     0.105 A 
HETATM   29  C   UNL     1      -0.483   6.272 -29.232  1.00  0.00     0.105 A 
HETATM   30  O   UNL     1       0.120   4.694 -30.752  1.00  0.00    -0.323 OA
HETATM   31  O   UNL     1       0.547   5.667 -28.585  1.00  0.00    -0.323 OA
HETATM   32  C   UNL     1      -1.229   7.323 -28.749  1.00  0.00     0.040 A 
HETATM   33  C   UNL     1       0.945   4.689 -29.568  1.00  0.00     0.352 A 
HETATM   34  C   UNL     1      -2.251   7.821 -29.562  1.00  0.00     0.012 A 
ENDBRANCH  25  26
ENDBRANCH   4  25
BRANCH  11  35
HETATM   35  C   UNL     1     -10.700   4.225 -31.241  1.00  0.00     0.252 C 
HETATM   36  N   UNL     1     -11.025   3.833 -32.524  1.00  0.00    -0.352 N 
HETATM   37  H   UNL     1     -10.474   4.149 -33.309  1.00  0.00     0.163 HD
HETATM   38  O   UNL     1     -11.400   3.964 -30.268  1.00  0.00    -0.268 OA
BRANCH  36  39
HETATM   39  C   UNL     1     -12.260   3.105 -32.807  1.00  0.00     0.084 C 
HETATM   40  C   UNL     1     -13.180   3.923 -33.726  1.00  0.00     0.025 C 
HETATM   41  C   UNL     1     -12.693   3.963 -35.175  1.00  0.00     0.002 C 
HETATM   42  C   UNL     1     -12.456   2.563 -35.728  1.00  0.00     0.000 C 
HETATM   43  C   UNL     1     -11.499   1.770 -34.845  1.00  0.00     0.002 C 
HETATM   44  C   UNL     1     -11.986   1.714 -33.399  1.00  0.00     0.025 C 
ENDBRANCH  36  39
ENDBRANCH  11  35
TORSDOF 7
ENDMDL
MODEL 9
REMARK VINA RESULT:      -9.4      3.166      6.221
REMARK  7 active torsions:
REMARK  status: ('A' for Active; 'I' for Inactive)
REMARK    1  A    between atoms: C_3  and  N_4 
REMARK       I    between atoms: N_4  and  C_5 
REMARK    2  A    between atoms: C_5  and  C_6 
REMARK    3  A    between atoms: C_6  and  N_7 
REMARK    4  A    between atoms: N_10  and  C_11 
REMARK    5  A    between atoms: C_11  and  C_12 
REMARK    6  A    between atoms: C_27  and  C_28 
REMARK       I    between atoms: C_28  and  N_29 
REMARK    7  A    between atoms: N_29  and  C_30 
ROOT
HETATM    1  N   UNL     1      -6.576   4.776 -30.341  1.00  0.00    -0.290 N 
HETATM    2  C   UNL     1      -7.891   4.315 -30.414  1.00  0.00     0.332 C 
HETATM    3  O   UNL     1      -8.837   5.065 -30.152  1.00  0.00    -0.246 OA
HETATM    4  N   UNL     1      -8.080   3.006 -30.827  1.00  0.00    -0.261 N 
HETATM    5  C   UNL     1      -7.095   2.221 -31.398  1.00  0.00     0.264 C 
HETATM    6  O   UNL     1      -7.284   1.093 -31.850  1.00  0.00    -0.267 OA
HETATM    7  C   UNL     1      -5.748   2.808 -31.497  1.00  0.00     0.059 A 
HETATM    8  C   UNL     1      -5.497   4.055 -30.927  1.00  0.00     0.056 A 
HETATM    9  C   UNL     1      -4.749   2.114 -32.200  1.00  0.00     0.020 A 
HETATM   10  C   UNL     1      -3.472   2.658 -32.339  1.00  0.00     0.018 A 
HETATM   11  C   UNL     1      -3.179   3.881 -31.736  1.00  0.00     0.034 A 
HETATM   12  C   UNL     1      -4.190   4.561 -31.024  1.00  0.00     0.048 A 
ENDROOT
BRANCH   1  13
HETATM   13  C   UNL     1      -6.439   6.158 -29.882  1.00  0.00     0.237 C 
BRANCH  13  14
HETATM   14  C   UNL     1      -6.000   6.251 -28.406  1.00  0.00     0.240 C 
HETATM   15  N   UNL     1      -4.917   7.098 -28.241  1.00  0.00    -0.323 N 
HETATM   16  H   UNL     1      -4.631   7.653 -29.042  1.00  0.00     0.169 HD
HETATM   17  O   UNL     1      -6.548   5.590 -27.526  1.00  0.00    -0.271 OA
BRANCH  15  18
HETATM   18  C   UNL     1      -4.196   7.388 -27.065  1.00  0.00     0.073 A 
HETATM   19  C   UNL     1      -2.976   6.813 -26.716  1.00  0.00     0.033 A 
HETATM   20  C   UNL     1      -2.341   7.189 -25.523  1.00  0.00     0.002 A 
HETATM   21  C   UNL     1      -2.918   8.139 -24.676  1.00  0.00     0.003 A 
HETATM   22  C   UNL     1      -4.135   8.719 -25.018  1.00  0.00     0.044 A 
HETATM   23  C   UNL     1      -4.761   8.338 -26.201  1.00  0.00     0.143 A 
HETATM   24  F   UNL     1      -5.933   8.908 -26.527  1.00  0.00    -0.204 F 
ENDBRANCH  15  18
ENDBRANCH  13  14
ENDBRANCH   1  13
BRANCH   4  25
HETATM   25  C   UNL     1      -9.447   2.495 -30.830  1.00  0.00     0.175 C 
BRANCH  25  26
HETATM   26  C   UNL     1     -10.143   2.649 -32.167  1.00  0.00    -0.037 A 
HETATM   27  C   UNL     1     -10.719   3.873 -32.543  1.00  0.00     0.048 A 
HETATM   28  C   UNL     1     -11.342   3.947 -33.772  1.00  0.00     0.105 A 
HETATM   29  C   UNL     1     -11.419   2.864 -34.616  1.00  0.00     0.105 A 
HETATM   30  O   UNL     1     -11.940   5.052 -34.295  1.00  0.00    -0.323 OA
HETATM   31  O   UNL     1     -12.074   3.148 -35.773  1.00  0.00    -0.323 OA
HETATM   32  C   UNL     1     -10.876   1.644 -34.280  1.00  0.00     0.040 A 
HETATM   33  C   UNL     1     -12.373   4.546 -35.575  1.00  0.00     0.352 A 
HETATM   34  C   UNL     1     -10.233   1.540 -33.044  1.00  0.00     0.012 A 
ENDBRANCH  25  26
ENDBRANCH   4  25
BRANCH  11  35
HETATM   35  C   UNL     1      -1.847   4.551 -31.849  1.00  0.00     0.252 C 
HETATM   36  N   UNL     1      -1.158   4.821 -30.683  1.00  0.00    -0.352 N 
HETATM   37  H   UNL     1      -1.587   4.648 -29.786  1.00  0.00     0.163 HD
HETATM   38  O   UNL     1      -1.417   4.848 -32.959  1.00  0.00    -0.268 OA
BRANCH  36  39
HETATM   39  C   UNL     1       0.124   5.522 -30.702  1.00  0.00     0.084 C 
HETATM   40  C   UNL     1      -0.081   7.036 -30.859  1.00  0.00     0.025 C 
HETATM   41  C   UNL     1      -0.599   7.703 -29.583  1.00  0.00     0.002 C 
HETATM   42  C   UNL     1       0.284   7.382 -28.382  1.00  0.00     0.000 C 
HETATM   43  C   UNL     1       0.443   5.877 -28.194  1.00  0.00     0.002 C 
HETATM   44  C   UNL     1       0.972   5.206 -29.460  1.00  0.00     0.025 C 
ENDBRANCH  36  39
ENDBRANCH  11  35
TORSDOF 7
ENDMDL
MODEL 10
REMARK VINA RESULT:      -9.1      3.317      5.641
REMARK  7 active torsions:
REMARK  status: ('A' for Active; 'I' for Inactive)
REMARK    1  A    between atoms: C_3  and  N_4 
REMARK       I    between atoms: N_4  and  C_5 
REMARK    2  A    between atoms: C_5  and  C_6 
REMARK    3  A    between atoms: C_6  and  N_7 
REMARK    4  A    between atoms: N_10  and  C_11 
REMARK    5  A    between atoms: C_11  and  C_12 
REMARK    6  A    between atoms: C_27  and  C_28 
REMARK       I    between atoms: C_28  and  N_29 
REMARK    7  A    between atoms: N_29  and  C_30 
ROOT
HETATM    1  N   UNL     1      -6.258   4.724 -32.699  1.00  0.00    -0.290 N 
HETATM    2  C   UNL     1      -6.700   3.539 -33.288  1.00  0.00     0.332 C 
HETATM    3  O   UNL     1      -6.191   3.128 -34.336  1.00  0.00    -0.246 OA
HETATM    4  N   UNL     1      -7.696   2.837 -32.628  1.00  0.00    -0.261 N 
HETATM    5  C   UNL     1      -8.097   3.094 -31.329  1.00  0.00     0.264 C 
HETATM    6  O   UNL     1      -8.913   2.414 -30.710  1.00  0.00    -0.267 OA
HETATM    7  C   UNL     1      -7.463   4.236 -30.649  1.00  0.00     0.059 A 
HETATM    8  C   UNL     1      -6.590   5.061 -31.357  1.00  0.00     0.056 A 
HETATM    9  C   UNL     1      -7.723   4.450 -29.284  1.00  0.00     0.020 A 
HETATM   10  C   UNL     1      -7.115   5.505 -28.603  1.00  0.00     0.018 A 
HETATM   11  C   UNL     1      -6.276   6.376 -29.299  1.00  0.00     0.034 A 
HETATM   12  C   UNL     1      -6.033   6.153 -30.672  1.00  0.00     0.048 A 
ENDROOT
BRANCH   1  13
HETATM   13  C   UNL     1      -5.220   5.429 -33.450  1.00  0.00     0.237 C 
BRANCH  13  14
HETATM   14  C   UNL     1      -3.797   5.012 -33.026  1.00  0.00     0.240 C 
HETATM   15  N   UNL     1      -3.197   5.967 -32.222  1.00  0.00    -0.323 N 
HETATM   16  H   UNL     1      -3.777   6.733 -31.893  1.00  0.00     0.169 HD
HETATM   17  O   UNL     1      -3.283   3.970 -33.425  1.00  0.00    -0.271 OA
BRANCH  15  18
HETATM   18  C   UNL     1      -1.890   5.980 -31.695  1.00  0.00     0.073 A 
HETATM   19  C   UNL     1      -1.399   5.074 -30.757  1.00  0.00     0.033 A 
HETATM   20  C   UNL     1      -0.073   5.176 -30.313  1.00  0.00     0.002 A 
HETATM   21  C   UNL     1       0.769   6.179 -30.802  1.00  0.00     0.003 A 
HETATM   22  C   UNL     1       0.288   7.087 -31.739  1.00  0.00     0.044 A 
HETATM   23  C   UNL     1      -1.031   6.981 -32.172  1.00  0.00     0.143 A 
HETATM   24  F   UNL     1      -1.485   7.859 -33.083  1.00  0.00    -0.204 F 
ENDBRANCH  15  18
ENDBRANCH  13  14
ENDBRANCH   1  13
BRANCH   4  25
HETATM   25  C   UNL     1      -8.217   1.640 -33.279  1.00  0.00     0.175 C 
BRANCH  25  26
HETATM   26  C   UNL     1      -9.657   1.780 -33.731  1.00  0.00    -0.037 A 
HETATM   27  C   UNL     1     -10.614   0.808 -33.398  1.00  0.00     0.048 A 
HETATM   28  C   UNL     1     -11.907   0.992 -33.844  1.00  0.00     0.105 A 
HETATM   29  C   UNL     1     -12.268   2.081 -34.603  1.00  0.00     0.105 A 
HETATM   30  O   UNL     1     -12.956   0.158 -33.606  1.00  0.00    -0.323 OA
HETATM   31  O   UNL     1     -13.586   2.070 -34.938  1.00  0.00    -0.323 OA
HETATM   32  C   UNL     1     -11.357   3.050 -34.958  1.00  0.00     0.040 A 
HETATM   33  C   UNL     1     -14.021   0.864 -34.276  1.00  0.00     0.352 A 
HETATM   34  C   UNL     1     -10.041   2.895 -34.516  1.00  0.00     0.012 A 
ENDBRANCH  25  26
ENDBRANCH   4  25
BRANCH  11  35
HETATM   35  C   UNL     1      -5.563   7.518 -28.649  1.00  0.00     0.252 C 
HETATM   36  N   UNL     1      -4.360   7.258 -28.024  1.00  0.00    -0.352 N 
HETATM   37  H   UNL     1      -4.024   6.310 -27.939  1.00  0.00     0.163 HD
HETATM   38  O   UNL     1      -6.069   8.636 -28.679  1.00  0.00    -0.268 OA
BRANCH  36  39
HETATM   39  C   UNL     1      -3.627   8.308 -27.319  1.00  0.00     0.084 C 
HETATM   40  C   UNL     1      -2.849   7.727 -26.129  1.00  0.00     0.025 C 
HETATM   41  C   UNL     1      -1.610   6.937 -26.554  1.00  0.00     0.002 C 
HETATM   42  C   UNL     1      -0.704   7.757 -27.464  1.00  0.00     0.000 C 
HETATM   43  C   UNL     1      -1.464   8.288 -28.676  1.00  0.00     0.002 C 
HETATM   44  C   UNL     1      -2.695   9.089 -28.258  1.00  0.00     0.025 C 
ENDBRANCH  36  39
ENDBRANCH  11  35
TORSDOF 7
ENDMDL
