MODEL 1
REMARK VINA RESULT:      -8.7      0.000      0.000
REMARK  9 active torsions:
REMARK  status: ('A' for Active; 'I' for Inactive)
REMARK    1  A    between atoms: C_4  and  C_5 
REMARK    2  A    between atoms: C_8  and  C_9 
REMARK       I    between atoms: C_9  and  N_10 
REMARK    3  A    between atoms: N_10  and  C_11 
REMARK    4  A    between atoms: N_10  and  C_26 
REMARK    5  A    between atoms: C_11  and  C_12 
REMARK    6  A    between atoms: C_11  and  C_21 
REMARK       I    between atoms: C_12  and  N_13 
REMARK    7  A    between atoms: N_13  and  C_14 
REMARK    8  A    between atoms: C_14  and  C_15 
REMARK    9  A    between atoms: C_26  and  C_27 
ROOT
HETATM    1  C   UNL     1      -6.125   2.471 -32.983  1.00  0.00     0.271 C 
HETATM    2  N   UNL     1      -7.096   2.822 -32.041  1.00  0.00    -0.324 N 
HETATM    3  O   UNL     1      -5.095   3.129 -33.120  1.00  0.00    -0.266 OA
ENDROOT
BRANCH   2   4
HETATM    4  C   UNL     1      -7.050   4.136 -31.356  1.00  0.00     0.220 C 
BRANCH   4   5
HETATM    5  C   UNL     1      -5.647   4.666 -30.955  1.00  0.00     0.245 C 
HETATM    6  N   UNL     1      -5.072   5.594 -31.788  1.00  0.00    -0.357 N 
HETATM    7  H   UNL     1      -5.521   5.765 -32.689  1.00  0.00     0.162 HD
HETATM    8  O   UNL     1      -5.079   4.260 -29.939  1.00  0.00    -0.271 OA
BRANCH   6   9
HETATM    9  C   UNL     1      -3.758   6.158 -31.556  1.00  0.00     0.154 C 
BRANCH   9  10
HETATM   10  C   UNL     1      -3.085   6.733 -32.814  1.00  0.00     0.139 C 
HETATM   11  O   UNL     1      -3.803   6.250 -33.971  1.00  0.00    -0.384 OA
HETATM   12  C   UNL     1      -2.965   5.338 -34.694  1.00  0.00     0.168 C 
HETATM   13  C   UNL     1      -1.792   5.011 -33.799  1.00  0.00     0.029 C 
HETATM   14  C   UNL     1      -1.641   6.284 -33.006  1.00  0.00     0.035 C 
ENDBRANCH   9  10
ENDBRANCH   6   9
ENDBRANCH   4   5
BRANCH   4  15
HETATM   15  C   UNL     1      -7.894   5.213 -32.021  1.00  0.00     0.014 A 
HETATM   16  S   UNL     1      -8.638   6.411 -31.017  1.00  0.00    -0.104 SA
HETATM   17  C   UNL     1      -9.343   7.208 -32.348  1.00  0.00     0.050 A 
HETATM   18  C   UNL     1      -9.018   6.606 -33.539  1.00  0.00     0.008 A 
HETATM   19  C   UNL     1      -8.179   5.469 -33.352  1.00  0.00     0.017 A 
ENDBRANCH   4  15
ENDBRANCH   2   4
BRANCH   2  20
HETATM   20  C   UNL     1      -7.815   1.768 -31.313  1.00  0.00     0.173 C 
BRANCH  20  21
HETATM   21  C   UNL     1      -9.033   1.308 -32.065  1.00  0.00     0.000 A 
HETATM   22  S   UNL     1     -10.088   2.493 -32.731  1.00  0.00    -0.105 SA
HETATM   23  C   UNL     1     -11.149   1.307 -33.350  1.00  0.00     0.050 A 
HETATM   24  C   UNL     1     -10.709   0.032 -33.080  1.00  0.00     0.008 A 
HETATM   25  C   UNL     1      -9.489   0.032 -32.344  1.00  0.00     0.017 A 
ENDBRANCH  20  21
ENDBRANCH   2  20
BRANCH   1  26
HETATM   26  C   UNL     1      -6.340   1.285 -33.789  1.00  0.00     0.101 A 
HETATM   27  N   UNL     1      -5.848   0.027 -33.525  1.00  0.00    -0.351 N 
HETATM   28  C   UNL     1      -6.255  -0.880 -34.480  1.00  0.00     0.043 A 
HETATM   29  H   UNL     1      -5.250  -0.201 -32.743  1.00  0.00     0.166 HD
HETATM   30  C   UNL     1      -7.073  -0.181 -35.351  1.00  0.00     0.033 A 
HETATM   31  C   UNL     1      -7.149   1.159 -34.904  1.00  0.00     0.037 A 
BRANCH  28  32
HETATM   32  C   UNL     1      -5.844  -2.288 -34.479  1.00  0.00    -0.009 A 
HETATM   33  C   UNL     1      -6.729  -3.309 -34.857  1.00  0.00     0.013 A 
HETATM   34  C   UNL     1      -6.320  -4.646 -34.859  1.00  0.00     0.001 A 
HETATM   35  C   UNL     1      -5.021  -4.980 -34.483  1.00  0.00     0.000 A 
HETATM   36  C   UNL     1      -4.130  -3.978 -34.106  1.00  0.00     0.001 A 
HETATM   37  C   UNL     1      -4.540  -2.642 -34.105  1.00  0.00     0.013 A 
ENDBRANCH  28  32
ENDBRANCH   1  26
TORSDOF 9
ENDMDL
MODEL 2
REMARK VINA RESULT:      -8.7      2.562      4.208
REMARK  9 active torsions:
REMARK  status: ('A' for Active; 'I' for Inactive)
REMARK    1  A    between atoms: C_4  and  C_5 
REMARK    2  A    between atoms: C_8  and  C_9 
REMARK       I    between atoms: C_9  and  N_10 
REMARK    3  A    between atoms: N_10  and  C_11 
REMARK    4  A    between atoms: N_10  and  C_26 
REMARK    5  A    between atoms: C_11  and  C_12 
REMARK    6  A    between atoms: C_11  and  C_21 
REMARK       I    between atoms: C_12  and  N_13 
REMARK    7  A    between atoms: N_13  and  C_14 
REMARK    8  A    between atoms: C_14  and  C_15 
REMARK    9  A    between atoms: C_26  and  C_27 
ROOT
HETATM    1  C   UNL     1      -5.179   1.966 -30.755  1.00  0.00     0.271 C 
HETATM    2  N   UNL     1      -5.143   3.259 -31.284  1.00  0.00    -0.324 N 
HETATM    3  O   UNL     1      -5.690   1.734 -29.661  1.00  0.00    -0.266 OA
ENDROOT
BRANCH   2   4
HETATM    4  C   UNL     1      -5.479   4.433 -30.444  1.00  0.00     0.220 C 
BRANCH   4   5
HETATM    5  C   UNL     1      -4.589   5.693 -30.618  1.00  0.00     0.245 C 
HETATM    6  N   UNL     1      -3.351   5.666 -30.025  1.00  0.00    -0.357 N 
HETATM    7  H   UNL     1      -3.149   4.897 -29.384  1.00  0.00     0.162 HD
HETATM    8  O   UNL     1      -4.988   6.673 -31.251  1.00  0.00    -0.271 OA
BRANCH   6   9
HETATM    9  C   UNL     1      -2.423   6.777 -30.079  1.00  0.00     0.154 C 
BRANCH   9  10
HETATM   10  C   UNL     1      -1.087   6.454 -30.769  1.00  0.00     0.139 C 
HETATM   11  O   UNL     1      -0.716   5.101 -30.423  1.00  0.00    -0.384 OA
HETATM   12  C   UNL     1       0.441   5.136 -29.576  1.00  0.00     0.168 C 
HETATM   13  C   UNL     1       0.623   6.571 -29.135  1.00  0.00     0.029 C 
HETATM   14  C   UNL     1       0.074   7.331 -30.316  1.00  0.00     0.035 C 
ENDBRANCH   9  10
ENDBRANCH   6   9
ENDBRANCH   4   5
BRANCH   4  15
HETATM   15  C   UNL     1      -6.960   4.781 -30.428  1.00  0.00     0.014 A 
HETATM   16  S   UNL     1      -7.600   5.583 -29.034  1.00  0.00    -0.104 SA
HETATM   17  C   UNL     1      -9.171   5.650 -29.691  1.00  0.00     0.050 A 
HETATM   18  C   UNL     1      -9.226   5.098 -30.947  1.00  0.00     0.008 A 
HETATM   19  C   UNL     1      -7.957   4.610 -31.374  1.00  0.00     0.017 A 
ENDBRANCH   4  15
ENDBRANCH   2   4
BRANCH   2  20
HETATM   20  C   UNL     1      -5.324   3.458 -32.728  1.00  0.00     0.173 C 
BRANCH  20  21
HETATM   21  C   UNL     1      -4.101   4.058 -33.363  1.00  0.00     0.000 A 
HETATM   22  S   UNL     1      -4.305   5.131 -34.693  1.00  0.00    -0.105 SA
HETATM   23  C   UNL     1      -2.621   5.353 -34.866  1.00  0.00     0.050 A 
HETATM   24  C   UNL     1      -1.909   4.649 -33.924  1.00  0.00     0.008 A 
HETATM   25  C   UNL     1      -2.761   3.907 -33.055  1.00  0.00     0.017 A 
ENDBRANCH  20  21
ENDBRANCH   2  20
BRANCH   1  26
HETATM   26  C   UNL     1      -4.624   0.881 -31.540  1.00  0.00     0.101 A 
HETATM   27  N   UNL     1      -5.340  -0.097 -32.192  1.00  0.00    -0.351 N 
HETATM   28  C   UNL     1      -4.507  -0.965 -32.864  1.00  0.00     0.043 A 
HETATM   29  H   UNL     1      -6.347  -0.180 -32.168  1.00  0.00     0.166 HD
HETATM   30  C   UNL     1      -3.221  -0.490 -32.670  1.00  0.00     0.033 A 
HETATM   31  C   UNL     1      -3.297   0.674 -31.871  1.00  0.00     0.037 A 
BRANCH  28  32
HETATM   32  C   UNL     1      -4.992  -2.132 -33.609  1.00  0.00    -0.009 A 
HETATM   33  C   UNL     1      -4.199  -3.277 -33.773  1.00  0.00     0.013 A 
HETATM   34  C   UNL     1      -4.679  -4.384 -34.479  1.00  0.00     0.001 A 
HETATM   35  C   UNL     1      -5.958  -4.361 -35.030  1.00  0.00     0.000 A 
HETATM   36  C   UNL     1      -6.758  -3.232 -34.876  1.00  0.00     0.001 A 
HETATM   37  C   UNL     1      -6.277  -2.125 -34.169  1.00  0.00     0.013 A 
ENDBRANCH  28  32
ENDBRANCH   1  26
TORSDOF 9
ENDMDL
MODEL 3
REMARK VINA RESULT:      -8.5      2.067      2.910
REMARK  9 active torsions:
REMARK  status: ('A' for Active; 'I' for Inactive)
REMARK    1  A    between atoms: C_4  and  C_5 
REMARK    2  A    between atoms: C_8  and  C_9 
REMARK       I    between atoms: C_9  and  N_10 
REMARK    3  A    between atoms: N_10  and  C_11 
REMARK    4  A    between atoms: N_10  and  C_26 
REMARK    5  A    between atoms: C_11  and  C_12 
REMARK    6  A    between atoms: C_11  and  C_21 
REMARK       I    between atoms: C_12  and  N_13 
REMARK    7  A    between atoms: N_13  and  C_14 
REMARK    8  A    between atoms: C_14  and  C_15 
REMARK    9  A    between atoms: C_26  and  C_27 
ROOT
HETATM    1  C   UNL     1      -3.731   2.096 -32.081  1.00  0.00     0.271 C 
HETATM    2  N   UNL     1      -4.945   2.752 -31.863  1.00  0.00    -0.324 N 
HETATM    3  O   UNL     1      -2.675   2.717 -32.189  1.00  0.00    -0.266 OA
ENDROOT
BRANCH   2   4
HETATM    4  C   UNL     1      -5.051   4.223 -32.014  1.00  0.00     0.220 C 
BRANCH   4   5
HETATM    5  C   UNL     1      -3.856   4.944 -32.693  1.00  0.00     0.245 C 
HETATM    6  N   UNL     1      -2.917   5.508 -31.864  1.00  0.00    -0.357 N 
HETATM    7  H   UNL     1      -3.134   5.556 -30.867  1.00  0.00     0.162 HD
HETATM    8  O   UNL     1      -3.767   5.012 -33.921  1.00  0.00    -0.271 OA
BRANCH   6   9
HETATM    9  C   UNL     1      -1.764   6.234 -32.353  1.00  0.00     0.154 C 
BRANCH   9  10
HETATM   10  C   UNL     1      -0.414   5.681 -31.866  1.00  0.00     0.139 C 
HETATM   11  O   UNL     1      -0.656   4.855 -30.705  1.00  0.00    -0.384 OA
HETATM   12  C   UNL     1      -0.105   5.500 -29.550  1.00  0.00     0.168 C 
HETATM   13  C   UNL     1       0.232   6.917 -29.953  1.00  0.00     0.029 C 
HETATM   14  C   UNL     1       0.570   6.753 -31.413  1.00  0.00     0.035 C 
ENDBRANCH   9  10
ENDBRANCH   6   9
ENDBRANCH   4   5
BRANCH   4  15
HETATM   15  C   UNL     1      -6.388   4.695 -32.566  1.00  0.00     0.014 A 
HETATM   16  S   UNL     1      -7.368   5.724 -31.579  1.00  0.00    -0.104 SA
HETATM   17  C   UNL     1      -8.589   5.838 -32.762  1.00  0.00     0.050 A 
HETATM   18  C   UNL     1      -8.271   5.133 -33.897  1.00  0.00     0.008 A 
HETATM   19  C   UNL     1      -7.005   4.487 -33.789  1.00  0.00     0.017 A 
ENDBRANCH   4  15
ENDBRANCH   2   4
BRANCH   2  20
HETATM   20  C   UNL     1      -5.950   2.145 -30.981  1.00  0.00     0.173 C 
BRANCH  20  21
HETATM   21  C   UNL     1      -7.171   1.714 -31.745  1.00  0.00     0.000 A 
HETATM   22  S   UNL     1      -8.721   2.151 -31.137  1.00  0.00    -0.105 SA
HETATM   23  C   UNL     1      -9.526   1.355 -32.415  1.00  0.00     0.050 A 
HETATM   24  C   UNL     1      -8.646   0.784 -33.303  1.00  0.00     0.008 A 
HETATM   25  C   UNL     1      -7.289   0.994 -32.920  1.00  0.00     0.017 A 
ENDBRANCH  20  21
ENDBRANCH   2  20
BRANCH   1  26
HETATM   26  C   UNL     1      -3.729   0.648 -32.149  1.00  0.00     0.101 A 
HETATM   27  N   UNL     1      -4.416  -0.121 -33.060  1.00  0.00    -0.351 N 
HETATM   28  C   UNL     1      -4.182  -1.465 -32.859  1.00  0.00     0.043 A 
HETATM   29  H   UNL     1      -5.029   0.248 -33.773  1.00  0.00     0.166 HD
HETATM   30  C   UNL     1      -3.276  -1.545 -31.816  1.00  0.00     0.033 A 
HETATM   31  C   UNL     1      -2.973  -0.231 -31.393  1.00  0.00     0.037 A 
BRANCH  28  32
HETATM   32  C   UNL     1      -4.819  -2.520 -33.655  1.00  0.00    -0.009 A 
HETATM   33  C   UNL     1      -4.190  -3.756 -33.869  1.00  0.00     0.013 A 
HETATM   34  C   UNL     1      -4.814  -4.754 -34.622  1.00  0.00     0.001 A 
HETATM   35  C   UNL     1      -6.074  -4.532 -35.172  1.00  0.00     0.000 A 
HETATM   36  C   UNL     1      -6.712  -3.311 -34.968  1.00  0.00     0.001 A 
HETATM   37  C   UNL     1      -6.088  -2.313 -34.214  1.00  0.00     0.013 A 
ENDBRANCH  28  32
ENDBRANCH   1  26
TORSDOF 9
ENDMDL
MODEL 4
REMARK VINA RESULT:      -8.4      3.050      4.840
REMARK  9 active torsions:
REMARK  status: ('A' for Active; 'I' for Inactive)
REMARK    1  A    between atoms: C_4  and  C_5 
REMARK    2  A    between atoms: C_8  and  C_9 
REMARK       I    between atoms: C_9  and  N_10 
REMARK    3  A    between atoms: N_10  and  C_11 
REMARK    4  A    between atoms: N_10  and  C_26 
REMARK    5  A    between atoms: C_11  and  C_12 
REMARK    6  A    between atoms: C_11  and  C_21 
REMARK       I    between atoms: C_12  and  N_13 
REMARK    7  A    between atoms: N_13  and  C_14 
REMARK    8  A    between atoms: C_14  and  C_15 
REMARK    9  A    between atoms: C_26  and  C_27 
ROOT
HETATM    1  C   UNL     1      -3.660   3.341 -31.400  1.00  0.00     0.271 C 
HETATM    2  N   UNL     1      -4.431   4.492 -31.583  1.00  0.00    -0.324 N 
HETATM    3  O   UNL     1      -2.449   3.405 -31.197  1.00  0.00    -0.266 OA
ENDROOT
BRANCH   2   4
HETATM    4  C   UNL     1      -3.789   5.810 -31.799  1.00  0.00     0.220 C 
BRANCH   4   5
HETATM    5  C   UNL     1      -3.300   6.566 -30.535  1.00  0.00     0.245 C 
HETATM    6  N   UNL     1      -2.152   6.102 -29.939  1.00  0.00    -0.357 N 
HETATM    7  H   UNL     1      -1.778   5.208 -30.263  1.00  0.00     0.162 HD
HETATM    8  O   UNL     1      -3.923   7.530 -30.087  1.00  0.00    -0.271 OA
BRANCH   6   9
HETATM    9  C   UNL     1      -1.591   6.688 -28.740  1.00  0.00     0.154 C 
BRANCH   9  10
HETATM   10  C   UNL     1      -0.097   6.389 -28.528  1.00  0.00     0.139 C 
HETATM   11  O   UNL     1       0.144   6.280 -27.107  1.00  0.00    -0.384 OA
HETATM   12  C   UNL     1       0.942   7.392 -26.681  1.00  0.00     0.168 C 
HETATM   13  C   UNL     1       0.953   8.390 -27.818  1.00  0.00     0.029 C 
HETATM   14  C   UNL     1       0.834   7.490 -29.022  1.00  0.00     0.035 C 
ENDBRANCH   9  10
ENDBRANCH   6   9
ENDBRANCH   4   5
BRANCH   4  15
HETATM   15  C   UNL     1      -2.744   5.817 -32.905  1.00  0.00     0.014 A 
HETATM   16  S   UNL     1      -3.127   5.041 -34.403  1.00  0.00    -0.104 SA
HETATM   17  C   UNL     1      -1.617   5.434 -35.090  1.00  0.00     0.050 A 
HETATM   18  C   UNL     1      -0.832   6.156 -34.224  1.00  0.00     0.008 A 
HETATM   19  C   UNL     1      -1.482   6.384 -32.976  1.00  0.00     0.017 A 
ENDBRANCH   4  15
ENDBRANCH   2   4
BRANCH   2  20
HETATM   20  C   UNL     1      -5.793   4.549 -31.033  1.00  0.00     0.173 C 
BRANCH  20  21
HETATM   21  C   UNL     1      -6.829   4.586 -32.122  1.00  0.00     0.000 A 
HETATM   22  S   UNL     1      -7.518   6.103 -32.552  1.00  0.00    -0.105 SA
HETATM   23  C   UNL     1      -8.531   5.391 -33.728  1.00  0.00     0.050 A 
HETATM   24  C   UNL     1      -8.343   4.032 -33.815  1.00  0.00     0.008 A 
HETATM   25  C   UNL     1      -7.359   3.569 -32.894  1.00  0.00     0.017 A 
ENDBRANCH  20  21
ENDBRANCH   2  20
BRANCH   1  26
HETATM   26  C   UNL     1      -4.324   2.053 -31.423  1.00  0.00     0.101 A 
HETATM   27  N   UNL     1      -4.374   1.186 -32.492  1.00  0.00    -0.351 N 
HETATM   28  C   UNL     1      -5.068   0.039 -32.174  1.00  0.00     0.043 A 
HETATM   29  H   UNL     1      -3.970   1.374 -33.399  1.00  0.00     0.166 HD
HETATM   30  C   UNL     1      -5.427   0.163 -30.843  1.00  0.00     0.033 A 
HETATM   31  C   UNL     1      -4.939   1.402 -30.369  1.00  0.00     0.037 A 
BRANCH  28  32
HETATM   32  C   UNL     1      -5.319  -1.041 -33.134  1.00  0.00    -0.009 A 
HETATM   33  C   UNL     1      -4.295  -1.909 -33.545  1.00  0.00     0.013 A 
HETATM   34  C   UNL     1      -4.552  -2.939 -34.453  1.00  0.00     0.001 A 
HETATM   35  C   UNL     1      -5.836  -3.117 -34.965  1.00  0.00     0.000 A 
HETATM   36  C   UNL     1      -6.863  -2.265 -34.567  1.00  0.00     0.001 A 
HETATM   37  C   UNL     1      -6.605  -1.235 -33.658  1.00  0.00     0.013 A 
ENDBRANCH  28  32
ENDBRANCH   1  26
TORSDOF 9
ENDMDL
MODEL 5
REMARK VINA RESULT:      -8.2      2.000      2.677
REMARK  9 active torsions:
REMARK  status: ('A' for Active; 'I' for Inactive)
REMARK    1  A    between atoms: C_4  and  C_5 
REMARK    2  A    between atoms: C_8  and  C_9 
REMARK       I    between atoms: C_9  and  N_10 
REMARK    3  A    between atoms: N_10  and  C_11 
REMARK    4  A    between atoms: N_10  and  C_26 
REMARK    5  A    between atoms: C_11  and  C_12 
REMARK    6  A    between atoms: C_11  and  C_21 
REMARK       I    between atoms: C_12  and  N_13 
REMARK    7  A    between atoms: N_13  and  C_14 
REMARK    8  A    between atoms: C_14  and  C_15 
REMARK    9  A    between atoms: C_26  and  C_27 
ROOT
HETATM    1  C   UNL     1      -5.379   1.624 -30.996  1.00  0.00     0.271 C 
HETATM    2  N   UNL     1      -5.606   2.892 -31.539  1.00  0.00    -0.324 N 
HETATM    3  O   UNL     1      -5.700   1.354 -29.840  1.00  0.00    -0.266 OA
ENDROOT
BRANCH   2   4
HETATM    4  C   UNL     1      -5.997   4.030 -30.674  1.00  0.00     0.220 C 
BRANCH   4   5
HETATM    5  C   UNL     1      -4.889   5.063 -30.335  1.00  0.00     0.245 C 
HETATM    6  N   UNL     1      -3.707   4.958 -31.028  1.00  0.00    -0.357 N 
HETATM    7  H   UNL     1      -3.570   4.126 -31.606  1.00  0.00     0.162 HD
HETATM    8  O   UNL     1      -5.065   5.928 -29.475  1.00  0.00    -0.271 OA
BRANCH   6   9
HETATM    9  C   UNL     1      -2.576   5.832 -30.801  1.00  0.00     0.154 C 
BRANCH   9  10
HETATM   10  C   UNL     1      -1.320   5.468 -31.611  1.00  0.00     0.139 C 
HETATM   11  O   UNL     1      -0.514   4.572 -30.813  1.00  0.00    -0.384 OA
HETATM   12  C   UNL     1       0.689   5.247 -30.424  1.00  0.00     0.168 C 
HETATM   13  C   UNL     1       0.495   6.713 -30.739  1.00  0.00     0.029 C 
HETATM   14  C   UNL     1      -0.422   6.656 -31.934  1.00  0.00     0.035 C 
ENDBRANCH   9  10
ENDBRANCH   6   9
ENDBRANCH   4   5
BRANCH   4  15
HETATM   15  C   UNL     1      -7.295   4.707 -31.088  1.00  0.00     0.014 A 
HETATM   16  S   UNL     1      -8.737   4.325 -30.210  1.00  0.00    -0.104 SA
HETATM   17  C   UNL     1      -9.690   5.378 -31.153  1.00  0.00     0.050 A 
HETATM   18  C   UNL     1      -8.946   6.029 -32.106  1.00  0.00     0.008 A 
HETATM   19  C   UNL     1      -7.572   5.652 -32.062  1.00  0.00     0.017 A 
ENDBRANCH   4  15
ENDBRANCH   2   4
BRANCH   2  20
HETATM   20  C   UNL     1      -6.005   3.017 -32.948  1.00  0.00     0.173 C 
BRANCH  20  21
HETATM   21  C   UNL     1      -7.120   2.070 -33.294  1.00  0.00     0.000 A 
HETATM   22  S   UNL     1      -7.047   1.225 -34.792  1.00  0.00    -0.105 SA
HETATM   23  C   UNL     1      -8.536   0.440 -34.504  1.00  0.00     0.050 A 
HETATM   24  C   UNL     1      -9.076   0.789 -33.288  1.00  0.00     0.008 A 
HETATM   25  C   UNL     1      -8.258   1.723 -32.589  1.00  0.00     0.017 A 
ENDBRANCH  20  21
ENDBRANCH   2  20
BRANCH   1  26
HETATM   26  C   UNL     1      -4.779   0.608 -31.838  1.00  0.00     0.101 A 
HETATM   27  N   UNL     1      -5.417  -0.497 -32.354  1.00  0.00    -0.351 N 
HETATM   28  C   UNL     1      -4.563  -1.252 -33.130  1.00  0.00     0.043 A 
HETATM   29  H   UNL     1      -6.382  -0.736 -32.174  1.00  0.00     0.166 HD
HETATM   30  C   UNL     1      -3.357  -0.573 -33.145  1.00  0.00     0.033 A 
HETATM   31  C   UNL     1      -3.500   0.598 -32.365  1.00  0.00     0.037 A 
BRANCH  28  32
HETATM   32  C   UNL     1      -4.959  -2.510 -33.771  1.00  0.00    -0.009 A 
HETATM   33  C   UNL     1      -4.125  -3.638 -33.748  1.00  0.00     0.013 A 
HETATM   34  C   UNL     1      -4.520  -4.833 -34.355  1.00  0.00     0.001 A 
HETATM   35  C   UNL     1      -5.755  -4.917 -34.995  1.00  0.00     0.000 A 
HETATM   36  C   UNL     1      -6.595  -3.807 -35.026  1.00  0.00     0.001 A 
HETATM   37  C   UNL     1      -6.199  -2.613 -34.418  1.00  0.00     0.013 A 
ENDBRANCH  28  32
ENDBRANCH   1  26
TORSDOF 9
ENDMDL
MODEL 6
REMARK VINA RESULT:      -8.2      2.571      5.493
REMARK  9 active torsions:
REMARK  status: ('A' for Active; 'I' for Inactive)
REMARK    1  A    between atoms: C_4  and  C_5 
REMARK    2  A    between atoms: C_8  and  C_9 
REMARK       I    between atoms: C_9  and  N_10 
REMARK    3  A    between atoms: N_10  and  C_11 
REMARK    4  A    between atoms: N_10  and  C_26 
REMARK    5  A    between atoms: C_11  and  C_12 
REMARK    6  A    between atoms: C_11  and  C_21 
REMARK       I    between atoms: C_12  and  N_13 
REMARK    7  A    between atoms: N_13  and  C_14 
REMARK    8  A    between atoms: C_14  and  C_15 
REMARK    9  A    between atoms: C_26  and  C_27 
ROOT
HETATM    1  C   UNL     1      -6.710   2.442 -31.806  1.00  0.00     0.271 C 
HETATM    2  N   UNL     1      -6.274   3.641 -32.376  1.00  0.00    -0.324 N 
HETATM    3  O   UNL     1      -7.739   2.386 -31.135  1.00  0.00    -0.266 OA
ENDROOT
BRANCH   2   4
HETATM    4  C   UNL     1      -6.883   4.934 -31.985  1.00  0.00     0.220 C 
BRANCH   4   5
HETATM    5  C   UNL     1      -8.277   5.260 -32.585  1.00  0.00     0.245 C 
HETATM    6  N   UNL     1      -9.118   4.199 -32.817  1.00  0.00    -0.357 N 
HETATM    7  H   UNL     1      -8.728   3.259 -32.730  1.00  0.00     0.162 HD
HETATM    8  O   UNL     1      -8.603   6.420 -32.847  1.00  0.00    -0.271 OA
BRANCH   6   9
HETATM    9  C   UNL     1     -10.436   4.346 -33.397  1.00  0.00     0.154 C 
BRANCH   9  10
HETATM   10  C   UNL     1     -10.783   3.291 -34.460  1.00  0.00     0.139 C 
HETATM   11  O   UNL     1     -12.164   2.907 -34.282  1.00  0.00    -0.384 OA
HETATM   12  C   UNL     1     -12.216   1.552 -33.814  1.00  0.00     0.168 C 
HETATM   13  C   UNL     1     -10.812   1.173 -33.402  1.00  0.00     0.029 C 
HETATM   14  C   UNL     1      -9.977   2.002 -34.344  1.00  0.00     0.035 C 
ENDBRANCH   9  10
ENDBRANCH   6   9
ENDBRANCH   4   5
BRANCH   4  15
HETATM   15  C   UNL     1      -6.828   5.219 -30.491  1.00  0.00     0.014 A 
HETATM   16  S   UNL     1      -5.280   5.481 -29.761  1.00  0.00    -0.104 SA
HETATM   17  C   UNL     1      -5.957   5.728 -28.217  1.00  0.00     0.050 A 
HETATM   18  C   UNL     1      -7.327   5.638 -28.236  1.00  0.00     0.008 A 
HETATM   19  C   UNL     1      -7.827   5.356 -29.542  1.00  0.00     0.017 A 
ENDBRANCH   4  15
ENDBRANCH   2   4
BRANCH   2  20
HETATM   20  C   UNL     1      -5.649   3.627 -33.706  1.00  0.00     0.173 C 
BRANCH  20  21
HETATM   21  C   UNL     1      -4.261   4.202 -33.673  1.00  0.00     0.000 A 
HETATM   22  S   UNL     1      -3.775   5.258 -34.942  1.00  0.00    -0.105 SA
HETATM   23  C   UNL     1      -2.214   5.455 -34.278  1.00  0.00     0.050 A 
HETATM   24  C   UNL     1      -2.061   4.755 -33.104  1.00  0.00     0.008 A 
HETATM   25  C   UNL     1      -3.241   4.038 -32.753  1.00  0.00     0.017 A 
ENDBRANCH  20  21
ENDBRANCH   2  20
BRANCH   1  26
HETATM   26  C   UNL     1      -5.935   1.240 -32.045  1.00  0.00     0.101 A 
HETATM   27  N   UNL     1      -6.303   0.185 -32.849  1.00  0.00    -0.351 N 
HETATM   28  C   UNL     1      -5.329  -0.790 -32.873  1.00  0.00     0.043 A 
HETATM   29  H   UNL     1      -7.182   0.123 -33.343  1.00  0.00     0.166 HD
HETATM   30  C   UNL     1      -4.287  -0.311 -32.097  1.00  0.00     0.033 A 
HETATM   31  C   UNL     1      -4.652   0.963 -31.606  1.00  0.00     0.037 A 
BRANCH  28  32
HETATM   32  C   UNL     1      -5.469  -2.049 -33.611  1.00  0.00    -0.009 A 
HETATM   33  C   UNL     1      -6.689  -2.426 -34.193  1.00  0.00     0.013 A 
HETATM   34  C   UNL     1      -6.804  -3.625 -34.901  1.00  0.00     0.001 A 
HETATM   35  C   UNL     1      -5.702  -4.465 -35.038  1.00  0.00     0.000 A 
HETATM   36  C   UNL     1      -4.483  -4.106 -34.467  1.00  0.00     0.001 A 
HETATM   37  C   UNL     1      -4.369  -2.906 -33.759  1.00  0.00     0.013 A 
ENDBRANCH  28  32
ENDBRANCH   1  26
TORSDOF 9
ENDMDL
MODEL 7
REMARK VINA RESULT:      -8.1      3.371      8.966
REMARK  9 active torsions:
REMARK  status: ('A' for Active; 'I' for Inactive)
REMARK    1  A    between atoms: C_4  and  C_5 
REMARK    2  A    between atoms: C_8  and  C_9 
REMARK       I    between atoms: C_9  and  N_10 
REMARK    3  A    between atoms: N_10  and  C_11 
REMARK    4  A    between atoms: N_10  and  C_26 
REMARK    5  A    between atoms: C_11  and  C_12 
REMARK    6  A    between atoms: C_11  and  C_21 
REMARK       I    between atoms: C_12  and  N_13 
REMARK    7  A    between atoms: N_13  and  C_14 
REMARK    8  A    between atoms: C_14  and  C_15 
REMARK    9  A    between atoms: C_26  and  C_27 
ROOT
HETATM    1  C   UNL     1      -3.038   4.832 -31.691  1.00  0.00     0.271 C 
HETATM    2  N   UNL     1      -3.971   5.790 -32.095  1.00  0.00    -0.324 N 
HETATM    3  O   UNL     1      -3.275   3.628 -31.777  1.00  0.00    -0.266 OA
ENDROOT
BRANCH   2   4
HETATM    4  C   UNL     1      -5.371   5.408 -32.397  1.00  0.00     0.220 C 
BRANCH   4   5
HETATM    5  C   UNL     1      -5.578   4.288 -33.450  1.00  0.00     0.245 C 
HETATM    6  N   UNL     1      -5.948   3.052 -32.979  1.00  0.00    -0.357 N 
HETATM    7  H   UNL     1      -5.914   2.901 -31.969  1.00  0.00     0.162 HD
HETATM    8  O   UNL     1      -5.407   4.503 -34.652  1.00  0.00    -0.271 OA
BRANCH   6   9
HETATM    9  C   UNL     1      -6.151   1.905 -33.839  1.00  0.00     0.154 C 
BRANCH   9  10
HETATM   10  C   UNL     1      -6.592   0.629 -33.102  1.00  0.00     0.139 C 
HETATM   11  O   UNL     1      -5.428  -0.205 -32.909  1.00  0.00    -0.384 OA
HETATM   12  C   UNL     1      -5.553  -1.378 -33.724  1.00  0.00     0.168 C 
HETATM   13  C   UNL     1      -6.694  -1.129 -34.685  1.00  0.00     0.029 C 
HETATM   14  C   UNL     1      -7.589  -0.224 -33.877  1.00  0.00     0.035 C 
ENDBRANCH   9  10
ENDBRANCH   6   9
ENDBRANCH   4   5
BRANCH   4  15
HETATM   15  C   UNL     1      -6.235   5.194 -31.163  1.00  0.00     0.014 A 
HETATM   16  S   UNL     1      -7.918   5.588 -31.260  1.00  0.00    -0.104 SA
HETATM   17  C   UNL     1      -8.207   5.115 -29.648  1.00  0.00     0.050 A 
HETATM   18  C   UNL     1      -7.069   4.647 -29.039  1.00  0.00     0.008 A 
HETATM   19  C   UNL     1      -5.942   4.682 -29.910  1.00  0.00     0.017 A 
ENDBRANCH   4  15
ENDBRANCH   2   4
BRANCH   2  20
HETATM   20  C   UNL     1      -3.509   7.021 -32.751  1.00  0.00     0.173 C 
BRANCH  20  21
HETATM   21  C   UNL     1      -3.306   8.135 -31.762  1.00  0.00     0.000 A 
HETATM   22  S   UNL     1      -4.623   8.587 -30.750  1.00  0.00    -0.105 SA
HETATM   23  C   UNL     1      -3.712   9.817 -29.992  1.00  0.00     0.050 A 
HETATM   24  C   UNL     1      -2.426   9.877 -30.476  1.00  0.00     0.008 A 
HETATM   25  C   UNL     1      -2.191   8.905 -31.491  1.00  0.00     0.017 A 
ENDBRANCH  20  21
ENDBRANCH   2  20
BRANCH   1  26
HETATM   26  C   UNL     1      -1.755   5.283 -31.188  1.00  0.00     0.101 A 
HETATM   27  N   UNL     1      -1.528   5.883 -29.970  1.00  0.00    -0.351 N 
HETATM   28  C   UNL     1      -0.191   6.170 -29.795  1.00  0.00     0.043 A 
HETATM   29  H   UNL     1      -2.249   6.102 -29.297  1.00  0.00     0.166 HD
HETATM   30  C   UNL     1       0.456   5.690 -30.921  1.00  0.00     0.033 A 
HETATM   31  C   UNL     1      -0.513   5.113 -31.774  1.00  0.00     0.037 A 
BRANCH  28  32
HETATM   32  C   UNL     1       0.336   6.851 -28.608  1.00  0.00    -0.009 A 
HETATM   33  C   UNL     1       1.109   8.017 -28.716  1.00  0.00     0.013 A 
HETATM   34  C   UNL     1       1.597   8.660 -27.574  1.00  0.00     0.001 A 
HETATM   35  C   UNL     1       1.320   8.146 -26.310  1.00  0.00     0.000 A 
HETATM   36  C   UNL     1       0.554   6.989 -26.186  1.00  0.00     0.001 A 
HETATM   37  C   UNL     1       0.066   6.348 -27.328  1.00  0.00     0.013 A 
ENDBRANCH  28  32
ENDBRANCH   1  26
TORSDOF 9
ENDMDL
MODEL 8
REMARK VINA RESULT:      -8.0      2.706      8.222
REMARK  9 active torsions:
REMARK  status: ('A' for Active; 'I' for Inactive)
REMARK    1  A    between atoms: C_4  and  C_5 
REMARK    2  A    between atoms: C_8  and  C_9 
REMARK       I    between atoms: C_9  and  N_10 
REMARK    3  A    between atoms: N_10  and  C_11 
REMARK    4  A    between atoms: N_10  and  C_26 
REMARK    5  A    between atoms: C_11  and  C_12 
REMARK    6  A    between atoms: C_11  and  C_21 
REMARK       I    between atoms: C_12  and  N_13 
REMARK    7  A    between atoms: N_13  and  C_14 
REMARK    8  A    between atoms: C_14  and  C_15 
REMARK    9  A    between atoms: C_26  and  C_27 
ROOT
HETATM    1  C   UNL     1      -3.914   2.491 -32.062  1.00  0.00     0.271 C 
HETATM    2  N   UNL     1      -5.256   2.732 -32.369  1.00  0.00    -0.324 N 
HETATM    3  O   UNL     1      -3.507   1.359 -31.808  1.00  0.00    -0.266 OA
ENDROOT
BRANCH   2   4
HETATM    4  C   UNL     1      -6.285   1.688 -32.149  1.00  0.00     0.220 C 
BRANCH   4   5
HETATM    5  C   UNL     1      -7.658   2.164 -31.602  1.00  0.00     0.245 C 
HETATM    6  N   UNL     1      -8.742   2.018 -32.433  1.00  0.00    -0.357 N 
HETATM    7  H   UNL     1      -8.563   1.754 -33.403  1.00  0.00     0.162 HD
HETATM    8  O   UNL     1      -7.759   2.659 -30.478  1.00  0.00    -0.271 OA
BRANCH   6   9
HETATM    9  C   UNL     1     -10.079   2.440 -32.070  1.00  0.00     0.154 C 
BRANCH   9  10
HETATM   10  C   UNL     1     -10.964   2.836 -33.264  1.00  0.00     0.139 C 
HETATM   11  O   UNL     1     -12.292   3.115 -32.768  1.00  0.00    -0.384 OA
HETATM   12  C   UNL     1     -13.189   2.099 -33.235  1.00  0.00     0.168 C 
HETATM   13  C   UNL     1     -12.338   0.983 -33.797  1.00  0.00     0.029 C 
HETATM   14  C   UNL     1     -11.134   1.735 -34.304  1.00  0.00     0.035 C 
ENDBRANCH   9  10
ENDBRANCH   6   9
ENDBRANCH   4   5
BRANCH   4  15
HETATM   15  C   UNL     1      -6.442   0.717 -33.310  1.00  0.00     0.014 A 
HETATM   16  S   UNL     1      -6.064  -0.951 -33.043  1.00  0.00    -0.104 SA
HETATM   17  C   UNL     1      -6.458  -1.383 -34.643  1.00  0.00     0.050 A 
HETATM   18  C   UNL     1      -6.888  -0.304 -35.376  1.00  0.00     0.008 A 
HETATM   19  C   UNL     1      -6.889   0.898 -34.608  1.00  0.00     0.017 A 
ENDBRANCH   4  15
ENDBRANCH   2   4
BRANCH   2  20
HETATM   20  C   UNL     1      -5.599   3.736 -33.385  1.00  0.00     0.173 C 
BRANCH  20  21
HETATM   21  C   UNL     1      -6.260   4.940 -32.774  1.00  0.00     0.000 A 
HETATM   22  S   UNL     1      -7.771   5.462 -33.411  1.00  0.00    -0.105 SA
HETATM   23  C   UNL     1      -7.860   6.773 -32.320  1.00  0.00     0.050 A 
HETATM   24  C   UNL     1      -6.780   6.809 -31.470  1.00  0.00     0.008 A 
HETATM   25  C   UNL     1      -5.861   5.751 -31.728  1.00  0.00     0.017 A 
ENDBRANCH  20  21
ENDBRANCH   2  20
BRANCH   1  26
HETATM   26  C   UNL     1      -2.990   3.608 -32.075  1.00  0.00     0.101 A 
HETATM   27  N   UNL     1      -2.607   4.356 -30.985  1.00  0.00    -0.351 N 
HETATM   28  C   UNL     1      -1.700   5.331 -31.340  1.00  0.00     0.043 A 
HETATM   29  H   UNL     1      -2.959   4.221 -30.047  1.00  0.00     0.166 HD
HETATM   30  C   UNL     1      -1.464   5.161 -32.694  1.00  0.00     0.033 A 
HETATM   31  C   UNL     1      -2.244   4.072 -33.144  1.00  0.00     0.037 A 
BRANCH  28  32
HETATM   32  C   UNL     1      -1.153   6.306 -30.390  1.00  0.00    -0.009 A 
HETATM   33  C   UNL     1       0.230   6.475 -30.229  1.00  0.00     0.013 A 
HETATM   34  C   UNL     1       0.735   7.415 -29.326  1.00  0.00     0.001 A 
HETATM   35  C   UNL     1      -0.135   8.197 -28.571  1.00  0.00     0.000 A 
HETATM   36  C   UNL     1      -1.511   8.042 -28.719  1.00  0.00     0.001 A 
HETATM   37  C   UNL     1      -2.015   7.103 -29.623  1.00  0.00     0.013 A 
ENDBRANCH  28  32
ENDBRANCH   1  26
TORSDOF 9
ENDMDL
MODEL 9
REMARK VINA RESULT:      -7.9      2.589      3.419
REMARK  9 active torsions:
REMARK  status: ('A' for Active; 'I' for Inactive)
REMARK    1  A    between atoms: C_4  and  C_5 
REMARK    2  A    between atoms: C_8  and  C_9 
REMARK       I    between atoms: C_9  and  N_10 
REMARK    3  A    between atoms: N_10  and  C_11 
REMARK    4  A    between atoms: N_10  and  C_26 
REMARK    5  A    between atoms: C_11  and  C_12 
REMARK    6  A    between atoms: C_11  and  C_21 
REMARK       I    between atoms: C_12  and  N_13 
REMARK    7  A    between atoms: N_13  and  C_14 
REMARK    8  A    between atoms: C_14  and  C_15 
REMARK    9  A    between atoms: C_26  and  C_27 
ROOT
HETATM    1  C   UNL     1      -8.990   1.516 -32.697  1.00  0.00     0.271 C 
HETATM    2  N   UNL     1      -9.926   2.395 -33.248  1.00  0.00    -0.324 N 
HETATM    3  O   UNL     1      -8.883   1.372 -31.480  1.00  0.00    -0.266 OA
ENDROOT
BRANCH   2   4
HETATM    4  C   UNL     1     -10.641   3.375 -32.396  1.00  0.00     0.220 C 
BRANCH   4   5
HETATM    5  C   UNL     1      -9.866   3.935 -31.174  1.00  0.00     0.245 C 
HETATM    6  N   UNL     1      -8.717   4.639 -31.436  1.00  0.00    -0.357 N 
HETATM    7  H   UNL     1      -8.359   4.622 -32.393  1.00  0.00     0.162 HD
HETATM    8  O   UNL     1     -10.266   3.743 -30.023  1.00  0.00    -0.271 OA
BRANCH   6   9
HETATM    9  C   UNL     1      -7.877   5.198 -30.397  1.00  0.00     0.154 C 
BRANCH   9  10
HETATM   10  C   UNL     1      -6.369   5.005 -30.629  1.00  0.00     0.139 C 
HETATM   11  O   UNL     1      -6.191   4.294 -31.875  1.00  0.00    -0.384 OA
HETATM   12  C   UNL     1      -5.686   2.981 -31.596  1.00  0.00     0.168 C 
HETATM   13  C   UNL     1      -5.833   2.758 -30.108  1.00  0.00     0.029 C 
HETATM   14  C   UNL     1      -5.679   4.157 -29.567  1.00  0.00     0.035 C 
ENDBRANCH   9  10
ENDBRANCH   6   9
ENDBRANCH   4   5
BRANCH   4  15
HETATM   15  C   UNL     1     -11.346   4.476 -33.175  1.00  0.00     0.014 A 
HETATM   16  S   UNL     1     -12.918   4.976 -32.652  1.00  0.00    -0.104 SA
HETATM   17  C   UNL     1     -13.050   6.143 -33.887  1.00  0.00     0.050 A 
HETATM   18  C   UNL     1     -11.928   6.182 -34.678  1.00  0.00     0.008 A 
HETATM   19  C   UNL     1     -10.947   5.234 -34.263  1.00  0.00     0.017 A 
ENDBRANCH   4  15
ENDBRANCH   2   4
BRANCH   2  20
HETATM   20  C   UNL     1     -10.620   2.031 -34.491  1.00  0.00     0.173 C 
BRANCH  20  21
HETATM   21  C   UNL     1     -11.863   1.230 -34.218  1.00  0.00     0.000 A 
HETATM   22  S   UNL     1     -13.368   1.816 -34.813  1.00  0.00    -0.105 SA
HETATM   23  C   UNL     1     -14.227   0.501 -34.143  1.00  0.00     0.050 A 
HETATM   24  C   UNL     1     -13.395  -0.382 -33.496  1.00  0.00     0.008 A 
HETATM   25  C   UNL     1     -12.033   0.035 -33.543  1.00  0.00     0.017 A 
ENDBRANCH  20  21
ENDBRANCH   2  20
BRANCH   1  26
HETATM   26  C   UNL     1      -8.155   0.742 -33.595  1.00  0.00     0.101 A 
HETATM   27  N   UNL     1      -7.679  -0.529 -33.366  1.00  0.00    -0.351 N 
HETATM   28  C   UNL     1      -6.931  -0.983 -34.430  1.00  0.00     0.043 A 
HETATM   29  H   UNL     1      -7.840  -1.055 -32.518  1.00  0.00     0.166 HD
HETATM   30  C   UNL     1      -6.978   0.017 -35.387  1.00  0.00     0.033 A 
HETATM   31  C   UNL     1      -7.762   1.077 -34.879  1.00  0.00     0.037 A 
BRANCH  28  32
HETATM   32  C   UNL     1      -6.261  -2.288 -34.445  1.00  0.00    -0.009 A 
HETATM   33  C   UNL     1      -6.947  -3.460 -34.797  1.00  0.00     0.013 A 
HETATM   34  C   UNL     1      -6.293  -4.694 -34.814  1.00  0.00     0.001 A 
HETATM   35  C   UNL     1      -4.943  -4.775 -34.479  1.00  0.00     0.000 A 
HETATM   36  C   UNL     1      -4.247  -3.621 -34.127  1.00  0.00     0.001 A 
HETATM   37  C   UNL     1      -4.903  -2.387 -34.111  1.00  0.00     0.013 A 
ENDBRANCH  28  32
ENDBRANCH   1  26
TORSDOF 9
ENDMDL
MODEL 10
REMARK VINA RESULT:      -7.9      1.833      2.534
REMARK  9 active torsions:
REMARK  status: ('A' for Active; 'I' for Inactive)
REMARK    1  A    between atoms: C_4  and  C_5 
REMARK    2  A    between atoms: C_8  and  C_9 
REMARK       I    between atoms: C_9  and  N_10 
REMARK    3  A    between atoms: N_10  and  C_11 
REMARK    4  A    between atoms: N_10  and  C_26 
REMARK    5  A    between atoms: C_11  and  C_12 
REMARK    6  A    between atoms: C_11  and  C_21 
REMARK       I    between atoms: C_12  and  N_13 
REMARK    7  A    between atoms: N_13  and  C_14 
REMARK    8  A    between atoms: C_14  and  C_15 
REMARK    9  A    between atoms: C_26  and  C_27 
ROOT
HETATM    1  C   UNL     1      -4.119   2.892 -31.421  1.00  0.00     0.271 C 
HETATM    2  N   UNL     1      -5.352   3.369 -30.968  1.00  0.00    -0.324 N 
HETATM    3  O   UNL     1      -3.164   3.646 -31.597  1.00  0.00    -0.266 OA
ENDROOT
BRANCH   2   4
HETATM    4  C   UNL     1      -5.637   4.823 -30.931  1.00  0.00     0.220 C 
BRANCH   4   5
HETATM    5  C   UNL     1      -4.411   5.775 -30.927  1.00  0.00     0.245 C 
HETATM    6  N   UNL     1      -4.023   6.294 -32.139  1.00  0.00    -0.357 N 
HETATM    7  H   UNL     1      -4.457   5.909 -32.980  1.00  0.00     0.162 HD
HETATM    8  O   UNL     1      -3.813   6.041 -29.883  1.00  0.00    -0.271 OA
BRANCH   6   9
HETATM    9  C   UNL     1      -2.884   7.174 -32.295  1.00  0.00     0.154 C 
BRANCH   9  10
HETATM   10  C   UNL     1      -2.302   7.212 -33.718  1.00  0.00     0.139 C 
HETATM   11  O   UNL     1      -3.126   6.380 -34.565  1.00  0.00    -0.384 OA
HETATM   12  C   UNL     1      -2.376   5.223 -34.957  1.00  0.00     0.168 C 
HETATM   13  C   UNL     1      -1.142   5.180 -34.085  1.00  0.00     0.029 C 
HETATM   14  C   UNL     1      -0.892   6.645 -33.828  1.00  0.00     0.035 C 
ENDBRANCH   9  10
ENDBRANCH   6   9
ENDBRANCH   4   5
BRANCH   4  15
HETATM   15  C   UNL     1      -6.702   5.273 -31.921  1.00  0.00     0.014 A 
HETATM   16  S   UNL     1      -6.832   4.430 -33.427  1.00  0.00    -0.104 SA
HETATM   17  C   UNL     1      -8.130   5.400 -33.953  1.00  0.00     0.050 A 
HETATM   18  C   UNL     1      -8.485   6.337 -33.013  1.00  0.00     0.008 A 
HETATM   19  C   UNL     1      -7.673   6.256 -31.844  1.00  0.00     0.017 A 
ENDBRANCH   4  15
ENDBRANCH   2   4
BRANCH   2  20
HETATM   20  C   UNL     1      -6.146   2.558 -30.035  1.00  0.00     0.173 C 
BRANCH  20  21
HETATM   21  C   UNL     1      -7.560   2.385 -30.515  1.00  0.00     0.000 A 
HETATM   22  S   UNL     1      -7.915   1.085 -31.584  1.00  0.00    -0.105 SA
HETATM   23  C   UNL     1      -9.561   1.525 -31.690  1.00  0.00     0.050 A 
HETATM   24  C   UNL     1      -9.851   2.624 -30.916  1.00  0.00     0.008 A 
HETATM   25  C   UNL     1      -8.700   3.116 -30.235  1.00  0.00     0.017 A 
ENDBRANCH  20  21
ENDBRANCH   2  20
BRANCH   1  26
HETATM   26  C   UNL     1      -3.972   1.469 -31.657  1.00  0.00     0.101 A 
HETATM   27  N   UNL     1      -4.666   0.725 -32.584  1.00  0.00    -0.351 N 
HETATM   28  C   UNL     1      -4.271  -0.596 -32.563  1.00  0.00     0.043 A 
HETATM   29  H   UNL     1      -5.385   1.094 -33.191  1.00  0.00     0.166 HD
HETATM   30  C   UNL     1      -3.258  -0.679 -31.623  1.00  0.00     0.033 A 
HETATM   31  C   UNL     1      -3.053   0.610 -31.081  1.00  0.00     0.037 A 
BRANCH  28  32
HETATM   32  C   UNL     1      -4.872  -1.628 -33.414  1.00  0.00    -0.009 A 
HETATM   33  C   UNL     1      -4.179  -2.804 -33.740  1.00  0.00     0.013 A 
HETATM   34  C   UNL     1      -4.769  -3.782 -34.545  1.00  0.00     0.001 A 
HETATM   35  C   UNL     1      -6.060  -3.600 -35.035  1.00  0.00     0.000 A 
HETATM   36  C   UNL     1      -6.762  -2.439 -34.721  1.00  0.00     0.001 A 
HETATM   37  C   UNL     1      -6.171  -1.461 -33.916  1.00  0.00     0.013 A 
ENDBRANCH  28  32
ENDBRANCH   1  26
TORSDOF 9
ENDMDL
