MODEL 1
REMARK VINA RESULT:      -8.6      0.000      0.000
REMARK  6 active torsions:
REMARK  status: ('A' for Active; 'I' for Inactive)
REMARK    1  A    between atoms: C_2  and  C_3 
REMARK    2  A    between atoms: C_3  and  C_4 
REMARK    3  A    between atoms: C_3  and  C_10 
REMARK    4  A    between atoms: C_10  and  C_11 
REMARK       I    between atoms: C_11  and  N_12 
REMARK    5  A    between atoms: N_12  and  C_13 
REMARK    6  A    between atoms: C_15  and  C_16 
ROOT
HETATM    1  C   UNL     1      -6.772   0.302 -33.357  1.00  0.00     0.223 C 
HETATM    2  N   UNL     1      -7.906   0.684 -32.659  1.00  0.00    -0.327 N 
HETATM    3  O   UNL     1      -6.465   0.653 -34.492  1.00  0.00    -0.273 OA
HETATM    4  H   UNL     1      -7.927   0.468 -31.671  1.00  0.00     0.169 HD
ENDROOT
BRANCH   2   5
HETATM    5  C   UNL     1      -9.012   1.406 -33.157  1.00  0.00     0.035 A 
HETATM    6  C   UNL     1     -10.282   0.848 -33.346  1.00  0.00     0.042 A 
HETATM    7  C   UNL     1     -11.361   1.620 -33.813  1.00  0.00    -0.021 A 
HETATM    8  C   UNL     1     -11.134   2.974 -34.097  1.00  0.00     0.012 A 
HETATM    9  C   UNL     1      -9.872   3.541 -33.909  1.00  0.00     0.003 A 
HETATM   10  C   UNL     1      -8.818   2.761 -33.437  1.00  0.00     0.029 A 
BRANCH   7  11
HETATM   11  C   UNL     1     -12.677   1.011 -33.980  1.00  0.00     0.010 A 
HETATM   12  C   UNL     1     -13.872   1.526 -34.549  1.00  0.00     0.152 A 
HETATM   13  N   UNL     1     -14.881   0.650 -34.530  1.00  0.00    -0.187 NA
HETATM   14  N   UNL     1     -14.344  -0.430 -33.948  1.00  0.00    -0.289 N 
HETATM   15  H   UNL     1     -14.931  -1.247 -33.820  1.00  0.00     0.188 HD
HETATM   16  C   UNL     1     -13.033  -0.268 -33.602  1.00  0.00     0.123 A 
ENDBRANCH   7  11
ENDBRANCH   2   5
BRANCH   1  17
HETATM   17  C   UNL     1      -5.869  -0.621 -32.558  1.00  0.00     0.116 C 
BRANCH  17  18
HETATM   18  C   UNL     1      -4.598  -1.001 -33.343  1.00  0.00     0.049 C 
BRANCH  18  19
HETATM   19  C   UNL     1      -3.262  -0.722 -32.674  1.00  0.00    -0.027 C 
HETATM   20  C   UNL     1      -3.037  -0.190 -31.465  1.00  0.00     0.007 C 
ENDBRANCH  18  19
BRANCH  18  21
HETATM   21  C   UNL     1      -4.682  -2.465 -33.766  1.00  0.00    -0.050 A 
HETATM   22  C   UNL     1      -3.734  -3.404 -33.324  1.00  0.00     0.008 A 
HETATM   23  C   UNL     1      -3.822  -4.741 -33.715  1.00  0.00     0.001 A 
HETATM   24  C   UNL     1      -4.857  -5.157 -34.549  1.00  0.00     0.000 A 
HETATM   25  C   UNL     1      -5.806  -4.239 -34.993  1.00  0.00     0.001 A 
HETATM   26  C   UNL     1      -5.719  -2.899 -34.605  1.00  0.00     0.008 A 
ENDBRANCH  18  21
ENDBRANCH  17  18
ENDBRANCH   1  17
TORSDOF 6
ENDMDL
MODEL 2
REMARK VINA RESULT:      -8.5      0.971      1.382
REMARK  6 active torsions:
REMARK  status: ('A' for Active; 'I' for Inactive)
REMARK    1  A    between atoms: C_2  and  C_3 
REMARK    2  A    between atoms: C_3  and  C_4 
REMARK    3  A    between atoms: C_3  and  C_10 
REMARK    4  A    between atoms: C_10  and  C_11 
REMARK       I    between atoms: C_11  and  N_12 
REMARK    5  A    between atoms: N_12  and  C_13 
REMARK    6  A    between atoms: C_15  and  C_16 
ROOT
HETATM    1  C   UNL     1      -7.042   0.279 -32.046  1.00  0.00     0.223 C 
HETATM    2  N   UNL     1      -7.965   0.057 -33.054  1.00  0.00    -0.327 N 
HETATM    3  O   UNL     1      -7.054   1.206 -31.241  1.00  0.00    -0.273 OA
HETATM    4  H   UNL     1      -7.932  -0.844 -33.512  1.00  0.00     0.169 HD
ENDROOT
BRANCH   2   5
HETATM    5  C   UNL     1      -8.998   0.923 -33.471  1.00  0.00     0.035 A 
HETATM    6  C   UNL     1     -10.355   0.578 -33.459  1.00  0.00     0.042 A 
HETATM    7  C   UNL     1     -11.349   1.492 -33.854  1.00  0.00    -0.021 A 
HETATM    8  C   UNL     1     -10.948   2.767 -34.273  1.00  0.00     0.012 A 
HETATM    9  C   UNL     1      -9.599   3.123 -34.288  1.00  0.00     0.003 A 
HETATM   10  C   UNL     1      -8.629   2.206 -33.884  1.00  0.00     0.029 A 
BRANCH   7  11
HETATM   11  C   UNL     1     -12.756   1.106 -33.808  1.00  0.00     0.010 A 
HETATM   12  C   UNL     1     -13.934   1.897 -33.756  1.00  0.00     0.152 A 
HETATM   13  N   UNL     1     -15.054   1.169 -33.738  1.00  0.00    -0.187 NA
HETATM   14  N   UNL     1     -14.606  -0.093 -33.776  1.00  0.00    -0.289 N 
HETATM   15  H   UNL     1     -15.287  -0.844 -33.771  1.00  0.00     0.188 HD
HETATM   16  C   UNL     1     -13.244  -0.186 -33.820  1.00  0.00     0.123 A 
ENDBRANCH   7  11
ENDBRANCH   2   5
BRANCH   1  17
HETATM   17  C   UNL     1      -5.960  -0.784 -31.991  1.00  0.00     0.116 C 
BRANCH  17  18
HETATM   18  C   UNL     1      -5.188  -0.889 -33.322  1.00  0.00     0.049 C 
BRANCH  18  19
HETATM   19  C   UNL     1      -3.723  -0.488 -33.306  1.00  0.00    -0.027 C 
HETATM   20  C   UNL     1      -2.929  -0.295 -32.244  1.00  0.00     0.007 C 
ENDBRANCH  18  19
BRANCH  18  21
HETATM   21  C   UNL     1      -5.345  -2.298 -33.888  1.00  0.00    -0.050 A 
HETATM   22  C   UNL     1      -6.531  -2.695 -34.528  1.00  0.00     0.008 A 
HETATM   23  C   UNL     1      -6.663  -3.985 -35.044  1.00  0.00     0.001 A 
HETATM   24  C   UNL     1      -5.612  -4.891 -34.932  1.00  0.00     0.000 A 
HETATM   25  C   UNL     1      -4.428  -4.512 -34.303  1.00  0.00     0.001 A 
HETATM   26  C   UNL     1      -4.295  -3.222 -33.783  1.00  0.00     0.008 A 
ENDBRANCH  18  21
ENDBRANCH  17  18
ENDBRANCH   1  17
TORSDOF 6
ENDMDL
MODEL 3
REMARK VINA RESULT:      -8.3      4.451      7.797
REMARK  6 active torsions:
REMARK  status: ('A' for Active; 'I' for Inactive)
REMARK    1  A    between atoms: C_2  and  C_3 
REMARK    2  A    between atoms: C_3  and  C_4 
REMARK    3  A    between atoms: C_3  and  C_10 
REMARK    4  A    between atoms: C_10  and  C_11 
REMARK       I    between atoms: C_11  and  N_12 
REMARK    5  A    between atoms: N_12  and  C_13 
REMARK    6  A    between atoms: C_15  and  C_16 
ROOT
HETATM    1  C   UNL     1      -4.846   2.400 -31.770  1.00  0.00     0.223 C 
HETATM    2  N   UNL     1      -4.547   1.651 -32.896  1.00  0.00    -0.327 N 
HETATM    3  O   UNL     1      -5.871   2.327 -31.099  1.00  0.00    -0.273 OA
HETATM    4  H   UNL     1      -3.592   1.686 -33.227  1.00  0.00     0.169 HD
ENDROOT
BRANCH   2   5
HETATM    5  C   UNL     1      -5.412   0.784 -33.598  1.00  0.00     0.035 A 
HETATM    6  C   UNL     1      -5.187  -0.590 -33.741  1.00  0.00     0.042 A 
HETATM    7  C   UNL     1      -6.099  -1.416 -34.424  1.00  0.00    -0.021 A 
HETATM    8  C   UNL     1      -7.246  -0.827 -34.971  1.00  0.00     0.012 A 
HETATM    9  C   UNL     1      -7.482   0.542 -34.832  1.00  0.00     0.003 A 
HETATM   10  C   UNL     1      -6.570   1.342 -34.145  1.00  0.00     0.029 A 
BRANCH   7  11
HETATM   11  C   UNL     1      -5.844  -2.849 -34.536  1.00  0.00     0.010 A 
HETATM   12  C   UNL     1      -6.695  -3.914 -34.932  1.00  0.00     0.152 A 
HETATM   13  N   UNL     1      -6.086  -5.104 -34.920  1.00  0.00    -0.187 NA
HETATM   14  N   UNL     1      -4.843  -4.813 -34.515  1.00  0.00    -0.289 N 
HETATM   15  H   UNL     1      -4.177  -5.572 -34.426  1.00  0.00     0.188 HD
HETATM   16  C   UNL     1      -4.645  -3.483 -34.275  1.00  0.00     0.123 A 
ENDBRANCH   7  11
ENDBRANCH   2   5
BRANCH   1  17
HETATM   17  C   UNL     1      -3.735   3.361 -31.387  1.00  0.00     0.116 C 
BRANCH  17  18
HETATM   18  C   UNL     1      -3.258   4.198 -32.592  1.00  0.00     0.049 C 
BRANCH  18  19
HETATM   19  C   UNL     1      -4.300   5.051 -33.296  1.00  0.00    -0.027 C 
HETATM   20  C   UNL     1      -4.814   4.885 -34.522  1.00  0.00     0.007 C 
ENDBRANCH  18  19
BRANCH  18  21
HETATM   21  C   UNL     1      -2.066   5.054 -32.174  1.00  0.00    -0.050 A 
HETATM   22  C   UNL     1      -1.753   6.244 -32.854  1.00  0.00     0.008 A 
HETATM   23  C   UNL     1      -0.662   7.020 -32.463  1.00  0.00     0.001 A 
HETATM   24  C   UNL     1       0.126   6.622 -31.386  1.00  0.00     0.000 A 
HETATM   25  C   UNL     1      -0.173   5.448 -30.699  1.00  0.00     0.001 A 
HETATM   26  C   UNL     1      -1.263   4.667 -31.091  1.00  0.00     0.008 A 
ENDBRANCH  18  21
ENDBRANCH  17  18
ENDBRANCH   1  17
TORSDOF 6
ENDMDL
MODEL 4
REMARK VINA RESULT:      -8.3      5.418      8.947
REMARK  6 active torsions:
REMARK  status: ('A' for Active; 'I' for Inactive)
REMARK    1  A    between atoms: C_2  and  C_3 
REMARK    2  A    between atoms: C_3  and  C_4 
REMARK    3  A    between atoms: C_3  and  C_10 
REMARK    4  A    between atoms: C_10  and  C_11 
REMARK       I    between atoms: C_11  and  N_12 
REMARK    5  A    between atoms: N_12  and  C_13 
REMARK    6  A    between atoms: C_15  and  C_16 
ROOT
HETATM    1  C   UNL     1      -3.819   2.226 -32.312  1.00  0.00     0.223 C 
HETATM    2  N   UNL     1      -3.794   3.480 -32.900  1.00  0.00    -0.327 N 
HETATM    3  O   UNL     1      -2.994   1.777 -31.523  1.00  0.00    -0.273 OA
HETATM    4  H   UNL     1      -4.635   3.777 -33.376  1.00  0.00     0.169 HD
ENDROOT
BRANCH   2   5
HETATM    5  C   UNL     1      -2.746   4.424 -32.852  1.00  0.00     0.035 A 
HETATM    6  C   UNL     1      -2.072   4.778 -31.677  1.00  0.00     0.042 A 
HETATM    7  C   UNL     1      -1.010   5.701 -31.690  1.00  0.00    -0.021 A 
HETATM    8  C   UNL     1      -0.641   6.271 -32.916  1.00  0.00     0.012 A 
HETATM    9  C   UNL     1      -1.304   5.923 -34.093  1.00  0.00     0.003 A 
HETATM   10  C   UNL     1      -2.349   5.000 -34.062  1.00  0.00     0.029 A 
BRANCH   7  11
HETATM   11  C   UNL     1      -0.315   6.032 -30.449  1.00  0.00     0.010 A 
HETATM   12  C   UNL     1      -0.128   7.278 -29.796  1.00  0.00     0.152 A 
HETATM   13  N   UNL     1       0.564   7.173 -28.657  1.00  0.00    -0.187 NA
HETATM   14  N   UNL     1       0.827   5.863 -28.572  1.00  0.00    -0.289 N 
HETATM   15  H   UNL     1       1.354   5.530 -27.772  1.00  0.00     0.188 HD
HETATM   16  C   UNL     1       0.324   5.137 -29.614  1.00  0.00     0.123 A 
ENDBRANCH   7  11
ENDBRANCH   2   5
BRANCH   1  17
HETATM   17  C   UNL     1      -5.029   1.405 -32.722  1.00  0.00     0.116 C 
BRANCH  17  18
HETATM   18  C   UNL     1      -5.064   0.038 -32.010  1.00  0.00     0.049 C 
BRANCH  18  19
HETATM   19  C   UNL     1      -6.011  -0.104 -30.830  1.00  0.00    -0.027 C 
HETATM   20  C   UNL     1      -5.949   0.511 -29.641  1.00  0.00     0.007 C 
ENDBRANCH  18  19
BRANCH  18  21
HETATM   21  C   UNL     1      -5.329  -1.061 -33.036  1.00  0.00    -0.050 A 
HETATM   22  C   UNL     1      -6.618  -1.275 -33.553  1.00  0.00     0.008 A 
HETATM   23  C   UNL     1      -6.849  -2.282 -34.491  1.00  0.00     0.001 A 
HETATM   24  C   UNL     1      -5.796  -3.083 -34.928  1.00  0.00     0.000 A 
HETATM   25  C   UNL     1      -4.512  -2.880 -34.428  1.00  0.00     0.001 A 
HETATM   26  C   UNL     1      -4.278  -1.875 -33.486  1.00  0.00     0.008 A 
ENDBRANCH  18  21
ENDBRANCH  17  18
ENDBRANCH   1  17
TORSDOF 6
ENDMDL
MODEL 5
REMARK VINA RESULT:      -8.2      4.349      7.314
REMARK  6 active torsions:
REMARK  status: ('A' for Active; 'I' for Inactive)
REMARK    1  A    between atoms: C_2  and  C_3 
REMARK    2  A    between atoms: C_3  and  C_4 
REMARK    3  A    between atoms: C_3  and  C_10 
REMARK    4  A    between atoms: C_10  and  C_11 
REMARK       I    between atoms: C_11  and  N_12 
REMARK    5  A    between atoms: N_12  and  C_13 
REMARK    6  A    between atoms: C_15  and  C_16 
ROOT
HETATM    1  C   UNL     1      -5.318   2.164 -31.542  1.00  0.00     0.223 C 
HETATM    2  N   UNL     1      -4.860   1.525 -32.682  1.00  0.00    -0.327 N 
HETATM    3  O   UNL     1      -6.398   1.978 -30.988  1.00  0.00    -0.273 OA
HETATM    4  H   UNL     1      -3.882   1.644 -32.909  1.00  0.00     0.169 HD
ENDROOT
BRANCH   2   5
HETATM    5  C   UNL     1      -5.591   0.668 -33.532  1.00  0.00     0.035 A 
HETATM    6  C   UNL     1      -5.333  -0.701 -33.664  1.00  0.00     0.042 A 
HETATM    7  C   UNL     1      -6.114  -1.519 -34.500  1.00  0.00    -0.021 A 
HETATM    8  C   UNL     1      -7.164  -0.926 -35.214  1.00  0.00     0.012 A 
HETATM    9  C   UNL     1      -7.433   0.438 -35.088  1.00  0.00     0.003 A 
HETATM   10  C   UNL     1      -6.652   1.230 -34.247  1.00  0.00     0.029 A 
BRANCH   7  11
HETATM   11  C   UNL     1      -5.830  -2.948 -34.598  1.00  0.00     0.010 A 
HETATM   12  C   UNL     1      -6.635  -4.024 -35.053  1.00  0.00     0.152 A 
HETATM   13  N   UNL     1      -6.011  -5.204 -35.002  1.00  0.00    -0.187 NA
HETATM   14  N   UNL     1      -4.802  -4.896 -34.513  1.00  0.00    -0.289 N 
HETATM   15  H   UNL     1      -4.132  -5.645 -34.381  1.00  0.00     0.188 HD
HETATM   16  C   UNL     1      -4.642  -3.564 -34.257  1.00  0.00     0.123 A 
ENDBRANCH   7  11
ENDBRANCH   2   5
BRANCH   1  17
HETATM   17  C   UNL     1      -4.317   3.156 -30.977  1.00  0.00     0.116 C 
BRANCH  17  18
HETATM   18  C   UNL     1      -4.556   4.582 -31.511  1.00  0.00     0.049 C 
BRANCH  18  19
HETATM   19  C   UNL     1      -4.514   5.716 -30.500  1.00  0.00    -0.027 C 
HETATM   20  C   UNL     1      -5.191   5.824 -29.349  1.00  0.00     0.007 C 
ENDBRANCH  18  19
BRANCH  18  21
HETATM   21  C   UNL     1      -3.592   4.862 -32.660  1.00  0.00    -0.050 A 
HETATM   22  C   UNL     1      -2.205   4.932 -32.443  1.00  0.00     0.008 A 
HETATM   23  C   UNL     1      -1.332   5.187 -33.502  1.00  0.00     0.001 A 
HETATM   24  C   UNL     1      -1.832   5.369 -34.789  1.00  0.00     0.000 A 
HETATM   25  C   UNL     1      -3.203   5.299 -35.020  1.00  0.00     0.001 A 
HETATM   26  C   UNL     1      -4.080   5.048 -33.962  1.00  0.00     0.008 A 
ENDBRANCH  18  21
ENDBRANCH  17  18
ENDBRANCH   1  17
TORSDOF 6
ENDMDL
MODEL 6
REMARK VINA RESULT:      -8.1      4.346      7.572
REMARK  6 active torsions:
REMARK  status: ('A' for Active; 'I' for Inactive)
REMARK    1  A    between atoms: C_2  and  C_3 
REMARK    2  A    between atoms: C_3  and  C_4 
REMARK    3  A    between atoms: C_3  and  C_10 
REMARK    4  A    between atoms: C_10  and  C_11 
REMARK       I    between atoms: C_11  and  N_12 
REMARK    5  A    between atoms: N_12  and  C_13 
REMARK    6  A    between atoms: C_15  and  C_16 
ROOT
HETATM    1  C   UNL     1      -4.689   0.565 -32.550  1.00  0.00     0.223 C 
HETATM    2  N   UNL     1      -5.315   1.788 -32.375  1.00  0.00    -0.327 N 
HETATM    3  O   UNL     1      -3.517   0.388 -32.870  1.00  0.00    -0.273 OA
HETATM    4  H   UNL     1      -6.223   1.775 -31.929  1.00  0.00     0.169 HD
ENDROOT
BRANCH   2   5
HETATM    5  C   UNL     1      -4.799   3.064 -32.688  1.00  0.00     0.035 A 
HETATM    6  C   UNL     1      -3.693   3.633 -32.046  1.00  0.00     0.042 A 
HETATM    7  C   UNL     1      -3.197   4.896 -32.420  1.00  0.00    -0.021 A 
HETATM    8  C   UNL     1      -3.846   5.583 -33.454  1.00  0.00     0.012 A 
HETATM    9  C   UNL     1      -4.948   5.024 -34.103  1.00  0.00     0.003 A 
HETATM   10  C   UNL     1      -5.419   3.767 -33.723  1.00  0.00     0.029 A 
BRANCH   7  11
HETATM   11  C   UNL     1      -2.029   5.451 -31.744  1.00  0.00     0.010 A 
HETATM   12  C   UNL     1      -0.642   5.268 -31.987  1.00  0.00     0.152 A 
HETATM   13  N   UNL     1       0.133   5.965 -31.151  1.00  0.00    -0.187 NA
HETATM   14  N   UNL     1      -0.747   6.599 -30.366  1.00  0.00    -0.289 N 
HETATM   15  H   UNL     1      -0.389   7.204 -29.635  1.00  0.00     0.188 HD
HETATM   16  C   UNL     1      -2.049   6.329 -30.678  1.00  0.00     0.123 A 
ENDBRANCH   7  11
ENDBRANCH   2   5
BRANCH   1  17
HETATM   17  C   UNL     1      -5.607  -0.613 -32.278  1.00  0.00     0.116 C 
BRANCH  17  18
HETATM   18  C   UNL     1      -6.421  -1.008 -33.526  1.00  0.00     0.049 C 
BRANCH  18  19
HETATM   19  C   UNL     1      -6.429  -0.026 -34.686  1.00  0.00    -0.027 C 
HETATM   20  C   UNL     1      -7.485   0.464 -35.349  1.00  0.00     0.007 C 
ENDBRANCH  18  19
BRANCH  18  21
HETATM   21  C   UNL     1      -5.980  -2.388 -34.004  1.00  0.00    -0.050 A 
HETATM   22  C   UNL     1      -6.880  -3.258 -34.643  1.00  0.00     0.008 A 
HETATM   23  C   UNL     1      -6.465  -4.517 -35.078  1.00  0.00     0.001 A 
HETATM   24  C   UNL     1      -5.146  -4.922 -34.884  1.00  0.00     0.000 A 
HETATM   25  C   UNL     1      -4.241  -4.070 -34.256  1.00  0.00     0.001 A 
HETATM   26  C   UNL     1      -4.655  -2.810 -33.817  1.00  0.00     0.008 A 
ENDBRANCH  18  21
ENDBRANCH  17  18
ENDBRANCH   1  17
TORSDOF 6
ENDMDL
MODEL 7
REMARK VINA RESULT:      -7.7      4.189      6.544
REMARK  6 active torsions:
REMARK  status: ('A' for Active; 'I' for Inactive)
REMARK    1  A    between atoms: C_2  and  C_3 
REMARK    2  A    between atoms: C_3  and  C_4 
REMARK    3  A    between atoms: C_3  and  C_10 
REMARK    4  A    between atoms: C_10  and  C_11 
REMARK       I    between atoms: C_11  and  N_12 
REMARK    5  A    between atoms: N_12  and  C_13 
REMARK    6  A    between atoms: C_15  and  C_16 
ROOT
HETATM    1  C   UNL     1      -6.165   0.420 -31.693  1.00  0.00     0.223 C 
HETATM    2  N   UNL     1      -6.309   1.765 -31.986  1.00  0.00    -0.327 N 
HETATM    3  O   UNL     1      -6.563  -0.151 -30.682  1.00  0.00    -0.273 OA
HETATM    4  H   UNL     1      -6.102   2.051 -32.934  1.00  0.00     0.169 HD
ENDROOT
BRANCH   2   5
HETATM    5  C   UNL     1      -6.781   2.780 -31.125  1.00  0.00     0.035 A 
HETATM    6  C   UNL     1      -5.945   3.585 -30.342  1.00  0.00     0.042 A 
HETATM    7  C   UNL     1      -6.464   4.607 -29.526  1.00  0.00    -0.021 A 
HETATM    8  C   UNL     1      -7.852   4.799 -29.506  1.00  0.00     0.012 A 
HETATM    9  C   UNL     1      -8.695   4.004 -30.285  1.00  0.00     0.003 A 
HETATM   10  C   UNL     1      -8.160   3.002 -31.094  1.00  0.00     0.029 A 
BRANCH   7  11
HETATM   11  C   UNL     1      -5.563   5.441 -28.737  1.00  0.00     0.010 A 
HETATM   12  C   UNL     1      -5.488   5.660 -27.337  1.00  0.00     0.152 A 
HETATM   13  N   UNL     1      -4.506   6.496 -26.988  1.00  0.00    -0.187 NA
HETATM   14  N   UNL     1      -3.944   6.821 -28.160  1.00  0.00    -0.289 N 
HETATM   15  H   UNL     1      -3.156   7.460 -28.154  1.00  0.00     0.188 HD
HETATM   16  C   UNL     1      -4.534   6.218 -29.234  1.00  0.00     0.123 A 
ENDBRANCH   7  11
ENDBRANCH   2   5
BRANCH   1  17
HETATM   17  C   UNL     1      -5.457  -0.352 -32.792  1.00  0.00     0.116 C 
BRANCH  17  18
HETATM   18  C   UNL     1      -6.455  -1.033 -33.751  1.00  0.00     0.049 C 
BRANCH  18  19
HETATM   19  C   UNL     1      -6.839  -0.268 -35.007  1.00  0.00    -0.027 C 
HETATM   20  C   UNL     1      -8.021   0.285 -35.310  1.00  0.00     0.007 C 
ENDBRANCH  18  19
BRANCH  18  21
HETATM   21  C   UNL     1      -5.940  -2.423 -34.114  1.00  0.00    -0.050 A 
HETATM   22  C   UNL     1      -6.786  -3.379 -34.702  1.00  0.00     0.008 A 
HETATM   23  C   UNL     1      -6.304  -4.647 -35.032  1.00  0.00     0.001 A 
HETATM   24  C   UNL     1      -4.973  -4.973 -34.783  1.00  0.00     0.000 A 
HETATM   25  C   UNL     1      -4.122  -4.035 -34.204  1.00  0.00     0.001 A 
HETATM   26  C   UNL     1      -4.602  -2.767 -33.870  1.00  0.00     0.008 A 
ENDBRANCH  18  21
ENDBRANCH  17  18
ENDBRANCH   1  17
TORSDOF 6
ENDMDL
MODEL 8
REMARK VINA RESULT:      -7.7      4.749      7.963
REMARK  6 active torsions:
REMARK  status: ('A' for Active; 'I' for Inactive)
REMARK    1  A    between atoms: C_2  and  C_3 
REMARK    2  A    between atoms: C_3  and  C_4 
REMARK    3  A    between atoms: C_3  and  C_10 
REMARK    4  A    between atoms: C_10  and  C_11 
REMARK       I    between atoms: C_11  and  N_12 
REMARK    5  A    between atoms: N_12  and  C_13 
REMARK    6  A    between atoms: C_15  and  C_16 
ROOT
HETATM    1  C   UNL     1      -5.090   4.241 -32.956  1.00  0.00     0.223 C 
HETATM    2  N   UNL     1      -5.334   3.110 -32.196  1.00  0.00    -0.327 N 
HETATM    3  O   UNL     1      -5.626   4.530 -34.022  1.00  0.00    -0.273 OA
HETATM    4  H   UNL     1      -4.960   3.102 -31.256  1.00  0.00     0.169 HD
ENDROOT
BRANCH   2   5
HETATM    5  C   UNL     1      -6.107   1.987 -32.561  1.00  0.00     0.035 A 
HETATM    6  C   UNL     1      -5.567   0.813 -33.099  1.00  0.00     0.042 A 
HETATM    7  C   UNL     1      -6.378  -0.292 -33.415  1.00  0.00    -0.021 A 
HETATM    8  C   UNL     1      -7.757  -0.189 -33.186  1.00  0.00     0.012 A 
HETATM    9  C   UNL     1      -8.307   0.976 -32.647  1.00  0.00     0.003 A 
HETATM   10  C   UNL     1      -7.484   2.057 -32.333  1.00  0.00     0.029 A 
BRANCH   7  11
HETATM   11  C   UNL     1      -5.779  -1.509 -33.955  1.00  0.00     0.010 A 
HETATM   12  C   UNL     1      -4.450  -2.002 -33.876  1.00  0.00     0.152 A 
HETATM   13  N   UNL     1      -4.289  -3.175 -34.496  1.00  0.00    -0.187 NA
HETATM   14  N   UNL     1      -5.509  -3.442 -34.978  1.00  0.00    -0.289 N 
HETATM   15  H   UNL     1      -5.641  -4.302 -35.500  1.00  0.00     0.188 HD
HETATM   16  C   UNL     1      -6.435  -2.482 -34.682  1.00  0.00     0.123 A 
ENDBRANCH   7  11
ENDBRANCH   2   5
BRANCH   1  17
HETATM   17  C   UNL     1      -4.066   5.168 -32.325  1.00  0.00     0.116 C 
BRANCH  17  18
HETATM   18  C   UNL     1      -2.633   4.615 -32.456  1.00  0.00     0.049 C 
BRANCH  18  19
HETATM   19  C   UNL     1      -2.108   4.380 -33.863  1.00  0.00    -0.027 C 
HETATM   20  C   UNL     1      -2.018   5.258 -34.871  1.00  0.00     0.007 C 
ENDBRANCH  18  19
BRANCH  18  21
HETATM   21  C   UNL     1      -1.671   5.507 -31.676  1.00  0.00    -0.050 A 
HETATM   22  C   UNL     1      -2.125   6.664 -31.020  1.00  0.00     0.008 A 
HETATM   23  C   UNL     1      -1.238   7.472 -30.307  1.00  0.00     0.001 A 
HETATM   24  C   UNL     1       0.111   7.132 -30.238  1.00  0.00     0.000 A 
HETATM   25  C   UNL     1       0.576   5.987 -30.880  1.00  0.00     0.001 A 
HETATM   26  C   UNL     1      -0.310   5.178 -31.597  1.00  0.00     0.008 A 
ENDBRANCH  18  21
ENDBRANCH  17  18
ENDBRANCH   1  17
TORSDOF 6
ENDMDL
MODEL 9
REMARK VINA RESULT:      -7.6      2.715      4.379
REMARK  6 active torsions:
REMARK  status: ('A' for Active; 'I' for Inactive)
REMARK    1  A    between atoms: C_2  and  C_3 
REMARK    2  A    between atoms: C_3  and  C_4 
REMARK    3  A    between atoms: C_3  and  C_10 
REMARK    4  A    between atoms: C_10  and  C_11 
REMARK       I    between atoms: C_11  and  N_12 
REMARK    5  A    between atoms: N_12  and  C_13 
REMARK    6  A    between atoms: C_15  and  C_16 
ROOT
HETATM    1  C   UNL     1      -8.749   0.195 -33.947  1.00  0.00     0.223 C 
HETATM    2  N   UNL     1      -9.391   1.219 -34.622  1.00  0.00    -0.327 N 
HETATM    3  O   UNL     1      -9.160  -0.384 -32.946  1.00  0.00    -0.273 OA
HETATM    4  H   UNL     1      -9.025   1.465 -35.533  1.00  0.00     0.169 HD
ENDROOT
BRANCH   2   5
HETATM    5  C   UNL     1     -10.546   1.919 -34.213  1.00  0.00     0.035 A 
HETATM    6  C   UNL     1     -10.550   2.891 -33.205  1.00  0.00     0.042 A 
HETATM    7  C   UNL     1     -11.723   3.585 -32.858  1.00  0.00    -0.021 A 
HETATM    8  C   UNL     1     -12.905   3.273 -33.544  1.00  0.00     0.012 A 
HETATM    9  C   UNL     1     -12.913   2.308 -34.552  1.00  0.00     0.003 A 
HETATM   10  C   UNL     1     -11.737   1.638 -34.888  1.00  0.00     0.029 A 
BRANCH   7  11
HETATM   11  C   UNL     1     -11.687   4.607 -31.817  1.00  0.00     0.010 A 
HETATM   12  C   UNL     1     -12.537   5.718 -31.579  1.00  0.00     0.152 A 
HETATM   13  N   UNL     1     -12.183   6.428 -30.503  1.00  0.00    -0.187 NA
HETATM   14  N   UNL     1     -11.104   5.781 -30.045  1.00  0.00    -0.289 N 
HETATM   15  H   UNL     1     -10.646   6.139 -29.214  1.00  0.00     0.188 HD
HETATM   16  C   UNL     1     -10.767   4.687 -30.790  1.00  0.00     0.123 A 
ENDBRANCH   7  11
ENDBRANCH   2   5
BRANCH   1  17
HETATM   17  C   UNL     1      -7.431  -0.202 -34.588  1.00  0.00     0.116 C 
BRANCH  17  18
HETATM   18  C   UNL     1      -6.759  -1.373 -33.844  1.00  0.00     0.049 C 
BRANCH  18  19
HETATM   19  C   UNL     1      -6.285  -2.547 -34.685  1.00  0.00    -0.027 C 
HETATM   20  C   UNL     1      -6.850  -3.755 -34.812  1.00  0.00     0.007 C 
ENDBRANCH  18  19
BRANCH  18  21
HETATM   21  C   UNL     1      -5.614  -0.838 -32.988  1.00  0.00    -0.050 A 
HETATM   22  C   UNL     1      -5.845  -0.339 -31.695  1.00  0.00     0.008 A 
HETATM   23  C   UNL     1      -4.790   0.145 -30.920  1.00  0.00     0.001 A 
HETATM   24  C   UNL     1      -3.492   0.133 -31.425  1.00  0.00     0.000 A 
HETATM   25  C   UNL     1      -3.246  -0.362 -32.703  1.00  0.00     0.001 A 
HETATM   26  C   UNL     1      -4.301  -0.844 -33.482  1.00  0.00     0.008 A 
ENDBRANCH  18  21
ENDBRANCH  17  18
ENDBRANCH   1  17
TORSDOF 6
ENDMDL
MODEL 10
REMARK VINA RESULT:      -7.6      2.613      3.909
REMARK  6 active torsions:
REMARK  status: ('A' for Active; 'I' for Inactive)
REMARK    1  A    between atoms: C_2  and  C_3 
REMARK    2  A    between atoms: C_3  and  C_4 
REMARK    3  A    between atoms: C_3  and  C_10 
REMARK    4  A    between atoms: C_10  and  C_11 
REMARK       I    between atoms: C_11  and  N_12 
REMARK    5  A    between atoms: N_12  and  C_13 
REMARK    6  A    between atoms: C_15  and  C_16 
ROOT
HETATM    1  C   UNL     1      -8.443   0.185 -34.273  1.00  0.00     0.223 C 
HETATM    2  N   UNL     1      -8.983   1.391 -34.689  1.00  0.00    -0.327 N 
HETATM    3  O   UNL     1      -8.859  -0.520 -33.359  1.00  0.00    -0.273 OA
HETATM    4  H   UNL     1      -8.651   1.760 -35.570  1.00  0.00     0.169 HD
ENDROOT
BRANCH   2   5
HETATM    5  C   UNL     1      -9.998   2.136 -34.052  1.00  0.00     0.035 A 
HETATM    6  C   UNL     1      -9.758   3.061 -33.028  1.00  0.00     0.042 A 
HETATM    7  C   UNL     1     -10.803   3.804 -32.449  1.00  0.00    -0.021 A 
HETATM    8  C   UNL     1     -12.106   3.591 -32.918  1.00  0.00     0.012 A 
HETATM    9  C   UNL     1     -12.357   2.674 -33.940  1.00  0.00     0.003 A 
HETATM   10  C   UNL     1     -11.306   1.954 -34.507  1.00  0.00     0.029 A 
BRANCH   7  11
HETATM   11  C   UNL     1     -10.515   4.774 -31.398  1.00  0.00     0.010 A 
HETATM   12  C   UNL     1     -11.058   6.062 -31.150  1.00  0.00     0.152 A 
HETATM   13  N   UNL     1     -10.541   6.650 -30.067  1.00  0.00    -0.187 NA
HETATM   14  N   UNL     1      -9.662   5.747 -29.613  1.00  0.00    -0.289 N 
HETATM   15  H   UNL     1      -9.132   5.971 -28.778  1.00  0.00     0.188 HD
HETATM   16  C   UNL     1      -9.608   4.611 -30.369  1.00  0.00     0.123 A 
ENDBRANCH   7  11
ENDBRANCH   2   5
BRANCH   1  17
HETATM   17  C   UNL     1      -7.241  -0.240 -35.098  1.00  0.00     0.116 C 
BRANCH  17  18
HETATM   18  C   UNL     1      -6.044  -0.631 -34.209  1.00  0.00     0.049 C 
BRANCH  18  19
HETATM   19  C   UNL     1      -6.115  -0.240 -32.742  1.00  0.00    -0.027 C 
HETATM   20  C   UNL     1      -5.112   0.132 -31.935  1.00  0.00     0.007 C 
ENDBRANCH  18  19
BRANCH  18  21
HETATM   21  C   UNL     1      -5.778  -2.127 -34.345  1.00  0.00    -0.050 A 
HETATM   22  C   UNL     1      -6.802  -3.016 -34.715  1.00  0.00     0.008 A 
HETATM   23  C   UNL     1      -6.547  -4.383 -34.838  1.00  0.00     0.001 A 
HETATM   24  C   UNL     1      -5.267  -4.877 -34.599  1.00  0.00     0.000 A 
HETATM   25  C   UNL     1      -4.241  -4.009 -34.235  1.00  0.00     0.001 A 
HETATM   26  C   UNL     1      -4.494  -2.641 -34.107  1.00  0.00     0.008 A 
ENDBRANCH  18  21
ENDBRANCH  17  18
ENDBRANCH   1  17
TORSDOF 6
ENDMDL
