MODEL 1
REMARK VINA RESULT:      -7.0      0.000      0.000
REMARK  1 active torsions:
REMARK  status: ('A' for Active; 'I' for Inactive)
REMARK    1  A    between atoms: C_8  and  C_9 
ROOT
HETATM    1  C   UNL     1      -7.633  -0.030 -35.363  1.00  0.00     0.073 C 
HETATM    2  C   UNL     1      -6.491  -0.581 -34.582  1.00  0.00     0.062 A 
HETATM    3  N   UNL     1      -6.139  -1.854 -34.771  1.00  0.00    -0.178 NA
HETATM    4  N   UNL     1      -5.056  -2.001 -34.011  1.00  0.00    -0.262 N 
HETATM    5  H   UNL     1      -4.587  -2.899 -34.024  1.00  0.00     0.191 HD
HETATM    6  C   UNL     1      -4.720  -0.892 -33.278  1.00  0.00     0.134 A 
HETATM    7  C   UNL     1      -5.652   0.081 -33.611  1.00  0.00     0.032 A 
HETATM    8  C   UNL     1      -5.747   1.538 -33.261  1.00  0.00     0.121 C 
HETATM    9  S   UNL     1      -4.426   2.278 -32.272  1.00  0.00    -0.140 SA
HETATM   10  C   UNL     1      -4.047   1.038 -31.004  1.00  0.00     0.136 C 
HETATM   11  C   UNL     1      -5.190   0.498 -30.161  1.00  0.00     0.031 C 
HETATM   12  C   UNL     1      -3.166  -0.075 -31.540  1.00  0.00     0.236 C 
HETATM   13  O   UNL     1      -2.053  -0.287 -31.043  1.00  0.00    -0.272 OA
HETATM   14  N   UNL     1      -3.601  -0.954 -32.482  1.00  0.00    -0.311 N 
HETATM   15  H   UNL     1      -2.952  -1.725 -32.603  1.00  0.00     0.170 HD
ENDROOT
BRANCH   8  16
HETATM   16  C   UNL     1      -7.150   1.896 -32.764  1.00  0.00    -0.018 A 
HETATM   17  C   UNL     1      -7.720   3.155 -33.061  1.00  0.00     0.041 A 
HETATM   18 CL   UNL     1      -6.907   4.348 -34.020  1.00  0.00    -0.084 Cl
HETATM   19  C   UNL     1      -9.001   3.501 -32.610  1.00  0.00     0.024 A 
HETATM   20  C   UNL     1      -9.745   2.605 -31.850  1.00  0.00     0.002 A 
HETATM   21  C   UNL     1      -9.212   1.360 -31.544  1.00  0.00     0.001 A 
HETATM   22  C   UNL     1      -7.935   1.012 -31.995  1.00  0.00     0.010 A 
ENDBRANCH   8  16
TORSDOF 1
ENDMDL
MODEL 2
REMARK VINA RESULT:      -7.0      2.458      3.307
REMARK  1 active torsions:
REMARK  status: ('A' for Active; 'I' for Inactive)
REMARK    1  A    between atoms: C_8  and  C_9 
ROOT
HETATM    1  C   UNL     1      -5.078  -1.415 -32.888  1.00  0.00     0.073 C 
HETATM    2  C   UNL     1      -4.368  -0.310 -32.188  1.00  0.00     0.062 A 
HETATM    3  N   UNL     1      -3.364  -0.613 -31.363  1.00  0.00    -0.178 NA
HETATM    4  N   UNL     1      -2.897   0.574 -30.981  1.00  0.00    -0.262 N 
HETATM    5  H   UNL     1      -2.092   0.590 -30.365  1.00  0.00     0.191 HD
HETATM    6  C   UNL     1      -3.597   1.646 -31.470  1.00  0.00     0.134 A 
HETATM    7  C   UNL     1      -4.598   1.114 -32.270  1.00  0.00     0.032 A 
HETATM    8  C   UNL     1      -5.596   1.759 -33.188  1.00  0.00     0.121 C 
HETATM    9  S   UNL     1      -5.537   3.554 -33.404  1.00  0.00    -0.140 SA
HETATM   10  C   UNL     1      -5.238   4.212 -31.741  1.00  0.00     0.136 C 
HETATM   11  C   UNL     1      -6.165   3.778 -30.618  1.00  0.00     0.031 C 
HETATM   12  C   UNL     1      -3.779   4.106 -31.340  1.00  0.00     0.236 C 
HETATM   13  O   UNL     1      -3.129   5.124 -31.069  1.00  0.00    -0.272 OA
HETATM   14  N   UNL     1      -3.167   2.909 -31.139  1.00  0.00    -0.311 N 
HETATM   15  H   UNL     1      -2.249   3.022 -30.719  1.00  0.00     0.170 HD
ENDROOT
BRANCH   8  16
HETATM   16  C   UNL     1      -7.008   1.226 -32.930  1.00  0.00    -0.018 A 
HETATM   17  C   UNL     1      -7.766   0.659 -33.980  1.00  0.00     0.041 A 
HETATM   18 CL   UNL     1      -7.155   0.495 -35.593  1.00  0.00    -0.084 Cl
HETATM   19  C   UNL     1      -9.062   0.170 -33.763  1.00  0.00     0.024 A 
HETATM   20  C   UNL     1      -9.636   0.236 -32.498  1.00  0.00     0.002 A 
HETATM   21  C   UNL     1      -8.914   0.786 -31.446  1.00  0.00     0.001 A 
HETATM   22  C   UNL     1      -7.621   1.272 -31.661  1.00  0.00     0.010 A 
ENDBRANCH   8  16
TORSDOF 1
ENDMDL
MODEL 3
REMARK VINA RESULT:      -6.7      2.459      3.961
REMARK  1 active torsions:
REMARK  status: ('A' for Active; 'I' for Inactive)
REMARK    1  A    between atoms: C_8  and  C_9 
ROOT
HETATM    1  C   UNL     1      -3.494   2.224 -31.175  1.00  0.00     0.073 C 
HETATM    2  C   UNL     1      -3.776   1.017 -32.002  1.00  0.00     0.062 A 
HETATM    3  N   UNL     1      -2.755   0.243 -32.375  1.00  0.00    -0.178 NA
HETATM    4  N   UNL     1      -3.341  -0.772 -33.007  1.00  0.00    -0.262 N 
HETATM    5  H   UNL     1      -2.749  -1.517 -33.355  1.00  0.00     0.191 HD
HETATM    6  C   UNL     1      -4.702  -0.663 -33.121  1.00  0.00     0.134 A 
HETATM    7  C   UNL     1      -5.044   0.518 -32.479  1.00  0.00     0.032 A 
HETATM    8  C   UNL     1      -6.375   1.124 -32.138  1.00  0.00     0.121 C 
HETATM    9  S   UNL     1      -7.875   0.201 -32.547  1.00  0.00    -0.140 SA
HETATM   10  C   UNL     1      -7.560  -0.490 -34.194  1.00  0.00     0.136 C 
HETATM   11  C   UNL     1      -7.124   0.457 -35.299  1.00  0.00     0.031 C 
HETATM   12  C   UNL     1      -6.687  -1.729 -34.135  1.00  0.00     0.236 C 
HETATM   13  O   UNL     1      -7.108  -2.812 -34.560  1.00  0.00    -0.272 OA
HETATM   14  N   UNL     1      -5.386  -1.681 -33.742  1.00  0.00    -0.311 N 
HETATM   15  H   UNL     1      -4.908  -2.559 -33.918  1.00  0.00     0.170 HD
ENDROOT
BRANCH   8  16
HETATM   16  C   UNL     1      -6.436   2.595 -32.557  1.00  0.00    -0.018 A 
HETATM   17  C   UNL     1      -7.008   3.565 -31.702  1.00  0.00     0.041 A 
HETATM   18 CL   UNL     1      -7.637   3.176 -30.135  1.00  0.00    -0.084 Cl
HETATM   19  C   UNL     1      -7.076   4.915 -32.072  1.00  0.00     0.024 A 
HETATM   20  C   UNL     1      -6.579   5.334 -33.302  1.00  0.00     0.002 A 
HETATM   21  C   UNL     1      -6.009   4.404 -34.162  1.00  0.00     0.001 A 
HETATM   22  C   UNL     1      -5.939   3.057 -33.794  1.00  0.00     0.010 A 
ENDBRANCH   8  16
TORSDOF 1
ENDMDL
MODEL 4
REMARK VINA RESULT:      -6.7      3.345      5.155
REMARK  1 active torsions:
REMARK  status: ('A' for Active; 'I' for Inactive)
REMARK    1  A    between atoms: C_8  and  C_9 
ROOT
HETATM    1  C   UNL     1      -5.178  -0.590 -33.669  1.00  0.00     0.073 C 
HETATM    2  C   UNL     1      -6.438   0.009 -34.189  1.00  0.00     0.062 A 
HETATM    3  N   UNL     1      -6.944  -0.454 -35.334  1.00  0.00    -0.178 NA
HETATM    4  N   UNL     1      -8.090   0.210 -35.467  1.00  0.00    -0.262 N 
HETATM    5  H   UNL     1      -8.673  -0.008 -36.266  1.00  0.00     0.191 HD
HETATM    6  C   UNL     1      -8.327   1.140 -34.488  1.00  0.00     0.134 A 
HETATM    7  C   UNL     1      -7.250   1.057 -33.616  1.00  0.00     0.032 A 
HETATM    8  C   UNL     1      -6.986   1.702 -32.287  1.00  0.00     0.121 C 
HETATM    9  S   UNL     1      -8.265   2.762 -31.571  1.00  0.00    -0.140 SA
HETATM   10  C   UNL     1      -8.900   3.729 -32.967  1.00  0.00     0.136 C 
HETATM   11  C   UNL     1      -7.906   4.493 -33.824  1.00  0.00     0.031 C 
HETATM   12  C   UNL     1      -9.880   2.937 -33.810  1.00  0.00     0.236 C 
HETATM   13  O   UNL     1     -11.045   3.329 -33.951  1.00  0.00    -0.272 OA
HETATM   14  N   UNL     1      -9.499   1.855 -34.541  1.00  0.00    -0.311 N 
HETATM   15  H   UNL     1     -10.235   1.548 -35.169  1.00  0.00     0.170 HD
ENDROOT
BRANCH   8  16
HETATM   16  C   UNL     1      -5.588   2.325 -32.243  1.00  0.00    -0.018 A 
HETATM   17  C   UNL     1      -4.634   1.890 -31.295  1.00  0.00     0.041 A 
HETATM   18 CL   UNL     1      -4.956   0.621 -30.160  1.00  0.00    -0.084 Cl
HETATM   19  C   UNL     1      -3.352   2.453 -31.239  1.00  0.00     0.024 A 
HETATM   20  C   UNL     1      -2.988   3.464 -32.121  1.00  0.00     0.002 A 
HETATM   21  C   UNL     1      -3.903   3.911 -33.066  1.00  0.00     0.001 A 
HETATM   22  C   UNL     1      -5.182   3.349 -33.125  1.00  0.00     0.010 A 
ENDBRANCH   8  16
TORSDOF 1
ENDMDL
MODEL 5
REMARK VINA RESULT:      -6.7      3.384      5.413
REMARK  1 active torsions:
REMARK  status: ('A' for Active; 'I' for Inactive)
REMARK    1  A    between atoms: C_8  and  C_9 
ROOT
HETATM    1  C   UNL     1      -4.203  -0.471 -30.773  1.00  0.00     0.073 C 
HETATM    2  C   UNL     1      -5.393   0.415 -30.640  1.00  0.00     0.062 A 
HETATM    3  N   UNL     1      -5.838   0.712 -29.419  1.00  0.00    -0.178 NA
HETATM    4  N   UNL     1      -6.829   1.574 -29.642  1.00  0.00    -0.262 N 
HETATM    5  H   UNL     1      -7.303   1.969 -28.839  1.00  0.00     0.191 HD
HETATM    6  C   UNL     1      -7.095   1.804 -30.967  1.00  0.00     0.134 A 
HETATM    7  C   UNL     1      -6.175   1.046 -31.677  1.00  0.00     0.032 A 
HETATM    8  C   UNL     1      -5.856   0.973 -33.143  1.00  0.00     0.121 C 
HETATM    9  S   UNL     1      -6.738   2.073 -34.275  1.00  0.00    -0.140 SA
HETATM   10  C   UNL     1      -8.455   2.057 -33.694  1.00  0.00     0.136 C 
HETATM   11  C   UNL     1      -9.141   0.713 -33.514  1.00  0.00     0.031 C 
HETATM   12  C   UNL     1      -8.659   2.959 -32.492  1.00  0.00     0.236 C 
HETATM   13  O   UNL     1      -9.452   3.907 -32.547  1.00  0.00    -0.272 OA
HETATM   14  N   UNL     1      -8.090   2.698 -31.284  1.00  0.00    -0.311 N 
HETATM   15  H   UNL     1      -8.460   3.302 -30.557  1.00  0.00     0.170 HD
ENDROOT
BRANCH   8  16
HETATM   16  C   UNL     1      -5.804  -0.479 -33.625  1.00  0.00    -0.018 A 
HETATM   17  C   UNL     1      -4.565  -1.116 -33.861  1.00  0.00     0.041 A 
HETATM   18 CL   UNL     1      -3.043  -0.331 -33.592  1.00  0.00    -0.084 Cl
HETATM   19  C   UNL     1      -4.499  -2.444 -34.307  1.00  0.00     0.024 A 
HETATM   20  C   UNL     1      -5.665  -3.168 -34.532  1.00  0.00     0.002 A 
HETATM   21  C   UNL     1      -6.897  -2.569 -34.307  1.00  0.00     0.001 A 
HETATM   22  C   UNL     1      -6.964  -1.246 -33.861  1.00  0.00     0.010 A 
ENDBRANCH   8  16
TORSDOF 1
ENDMDL
MODEL 6
REMARK VINA RESULT:      -6.6      4.968      6.236
REMARK  1 active torsions:
REMARK  status: ('A' for Active; 'I' for Inactive)
REMARK    1  A    between atoms: C_8  and  C_9 
ROOT
HETATM    1  C   UNL     1      -6.425   4.151 -30.212  1.00  0.00     0.073 C 
HETATM    2  C   UNL     1      -5.726   5.281 -30.883  1.00  0.00     0.062 A 
HETATM    3  N   UNL     1      -6.165   6.523 -30.673  1.00  0.00    -0.178 NA
HETATM    4  N   UNL     1      -5.289   7.285 -31.326  1.00  0.00    -0.262 N 
HETATM    5  H   UNL     1      -5.407   8.290 -31.276  1.00  0.00     0.191 HD
HETATM    6  C   UNL     1      -4.329   6.588 -32.012  1.00  0.00     0.134 A 
HETATM    7  C   UNL     1      -4.580   5.247 -31.762  1.00  0.00     0.032 A 
HETATM    8  C   UNL     1      -3.812   4.003 -32.106  1.00  0.00     0.121 C 
HETATM    9  S   UNL     1      -2.225   4.174 -32.955  1.00  0.00    -0.140 SA
HETATM   10  C   UNL     1      -2.498   5.471 -34.192  1.00  0.00     0.136 C 
HETATM   11  C   UNL     1      -3.670   5.320 -35.146  1.00  0.00     0.031 C 
HETATM   12  C   UNL     1      -2.442   6.860 -33.584  1.00  0.00     0.236 C 
HETATM   13  O   UNL     1      -1.601   7.680 -33.972  1.00  0.00    -0.272 OA
HETATM   14  N   UNL     1      -3.373   7.301 -32.697  1.00  0.00    -0.311 N 
HETATM   15  H   UNL     1      -3.281   8.297 -32.520  1.00  0.00     0.170 HD
ENDROOT
BRANCH   8  16
HETATM   16  C   UNL     1      -4.725   2.946 -32.733  1.00  0.00    -0.018 A 
HETATM   17  C   UNL     1      -4.559   1.576 -32.426  1.00  0.00     0.041 A 
HETATM   18 CL   UNL     1      -3.361   1.006 -31.311  1.00  0.00    -0.084 Cl
HETATM   19  C   UNL     1      -5.383   0.595 -32.995  1.00  0.00     0.024 A 
HETATM   20  C   UNL     1      -6.389   0.952 -33.886  1.00  0.00     0.002 A 
HETATM   21  C   UNL     1      -6.577   2.291 -34.206  1.00  0.00     0.001 A 
HETATM   22  C   UNL     1      -5.758   3.271 -33.637  1.00  0.00     0.010 A 
ENDBRANCH   8  16
TORSDOF 1
ENDMDL
MODEL 7
REMARK VINA RESULT:      -6.6      4.171      5.501
REMARK  1 active torsions:
REMARK  status: ('A' for Active; 'I' for Inactive)
REMARK    1  A    between atoms: C_8  and  C_9 
ROOT
HETATM    1  C   UNL     1     -10.611   1.382 -33.927  1.00  0.00     0.073 C 
HETATM    2  C   UNL     1     -10.045   2.757 -34.001  1.00  0.00     0.062 A 
HETATM    3  N   UNL     1     -10.734   3.701 -34.644  1.00  0.00    -0.178 NA
HETATM    4  N   UNL     1     -10.015   4.806 -34.452  1.00  0.00    -0.262 N 
HETATM    5  H   UNL     1     -10.373   5.674 -34.831  1.00  0.00     0.191 HD
HETATM    6  C   UNL     1      -8.846   4.612 -33.762  1.00  0.00     0.134 A 
HETATM    7  C   UNL     1      -8.809   3.261 -33.448  1.00  0.00     0.032 A 
HETATM    8  C   UNL     1      -7.873   2.457 -32.593  1.00  0.00     0.121 C 
HETATM    9  S   UNL     1      -6.543   3.319 -31.721  1.00  0.00    -0.140 SA
HETATM   10  C   UNL     1      -5.909   4.524 -32.919  1.00  0.00     0.136 C 
HETATM   11  C   UNL     1      -5.494   4.024 -34.292  1.00  0.00     0.031 C 
HETATM   12  C   UNL     1      -6.790   5.756 -33.009  1.00  0.00     0.236 C 
HETATM   13  O   UNL     1      -6.334   6.874 -32.740  1.00  0.00    -0.272 OA
HETATM   14  N   UNL     1      -8.056   5.706 -33.503  1.00  0.00    -0.311 N 
HETATM   15  H   UNL     1      -8.440   6.636 -33.646  1.00  0.00     0.170 HD
ENDROOT
BRANCH   8  16
HETATM   16  C   UNL     1      -7.402   1.197 -33.324  1.00  0.00    -0.018 A 
HETATM   17  C   UNL     1      -6.971   0.062 -32.600  1.00  0.00     0.041 A 
HETATM   18 CL   UNL     1      -6.978  -0.000 -30.868  1.00  0.00    -0.084 Cl
HETATM   19  C   UNL     1      -6.532  -1.098 -33.253  1.00  0.00     0.024 A 
HETATM   20  C   UNL     1      -6.508  -1.156 -34.642  1.00  0.00     0.002 A 
HETATM   21  C   UNL     1      -6.927  -0.057 -35.381  1.00  0.00     0.001 A 
HETATM   22  C   UNL     1      -7.367   1.100 -34.731  1.00  0.00     0.010 A 
ENDBRANCH   8  16
TORSDOF 1
ENDMDL
MODEL 8
REMARK VINA RESULT:      -6.5      3.965      5.453
REMARK  1 active torsions:
REMARK  status: ('A' for Active; 'I' for Inactive)
REMARK    1  A    between atoms: C_8  and  C_9 
ROOT
HETATM    1  C   UNL     1      -6.246   0.696 -29.728  1.00  0.00     0.073 C 
HETATM    2  C   UNL     1      -6.234   2.150 -30.053  1.00  0.00     0.062 A 
HETATM    3  N   UNL     1      -7.090   2.955 -29.421  1.00  0.00    -0.178 NA
HETATM    4  N   UNL     1      -6.767   4.170 -29.860  1.00  0.00    -0.262 N 
HETATM    5  H   UNL     1      -7.275   4.961 -29.481  1.00  0.00     0.191 HD
HETATM    6  C   UNL     1      -5.775   4.189 -30.806  1.00  0.00     0.134 A 
HETATM    7  C   UNL     1      -5.392   2.866 -30.982  1.00  0.00     0.032 A 
HETATM    8  C   UNL     1      -4.272   2.244 -31.764  1.00  0.00     0.121 C 
HETATM    9  S   UNL     1      -3.116   3.330 -32.633  1.00  0.00    -0.140 SA
HETATM   10  C   UNL     1      -4.155   4.624 -33.362  1.00  0.00     0.136 C 
HETATM   11  C   UNL     1      -5.334   4.201 -34.222  1.00  0.00     0.031 C 
HETATM   12  C   UNL     1      -4.548   5.680 -32.347  1.00  0.00     0.236 C 
HETATM   13  O   UNL     1      -4.224   6.862 -32.515  1.00  0.00    -0.272 OA
HETATM   14  N   UNL     1      -5.367   5.406 -31.296  1.00  0.00    -0.311 N 
HETATM   15  H   UNL     1      -5.658   6.253 -30.817  1.00  0.00     0.170 HD
ENDROOT
BRANCH   8  16
HETATM   16  C   UNL     1      -4.779   1.084 -32.626  1.00  0.00    -0.018 A 
HETATM   17  C   UNL     1      -4.101  -0.156 -32.636  1.00  0.00     0.041 A 
HETATM   18 CL   UNL     1      -2.697  -0.463 -31.667  1.00  0.00    -0.084 Cl
HETATM   19  C   UNL     1      -4.548  -1.227 -33.423  1.00  0.00     0.024 A 
HETATM   20  C   UNL     1      -5.679  -1.089 -34.221  1.00  0.00     0.002 A 
HETATM   21  C   UNL     1      -6.367   0.117 -34.230  1.00  0.00     0.001 A 
HETATM   22  C   UNL     1      -5.923   1.185 -33.444  1.00  0.00     0.010 A 
ENDBRANCH   8  16
TORSDOF 1
ENDMDL
MODEL 9
REMARK VINA RESULT:      -6.4      3.176      4.591
REMARK  1 active torsions:
REMARK  status: ('A' for Active; 'I' for Inactive)
REMARK    1  A    between atoms: C_8  and  C_9 
ROOT
HETATM    1  C   UNL     1      -3.876   0.868 -32.372  1.00  0.00     0.073 C 
HETATM    2  C   UNL     1      -5.176   0.272 -32.787  1.00  0.00     0.062 A 
HETATM    3  N   UNL     1      -5.169  -0.892 -33.439  1.00  0.00    -0.178 NA
HETATM    4  N   UNL     1      -6.460  -1.186 -33.580  1.00  0.00    -0.262 N 
HETATM    5  H   UNL     1      -6.700  -2.063 -34.027  1.00  0.00     0.191 HD
HETATM    6  C   UNL     1      -7.318  -0.227 -33.105  1.00  0.00     0.134 A 
HETATM    7  C   UNL     1      -6.514   0.774 -32.577  1.00  0.00     0.032 A 
HETATM    8  C   UNL     1      -6.842   2.011 -31.792  1.00  0.00     0.121 C 
HETATM    9  S   UNL     1      -8.568   2.325 -31.353  1.00  0.00    -0.140 SA
HETATM   10  C   UNL     1      -9.511   1.886 -32.838  1.00  0.00     0.136 C 
HETATM   11  C   UNL     1      -9.109   2.519 -34.159  1.00  0.00     0.031 C 
HETATM   12  C   UNL     1      -9.706   0.387 -32.967  1.00  0.00     0.236 C 
HETATM   13  O   UNL     1     -10.845  -0.097 -32.986  1.00  0.00    -0.272 OA
HETATM   14  N   UNL     1      -8.669  -0.462 -33.194  1.00  0.00    -0.311 N 
HETATM   15  H   UNL     1      -8.992  -1.398 -33.417  1.00  0.00     0.170 HD
ENDROOT
BRANCH   8  16
HETATM   16  C   UNL     1      -6.131   3.237 -32.373  1.00  0.00    -0.018 A 
HETATM   17  C   UNL     1      -5.524   4.188 -31.522  1.00  0.00     0.041 A 
HETATM   18 CL   UNL     1      -5.505   4.024 -29.797  1.00  0.00    -0.084 Cl
HETATM   19  C   UNL     1      -4.874   5.319 -32.037  1.00  0.00     0.024 A 
HETATM   20  C   UNL     1      -4.815   5.532 -33.410  1.00  0.00     0.002 A 
HETATM   21  C   UNL     1      -5.401   4.613 -34.271  1.00  0.00     0.001 A 
HETATM   22  C   UNL     1      -6.048   3.484 -33.760  1.00  0.00     0.010 A 
ENDBRANCH   8  16
TORSDOF 1
ENDMDL
MODEL 10
REMARK VINA RESULT:      -6.3     14.893     16.208
REMARK  1 active torsions:
REMARK  status: ('A' for Active; 'I' for Inactive)
REMARK    1  A    between atoms: C_8  and  C_9 
ROOT
HETATM    1  C   UNL     1      -5.280 -13.333 -40.928  1.00  0.00     0.073 C 
HETATM    2  C   UNL     1      -6.068 -13.081 -39.690  1.00  0.00     0.062 A 
HETATM    3  N   UNL     1      -7.131 -12.278 -39.758  1.00  0.00    -0.178 NA
HETATM    4  N   UNL     1      -7.653 -12.335 -38.534  1.00  0.00    -0.262 N 
HETATM    5  H   UNL     1      -8.506 -11.818 -38.359  1.00  0.00     0.191 HD
HETATM    6  C   UNL     1      -6.936 -13.093 -37.645  1.00  0.00     0.134 A 
HETATM    7  C   UNL     1      -5.862 -13.604 -38.360  1.00  0.00     0.032 A 
HETATM    8  C   UNL     1      -4.804 -14.606 -37.998  1.00  0.00     0.121 C 
HETATM    9  S   UNL     1      -4.881 -15.396 -36.372  1.00  0.00    -0.140 SA
HETATM   10  C   UNL     1      -5.330 -14.062 -35.230  1.00  0.00     0.136 C 
HETATM   11  C   UNL     1      -4.491 -12.795 -35.237  1.00  0.00     0.031 C 
HETATM   12  C   UNL     1      -6.815 -13.755 -35.268  1.00  0.00     0.236 C 
HETATM   13  O   UNL     1      -7.506 -13.875 -34.248  1.00  0.00    -0.272 OA
HETATM   14  N   UNL     1      -7.418 -13.221 -36.364  1.00  0.00    -0.311 N 
HETATM   15  H   UNL     1      -8.369 -12.928 -36.164  1.00  0.00     0.170 HD
ENDROOT
BRANCH   8  16
HETATM   16  C   UNL     1      -3.408 -14.089 -38.355  1.00  0.00    -0.018 A 
HETATM   17  C   UNL     1      -2.490 -14.911 -39.047  1.00  0.00     0.041 A 
HETATM   18 CL   UNL     1      -2.879 -16.518 -39.566  1.00  0.00    -0.084 Cl
HETATM   19  C   UNL     1      -1.206 -14.454 -39.378  1.00  0.00     0.024 A 
HETATM   20  C   UNL     1      -0.803 -13.171 -39.025  1.00  0.00     0.002 A 
HETATM   21  C   UNL     1      -1.684 -12.339 -38.346  1.00  0.00     0.001 A 
HETATM   22  C   UNL     1      -2.966 -12.792 -38.017  1.00  0.00     0.010 A 
ENDBRANCH   8  16
TORSDOF 1
ENDMDL
