MODEL 1
REMARK VINA RESULT:      -8.7      0.000      0.000
REMARK  8 active torsions:
REMARK  status: ('A' for Active; 'I' for Inactive)
REMARK    1  A    between atoms: O_2  and  C_3 
REMARK    2  A    between atoms: C_4  and  O_5 
REMARK    3  A    between atoms: C_7  and  C_8 
REMARK    4  A    between atoms: N_9  and  N_10 
REMARK       I    between atoms: N_10  and  C_11 
REMARK    5  A    between atoms: C_11  and  C_12 
REMARK    6  A    between atoms: C_12  and  N_13 
REMARK       I    between atoms: N_13  and  C_14 
REMARK       I    between atoms: C_14  and  N_15 
REMARK    7  A    between atoms: N_15  and  C_16 
REMARK    8  A    between atoms: C_18  and  C_19 
ROOT
HETATM    1  C   UNL     1      -6.495   2.704 -32.830  1.00  0.00     0.228 C 
ENDROOT
BRANCH   1   2
HETATM    2  C   UNL     1      -7.932   2.987 -32.368  1.00  0.00     0.255 C 
HETATM    3  N   UNL     1      -8.898   2.611 -33.287  1.00  0.00    -0.246 N 
HETATM    4  H   UNL     1      -8.608   2.141 -34.148  1.00  0.00     0.192 HD
HETATM    5  O   UNL     1      -8.158   3.404 -31.232  1.00  0.00    -0.270 OA
BRANCH   3   6
HETATM    6  N   UNL     1     -10.222   2.733 -32.998  1.00  0.00    -0.184 NA
HETATM    7  C   UNL     1     -11.003   1.974 -33.699  1.00  0.00     0.150 C 
BRANCH   7   8
HETATM    8  C   UNL     1     -12.464   1.975 -33.495  1.00  0.00    -0.014 A 
HETATM    9  C   UNL     1     -13.252   1.106 -34.247  1.00  0.00     0.052 A 
HETATM   10  C   UNL     1     -14.628   1.112 -34.049  1.00  0.00     0.099 A 
HETATM   11  C   UNL     1     -15.240   1.963 -33.118  1.00  0.00     0.101 A 
HETATM   12  C   UNL     1     -14.440   2.825 -32.367  1.00  0.00     0.040 A 
HETATM   13  C   UNL     1     -13.053   2.832 -32.558  1.00  0.00     0.016 A 
BRANCH  10  14
HETATM   14  O   UNL     1     -15.389   0.256 -34.799  1.00  0.00    -0.358 OA
HETATM   15  H   UNL     1     -15.088  -0.639 -34.545  1.00  0.00     0.218 HD
ENDBRANCH  10  14
BRANCH  11  16
HETATM   16  O   UNL     1     -16.604   1.853 -33.041  1.00  0.00    -0.353 OA
HETATM   17  C   UNL     1     -17.251   2.670 -32.072  1.00  0.00     0.210 C 
ENDBRANCH  11  16
ENDBRANCH   7   8
ENDBRANCH   3   6
ENDBRANCH   1   2
BRANCH   1  18
HETATM   18  N   UNL     1      -6.351   1.660 -33.845  1.00  0.00    -0.334 N 
HETATM   19  C   UNL     1      -6.331   0.332 -33.488  1.00  0.00     0.321 C 
HETATM   20  N   UNL     1      -6.095  -0.479 -34.570  1.00  0.00    -0.309 N 
HETATM   21  O   UNL     1      -6.581  -0.026 -32.343  1.00  0.00    -0.247 OA
HETATM   22  H   UNL     1      -6.218  -0.044 -35.473  1.00  0.00     0.170 HD
HETATM   23  H   UNL     1      -5.764   1.902 -34.629  1.00  0.00     0.164 HD
BRANCH  20  24
HETATM   24  C   UNL     1      -5.965  -1.883 -34.559  1.00  0.00     0.037 A 
HETATM   25  C   UNL     1      -4.827  -2.548 -34.093  1.00  0.00     0.045 A 
HETATM   26  C   UNL     1      -4.756  -3.952 -34.104  1.00  0.00     0.050 A 
HETATM   27  C   UNL     1      -5.850  -4.686 -34.583  1.00  0.00     0.016 A 
HETATM   28  C   UNL     1      -6.981  -4.030 -35.063  1.00  0.00     0.003 A 
HETATM   29  C   UNL     1      -7.034  -2.634 -35.058  1.00  0.00     0.029 A 
BRANCH  26  30
HETATM   30  C   UNL     1      -3.534  -4.665 -33.576  1.00  0.00     0.417 C 
HETATM   31  F   UNL     1      -2.586  -4.900 -34.525  1.00  0.00    -0.166 F 
HETATM   32  F   UNL     1      -2.913  -3.964 -32.588  1.00  0.00    -0.166 F 
HETATM   33  F   UNL     1      -3.829  -5.883 -33.041  1.00  0.00    -0.166 F 
ENDBRANCH  26  30
ENDBRANCH  20  24
ENDBRANCH   1  18
TORSDOF 8
ENDMDL
MODEL 2
REMARK VINA RESULT:      -8.3      3.475      6.473
REMARK  8 active torsions:
REMARK  status: ('A' for Active; 'I' for Inactive)
REMARK    1  A    between atoms: O_2  and  C_3 
REMARK    2  A    between atoms: C_4  and  O_5 
REMARK    3  A    between atoms: C_7  and  C_8 
REMARK    4  A    between atoms: N_9  and  N_10 
REMARK       I    between atoms: N_10  and  C_11 
REMARK    5  A    between atoms: C_11  and  C_12 
REMARK    6  A    between atoms: C_12  and  N_13 
REMARK       I    between atoms: N_13  and  C_14 
REMARK       I    between atoms: C_14  and  N_15 
REMARK    7  A    between atoms: N_15  and  C_16 
REMARK    8  A    between atoms: C_18  and  C_19 
ROOT
HETATM    1  C   UNL     1     -11.285   2.112 -33.884  1.00  0.00     0.228 C 
ENDROOT
BRANCH   1   2
HETATM    2  C   UNL     1     -10.929   3.279 -32.951  1.00  0.00     0.255 C 
HETATM    3  N   UNL     1     -10.498   2.879 -31.697  1.00  0.00    -0.246 N 
HETATM    4  H   UNL     1     -10.396   1.880 -31.502  1.00  0.00     0.192 HD
HETATM    5  O   UNL     1     -10.933   4.439 -33.363  1.00  0.00    -0.270 OA
BRANCH   3   6
HETATM    6  N   UNL     1     -10.080   3.792 -30.778  1.00  0.00    -0.184 NA
HETATM    7  C   UNL     1      -8.794   3.923 -30.688  1.00  0.00     0.150 C 
BRANCH   7   8
HETATM    8  C   UNL     1      -8.182   4.884 -29.751  1.00  0.00    -0.014 A 
HETATM    9  C   UNL     1      -6.960   4.566 -29.161  1.00  0.00     0.052 A 
HETATM   10  C   UNL     1      -6.388   5.477 -28.279  1.00  0.00     0.099 A 
HETATM   11  C   UNL     1      -7.005   6.698 -27.970  1.00  0.00     0.101 A 
HETATM   12  C   UNL     1      -8.225   7.007 -28.572  1.00  0.00     0.040 A 
HETATM   13  C   UNL     1      -8.814   6.098 -29.459  1.00  0.00     0.016 A 
BRANCH  10  14
HETATM   14  O   UNL     1      -5.190   5.150 -27.703  1.00  0.00    -0.358 OA
HETATM   15  H   UNL     1      -5.401   4.436 -27.069  1.00  0.00     0.218 HD
ENDBRANCH  10  14
BRANCH  11  16
HETATM   16  O   UNL     1      -6.319   7.486 -27.084  1.00  0.00    -0.353 OA
HETATM   17  C   UNL     1      -6.323   8.885 -27.345  1.00  0.00     0.210 C 
ENDBRANCH  11  16
ENDBRANCH   7   8
ENDBRANCH   3   6
ENDBRANCH   1   2
BRANCH   1  18
HETATM   18  N   UNL     1     -10.171   1.549 -34.647  1.00  0.00    -0.334 N 
HETATM   19  C   UNL     1      -9.301   0.658 -34.065  1.00  0.00     0.321 C 
HETATM   20  N   UNL     1      -8.277   0.322 -34.915  1.00  0.00    -0.309 N 
HETATM   21  O   UNL     1      -9.511   0.194 -32.950  1.00  0.00    -0.247 OA
HETATM   22  H   UNL     1      -8.426   0.553 -35.886  1.00  0.00     0.170 HD
HETATM   23  H   UNL     1      -9.758   2.171 -35.325  1.00  0.00     0.164 HD
BRANCH  20  24
HETATM   24  C   UNL     1      -7.188  -0.528 -34.630  1.00  0.00     0.037 A 
HETATM   25  C   UNL     1      -7.206  -1.906 -34.858  1.00  0.00     0.045 A 
HETATM   26  C   UNL     1      -6.088  -2.704 -34.557  1.00  0.00     0.050 A 
HETATM   27  C   UNL     1      -4.941  -2.095 -34.029  1.00  0.00     0.016 A 
HETATM   28  C   UNL     1      -4.920  -0.724 -33.785  1.00  0.00     0.003 A 
HETATM   29  C   UNL     1      -6.043   0.054 -34.077  1.00  0.00     0.029 A 
BRANCH  26  30
HETATM   30  C   UNL     1      -6.105  -4.188 -34.828  1.00  0.00     0.417 C 
HETATM   31  F   UNL     1      -7.179  -4.830 -34.291  1.00  0.00    -0.166 F 
HETATM   32  F   UNL     1      -6.125  -4.470 -36.160  1.00  0.00    -0.166 F 
HETATM   33  F   UNL     1      -5.007  -4.825 -34.329  1.00  0.00    -0.166 F 
ENDBRANCH  26  30
ENDBRANCH  20  24
ENDBRANCH   1  18
TORSDOF 8
ENDMDL
MODEL 3
REMARK VINA RESULT:      -8.3      2.172      3.081
REMARK  8 active torsions:
REMARK  status: ('A' for Active; 'I' for Inactive)
REMARK    1  A    between atoms: O_2  and  C_3 
REMARK    2  A    between atoms: C_4  and  O_5 
REMARK    3  A    between atoms: C_7  and  C_8 
REMARK    4  A    between atoms: N_9  and  N_10 
REMARK       I    between atoms: N_10  and  C_11 
REMARK    5  A    between atoms: C_11  and  C_12 
REMARK    6  A    between atoms: C_12  and  N_13 
REMARK       I    between atoms: N_13  and  C_14 
REMARK       I    between atoms: C_14  and  N_15 
REMARK    7  A    between atoms: N_15  and  C_16 
REMARK    8  A    between atoms: C_18  and  C_19 
ROOT
HETATM    1  C   UNL     1      -5.211   2.680 -30.388  1.00  0.00     0.228 C 
ENDROOT
BRANCH   1   2
HETATM    2  C   UNL     1      -6.716   2.819 -30.656  1.00  0.00     0.255 C 
HETATM    3  N   UNL     1      -7.061   2.666 -31.990  1.00  0.00    -0.246 N 
HETATM    4  H   UNL     1      -6.333   2.426 -32.666  1.00  0.00     0.192 HD
HETATM    5  O   UNL     1      -7.514   2.941 -29.728  1.00  0.00    -0.270 OA
BRANCH   3   6
HETATM    6  N   UNL     1      -8.364   2.694 -32.382  1.00  0.00    -0.184 NA
HETATM    7  C   UNL     1      -8.741   1.673 -33.085  1.00  0.00     0.150 C 
BRANCH   7   8
HETATM    8  C   UNL     1     -10.128   1.545 -33.572  1.00  0.00    -0.014 A 
HETATM    9  C   UNL     1     -10.643   2.530 -34.413  1.00  0.00     0.052 A 
HETATM   10  C   UNL     1     -11.950   2.403 -34.869  1.00  0.00     0.099 A 
HETATM   11  C   UNL     1     -12.758   1.315 -34.509  1.00  0.00     0.101 A 
HETATM   12  C   UNL     1     -12.229   0.331 -33.672  1.00  0.00     0.040 A 
HETATM   13  C   UNL     1     -10.916   0.449 -33.202  1.00  0.00     0.016 A 
BRANCH  10  14
HETATM   14  O   UNL     1     -12.443   3.381 -35.689  1.00  0.00    -0.358 OA
HETATM   15  H   UNL     1     -13.415   3.312 -35.609  1.00  0.00     0.218 HD
ENDBRANCH  10  14
BRANCH  11  16
HETATM   16  O   UNL     1     -14.022   1.332 -35.037  1.00  0.00    -0.353 OA
HETATM   17  C   UNL     1     -15.066   0.851 -34.197  1.00  0.00     0.210 C 
ENDBRANCH  11  16
ENDBRANCH   7   8
ENDBRANCH   3   6
ENDBRANCH   1   2
BRANCH   1  18
HETATM   18  N   UNL     1      -4.477   1.828 -31.324  1.00  0.00    -0.334 N 
HETATM   19  C   UNL     1      -4.774   0.491 -31.437  1.00  0.00     0.321 C 
HETATM   20  N   UNL     1      -3.914  -0.148 -32.295  1.00  0.00    -0.309 N 
HETATM   21  O   UNL     1      -5.749   0.003 -30.877  1.00  0.00    -0.247 OA
HETATM   22  H   UNL     1      -3.373   0.457 -32.897  1.00  0.00     0.170 HD
HETATM   23  H   UNL     1      -3.503   2.063 -31.444  1.00  0.00     0.164 HD
BRANCH  20  24
HETATM   24  C   UNL     1      -3.901  -1.523 -32.608  1.00  0.00     0.037 A 
HETATM   25  C   UNL     1      -4.724  -2.100 -33.579  1.00  0.00     0.045 A 
HETATM   26  C   UNL     1      -4.664  -3.479 -33.850  1.00  0.00     0.050 A 
HETATM   27  C   UNL     1      -3.755  -4.274 -33.138  1.00  0.00     0.016 A 
HETATM   28  C   UNL     1      -2.942  -3.708 -32.159  1.00  0.00     0.003 A 
HETATM   29  C   UNL     1      -3.021  -2.339 -31.890  1.00  0.00     0.029 A 
BRANCH  26  30
HETATM   30  C   UNL     1      -5.538  -4.093 -34.916  1.00  0.00     0.417 C 
HETATM   31  F   UNL     1      -6.853  -4.167 -34.569  1.00  0.00    -0.166 F 
HETATM   32  F   UNL     1      -5.496  -3.395 -36.085  1.00  0.00    -0.166 F 
HETATM   33  F   UNL     1      -5.167  -5.366 -35.229  1.00  0.00    -0.166 F 
ENDBRANCH  26  30
ENDBRANCH  20  24
ENDBRANCH   1  18
TORSDOF 8
ENDMDL
MODEL 4
REMARK VINA RESULT:      -8.2      7.531     11.289
REMARK  8 active torsions:
REMARK  status: ('A' for Active; 'I' for Inactive)
REMARK    1  A    between atoms: O_2  and  C_3 
REMARK    2  A    between atoms: C_4  and  O_5 
REMARK    3  A    between atoms: C_7  and  C_8 
REMARK    4  A    between atoms: N_9  and  N_10 
REMARK       I    between atoms: N_10  and  C_11 
REMARK    5  A    between atoms: C_11  and  C_12 
REMARK    6  A    between atoms: C_12  and  N_13 
REMARK       I    between atoms: N_13  and  C_14 
REMARK       I    between atoms: C_14  and  N_15 
REMARK    7  A    between atoms: N_15  and  C_16 
REMARK    8  A    between atoms: C_18  and  C_19 
ROOT
HETATM    1  C   UNL     1      -6.480   5.219 -28.264  1.00  0.00     0.228 C 
ENDROOT
BRANCH   1   2
HETATM    2  C   UNL     1      -6.142   4.471 -29.562  1.00  0.00     0.255 C 
HETATM    3  N   UNL     1      -5.301   3.386 -29.378  1.00  0.00    -0.246 N 
HETATM    4  H   UNL     1      -5.019   3.133 -28.428  1.00  0.00     0.192 HD
HETATM    5  O   UNL     1      -6.684   4.776 -30.624  1.00  0.00    -0.270 OA
BRANCH   3   6
HETATM    6  N   UNL     1      -4.962   2.580 -30.421  1.00  0.00    -0.184 NA
HETATM    7  C   UNL     1      -5.433   1.375 -30.350  1.00  0.00     0.150 C 
BRANCH   7   8
HETATM    8  C   UNL     1      -5.171   0.383 -31.410  1.00  0.00    -0.014 A 
HETATM    9  C   UNL     1      -6.249  -0.175 -32.095  1.00  0.00     0.052 A 
HETATM   10  C   UNL     1      -5.995  -1.108 -33.093  1.00  0.00     0.099 A 
HETATM   11  C   UNL     1      -4.691  -1.501 -33.427  1.00  0.00     0.101 A 
HETATM   12  C   UNL     1      -3.620  -0.931 -32.738  1.00  0.00     0.040 A 
HETATM   13  C   UNL     1      -3.861   0.008 -31.728  1.00  0.00     0.016 A 
BRANCH  10  14
HETATM   14  O   UNL     1      -7.064  -1.651 -33.754  1.00  0.00    -0.358 OA
HETATM   15  H   UNL     1      -6.683  -2.069 -34.551  1.00  0.00     0.218 HD
ENDBRANCH  10  14
BRANCH  11  16
HETATM   16  O   UNL     1      -4.604  -2.431 -34.430  1.00  0.00    -0.353 OA
HETATM   17  C   UNL     1      -4.149  -3.726 -34.055  1.00  0.00     0.210 C 
ENDBRANCH  11  16
ENDBRANCH   7   8
ENDBRANCH   3   6
ENDBRANCH   1   2
BRANCH   1  18
HETATM   18  N   UNL     1      -5.402   5.294 -27.278  1.00  0.00    -0.334 N 
HETATM   19  C   UNL     1      -4.508   6.338 -27.294  1.00  0.00     0.321 C 
HETATM   20  N   UNL     1      -3.523   6.176 -26.352  1.00  0.00    -0.309 N 
HETATM   21  O   UNL     1      -4.668   7.306 -28.029  1.00  0.00    -0.247 OA
HETATM   22  H   UNL     1      -3.716   5.488 -25.638  1.00  0.00     0.170 HD
HETATM   23  H   UNL     1      -5.020   4.406 -26.992  1.00  0.00     0.164 HD
BRANCH  20  24
HETATM   24  C   UNL     1      -2.424   7.028 -26.125  1.00  0.00     0.037 A 
HETATM   25  C   UNL     1      -1.175   6.853 -26.727  1.00  0.00     0.045 A 
HETATM   26  C   UNL     1      -0.115   7.738 -26.464  1.00  0.00     0.050 A 
HETATM   27  C   UNL     1      -0.327   8.815 -25.591  1.00  0.00     0.016 A 
HETATM   28  C   UNL     1      -1.565   8.988 -24.976  1.00  0.00     0.003 A 
HETATM   29  C   UNL     1      -2.606   8.093 -25.236  1.00  0.00     0.029 A 
BRANCH  26  30
HETATM   30  C   UNL     1       1.225   7.557 -27.136  1.00  0.00     0.417 C 
HETATM   31  F   UNL     1       1.532   8.548 -28.018  1.00  0.00    -0.166 F 
HETATM   32  F   UNL     1       2.251   7.517 -26.242  1.00  0.00    -0.166 F 
HETATM   33  F   UNL     1       1.303   6.395 -27.845  1.00  0.00    -0.166 F 
ENDBRANCH  26  30
ENDBRANCH  20  24
ENDBRANCH   1  18
TORSDOF 8
ENDMDL
MODEL 5
REMARK VINA RESULT:      -8.1      4.490      8.890
REMARK  8 active torsions:
REMARK  status: ('A' for Active; 'I' for Inactive)
REMARK    1  A    between atoms: O_2  and  C_3 
REMARK    2  A    between atoms: C_4  and  O_5 
REMARK    3  A    between atoms: C_7  and  C_8 
REMARK    4  A    between atoms: N_9  and  N_10 
REMARK       I    between atoms: N_10  and  C_11 
REMARK    5  A    between atoms: C_11  and  C_12 
REMARK    6  A    between atoms: C_12  and  N_13 
REMARK       I    between atoms: N_13  and  C_14 
REMARK       I    between atoms: C_14  and  N_15 
REMARK    7  A    between atoms: N_15  and  C_16 
REMARK    8  A    between atoms: C_18  and  C_19 
ROOT
HETATM    1  C   UNL     1      -9.996   3.344 -33.648  1.00  0.00     0.228 C 
ENDROOT
BRANCH   1   2
HETATM    2  C   UNL     1      -9.587   1.868 -33.545  1.00  0.00     0.255 C 
HETATM    3  N   UNL     1      -8.791   1.435 -34.593  1.00  0.00    -0.246 N 
HETATM    4  H   UNL     1      -8.496   2.109 -35.303  1.00  0.00     0.192 HD
HETATM    5  O   UNL     1      -9.869   1.204 -32.548  1.00  0.00    -0.270 OA
BRANCH   3   6
HETATM    6  N   UNL     1      -8.288   0.170 -34.612  1.00  0.00    -0.184 NA
HETATM    7  C   UNL     1      -7.014   0.089 -34.395  1.00  0.00     0.150 C 
BRANCH   7   8
HETATM    8  C   UNL     1      -6.320  -1.212 -34.366  1.00  0.00    -0.014 A 
HETATM    9  C   UNL     1      -6.989  -2.345 -34.826  1.00  0.00     0.052 A 
HETATM   10  C   UNL     1      -6.328  -3.568 -34.797  1.00  0.00     0.099 A 
HETATM   11  C   UNL     1      -5.015  -3.691 -34.320  1.00  0.00     0.101 A 
HETATM   12  C   UNL     1      -4.354  -2.549 -33.868  1.00  0.00     0.040 A 
HETATM   13  C   UNL     1      -5.008  -1.311 -33.888  1.00  0.00     0.016 A 
BRANCH  10  14
HETATM   14  O   UNL     1      -6.999  -4.673 -35.248  1.00  0.00    -0.358 OA
HETATM   15  H   UNL     1      -6.552  -5.431 -34.823  1.00  0.00     0.218 HD
ENDBRANCH  10  14
BRANCH  11  16
HETATM   16  O   UNL     1      -4.503  -4.962 -34.354  1.00  0.00    -0.353 OA
HETATM   17  C   UNL     1      -3.288  -5.174 -33.642  1.00  0.00     0.210 C 
ENDBRANCH  11  16
ENDBRANCH   7   8
ENDBRANCH   3   6
ENDBRANCH   1   2
BRANCH   1  18
HETATM   18  N   UNL     1      -8.947   4.262 -34.091  1.00  0.00    -0.334 N 
HETATM   19  C   UNL     1      -7.775   4.383 -33.383  1.00  0.00     0.321 C 
HETATM   20  N   UNL     1      -6.965   5.359 -33.907  1.00  0.00    -0.309 N 
HETATM   21  O   UNL     1      -7.508   3.629 -32.455  1.00  0.00    -0.247 OA
HETATM   22  H   UNL     1      -7.201   5.664 -34.841  1.00  0.00     0.170 HD
HETATM   23  H   UNL     1      -9.276   5.112 -34.525  1.00  0.00     0.164 HD
BRANCH  20  24
HETATM   24  C   UNL     1      -5.716   5.779 -33.406  1.00  0.00     0.037 A 
HETATM   25  C   UNL     1      -4.495   5.430 -33.989  1.00  0.00     0.045 A 
HETATM   26  C   UNL     1      -3.279   5.882 -33.446  1.00  0.00     0.050 A 
HETATM   27  C   UNL     1      -3.304   6.700 -32.307  1.00  0.00     0.016 A 
HETATM   28  C   UNL     1      -4.517   7.039 -31.711  1.00  0.00     0.003 A 
HETATM   29  C   UNL     1      -5.717   6.573 -32.254  1.00  0.00     0.029 A 
BRANCH  26  30
HETATM   30  C   UNL     1      -1.965   5.522 -34.095  1.00  0.00     0.417 C 
HETATM   31  F   UNL     1      -1.250   4.592 -33.404  1.00  0.00    -0.166 F 
HETATM   32  F   UNL     1      -2.128   5.017 -35.348  1.00  0.00    -0.166 F 
HETATM   33  F   UNL     1      -1.137   6.596 -34.231  1.00  0.00    -0.166 F 
ENDBRANCH  26  30
ENDBRANCH  20  24
ENDBRANCH   1  18
TORSDOF 8
ENDMDL
MODEL 6
REMARK VINA RESULT:      -8.1      7.330     11.398
REMARK  8 active torsions:
REMARK  status: ('A' for Active; 'I' for Inactive)
REMARK    1  A    between atoms: O_2  and  C_3 
REMARK    2  A    between atoms: C_4  and  O_5 
REMARK    3  A    between atoms: C_7  and  C_8 
REMARK    4  A    between atoms: N_9  and  N_10 
REMARK       I    between atoms: N_10  and  C_11 
REMARK    5  A    between atoms: C_11  and  C_12 
REMARK    6  A    between atoms: C_12  and  N_13 
REMARK       I    between atoms: N_13  and  C_14 
REMARK       I    between atoms: C_14  and  N_15 
REMARK    7  A    between atoms: N_15  and  C_16 
REMARK    8  A    between atoms: C_18  and  C_19 
ROOT
HETATM    1  C   UNL     1      -2.576   6.173 -33.980  1.00  0.00     0.228 C 
ENDROOT
BRANCH   1   2
HETATM    2  C   UNL     1      -1.884   7.047 -32.924  1.00  0.00     0.255 C 
HETATM    3  N   UNL     1      -1.220   6.321 -31.948  1.00  0.00    -0.246 N 
HETATM    4  H   UNL     1      -1.189   5.301 -32.024  1.00  0.00     0.192 HD
HETATM    5  O   UNL     1      -1.854   8.271 -33.040  1.00  0.00    -0.270 OA
BRANCH   3   6
HETATM    6  N   UNL     1      -0.500   6.949 -30.979  1.00  0.00    -0.184 NA
HETATM    7  C   UNL     1      -1.055   6.955 -29.808  1.00  0.00     0.150 C 
BRANCH   7   8
HETATM    8  C   UNL     1      -0.394   7.581 -28.647  1.00  0.00    -0.014 A 
HETATM    9  C   UNL     1      -1.135   7.802 -27.487  1.00  0.00     0.052 A 
HETATM   10  C   UNL     1      -0.506   8.391 -26.396  1.00  0.00     0.099 A 
HETATM   11  C   UNL     1       0.845   8.766 -26.431  1.00  0.00     0.101 A 
HETATM   12  C   UNL     1       1.577   8.533 -27.596  1.00  0.00     0.040 A 
HETATM   13  C   UNL     1       0.956   7.944 -28.704  1.00  0.00     0.016 A 
BRANCH  10  14
HETATM   14  O   UNL     1      -1.247   8.607 -25.266  1.00  0.00    -0.358 OA
HETATM   15  H   UNL     1      -1.735   9.437 -25.438  1.00  0.00     0.218 HD
ENDBRANCH  10  14
BRANCH  11  16
HETATM   16  O   UNL     1       1.319   9.336 -25.279  1.00  0.00    -0.353 OA
HETATM   17  C   UNL     1       2.470   8.732 -24.700  1.00  0.00     0.210 C 
ENDBRANCH  11  16
ENDBRANCH   7   8
ENDBRANCH   3   6
ENDBRANCH   1   2
BRANCH   1  18
HETATM   18  N   UNL     1      -3.769   5.458 -33.528  1.00  0.00    -0.334 N 
HETATM   19  C   UNL     1      -3.700   4.130 -33.178  1.00  0.00     0.321 C 
HETATM   20  N   UNL     1      -4.938   3.622 -32.873  1.00  0.00    -0.309 N 
HETATM   21  O   UNL     1      -2.626   3.547 -33.089  1.00  0.00    -0.247 OA
HETATM   22  H   UNL     1      -5.658   4.308 -32.701  1.00  0.00     0.170 HD
HETATM   23  H   UNL     1      -4.632   5.741 -33.966  1.00  0.00     0.164 HD
BRANCH  20  24
HETATM   24  C   UNL     1      -5.240   2.290 -32.519  1.00  0.00     0.037 A 
HETATM   25  C   UNL     1      -5.620   1.315 -33.445  1.00  0.00     0.045 A 
HETATM   26  C   UNL     1      -5.906   0.001 -33.033  1.00  0.00     0.050 A 
HETATM   27  C   UNL     1      -5.798  -0.326 -31.675  1.00  0.00     0.016 A 
HETATM   28  C   UNL     1      -5.435   0.645 -30.744  1.00  0.00     0.003 A 
HETATM   29  C   UNL     1      -5.165   1.950 -31.165  1.00  0.00     0.029 A 
BRANCH  26  30
HETATM   30  C   UNL     1      -6.292  -1.055 -34.041  1.00  0.00     0.417 C 
HETATM   31  F   UNL     1      -5.337  -2.008 -34.227  1.00  0.00    -0.166 F 
HETATM   32  F   UNL     1      -7.424  -1.721 -33.684  1.00  0.00    -0.166 F 
HETATM   33  F   UNL     1      -6.539  -0.535 -35.276  1.00  0.00    -0.166 F 
ENDBRANCH  26  30
ENDBRANCH  20  24
ENDBRANCH   1  18
TORSDOF 8
ENDMDL
MODEL 7
REMARK VINA RESULT:      -8.0      8.506     12.206
REMARK  8 active torsions:
REMARK  status: ('A' for Active; 'I' for Inactive)
REMARK    1  A    between atoms: O_2  and  C_3 
REMARK    2  A    between atoms: C_4  and  O_5 
REMARK    3  A    between atoms: C_7  and  C_8 
REMARK    4  A    between atoms: N_9  and  N_10 
REMARK       I    between atoms: N_10  and  C_11 
REMARK    5  A    between atoms: C_11  and  C_12 
REMARK    6  A    between atoms: C_12  and  N_13 
REMARK       I    between atoms: N_13  and  C_14 
REMARK       I    between atoms: C_14  and  N_15 
REMARK    7  A    between atoms: N_15  and  C_16 
REMARK    8  A    between atoms: C_18  and  C_19 
ROOT
HETATM    1  C   UNL     1      -2.623   5.540 -31.509  1.00  0.00     0.228 C 
ENDROOT
BRANCH   1   2
HETATM    2  C   UNL     1      -2.592   4.159 -32.179  1.00  0.00     0.255 C 
HETATM    3  N   UNL     1      -3.079   3.140 -31.378  1.00  0.00    -0.246 N 
HETATM    4  H   UNL     1      -3.461   3.371 -30.457  1.00  0.00     0.192 HD
HETATM    5  O   UNL     1      -2.264   4.038 -33.359  1.00  0.00    -0.270 OA
BRANCH   3   6
HETATM    6  N   UNL     1      -3.182   1.867 -31.851  1.00  0.00    -0.184 NA
HETATM    7  C   UNL     1      -4.356   1.546 -32.294  1.00  0.00     0.150 C 
BRANCH   7   8
HETATM    8  C   UNL     1      -4.627   0.209 -32.856  1.00  0.00    -0.014 A 
HETATM    9  C   UNL     1      -3.819  -0.861 -32.473  1.00  0.00     0.052 A 
HETATM   10  C   UNL     1      -4.081  -2.118 -33.006  1.00  0.00     0.099 A 
HETATM   11  C   UNL     1      -5.128  -2.337 -33.912  1.00  0.00     0.101 A 
HETATM   12  C   UNL     1      -5.933  -1.259 -34.283  1.00  0.00     0.040 A 
HETATM   13  C   UNL     1      -5.679   0.013 -33.757  1.00  0.00     0.016 A 
BRANCH  10  14
HETATM   14  O   UNL     1      -3.277  -3.158 -32.624  1.00  0.00    -0.358 OA
HETATM   15  H   UNL     1      -2.437  -2.740 -32.348  1.00  0.00     0.218 HD
ENDBRANCH  10  14
BRANCH  11  16
HETATM   16  O   UNL     1      -5.257  -3.629 -34.349  1.00  0.00    -0.353 OA
HETATM   17  C   UNL     1      -6.484  -3.963 -34.988  1.00  0.00     0.210 C 
ENDBRANCH  11  16
ENDBRANCH   7   8
ENDBRANCH   3   6
ENDBRANCH   1   2
BRANCH   1  18
HETATM   18  N   UNL     1      -2.042   5.607 -30.168  1.00  0.00    -0.334 N 
HETATM   19  C   UNL     1      -1.485   6.774 -29.702  1.00  0.00     0.321 C 
HETATM   20  N   UNL     1      -0.914   6.604 -28.466  1.00  0.00    -0.309 N 
HETATM   21  O   UNL     1      -1.587   7.825 -30.325  1.00  0.00    -0.247 OA
HETATM   22  H   UNL     1      -1.188   5.766 -27.973  1.00  0.00     0.170 HD
HETATM   23  H   UNL     1      -1.593   4.761 -29.853  1.00  0.00     0.164 HD
BRANCH  20  24
HETATM   24  C   UNL     1      -0.217   7.575 -27.717  1.00  0.00     0.037 A 
HETATM   25  C   UNL     1      -0.718   8.151 -26.547  1.00  0.00     0.045 A 
HETATM   26  C   UNL     1       0.025   9.113 -25.840  1.00  0.00     0.050 A 
HETATM   27  C   UNL     1       1.288   9.486 -26.320  1.00  0.00     0.016 A 
HETATM   28  C   UNL     1       1.787   8.927 -27.494  1.00  0.00     0.003 A 
HETATM   29  C   UNL     1       1.034   7.981 -28.193  1.00  0.00     0.029 A 
BRANCH  26  30
HETATM   30  C   UNL     1      -0.511   9.715 -24.563  1.00  0.00     0.417 C 
HETATM   31  F   UNL     1       0.389   9.720 -23.541  1.00  0.00    -0.166 F 
HETATM   32  F   UNL     1      -0.904  11.008 -24.725  1.00  0.00    -0.166 F 
HETATM   33  F   UNL     1      -1.603   9.050 -24.089  1.00  0.00    -0.166 F 
ENDBRANCH  26  30
ENDBRANCH  20  24
ENDBRANCH   1  18
TORSDOF 8
ENDMDL
MODEL 8
REMARK VINA RESULT:      -8.0      4.745      8.926
REMARK  8 active torsions:
REMARK  status: ('A' for Active; 'I' for Inactive)
REMARK    1  A    between atoms: O_2  and  C_3 
REMARK    2  A    between atoms: C_4  and  O_5 
REMARK    3  A    between atoms: C_7  and  C_8 
REMARK    4  A    between atoms: N_9  and  N_10 
REMARK       I    between atoms: N_10  and  C_11 
REMARK    5  A    between atoms: C_11  and  C_12 
REMARK    6  A    between atoms: C_12  and  N_13 
REMARK       I    between atoms: N_13  and  C_14 
REMARK       I    between atoms: C_14  and  N_15 
REMARK    7  A    between atoms: N_15  and  C_16 
REMARK    8  A    between atoms: C_18  and  C_19 
ROOT
HETATM    1  C   UNL     1      -7.863   3.869 -33.601  1.00  0.00     0.228 C 
ENDROOT
BRANCH   1   2
HETATM    2  C   UNL     1      -6.638   4.776 -33.415  1.00  0.00     0.255 C 
HETATM    3  N   UNL     1      -6.287   4.974 -32.090  1.00  0.00    -0.246 N 
HETATM    4  H   UNL     1      -6.808   4.483 -31.360  1.00  0.00     0.192 HD
HETATM    5  O   UNL     1      -5.994   5.172 -34.386  1.00  0.00    -0.270 OA
BRANCH   3   6
HETATM    6  N   UNL     1      -5.183   5.699 -31.761  1.00  0.00    -0.184 NA
HETATM    7  C   UNL     1      -4.190   5.000 -31.308  1.00  0.00     0.150 C 
BRANCH   7   8
HETATM    8  C   UNL     1      -2.915   5.633 -30.923  1.00  0.00    -0.014 A 
HETATM    9  C   UNL     1      -1.727   4.929 -31.111  1.00  0.00     0.052 A 
HETATM   10  C   UNL     1      -0.529   5.532 -30.746  1.00  0.00     0.099 A 
HETATM   11  C   UNL     1      -0.484   6.823 -30.199  1.00  0.00     0.101 A 
HETATM   12  C   UNL     1      -1.679   7.520 -30.022  1.00  0.00     0.040 A 
HETATM   13  C   UNL     1      -2.894   6.924 -30.381  1.00  0.00     0.016 A 
BRANCH  10  14
HETATM   14  O   UNL     1       0.629   4.827 -30.932  1.00  0.00    -0.358 OA
HETATM   15  H   UNL     1       1.170   5.014 -30.139  1.00  0.00     0.218 HD
ENDBRANCH  10  14
BRANCH  11  16
HETATM   16  O   UNL     1       0.771   7.278 -29.889  1.00  0.00    -0.353 OA
HETATM   17  C   UNL     1       0.970   7.727 -28.553  1.00  0.00     0.210 C 
ENDBRANCH  11  16
ENDBRANCH   7   8
ENDBRANCH   3   6
ENDBRANCH   1   2
BRANCH   1  18
HETATM   18  N   UNL     1      -7.617   2.606 -34.296  1.00  0.00    -0.334 N 
HETATM   19  C   UNL     1      -6.879   1.610 -33.701  1.00  0.00     0.321 C 
HETATM   20  N   UNL     1      -6.685   0.549 -34.550  1.00  0.00    -0.309 N 
HETATM   21  O   UNL     1      -6.535   1.683 -32.528  1.00  0.00    -0.247 OA
HETATM   22  H   UNL     1      -7.289   0.523 -35.359  1.00  0.00     0.170 HD
HETATM   23  H   UNL     1      -7.509   2.681 -35.296  1.00  0.00     0.164 HD
BRANCH  20  24
HETATM   24  C   UNL     1      -5.939  -0.618 -34.285  1.00  0.00     0.037 A 
HETATM   25  C   UNL     1      -6.345  -1.897 -34.674  1.00  0.00     0.045 A 
HETATM   26  C   UNL     1      -5.557  -3.025 -34.385  1.00  0.00     0.050 A 
HETATM   27  C   UNL     1      -4.344  -2.852 -33.703  1.00  0.00     0.016 A 
HETATM   28  C   UNL     1      -3.940  -1.581 -33.299  1.00  0.00     0.003 A 
HETATM   29  C   UNL     1      -4.738  -0.471 -33.582  1.00  0.00     0.029 A 
BRANCH  26  30
HETATM   30  C   UNL     1      -5.989  -4.402 -34.829  1.00  0.00     0.417 C 
HETATM   31  F   UNL     1      -5.149  -5.395 -34.427  1.00  0.00    -0.166 F 
HETATM   32  F   UNL     1      -7.221  -4.735 -34.355  1.00  0.00    -0.166 F 
HETATM   33  F   UNL     1      -6.069  -4.513 -36.185  1.00  0.00    -0.166 F 
ENDBRANCH  26  30
ENDBRANCH  20  24
ENDBRANCH   1  18
TORSDOF 8
ENDMDL
MODEL 9
REMARK VINA RESULT:      -8.0      8.817     12.668
REMARK  8 active torsions:
REMARK  status: ('A' for Active; 'I' for Inactive)
REMARK    1  A    between atoms: O_2  and  C_3 
REMARK    2  A    between atoms: C_4  and  O_5 
REMARK    3  A    between atoms: C_7  and  C_8 
REMARK    4  A    between atoms: N_9  and  N_10 
REMARK       I    between atoms: N_10  and  C_11 
REMARK    5  A    between atoms: C_11  and  C_12 
REMARK    6  A    between atoms: C_12  and  N_13 
REMARK       I    between atoms: N_13  and  C_14 
REMARK       I    between atoms: C_14  and  N_15 
REMARK    7  A    between atoms: N_15  and  C_16 
REMARK    8  A    between atoms: C_18  and  C_19 
ROOT
HETATM    1  C   UNL     1      -1.867   5.645 -31.310  1.00  0.00     0.228 C 
ENDROOT
BRANCH   1   2
HETATM    2  C   UNL     1      -1.711   6.616 -30.130  1.00  0.00     0.255 C 
HETATM    3  N   UNL     1      -0.837   6.170 -29.153  1.00  0.00    -0.246 N 
HETATM    4  H   UNL     1      -0.333   5.292 -29.300  1.00  0.00     0.192 HD
HETATM    5  O   UNL     1      -2.245   7.724 -30.152  1.00  0.00    -0.270 OA
BRANCH   3   6
HETATM    6  N   UNL     1      -0.539   6.947 -28.075  1.00  0.00    -0.184 NA
HETATM    7  C   UNL     1       0.617   7.530 -28.130  1.00  0.00     0.150 C 
BRANCH   7   8
HETATM    8  C   UNL     1       1.082   8.420 -27.049  1.00  0.00    -0.014 A 
HETATM    9  C   UNL     1       1.944   7.911 -26.079  1.00  0.00     0.052 A 
HETATM   10  C   UNL     1       2.378   8.755 -25.063  1.00  0.00     0.099 A 
HETATM   11  C   UNL     1       1.976  10.096 -24.989  1.00  0.00     0.101 A 
HETATM   12  C   UNL     1       1.118  10.595 -25.970  1.00  0.00     0.040 A 
HETATM   13  C   UNL     1       0.669   9.756 -26.997  1.00  0.00     0.016 A 
BRANCH  10  14
HETATM   14  O   UNL     1       3.220   8.239 -24.115  1.00  0.00    -0.358 OA
HETATM   15  H   UNL     1       2.652   8.068 -23.338  1.00  0.00     0.218 HD
ENDBRANCH  10  14
BRANCH  11  16
HETATM   16  O   UNL     1       2.487  10.798 -23.929  1.00  0.00    -0.353 OA
HETATM   17  C   UNL     1       1.573  11.134 -22.892  1.00  0.00     0.210 C 
ENDBRANCH  11  16
ENDBRANCH   7   8
ENDBRANCH   3   6
ENDBRANCH   1   2
BRANCH   1  18
HETATM   18  N   UNL     1      -2.521   4.374 -31.001  1.00  0.00    -0.334 N 
HETATM   19  C   UNL     1      -2.900   3.517 -32.008  1.00  0.00     0.321 C 
HETATM   20  N   UNL     1      -3.579   2.429 -31.518  1.00  0.00    -0.309 N 
HETATM   21  O   UNL     1      -2.573   3.714 -33.172  1.00  0.00    -0.247 OA
HETATM   22  H   UNL     1      -3.490   2.275 -30.524  1.00  0.00     0.170 HD
HETATM   23  H   UNL     1      -3.133   4.390 -30.199  1.00  0.00     0.164 HD
BRANCH  20  24
HETATM   24  C   UNL     1      -4.148   1.381 -32.270  1.00  0.00     0.037 A 
HETATM   25  C   UNL     1      -5.358   1.497 -32.959  1.00  0.00     0.045 A 
HETATM   26  C   UNL     1      -5.876   0.417 -33.696  1.00  0.00     0.050 A 
HETATM   27  C   UNL     1      -5.156  -0.785 -33.740  1.00  0.00     0.016 A 
HETATM   28  C   UNL     1      -3.956  -0.912 -33.043  1.00  0.00     0.003 A 
HETATM   29  C   UNL     1      -3.459   0.164 -32.305  1.00  0.00     0.029 A 
BRANCH  26  30
HETATM   30  C   UNL     1      -7.171   0.555 -34.459  1.00  0.00     0.417 C 
HETATM   31  F   UNL     1      -7.869   1.683 -34.151  1.00  0.00    -0.166 F 
HETATM   32  F   UNL     1      -6.977   0.588 -35.806  1.00  0.00    -0.166 F 
HETATM   33  F   UNL     1      -8.027  -0.481 -34.231  1.00  0.00    -0.166 F 
ENDBRANCH  26  30
ENDBRANCH  20  24
ENDBRANCH   1  18
TORSDOF 8
ENDMDL
MODEL 10
REMARK VINA RESULT:      -7.8      6.910     10.321
REMARK  8 active torsions:
REMARK  status: ('A' for Active; 'I' for Inactive)
REMARK    1  A    between atoms: O_2  and  C_3 
REMARK    2  A    between atoms: C_4  and  O_5 
REMARK    3  A    between atoms: C_7  and  C_8 
REMARK    4  A    between atoms: N_9  and  N_10 
REMARK       I    between atoms: N_10  and  C_11 
REMARK    5  A    between atoms: C_11  and  C_12 
REMARK    6  A    between atoms: C_12  and  N_13 
REMARK       I    between atoms: N_13  and  C_14 
REMARK       I    between atoms: C_14  and  N_15 
REMARK    7  A    between atoms: N_15  and  C_16 
REMARK    8  A    between atoms: C_18  and  C_19 
ROOT
HETATM    1  C   UNL     1      -6.356   5.616 -32.231  1.00  0.00     0.228 C 
ENDROOT
BRANCH   1   2
HETATM    2  C   UNL     1      -6.615   4.271 -32.927  1.00  0.00     0.255 C 
HETATM    3  N   UNL     1      -6.262   3.171 -32.161  1.00  0.00    -0.246 N 
HETATM    4  H   UNL     1      -5.922   3.318 -31.208  1.00  0.00     0.192 HD
HETATM    5  O   UNL     1      -7.188   4.224 -34.014  1.00  0.00    -0.270 OA
BRANCH   3   6
HETATM    6  N   UNL     1      -6.492   1.907 -32.609  1.00  0.00    -0.184 NA
HETATM    7  C   UNL     1      -5.427   1.241 -32.926  1.00  0.00     0.150 C 
BRANCH   7   8
HETATM    8  C   UNL     1      -5.505  -0.150 -33.412  1.00  0.00    -0.014 A 
HETATM    9  C   UNL     1      -4.489  -1.041 -33.072  1.00  0.00     0.052 A 
HETATM   10  C   UNL     1      -4.569  -2.351 -33.533  1.00  0.00     0.099 A 
HETATM   11  C   UNL     1      -5.638  -2.795 -34.324  1.00  0.00     0.101 A 
HETATM   12  C   UNL     1      -6.652  -1.895 -34.652  1.00  0.00     0.040 A 
HETATM   13  C   UNL     1      -6.583  -0.572 -34.199  1.00  0.00     0.016 A 
BRANCH  10  14
HETATM   14  O   UNL     1      -3.562  -3.214 -33.195  1.00  0.00    -0.358 OA
HETATM   15  H   UNL     1      -2.736  -2.722 -33.376  1.00  0.00     0.218 HD
ENDBRANCH  10  14
BRANCH  11  16
HETATM   16  O   UNL     1      -5.573  -4.111 -34.701  1.00  0.00    -0.353 OA
HETATM   17  C   UNL     1      -6.522  -4.540 -35.671  1.00  0.00     0.210 C 
ENDBRANCH  11  16
ENDBRANCH   7   8
ENDBRANCH   3   6
ENDBRANCH   1   2
BRANCH   1  18
HETATM   18  N   UNL     1      -5.326   5.605 -31.194  1.00  0.00    -0.334 N 
HETATM   19  C   UNL     1      -4.085   6.149 -31.431  1.00  0.00     0.321 C 
HETATM   20  N   UNL     1      -3.237   5.955 -30.370  1.00  0.00    -0.309 N 
HETATM   21  O   UNL     1      -3.852   6.787 -32.450  1.00  0.00    -0.247 OA
HETATM   22  H   UNL     1      -3.680   5.686 -29.503  1.00  0.00     0.170 HD
HETATM   23  H   UNL     1      -5.331   4.795 -30.593  1.00  0.00     0.164 HD
BRANCH  20  24
HETATM   24  C   UNL     1      -1.883   6.341 -30.291  1.00  0.00     0.037 A 
HETATM   25  C   UNL     1      -1.360   7.113 -29.249  1.00  0.00     0.045 A 
HETATM   26  C   UNL     1       0.001   7.464 -29.222  1.00  0.00     0.050 A 
HETATM   27  C   UNL     1       0.839   7.021 -30.256  1.00  0.00     0.016 A 
HETATM   28  C   UNL     1       0.322   6.265 -31.305  1.00  0.00     0.003 A 
HETATM   29  C   UNL     1      -1.034   5.933 -31.326  1.00  0.00     0.029 A 
BRANCH  26  30
HETATM   30  C   UNL     1       0.564   8.277 -28.082  1.00  0.00     0.417 C 
HETATM   31  F   UNL     1      -0.109   9.438 -27.854  1.00  0.00    -0.166 F 
HETATM   32  F   UNL     1       0.549   7.595 -26.904  1.00  0.00    -0.166 F 
HETATM   33  F   UNL     1       1.862   8.638 -28.287  1.00  0.00    -0.166 F 
ENDBRANCH  26  30
ENDBRANCH  20  24
ENDBRANCH   1  18
TORSDOF 8
ENDMDL
