MODEL 1
REMARK VINA RESULT:      -9.9      0.000      0.000
REMARK  7 active torsions:
REMARK  status: ('A' for Active; 'I' for Inactive)
REMARK    1  A    between atoms: C_4  and  C_5 
REMARK    2  A    between atoms: C_9  and  C_10 
REMARK       I    between atoms: C_10  and  N_11 
REMARK    3  A    between atoms: N_11  and  N_12 
REMARK       I    between atoms: N_12  and  C_13 
REMARK    4  A    between atoms: C_13  and  C_14 
REMARK    5  A    between atoms: C_14  and  C_15 
REMARK    6  A    between atoms: C_15  and  N_16 
REMARK    7  A    between atoms: C_15  and  C_20 
REMARK       I    between atoms: N_16  and  C_17 
REMARK       I    between atoms: C_17  and  N_18 
ROOT
HETATM    1  N   UNL     1      -4.717   2.626 -30.453  1.00  0.00    -0.267 N 
HETATM    2  C   UNL     1      -4.225   3.715 -31.145  1.00  0.00     0.238 C 
HETATM    3  O   UNL     1      -4.916   4.697 -31.414  1.00  0.00    -0.272 OA
HETATM    4  H   UNL     1      -4.268   1.722 -30.658  1.00  0.00     0.190 HD
ENDROOT
BRANCH   1   5
HETATM    5  N   UNL     1      -6.097   2.620 -30.190  1.00  0.00    -0.262 N 
HETATM    6  C   UNL     1      -7.071   2.141 -31.046  1.00  0.00     0.288 C 
HETATM    7  O   UNL     1      -8.238   2.483 -30.861  1.00  0.00    -0.264 OA
HETATM    8  H   UNL     1      -6.411   3.242 -29.445  1.00  0.00     0.190 HD
BRANCH   6   9
HETATM    9  C   UNL     1      -6.692   1.255 -32.119  1.00  0.00     0.121 A 
HETATM   10  N   UNL     1      -6.377   1.615 -33.395  1.00  0.00    -0.272 N 
HETATM   11  N   UNL     1      -6.103   0.588 -34.217  1.00  0.00    -0.174 NA
HETATM   12  H   UNL     1      -6.376   2.555 -33.771  1.00  0.00     0.189 HD
HETATM   13  C   UNL     1      -6.159  -0.494 -33.420  1.00  0.00     0.089 A 
HETATM   14  C   UNL     1      -6.506  -0.112 -32.096  1.00  0.00     0.071 A 
BRANCH  13  15
HETATM   15  C   UNL     1      -5.911  -1.847 -33.923  1.00  0.00    -0.006 A 
HETATM   16  C   UNL     1      -4.619  -2.393 -33.909  1.00  0.00     0.014 A 
HETATM   17  C   UNL     1      -4.392  -3.696 -34.365  1.00  0.00     0.001 A 
HETATM   18  C   UNL     1      -5.453  -4.466 -34.834  1.00  0.00     0.000 A 
HETATM   19  C   UNL     1      -6.741  -3.935 -34.858  1.00  0.00     0.001 A 
HETATM   20  C   UNL     1      -6.968  -2.631 -34.409  1.00  0.00     0.014 A 
ENDBRANCH  13  15
ENDBRANCH   6   9
ENDBRANCH   1   5
BRANCH   2  21
HETATM   21  C   UNL     1      -2.773   3.614 -31.576  1.00  0.00     0.134 C 
BRANCH  21  22
HETATM   22  C   UNL     1      -2.177   4.903 -32.172  1.00  0.00     0.127 C 
BRANCH  22  23
HETATM   23  N   UNL     1      -1.513   4.806 -33.476  1.00  0.00    -0.339 N 
HETATM   24  C   UNL     1      -1.404   5.762 -34.427  1.00  0.00     0.292 C 
HETATM   25  N   UNL     1      -0.851   5.308 -35.574  1.00  0.00    -0.254 NA
HETATM   26  O   UNL     1      -1.777   6.920 -34.318  1.00  0.00    -0.254 OA
HETATM   27  H   UNL     1      -1.067   4.366 -35.864  1.00  0.00     0.128 HD
HETATM   28  H   UNL     1      -0.910   5.980 -36.333  1.00  0.00     0.128 HD
HETATM   29  H   UNL     1      -1.031   3.938 -33.664  1.00  0.00     0.164 HD
ENDBRANCH  22  23
BRANCH  22  30
HETATM   30  C   UNL     1      -1.376   5.736 -31.177  1.00  0.00    -0.035 A 
HETATM   31  C   UNL     1      -1.964   6.728 -30.374  1.00  0.00     0.011 A 
HETATM   32  C   UNL     1      -1.189   7.495 -29.500  1.00  0.00     0.024 A 
HETATM   33  C   UNL     1       0.185   7.282 -29.420  1.00  0.00     0.034 A 
HETATM   34 CL   UNL     1       1.137   8.231 -28.347  1.00  0.00    -0.084 Cl
HETATM   35  C   UNL     1       0.790   6.305 -30.204  1.00  0.00     0.024 A 
HETATM   36  C   UNL     1       0.013   5.535 -31.075  1.00  0.00     0.011 A 
ENDBRANCH  22  30
ENDBRANCH  21  22
ENDBRANCH   2  21
TORSDOF 7
ENDMDL
MODEL 2
REMARK VINA RESULT:      -9.7      3.491      5.150
REMARK  7 active torsions:
REMARK  status: ('A' for Active; 'I' for Inactive)
REMARK    1  A    between atoms: C_4  and  C_5 
REMARK    2  A    between atoms: C_9  and  C_10 
REMARK       I    between atoms: C_10  and  N_11 
REMARK    3  A    between atoms: N_11  and  N_12 
REMARK       I    between atoms: N_12  and  C_13 
REMARK    4  A    between atoms: C_13  and  C_14 
REMARK    5  A    between atoms: C_14  and  C_15 
REMARK    6  A    between atoms: C_15  and  N_16 
REMARK    7  A    between atoms: C_15  and  C_20 
REMARK       I    between atoms: N_16  and  C_17 
REMARK       I    between atoms: C_17  and  N_18 
ROOT
HETATM    1  N   UNL     1      -9.599   4.293 -32.707  1.00  0.00    -0.267 N 
HETATM    2  C   UNL     1      -8.521   4.886 -33.333  1.00  0.00     0.238 C 
HETATM    3  O   UNL     1      -8.546   5.228 -34.516  1.00  0.00    -0.272 OA
HETATM    4  H   UNL     1      -9.374   3.657 -31.929  1.00  0.00     0.190 HD
ENDROOT
BRANCH   1   5
HETATM    5  N   UNL     1     -10.694   3.958 -33.523  1.00  0.00    -0.262 N 
HETATM    6  C   UNL     1     -10.833   2.776 -34.226  1.00  0.00     0.288 C 
HETATM    7  O   UNL     1     -11.648   2.731 -35.147  1.00  0.00    -0.264 OA
HETATM    8  H   UNL     1     -11.284   4.736 -33.816  1.00  0.00     0.190 HD
BRANCH   6   9
HETATM    9  C   UNL     1     -10.027   1.638 -33.859  1.00  0.00     0.121 A 
HETATM   10  N   UNL     1     -10.371   0.648 -32.988  1.00  0.00    -0.272 N 
HETATM   11  N   UNL     1      -9.418  -0.276 -32.784  1.00  0.00    -0.174 NA
HETATM   12  H   UNL     1     -11.238   0.580 -32.468  1.00  0.00     0.189 HD
HETATM   13  C   UNL     1      -8.431   0.078 -33.626  1.00  0.00     0.089 A 
HETATM   14  C   UNL     1      -8.786   1.261 -34.329  1.00  0.00     0.071 A 
BRANCH  13  15
HETATM   15  C   UNL     1      -7.183  -0.682 -33.730  1.00  0.00    -0.006 A 
HETATM   16  C   UNL     1      -7.075  -1.769 -34.610  1.00  0.00     0.014 A 
HETATM   17  C   UNL     1      -5.873  -2.474 -34.726  1.00  0.00     0.001 A 
HETATM   18  C   UNL     1      -4.767  -2.098 -33.968  1.00  0.00     0.000 A 
HETATM   19  C   UNL     1      -4.862  -1.024 -33.086  1.00  0.00     0.001 A 
HETATM   20  C   UNL     1      -6.064  -0.322 -32.965  1.00  0.00     0.014 A 
ENDBRANCH  13  15
ENDBRANCH   6   9
ENDBRANCH   1   5
BRANCH   2  21
HETATM   21  C   UNL     1      -7.285   5.070 -32.472  1.00  0.00     0.134 C 
BRANCH  21  22
HETATM   22  C   UNL     1      -6.294   3.891 -32.490  1.00  0.00     0.127 C 
BRANCH  22  23
HETATM   23  N   UNL     1      -6.154   3.102 -31.262  1.00  0.00    -0.339 N 
HETATM   24  C   UNL     1      -7.116   2.427 -30.592  1.00  0.00     0.292 C 
HETATM   25  N   UNL     1      -6.685   1.916 -29.417  1.00  0.00    -0.254 NA
HETATM   26  O   UNL     1      -8.274   2.289 -30.956  1.00  0.00    -0.254 OA
HETATM   27  H   UNL     1      -6.016   2.452 -28.884  1.00  0.00     0.128 HD
HETATM   28  H   UNL     1      -7.439   1.545 -28.848  1.00  0.00     0.128 HD
HETATM   29  H   UNL     1      -5.215   3.006 -30.902  1.00  0.00     0.164 HD
ENDBRANCH  22  23
BRANCH  22  30
HETATM   30  C   UNL     1      -4.946   4.221 -33.122  1.00  0.00    -0.035 A 
HETATM   31  C   UNL     1      -3.724   3.902 -32.505  1.00  0.00     0.011 A 
HETATM   32  C   UNL     1      -2.509   4.254 -33.101  1.00  0.00     0.024 A 
HETATM   33  C   UNL     1      -2.501   4.930 -34.318  1.00  0.00     0.034 A 
HETATM   34 CL   UNL     1      -1.005   5.366 -35.045  1.00  0.00    -0.084 Cl
HETATM   35  C   UNL     1      -3.698   5.255 -34.947  1.00  0.00     0.024 A 
HETATM   36  C   UNL     1      -4.913   4.900 -34.353  1.00  0.00     0.011 A 
ENDBRANCH  22  30
ENDBRANCH  21  22
ENDBRANCH   2  21
TORSDOF 7
ENDMDL
MODEL 3
REMARK VINA RESULT:      -9.7      4.021      5.029
REMARK  7 active torsions:
REMARK  status: ('A' for Active; 'I' for Inactive)
REMARK    1  A    between atoms: C_4  and  C_5 
REMARK    2  A    between atoms: C_9  and  C_10 
REMARK       I    between atoms: C_10  and  N_11 
REMARK    3  A    between atoms: N_11  and  N_12 
REMARK       I    between atoms: N_12  and  C_13 
REMARK    4  A    between atoms: C_13  and  C_14 
REMARK    5  A    between atoms: C_14  and  C_15 
REMARK    6  A    between atoms: C_15  and  N_16 
REMARK    7  A    between atoms: C_15  and  C_20 
REMARK       I    between atoms: N_16  and  C_17 
REMARK       I    between atoms: C_17  and  N_18 
ROOT
HETATM    1  N   UNL     1      -9.206   1.655 -31.286  1.00  0.00    -0.267 N 
HETATM    2  C   UNL     1      -8.828   2.923 -30.892  1.00  0.00     0.238 C 
HETATM    3  O   UNL     1      -9.496   3.924 -31.151  1.00  0.00    -0.272 OA
HETATM    4  H   UNL     1      -8.440   0.985 -31.440  1.00  0.00     0.190 HD
ENDROOT
BRANCH   1   5
HETATM    5  N   UNL     1     -10.325   1.566 -32.132  1.00  0.00    -0.262 N 
HETATM    6  C   UNL     1     -10.288   1.228 -33.471  1.00  0.00     0.288 C 
HETATM    7  O   UNL     1     -11.260   1.501 -34.175  1.00  0.00    -0.264 OA
HETATM    8  H   UNL     1     -11.170   2.033 -31.801  1.00  0.00     0.190 HD
BRANCH   6   9
HETATM    9  C   UNL     1      -9.122   0.564 -33.999  1.00  0.00     0.121 A 
HETATM   10  N   UNL     1      -8.260   1.057 -34.931  1.00  0.00    -0.272 N 
HETATM   11  N   UNL     1      -7.276   0.215 -35.288  1.00  0.00    -0.174 NA
HETATM   12  H   UNL     1      -8.324   1.957 -35.392  1.00  0.00     0.189 HD
HETATM   13  C   UNL     1      -7.451  -0.852 -34.488  1.00  0.00     0.089 A 
HETATM   14  C   UNL     1      -8.587  -0.660 -33.655  1.00  0.00     0.071 A 
BRANCH  13  15
HETATM   15  C   UNL     1      -6.572  -2.022 -34.544  1.00  0.00    -0.006 A 
HETATM   16  C   UNL     1      -5.178  -1.877 -34.479  1.00  0.00     0.014 A 
HETATM   17  C   UNL     1      -4.344  -2.999 -34.504  1.00  0.00     0.001 A 
HETATM   18  C   UNL     1      -4.893  -4.276 -34.592  1.00  0.00     0.000 A 
HETATM   19  C   UNL     1      -6.276  -4.434 -34.662  1.00  0.00     0.001 A 
HETATM   20  C   UNL     1      -7.110  -3.313 -34.643  1.00  0.00     0.014 A 
ENDBRANCH  13  15
ENDBRANCH   6   9
ENDBRANCH   1   5
BRANCH   2  21
HETATM   21  C   UNL     1      -7.517   3.009 -30.134  1.00  0.00     0.134 C 
BRANCH  21  22
HETATM   22  C   UNL     1      -6.268   3.225 -31.010  1.00  0.00     0.127 C 
BRANCH  22  23
HETATM   23  N   UNL     1      -6.448   3.911 -32.294  1.00  0.00    -0.339 N 
HETATM   24  C   UNL     1      -5.953   5.112 -32.671  1.00  0.00     0.292 C 
HETATM   25  N   UNL     1      -6.421   5.524 -33.871  1.00  0.00    -0.254 NA
HETATM   26  O   UNL     1      -5.185   5.803 -32.019  1.00  0.00    -0.254 OA
HETATM   27  H   UNL     1      -7.376   5.302 -34.110  1.00  0.00     0.128 HD
HETATM   28  H   UNL     1      -6.172   6.486 -34.082  1.00  0.00     0.128 HD
HETATM   29  H   UNL     1      -6.957   3.400 -33.001  1.00  0.00     0.164 HD
ENDBRANCH  22  23
BRANCH  22  30
HETATM   30  C   UNL     1      -5.373   1.996 -31.133  1.00  0.00    -0.035 A 
HETATM   31  C   UNL     1      -3.975   2.086 -31.238  1.00  0.00     0.011 A 
HETATM   32  C   UNL     1      -3.193   0.937 -31.385  1.00  0.00     0.024 A 
HETATM   33  C   UNL     1      -3.799  -0.316 -31.432  1.00  0.00     0.034 A 
HETATM   34 CL   UNL     1      -2.835  -1.727 -31.619  1.00  0.00    -0.084 Cl
HETATM   35  C   UNL     1      -5.182  -0.429 -31.329  1.00  0.00     0.024 A 
HETATM   36  C   UNL     1      -5.963   0.719 -31.178  1.00  0.00     0.011 A 
ENDBRANCH  22  30
ENDBRANCH  21  22
ENDBRANCH   2  21
TORSDOF 7
ENDMDL
MODEL 4
REMARK VINA RESULT:      -9.3      3.111      4.055
REMARK  7 active torsions:
REMARK  status: ('A' for Active; 'I' for Inactive)
REMARK    1  A    between atoms: C_4  and  C_5 
REMARK    2  A    between atoms: C_9  and  C_10 
REMARK       I    between atoms: C_10  and  N_11 
REMARK    3  A    between atoms: N_11  and  N_12 
REMARK       I    between atoms: N_12  and  C_13 
REMARK    4  A    between atoms: C_13  and  C_14 
REMARK    5  A    between atoms: C_14  and  C_15 
REMARK    6  A    between atoms: C_15  and  N_16 
REMARK    7  A    between atoms: C_15  and  C_20 
REMARK       I    between atoms: N_16  and  C_17 
REMARK       I    between atoms: C_17  and  N_18 
ROOT
HETATM    1  N   UNL     1      -8.114   1.724 -31.009  1.00  0.00    -0.267 N 
HETATM    2  C   UNL     1      -7.416   2.912 -31.100  1.00  0.00     0.238 C 
HETATM    3  O   UNL     1      -7.920   3.946 -31.538  1.00  0.00    -0.272 OA
HETATM    4  H   UNL     1      -7.552   0.865 -31.077  1.00  0.00     0.190 HD
ENDROOT
BRANCH   1   5
HETATM    5  N   UNL     1      -9.400   1.705 -31.578  1.00  0.00    -0.262 N 
HETATM    6  C   UNL     1      -9.696   1.296 -32.865  1.00  0.00     0.288 C 
HETATM    7  O   UNL     1     -10.774   1.629 -33.355  1.00  0.00    -0.264 OA
HETATM    8  H   UNL     1     -10.104   2.271 -31.105  1.00  0.00     0.190 HD
BRANCH   6   9
HETATM    9  C   UNL     1      -8.741   0.492 -33.587  1.00  0.00     0.121 A 
HETATM   10  N   UNL     1      -8.223   0.757 -34.818  1.00  0.00    -0.272 N 
HETATM   11  N   UNL     1      -7.384  -0.180 -35.289  1.00  0.00    -0.174 NA
HETATM   12  H   UNL     1      -8.446   1.553 -35.405  1.00  0.00     0.189 HD
HETATM   13  C   UNL     1      -7.280  -1.064 -34.281  1.00  0.00     0.089 A 
HETATM   14  C   UNL     1      -8.101  -0.665 -33.192  1.00  0.00     0.071 A 
BRANCH  13  15
HETATM   15  C   UNL     1      -6.440  -2.260 -34.375  1.00  0.00    -0.006 A 
HETATM   16  C   UNL     1      -6.983  -3.489 -34.780  1.00  0.00     0.014 A 
HETATM   17  C   UNL     1      -6.171  -4.622 -34.895  1.00  0.00     0.001 A 
HETATM   18  C   UNL     1      -4.810  -4.538 -34.611  1.00  0.00     0.000 A 
HETATM   19  C   UNL     1      -4.259  -3.325 -34.203  1.00  0.00     0.001 A 
HETATM   20  C   UNL     1      -5.070  -2.193 -34.082  1.00  0.00     0.014 A 
ENDBRANCH  13  15
ENDBRANCH   6   9
ENDBRANCH   1   5
BRANCH   2  21
HETATM   21  C   UNL     1      -5.970   2.856 -30.644  1.00  0.00     0.134 C 
BRANCH  21  22
HETATM   22  C   UNL     1      -4.942   2.595 -31.761  1.00  0.00     0.127 C 
BRANCH  22  23
HETATM   23  N   UNL     1      -4.066   1.427 -31.620  1.00  0.00    -0.339 N 
HETATM   24  C   UNL     1      -4.407   0.172 -31.249  1.00  0.00     0.292 C 
HETATM   25  N   UNL     1      -3.338  -0.639 -31.081  1.00  0.00    -0.254 NA
HETATM   26  O   UNL     1      -5.544  -0.228 -31.047  1.00  0.00    -0.254 OA
HETATM   27  H   UNL     1      -2.494  -0.239 -30.700  1.00  0.00     0.128 HD
HETATM   28  H   UNL     1      -3.582  -1.530 -30.657  1.00  0.00     0.128 HD
HETATM   29  H   UNL     1      -3.101   1.563 -31.885  1.00  0.00     0.164 HD
ENDBRANCH  22  23
BRANCH  22  30
HETATM   30  C   UNL     1      -4.180   3.838 -32.209  1.00  0.00    -0.035 A 
HETATM   31  C   UNL     1      -4.740   5.126 -32.162  1.00  0.00     0.011 A 
HETATM   32  C   UNL     1      -4.021   6.236 -32.615  1.00  0.00     0.024 A 
HETATM   33  C   UNL     1      -2.734   6.071 -33.123  1.00  0.00     0.034 A 
HETATM   34 CL   UNL     1      -1.854   7.437 -33.684  1.00  0.00    -0.084 Cl
HETATM   35  C   UNL     1      -2.159   4.805 -33.177  1.00  0.00     0.024 A 
HETATM   36  C   UNL     1      -2.877   3.696 -32.721  1.00  0.00     0.011 A 
ENDBRANCH  22  30
ENDBRANCH  21  22
ENDBRANCH   2  21
TORSDOF 7
ENDMDL
MODEL 5
REMARK VINA RESULT:      -9.3      3.369      9.745
REMARK  7 active torsions:
REMARK  status: ('A' for Active; 'I' for Inactive)
REMARK    1  A    between atoms: C_4  and  C_5 
REMARK    2  A    between atoms: C_9  and  C_10 
REMARK       I    between atoms: C_10  and  N_11 
REMARK    3  A    between atoms: N_11  and  N_12 
REMARK       I    between atoms: N_12  and  C_13 
REMARK    4  A    between atoms: C_13  and  C_14 
REMARK    5  A    between atoms: C_14  and  C_15 
REMARK    6  A    between atoms: C_15  and  N_16 
REMARK    7  A    between atoms: C_15  and  C_20 
REMARK       I    between atoms: N_16  and  C_17 
REMARK       I    between atoms: C_17  and  N_18 
ROOT
HETATM    1  N   UNL     1      -3.338   4.516 -33.298  1.00  0.00    -0.267 N 
HETATM    2  C   UNL     1      -4.645   4.181 -33.590  1.00  0.00     0.238 C 
HETATM    3  O   UNL     1      -5.258   4.666 -34.542  1.00  0.00    -0.272 OA
HETATM    4  H   UNL     1      -3.066   4.447 -32.307  1.00  0.00     0.190 HD
ENDROOT
BRANCH   1   5
HETATM    5  N   UNL     1      -2.771   5.557 -34.055  1.00  0.00    -0.262 N 
HETATM    6  C   UNL     1      -1.888   6.504 -33.572  1.00  0.00     0.288 C 
HETATM    7  O   UNL     1      -1.723   7.538 -34.219  1.00  0.00    -0.264 OA
HETATM    8  H   UNL     1      -3.243   5.776 -34.932  1.00  0.00     0.190 HD
BRANCH   6   9
HETATM    9  C   UNL     1      -1.189   6.252 -32.337  1.00  0.00     0.121 A 
HETATM   10  N   UNL     1      -0.592   5.085 -31.966  1.00  0.00    -0.272 N 
HETATM   11  N   UNL     1      -0.047   5.098 -30.738  1.00  0.00    -0.174 NA
HETATM   12  H   UNL     1      -0.567   4.226 -32.503  1.00  0.00     0.189 HD
HETATM   13  C   UNL     1      -0.220   6.363 -30.316  1.00  0.00     0.089 A 
HETATM   14  C   UNL     1      -0.914   7.119 -31.299  1.00  0.00     0.071 A 
BRANCH  13  15
HETATM   15  C   UNL     1       0.246   6.818 -29.004  1.00  0.00    -0.006 A 
HETATM   16  C   UNL     1       1.045   7.964 -28.883  1.00  0.00     0.014 A 
HETATM   17  C   UNL     1       1.464   8.411 -27.626  1.00  0.00     0.001 A 
HETATM   18  C   UNL     1       1.085   7.719 -26.477  1.00  0.00     0.000 A 
HETATM   19  C   UNL     1       0.295   6.577 -26.583  1.00  0.00     0.001 A 
HETATM   20  C   UNL     1      -0.119   6.126 -27.840  1.00  0.00     0.014 A 
ENDBRANCH  13  15
ENDBRANCH   6   9
ENDBRANCH   1   5
BRANCH   2  21
HETATM   21  C   UNL     1      -5.292   3.187 -32.644  1.00  0.00     0.134 C 
BRANCH  21  22
HETATM   22  C   UNL     1      -6.592   2.543 -33.161  1.00  0.00     0.127 C 
BRANCH  22  23
HETATM   23  N   UNL     1      -7.795   2.677 -32.333  1.00  0.00    -0.339 N 
HETATM   24  C   UNL     1      -7.973   2.272 -31.054  1.00  0.00     0.292 C 
HETATM   25  N   UNL     1      -9.247   2.419 -30.625  1.00  0.00    -0.254 NA
HETATM   26  O   UNL     1      -7.113   1.791 -30.333  1.00  0.00    -0.254 OA
HETATM   27  H   UNL     1      -9.992   2.260 -31.287  1.00  0.00     0.128 HD
HETATM   28  H   UNL     1      -9.414   1.976 -29.726  1.00  0.00     0.128 HD
HETATM   29  H   UNL     1      -8.565   3.183 -32.748  1.00  0.00     0.164 HD
ENDBRANCH  22  23
BRANCH  22  30
HETATM   30  C   UNL     1      -6.415   1.125 -33.695  1.00  0.00    -0.035 A 
HETATM   31  C   UNL     1      -7.242   0.585 -34.694  1.00  0.00     0.011 A 
HETATM   32  C   UNL     1      -7.069  -0.732 -35.132  1.00  0.00     0.024 A 
HETATM   33  C   UNL     1      -6.070  -1.524 -34.573  1.00  0.00     0.034 A 
HETATM   34 CL   UNL     1      -5.863  -3.145 -35.109  1.00  0.00    -0.084 Cl
HETATM   35  C   UNL     1      -5.238  -1.010 -33.583  1.00  0.00     0.024 A 
HETATM   36  C   UNL     1      -5.409   0.307 -33.149  1.00  0.00     0.011 A 
ENDBRANCH  22  30
ENDBRANCH  21  22
ENDBRANCH   2  21
TORSDOF 7
ENDMDL
MODEL 6
REMARK VINA RESULT:      -9.2      5.838      9.030
REMARK  7 active torsions:
REMARK  status: ('A' for Active; 'I' for Inactive)
REMARK    1  A    between atoms: C_4  and  C_5 
REMARK    2  A    between atoms: C_9  and  C_10 
REMARK       I    between atoms: C_10  and  N_11 
REMARK    3  A    between atoms: N_11  and  N_12 
REMARK       I    between atoms: N_12  and  C_13 
REMARK    4  A    between atoms: C_13  and  C_14 
REMARK    5  A    between atoms: C_14  and  C_15 
REMARK    6  A    between atoms: C_15  and  N_16 
REMARK    7  A    between atoms: C_15  and  C_20 
REMARK       I    between atoms: N_16  and  C_17 
REMARK       I    between atoms: C_17  and  N_18 
ROOT
HETATM    1  N   UNL     1      -9.967   1.361 -32.160  1.00  0.00    -0.267 N 
HETATM    2  C   UNL     1     -10.216   1.759 -33.458  1.00  0.00     0.238 C 
HETATM    3  O   UNL     1      -9.555   2.629 -34.024  1.00  0.00    -0.272 OA
HETATM    4  H   UNL     1     -10.779   1.006 -31.635  1.00  0.00     0.190 HD
ENDROOT
BRANCH   1   5
HETATM    5  N   UNL     1      -9.007   2.101 -31.449  1.00  0.00    -0.262 N 
HETATM    6  C   UNL     1      -7.657   1.810 -31.393  1.00  0.00     0.288 C 
HETATM    7  O   UNL     1      -6.983   2.313 -30.495  1.00  0.00    -0.264 OA
HETATM    8  H   UNL     1      -9.370   2.723 -30.727  1.00  0.00     0.190 HD
BRANCH   6   9
HETATM    9  C   UNL     1      -7.082   0.937 -32.387  1.00  0.00     0.121 A 
HETATM   10  N   UNL     1      -6.605   1.302 -33.609  1.00  0.00    -0.272 N 
HETATM   11  N   UNL     1      -6.164   0.285 -34.367  1.00  0.00    -0.174 NA
HETATM   12  H   UNL     1      -6.599   2.238 -33.997  1.00  0.00     0.189 HD
HETATM   13  C   UNL     1      -6.278  -0.792 -33.569  1.00  0.00     0.089 A 
HETATM   14  C   UNL     1      -6.831  -0.418 -32.315  1.00  0.00     0.071 A 
BRANCH  13  15
HETATM   15  C   UNL     1      -5.891  -2.135 -34.010  1.00  0.00    -0.006 A 
HETATM   16  C   UNL     1      -4.579  -2.599 -33.830  1.00  0.00     0.014 A 
HETATM   17  C   UNL     1      -4.221  -3.891 -34.227  1.00  0.00     0.001 A 
HETATM   18  C   UNL     1      -5.170  -4.733 -34.803  1.00  0.00     0.000 A 
HETATM   19  C   UNL     1      -6.475  -4.283 -34.991  1.00  0.00     0.001 A 
HETATM   20  C   UNL     1      -6.832  -2.989 -34.601  1.00  0.00     0.014 A 
ENDBRANCH  13  15
ENDBRANCH   6   9
ENDBRANCH   1   5
BRANCH   2  21
HETATM   21  C   UNL     1     -11.380   1.066 -34.143  1.00  0.00     0.134 C 
BRANCH  21  22
HETATM   22  C   UNL     1     -12.754   1.729 -33.926  1.00  0.00     0.127 C 
BRANCH  22  23
HETATM   23  N   UNL     1     -13.916   1.116 -34.578  1.00  0.00    -0.339 N 
HETATM   24  C   UNL     1     -15.179   1.017 -34.103  1.00  0.00     0.292 C 
HETATM   25  N   UNL     1     -15.984   0.269 -34.890  1.00  0.00    -0.254 NA
HETATM   26  O   UNL     1     -15.590   1.510 -33.063  1.00  0.00    -0.254 OA
HETATM   27  H   UNL     1     -15.582  -0.532 -35.355  1.00  0.00     0.128 HD
HETATM   28  H   UNL     1     -16.882   0.068 -34.460  1.00  0.00     0.128 HD
HETATM   29  H   UNL     1     -13.769   0.775 -35.517  1.00  0.00     0.164 HD
ENDBRANCH  22  23
BRANCH  22  30
HETATM   30  C   UNL     1     -12.743   3.247 -34.076  1.00  0.00    -0.035 A 
HETATM   31  C   UNL     1     -12.895   4.116 -32.983  1.00  0.00     0.011 A 
HETATM   32  C   UNL     1     -12.915   5.502 -33.167  1.00  0.00     0.024 A 
HETATM   33  C   UNL     1     -12.786   6.035 -34.447  1.00  0.00     0.034 A 
HETATM   34 CL   UNL     1     -12.816   7.740 -34.672  1.00  0.00    -0.084 Cl
HETATM   35  C   UNL     1     -12.633   5.194 -35.545  1.00  0.00     0.024 A 
HETATM   36  C   UNL     1     -12.609   3.809 -35.360  1.00  0.00     0.011 A 
ENDBRANCH  22  30
ENDBRANCH  21  22
ENDBRANCH   2  21
TORSDOF 7
ENDMDL
MODEL 7
REMARK VINA RESULT:      -9.1      3.567      8.443
REMARK  7 active torsions:
REMARK  status: ('A' for Active; 'I' for Inactive)
REMARK    1  A    between atoms: C_4  and  C_5 
REMARK    2  A    between atoms: C_9  and  C_10 
REMARK       I    between atoms: C_10  and  N_11 
REMARK    3  A    between atoms: N_11  and  N_12 
REMARK       I    between atoms: N_12  and  C_13 
REMARK    4  A    between atoms: C_13  and  C_14 
REMARK    5  A    between atoms: C_14  and  C_15 
REMARK    6  A    between atoms: C_15  and  N_16 
REMARK    7  A    between atoms: C_15  and  C_20 
REMARK       I    between atoms: N_16  and  C_17 
REMARK       I    between atoms: C_17  and  N_18 
ROOT
HETATM    1  N   UNL     1      -6.462   2.254 -29.528  1.00  0.00    -0.267 N 
HETATM    2  C   UNL     1      -6.688   1.351 -30.547  1.00  0.00     0.238 C 
HETATM    3  O   UNL     1      -7.648   1.440 -31.312  1.00  0.00    -0.272 OA
HETATM    4  H   UNL     1      -5.961   1.889 -28.705  1.00  0.00     0.190 HD
ENDROOT
BRANCH   1   5
HETATM    5  N   UNL     1      -7.466   3.213 -29.303  1.00  0.00    -0.262 N 
HETATM    6  C   UNL     1      -7.281   4.582 -29.332  1.00  0.00     0.288 C 
HETATM    7  O   UNL     1      -8.129   5.302 -28.804  1.00  0.00    -0.264 OA
HETATM    8  H   UNL     1      -8.306   2.875 -28.836  1.00  0.00     0.190 HD
BRANCH   6   9
HETATM    9  C   UNL     1      -6.112   5.123 -29.980  1.00  0.00     0.121 A 
HETATM   10  N   UNL     1      -6.004   5.484 -31.289  1.00  0.00    -0.272 N 
HETATM   11  N   UNL     1      -4.785   5.917 -31.654  1.00  0.00    -0.174 NA
HETATM   12  H   UNL     1      -6.727   5.411 -31.994  1.00  0.00     0.189 HD
HETATM   13  C   UNL     1      -4.082   5.921 -30.507  1.00  0.00     0.089 A 
HETATM   14  C   UNL     1      -4.887   5.448 -29.436  1.00  0.00     0.071 A 
BRANCH  13  15
HETATM   15  C   UNL     1      -2.680   6.342 -30.453  1.00  0.00    -0.006 A 
HETATM   16  C   UNL     1      -2.199   7.100 -29.375  1.00  0.00     0.014 A 
HETATM   17  C   UNL     1      -0.853   7.476 -29.314  1.00  0.00     0.001 A 
HETATM   18  C   UNL     1       0.025   7.095 -30.326  1.00  0.00     0.000 A 
HETATM   19  C   UNL     1      -0.441   6.347 -31.405  1.00  0.00     0.001 A 
HETATM   20  C   UNL     1      -1.787   5.976 -31.470  1.00  0.00     0.014 A 
ENDBRANCH  13  15
ENDBRANCH   6   9
ENDBRANCH   1   5
BRANCH   2  21
HETATM   21  C   UNL     1      -5.683   0.219 -30.651  1.00  0.00     0.134 C 
BRANCH  21  22
HETATM   22  C   UNL     1      -4.860   0.193 -31.953  1.00  0.00     0.127 C 
BRANCH  22  23
HETATM   23  N   UNL     1      -4.658   1.464 -32.656  1.00  0.00    -0.339 N 
HETATM   24  C   UNL     1      -3.802   2.463 -32.338  1.00  0.00     0.292 C 
HETATM   25  N   UNL     1      -3.961   3.561 -33.110  1.00  0.00    -0.254 NA
HETATM   26  O   UNL     1      -2.975   2.433 -31.440  1.00  0.00    -0.254 OA
HETATM   27  H   UNL     1      -4.896   3.805 -33.402  1.00  0.00     0.128 HD
HETATM   28  H   UNL     1      -3.429   4.359 -32.775  1.00  0.00     0.128 HD
HETATM   29  H   UNL     1      -5.181   1.585 -33.512  1.00  0.00     0.164 HD
ENDBRANCH  22  23
BRANCH  22  30
HETATM   30  C   UNL     1      -5.236  -0.939 -32.904  1.00  0.00    -0.035 A 
HETATM   31  C   UNL     1      -6.542  -1.117 -33.390  1.00  0.00     0.011 A 
HETATM   32  C   UNL     1      -6.854  -2.188 -34.232  1.00  0.00     0.024 A 
HETATM   33  C   UNL     1      -5.863  -3.096 -34.597  1.00  0.00     0.034 A 
HETATM   34 CL   UNL     1      -6.250  -4.416 -35.629  1.00  0.00    -0.084 Cl
HETATM   35  C   UNL     1      -4.562  -2.940 -34.129  1.00  0.00     0.024 A 
HETATM   36  C   UNL     1      -4.250  -1.867 -33.290  1.00  0.00     0.011 A 
ENDBRANCH  22  30
ENDBRANCH  21  22
ENDBRANCH   2  21
TORSDOF 7
ENDMDL
MODEL 8
REMARK VINA RESULT:      -9.0      3.352      4.375
REMARK  7 active torsions:
REMARK  status: ('A' for Active; 'I' for Inactive)
REMARK    1  A    between atoms: C_4  and  C_5 
REMARK    2  A    between atoms: C_9  and  C_10 
REMARK       I    between atoms: C_10  and  N_11 
REMARK    3  A    between atoms: N_11  and  N_12 
REMARK       I    between atoms: N_12  and  C_13 
REMARK    4  A    between atoms: C_13  and  C_14 
REMARK    5  A    between atoms: C_14  and  C_15 
REMARK    6  A    between atoms: C_15  and  N_16 
REMARK    7  A    between atoms: C_15  and  C_20 
REMARK       I    between atoms: N_16  and  C_17 
REMARK       I    between atoms: C_17  and  N_18 
ROOT
HETATM    1  N   UNL     1      -8.939   2.384 -31.438  1.00  0.00    -0.267 N 
HETATM    2  C   UNL     1      -8.956   3.599 -30.783  1.00  0.00     0.238 C 
HETATM    3  O   UNL     1      -9.998   4.213 -30.552  1.00  0.00    -0.272 OA
HETATM    4  H   UNL     1      -8.085   2.174 -31.974  1.00  0.00     0.190 HD
ENDROOT
BRANCH   1   5
HETATM    5  N   UNL     1     -10.162   1.937 -31.967  1.00  0.00    -0.262 N 
HETATM    6  C   UNL     1     -10.314   1.256 -33.160  1.00  0.00     0.288 C 
HETATM    7  O   UNL     1     -11.432   1.211 -33.673  1.00  0.00    -0.264 OA
HETATM    8  H   UNL     1     -10.999   2.370 -31.578  1.00  0.00     0.190 HD
BRANCH   6   9
HETATM    9  C   UNL     1      -9.168   0.620 -33.760  1.00  0.00     0.121 A 
HETATM   10  N   UNL     1      -8.518   1.017 -34.889  1.00  0.00    -0.272 N 
HETATM   11  N   UNL     1      -7.504   0.220 -35.264  1.00  0.00    -0.174 NA
HETATM   12  H   UNL     1      -8.756   1.810 -35.472  1.00  0.00     0.189 HD
HETATM   13  C   UNL     1      -7.431  -0.700 -34.285  1.00  0.00     0.089 A 
HETATM   14  C   UNL     1      -8.445  -0.469 -33.317  1.00  0.00     0.071 A 
BRANCH  13  15
HETATM   15  C   UNL     1      -6.436  -1.776 -34.297  1.00  0.00    -0.006 A 
HETATM   16  C   UNL     1      -6.761  -3.050 -34.785  1.00  0.00     0.014 A 
HETATM   17  C   UNL     1      -5.800  -4.065 -34.821  1.00  0.00     0.001 A 
HETATM   18  C   UNL     1      -4.505  -3.816 -34.373  1.00  0.00     0.000 A 
HETATM   19  C   UNL     1      -4.170  -2.557 -33.881  1.00  0.00     0.001 A 
HETATM   20  C   UNL     1      -5.131  -1.543 -33.840  1.00  0.00     0.014 A 
ENDBRANCH  13  15
ENDBRANCH   6   9
ENDBRANCH   1   5
BRANCH   2  21
HETATM   21  C   UNL     1      -7.598   4.146 -30.384  1.00  0.00     0.134 C 
BRANCH  21  22
HETATM   22  C   UNL     1      -7.047   5.257 -31.297  1.00  0.00     0.127 C 
BRANCH  22  23
HETATM   23  N   UNL     1      -7.827   5.609 -32.488  1.00  0.00    -0.339 N 
HETATM   24  C   UNL     1      -7.939   4.914 -33.644  1.00  0.00     0.292 C 
HETATM   25  N   UNL     1      -8.624   5.582 -34.599  1.00  0.00    -0.254 NA
HETATM   26  O   UNL     1      -7.464   3.809 -33.860  1.00  0.00    -0.254 OA
HETATM   27  H   UNL     1      -8.512   6.583 -34.650  1.00  0.00     0.128 HD
HETATM   28  H   UNL     1      -8.577   5.130 -35.508  1.00  0.00     0.128 HD
HETATM   29  H   UNL     1      -8.393   6.442 -32.417  1.00  0.00     0.164 HD
ENDBRANCH  22  23
BRANCH  22  30
HETATM   30  C   UNL     1      -5.557   5.132 -31.600  1.00  0.00    -0.035 A 
HETATM   31  C   UNL     1      -4.843   3.937 -31.403  1.00  0.00     0.011 A 
HETATM   32  C   UNL     1      -3.471   3.873 -31.659  1.00  0.00     0.024 A 
HETATM   33  C   UNL     1      -2.794   5.003 -32.111  1.00  0.00     0.034 A 
HETATM   34 CL   UNL     1      -1.104   4.923 -32.420  1.00  0.00    -0.084 Cl
HETATM   35  C   UNL     1      -3.480   6.197 -32.314  1.00  0.00     0.024 A 
HETATM   36  C   UNL     1      -4.853   6.259 -32.062  1.00  0.00     0.011 A 
ENDBRANCH  22  30
ENDBRANCH  21  22
ENDBRANCH   2  21
TORSDOF 7
ENDMDL
MODEL 9
REMARK VINA RESULT:      -9.0      3.636      4.635
REMARK  7 active torsions:
REMARK  status: ('A' for Active; 'I' for Inactive)
REMARK    1  A    between atoms: C_4  and  C_5 
REMARK    2  A    between atoms: C_9  and  C_10 
REMARK       I    between atoms: C_10  and  N_11 
REMARK    3  A    between atoms: N_11  and  N_12 
REMARK       I    between atoms: N_12  and  C_13 
REMARK    4  A    between atoms: C_13  and  C_14 
REMARK    5  A    between atoms: C_14  and  C_15 
REMARK    6  A    between atoms: C_15  and  N_16 
REMARK    7  A    between atoms: C_15  and  C_20 
REMARK       I    between atoms: N_16  and  C_17 
REMARK       I    between atoms: C_17  and  N_18 
ROOT
HETATM    1  N   UNL     1      -8.974   2.935 -32.056  1.00  0.00    -0.267 N 
HETATM    2  C   UNL     1      -8.983   3.936 -31.105  1.00  0.00     0.238 C 
HETATM    3  O   UNL     1      -9.929   4.114 -30.338  1.00  0.00    -0.272 OA
HETATM    4  H   UNL     1      -8.417   3.122 -32.901  1.00  0.00     0.190 HD
ENDROOT
BRANCH   1   5
HETATM    5  N   UNL     1     -10.165   2.205 -32.212  1.00  0.00    -0.262 N 
HETATM    6  C   UNL     1     -10.372   1.206 -33.145  1.00  0.00     0.288 C 
HETATM    7  O   UNL     1     -11.528   0.877 -33.408  1.00  0.00    -0.264 OA
HETATM    8  H   UNL     1     -10.998   2.618 -31.793  1.00  0.00     0.190 HD
BRANCH   6   9
HETATM    9  C   UNL     1      -9.234   0.581 -33.773  1.00  0.00     0.121 A 
HETATM   10  N   UNL     1      -8.676   0.925 -34.967  1.00  0.00    -0.272 N 
HETATM   11  N   UNL     1      -7.648   0.150 -35.351  1.00  0.00    -0.174 NA
HETATM   12  H   UNL     1      -8.991   1.661 -35.587  1.00  0.00     0.189 HD
HETATM   13  C   UNL     1      -7.468  -0.692 -34.317  1.00  0.00     0.089 A 
HETATM   14  C   UNL     1      -8.431  -0.437 -33.303  1.00  0.00     0.071 A 
BRANCH  13  15
HETATM   15  C   UNL     1      -6.422  -1.718 -34.319  1.00  0.00    -0.006 A 
HETATM   16  C   UNL     1      -5.150  -1.448 -33.793  1.00  0.00     0.014 A 
HETATM   17  C   UNL     1      -4.164  -2.439 -33.771  1.00  0.00     0.001 A 
HETATM   18  C   UNL     1      -4.440  -3.709 -34.271  1.00  0.00     0.000 A 
HETATM   19  C   UNL     1      -5.698  -3.990 -34.801  1.00  0.00     0.001 A 
HETATM   20  C   UNL     1      -6.682  -2.998 -34.829  1.00  0.00     0.014 A 
ENDBRANCH  13  15
ENDBRANCH   6   9
ENDBRANCH   1   5
BRANCH   2  21
HETATM   21  C   UNL     1      -7.754   4.827 -31.082  1.00  0.00     0.134 C 
BRANCH  21  22
HETATM   22  C   UNL     1      -6.437   4.113 -30.726  1.00  0.00     0.127 C 
BRANCH  22  23
HETATM   23  N   UNL     1      -5.972   4.193 -29.337  1.00  0.00    -0.339 N 
HETATM   24  C   UNL     1      -5.672   5.303 -28.624  1.00  0.00     0.292 C 
HETATM   25  N   UNL     1      -5.137   5.026 -27.414  1.00  0.00    -0.254 NA
HETATM   26  O   UNL     1      -5.825   6.455 -29.001  1.00  0.00    -0.254 OA
HETATM   27  H   UNL     1      -4.526   4.227 -27.337  1.00  0.00     0.128 HD
HETATM   28  H   UNL     1      -4.774   5.851 -26.945  1.00  0.00     0.128 HD
HETATM   29  H   UNL     1      -5.922   3.318 -28.835  1.00  0.00     0.164 HD
ENDBRANCH  22  23
BRANCH  22  30
HETATM   30  C   UNL     1      -5.310   4.352 -31.726  1.00  0.00    -0.035 A 
HETATM   31  C   UNL     1      -5.434   5.241 -32.806  1.00  0.00     0.011 A 
HETATM   32  C   UNL     1      -4.390   5.406 -33.722  1.00  0.00     0.024 A 
HETATM   33  C   UNL     1      -3.211   4.680 -33.570  1.00  0.00     0.034 A 
HETATM   34 CL   UNL     1      -1.931   4.880 -34.700  1.00  0.00    -0.084 Cl
HETATM   35  C   UNL     1      -3.066   3.794 -32.507  1.00  0.00     0.024 A 
HETATM   36  C   UNL     1      -4.108   3.633 -31.590  1.00  0.00     0.011 A 
ENDBRANCH  22  30
ENDBRANCH  21  22
ENDBRANCH   2  21
TORSDOF 7
ENDMDL
MODEL 10
REMARK VINA RESULT:      -8.9      3.361      9.697
REMARK  7 active torsions:
REMARK  status: ('A' for Active; 'I' for Inactive)
REMARK    1  A    between atoms: C_4  and  C_5 
REMARK    2  A    between atoms: C_9  and  C_10 
REMARK       I    between atoms: C_10  and  N_11 
REMARK    3  A    between atoms: N_11  and  N_12 
REMARK       I    between atoms: N_12  and  C_13 
REMARK    4  A    between atoms: C_13  and  C_14 
REMARK    5  A    between atoms: C_14  and  C_15 
REMARK    6  A    between atoms: C_15  and  N_16 
REMARK    7  A    between atoms: C_15  and  C_20 
REMARK       I    between atoms: N_16  and  C_17 
REMARK       I    between atoms: C_17  and  N_18 
ROOT
HETATM    1  N   UNL     1      -1.879   4.416 -33.074  1.00  0.00    -0.267 N 
HETATM    2  C   UNL     1      -3.198   4.007 -33.109  1.00  0.00     0.238 C 
HETATM    3  O   UNL     1      -4.036   4.533 -33.840  1.00  0.00    -0.272 OA
HETATM    4  H   UNL     1      -1.386   4.270 -32.182  1.00  0.00     0.190 HD
ENDROOT
BRANCH   1   5
HETATM    5  N   UNL     1      -1.559   5.568 -33.812  1.00  0.00    -0.262 N 
HETATM    6  C   UNL     1      -1.538   6.856 -33.311  1.00  0.00     0.288 C 
HETATM    7  O   UNL     1      -1.572   7.797 -34.104  1.00  0.00    -0.264 OA
HETATM    8  H   UNL     1      -1.603   5.473 -34.827  1.00  0.00     0.190 HD
BRANCH   6   9
HETATM    9  C   UNL     1      -1.474   7.057 -31.885  1.00  0.00     0.121 A 
HETATM   10  N   UNL     1      -2.529   7.226 -31.041  1.00  0.00    -0.272 N 
HETATM   11  N   UNL     1      -2.194   7.443 -29.758  1.00  0.00    -0.174 NA
HETATM   12  H   UNL     1      -3.509   7.246 -31.300  1.00  0.00     0.189 HD
HETATM   13  C   UNL     1      -0.854   7.327 -29.745  1.00  0.00     0.089 A 
HETATM   14  C   UNL     1      -0.371   7.066 -31.056  1.00  0.00     0.071 A 
BRANCH  13  15
HETATM   15  C   UNL     1      -0.069   7.485 -28.519  1.00  0.00    -0.006 A 
HETATM   16  C   UNL     1      -0.370   6.737 -27.371  1.00  0.00     0.014 A 
HETATM   17  C   UNL     1       0.400   6.871 -26.211  1.00  0.00     0.001 A 
HETATM   18  C   UNL     1       1.479   7.751 -26.188  1.00  0.00     0.000 A 
HETATM   19  C   UNL     1       1.787   8.504 -27.319  1.00  0.00     0.001 A 
HETATM   20  C   UNL     1       1.014   8.375 -28.477  1.00  0.00     0.014 A 
ENDBRANCH  13  15
ENDBRANCH   6   9
ENDBRANCH   1   5
BRANCH   2  21
HETATM   21  C   UNL     1      -3.556   2.875 -32.164  1.00  0.00     0.134 C 
BRANCH  21  22
HETATM   22  C   UNL     1      -5.063   2.586 -32.033  1.00  0.00     0.127 C 
BRANCH  22  23
HETATM   23  N   UNL     1      -5.688   2.808 -30.725  1.00  0.00    -0.339 N 
HETATM   24  C   UNL     1      -6.591   3.756 -30.385  1.00  0.00     0.292 C 
HETATM   25  N   UNL     1      -6.863   3.778 -29.061  1.00  0.00    -0.254 NA
HETATM   26  O   UNL     1      -7.113   4.551 -31.153  1.00  0.00    -0.254 OA
HETATM   27  H   UNL     1      -6.110   3.581 -28.419  1.00  0.00     0.128 HD
HETATM   28  H   UNL     1      -7.419   4.582 -28.786  1.00  0.00     0.128 HD
HETATM   29  H   UNL     1      -5.457   2.138 -30.004  1.00  0.00     0.164 HD
ENDBRANCH  22  23
BRANCH  22  30
HETATM   30  C   UNL     1      -5.502   1.268 -32.665  1.00  0.00    -0.035 A 
HETATM   31  C   UNL     1      -5.166   0.018 -32.118  1.00  0.00     0.011 A 
HETATM   32  C   UNL     1      -5.556  -1.167 -32.747  1.00  0.00     0.024 A 
HETATM   33  C   UNL     1      -6.285  -1.117 -33.932  1.00  0.00     0.034 A 
HETATM   34 CL   UNL     1      -6.760  -2.577 -34.707  1.00  0.00    -0.084 Cl
HETATM   35  C   UNL     1      -6.630   0.109 -34.492  1.00  0.00     0.024 A 
HETATM   36  C   UNL     1      -6.243   1.294 -33.861  1.00  0.00     0.011 A 
ENDBRANCH  22  30
ENDBRANCH  21  22
ENDBRANCH   2  21
TORSDOF 7
ENDMDL
