MODEL 1
REMARK VINA RESULT:      -8.3      0.000      0.000
REMARK  8 active torsions:
REMARK  status: ('A' for Active; 'I' for Inactive)
REMARK    1  A    between atoms: C_2  and  C_3 
REMARK    2  A    between atoms: C_3  and  O_4 
REMARK    3  A    between atoms: O_4  and  C_5 
REMARK    4  A    between atoms: C_6  and  O_7 
REMARK    5  A    between atoms: C_11  and  C_12 
REMARK    6  A    between atoms: C_12  and  N_13 
REMARK    7  A    between atoms: N_13  and  C_14 
REMARK    8  A    between atoms: C_21  and  C_22 
REMARK       I    between atoms: C_22  and  N_23 
ROOT
HETATM    1  N   UNL     1      -6.771   1.759 -32.374  1.00  0.00    -0.289 NA
HETATM    2  H   UNL     1      -7.720   1.757 -32.011  1.00  0.00     0.128 HD
ENDROOT
BRANCH   1   3
HETATM    3  C   UNL     1      -5.827   2.358 -31.439  1.00  0.00     0.131 C 
BRANCH   3   4
HETATM    4  C   UNL     1      -4.868   3.241 -32.204  1.00  0.00    -0.042 A 
HETATM    5  C   UNL     1      -5.265   3.883 -33.382  1.00  0.00     0.011 A 
HETATM    6  C   UNL     1      -4.371   4.700 -34.083  1.00  0.00     0.040 A 
HETATM    7  C   UNL     1      -3.064   4.879 -33.620  1.00  0.00     0.101 A 
HETATM    8  C   UNL     1      -2.648   4.202 -32.461  1.00  0.00     0.102 A 
HETATM    9  C   UNL     1      -3.551   3.402 -31.754  1.00  0.00     0.048 A 
BRANCH   7  10
HETATM   10  O   UNL     1      -2.119   5.657 -34.240  1.00  0.00    -0.353 OA
HETATM   11  C   UNL     1      -2.135   7.048 -33.952  1.00  0.00     0.210 C 
ENDBRANCH   7  10
BRANCH   8  12
HETATM   12  O   UNL     1      -1.369   4.435 -32.019  1.00  0.00    -0.344 OA
BRANCH  12  13
HETATM   13  C   UNL     1      -1.251   5.212 -30.825  1.00  0.00     0.209 C 
BRANCH  13  14
HETATM   14  C   UNL     1       0.184   5.637 -30.615  1.00  0.00    -0.069 C 
HETATM   15  C   UNL     1       1.024   4.735 -29.754  1.00  0.00     0.044 C 
HETATM   16  C   UNL     1       0.684   6.766 -31.148  1.00  0.00     0.016 C 
ENDBRANCH  13  14
ENDBRANCH  12  13
ENDBRANCH   8  12
ENDBRANCH   3   4
ENDBRANCH   1   3
BRANCH   1  17
HETATM   17  C   UNL     1      -6.436   0.547 -32.992  1.00  0.00     0.009 A 
HETATM   18  C   UNL     1      -5.406  -0.287 -32.533  1.00  0.00     0.039 A 
HETATM   19  C   UNL     1      -5.055  -1.453 -33.248  1.00  0.00     0.030 A 
HETATM   20  C   UNL     1      -5.731  -1.744 -34.424  1.00  0.00     0.063 A 
HETATM   21  C   UNL     1      -4.100  -2.501 -33.097  1.00  0.00     0.156 A 
HETATM   22  N   UNL     1      -5.176  -2.907 -34.881  1.00  0.00    -0.277 N 
HETATM   23  C   UNL     1      -6.738  -0.930 -34.940  1.00  0.00     0.034 A 
HETATM   24  H   UNL     1      -5.423  -3.416 -35.722  1.00  0.00     0.189 HD
HETATM   25  N   UNL     1      -4.188  -3.394 -34.109  1.00  0.00    -0.168 NA
HETATM   26  C   UNL     1      -7.057   0.224 -34.210  1.00  0.00     0.026 A 
BRANCH  21  27
HETATM   27  C   UNL     1      -3.115  -2.659 -32.018  1.00  0.00     0.270 C 
HETATM   28  N   UNL     1      -2.468  -1.504 -31.677  1.00  0.00    -0.365 N 
HETATM   29  H   UNL     1      -2.709  -0.650 -32.167  1.00  0.00     0.159 HD
HETATM   30  H   UNL     1      -1.787  -1.510 -30.935  1.00  0.00     0.159 HD
HETATM   31  O   UNL     1      -2.872  -3.718 -31.448  1.00  0.00    -0.266 OA
ENDBRANCH  21  27
ENDBRANCH   1  17
TORSDOF 8
ENDMDL
MODEL 2
REMARK VINA RESULT:      -8.3      4.823      8.088
REMARK  8 active torsions:
REMARK  status: ('A' for Active; 'I' for Inactive)
REMARK    1  A    between atoms: C_2  and  C_3 
REMARK    2  A    between atoms: C_3  and  O_4 
REMARK    3  A    between atoms: O_4  and  C_5 
REMARK    4  A    between atoms: C_6  and  O_7 
REMARK    5  A    between atoms: C_11  and  C_12 
REMARK    6  A    between atoms: C_12  and  N_13 
REMARK    7  A    between atoms: N_13  and  C_14 
REMARK    8  A    between atoms: C_21  and  C_22 
REMARK       I    between atoms: C_22  and  N_23 
ROOT
HETATM    1  N   UNL     1      -8.525   1.160 -31.368  1.00  0.00    -0.289 NA
HETATM    2  H   UNL     1      -8.422   0.149 -31.354  1.00  0.00     0.128 HD
ENDROOT
BRANCH   1   3
HETATM    3  C   UNL     1      -7.257   1.844 -31.150  1.00  0.00     0.131 C 
BRANCH   3   4
HETATM    4  C   UNL     1      -6.124   0.893 -31.456  1.00  0.00    -0.042 A 
HETATM    5  C   UNL     1      -5.059   0.731 -30.562  1.00  0.00     0.011 A 
HETATM    6  C   UNL     1      -4.015  -0.154 -30.852  1.00  0.00     0.040 A 
HETATM    7  C   UNL     1      -4.015  -0.884 -32.045  1.00  0.00     0.101 A 
HETATM    8  C   UNL     1      -5.061  -0.694 -32.964  1.00  0.00     0.102 A 
HETATM    9  C   UNL     1      -6.112   0.177 -32.661  1.00  0.00     0.048 A 
BRANCH   7  10
HETATM   10  O   UNL     1      -3.037  -1.771 -32.415  1.00  0.00    -0.353 OA
HETATM   11  C   UNL     1      -2.961  -2.992 -31.692  1.00  0.00     0.210 C 
ENDBRANCH   7  10
BRANCH   8  12
HETATM   12  O   UNL     1      -5.045  -1.457 -34.104  1.00  0.00    -0.344 OA
BRANCH  12  13
HETATM   13  C   UNL     1      -6.197  -2.274 -34.327  1.00  0.00     0.209 C 
BRANCH  13  14
HETATM   14  C   UNL     1      -5.781  -3.663 -34.755  1.00  0.00    -0.069 C 
HETATM   15  C   UNL     1      -6.830  -4.484 -35.453  1.00  0.00     0.044 C 
HETATM   16  C   UNL     1      -4.552  -4.152 -34.512  1.00  0.00     0.016 C 
ENDBRANCH  13  14
ENDBRANCH  12  13
ENDBRANCH   8  12
ENDBRANCH   3   4
ENDBRANCH   1   3
BRANCH   1  17
HETATM   17  C   UNL     1      -9.361   1.594 -32.405  1.00  0.00     0.009 A 
HETATM   18  C   UNL     1     -10.588   0.982 -32.706  1.00  0.00     0.039 A 
HETATM   19  C   UNL     1     -11.346   1.407 -33.819  1.00  0.00     0.030 A 
HETATM   20  C   UNL     1     -10.845   2.422 -34.621  1.00  0.00     0.063 A 
HETATM   21  C   UNL     1     -12.589   1.039 -34.415  1.00  0.00     0.156 A 
HETATM   22  N   UNL     1     -11.782   2.605 -35.599  1.00  0.00    -0.277 N 
HETATM   23  C   UNL     1      -9.617   3.037 -34.384  1.00  0.00     0.034 A 
HETATM   24  H   UNL     1     -11.748   3.269 -36.365  1.00  0.00     0.189 HD
HETATM   25  N   UNL     1     -12.847   1.788 -35.511  1.00  0.00    -0.168 NA
HETATM   26  C   UNL     1      -8.885   2.587 -33.276  1.00  0.00     0.026 A 
BRANCH  21  27
HETATM   27  C   UNL     1     -13.517  -0.006 -33.963  1.00  0.00     0.270 C 
HETATM   28  N   UNL     1     -14.829   0.248 -34.254  1.00  0.00    -0.365 N 
HETATM   29  H   UNL     1     -15.060   1.102 -34.749  1.00  0.00     0.159 HD
HETATM   30  H   UNL     1     -15.538  -0.420 -33.998  1.00  0.00     0.159 HD
HETATM   31  O   UNL     1     -13.181  -1.030 -33.377  1.00  0.00    -0.266 OA
ENDBRANCH  21  27
ENDBRANCH   1  17
TORSDOF 8
ENDMDL
MODEL 3
REMARK VINA RESULT:      -8.2      5.084      8.744
REMARK  8 active torsions:
REMARK  status: ('A' for Active; 'I' for Inactive)
REMARK    1  A    between atoms: C_2  and  C_3 
REMARK    2  A    between atoms: C_3  and  O_4 
REMARK    3  A    between atoms: O_4  and  C_5 
REMARK    4  A    between atoms: C_6  and  O_7 
REMARK    5  A    between atoms: C_11  and  C_12 
REMARK    6  A    between atoms: C_12  and  N_13 
REMARK    7  A    between atoms: N_13  and  C_14 
REMARK    8  A    between atoms: C_21  and  C_22 
REMARK       I    between atoms: C_22  and  N_23 
ROOT
HETATM    1  N   UNL     1      -8.994   2.030 -34.503  1.00  0.00    -0.289 NA
HETATM    2  H   UNL     1      -8.198   2.584 -34.198  1.00  0.00     0.128 HD
ENDROOT
BRANCH   1   3
HETATM    3  C   UNL     1      -8.639   0.633 -34.719  1.00  0.00     0.131 C 
BRANCH   3   4
HETATM    4  C   UNL     1      -7.455   0.284 -33.848  1.00  0.00    -0.042 A 
HETATM    5  C   UNL     1      -7.117   1.073 -32.742  1.00  0.00     0.011 A 
HETATM    6  C   UNL     1      -6.020   0.742 -31.940  1.00  0.00     0.040 A 
HETATM    7  C   UNL     1      -5.237  -0.378 -32.237  1.00  0.00     0.101 A 
HETATM    8  C   UNL     1      -5.547  -1.149 -33.371  1.00  0.00     0.102 A 
HETATM    9  C   UNL     1      -6.656  -0.825 -34.158  1.00  0.00     0.048 A 
BRANCH   7  10
HETATM   10  O   UNL     1      -4.144  -0.779 -31.512  1.00  0.00    -0.353 OA
HETATM   11  C   UNL     1      -3.193   0.218 -31.167  1.00  0.00     0.210 C 
ENDBRANCH   7  10
BRANCH   8  12
HETATM   12  O   UNL     1      -4.778  -2.261 -33.606  1.00  0.00    -0.344 OA
BRANCH  12  13
HETATM   13  C   UNL     1      -4.890  -2.835 -34.911  1.00  0.00     0.209 C 
BRANCH  13  14
HETATM   14  C   UNL     1      -5.435  -4.243 -34.821  1.00  0.00    -0.069 C 
HETATM   15  C   UNL     1      -4.554  -5.252 -34.139  1.00  0.00     0.044 C 
HETATM   16  C   UNL     1      -6.629  -4.585 -35.335  1.00  0.00     0.016 C 
ENDBRANCH  13  14
ENDBRANCH  12  13
ENDBRANCH   8  12
ENDBRANCH   3   4
ENDBRANCH   1   3
BRANCH   1  17
HETATM   17  C   UNL     1     -10.158   2.332 -33.784  1.00  0.00     0.009 A 
HETATM   18  C   UNL     1     -11.364   1.635 -33.956  1.00  0.00     0.039 A 
HETATM   19  C   UNL     1     -12.529   2.041 -33.268  1.00  0.00     0.030 A 
HETATM   20  C   UNL     1     -12.465   3.152 -32.441  1.00  0.00     0.063 A 
HETATM   21  C   UNL     1     -13.883   1.598 -33.194  1.00  0.00     0.156 A 
HETATM   22  N   UNL     1     -13.724   3.296 -31.930  1.00  0.00    -0.277 N 
HETATM   23  C   UNL     1     -11.300   3.898 -32.265  1.00  0.00     0.034 A 
HETATM   24  H   UNL     1     -14.047   4.009 -31.285  1.00  0.00     0.189 HD
HETATM   25  N   UNL     1     -14.609   2.379 -32.362  1.00  0.00    -0.168 NA
HETATM   26  C   UNL     1     -10.162   3.474 -32.967  1.00  0.00     0.026 A 
BRANCH  21  27
HETATM   27  C   UNL     1     -14.487   0.459 -33.898  1.00  0.00     0.270 C 
HETATM   28  N   UNL     1     -14.062  -0.763 -33.454  1.00  0.00    -0.365 N 
HETATM   29  H   UNL     1     -13.393  -0.797 -32.693  1.00  0.00     0.159 HD
HETATM   30  H   UNL     1     -14.434  -1.604 -33.866  1.00  0.00     0.159 HD
HETATM   31  O   UNL     1     -15.306   0.557 -34.807  1.00  0.00    -0.266 OA
ENDBRANCH  21  27
ENDBRANCH   1  17
TORSDOF 8
ENDMDL
MODEL 4
REMARK VINA RESULT:      -8.0      4.251      7.740
REMARK  8 active torsions:
REMARK  status: ('A' for Active; 'I' for Inactive)
REMARK    1  A    between atoms: C_2  and  C_3 
REMARK    2  A    between atoms: C_3  and  O_4 
REMARK    3  A    between atoms: O_4  and  C_5 
REMARK    4  A    between atoms: C_6  and  O_7 
REMARK    5  A    between atoms: C_11  and  C_12 
REMARK    6  A    between atoms: C_12  and  N_13 
REMARK    7  A    between atoms: N_13  and  C_14 
REMARK    8  A    between atoms: C_21  and  C_22 
REMARK       I    between atoms: C_22  and  N_23 
ROOT
HETATM    1  N   UNL     1      -7.827   1.166 -34.652  1.00  0.00    -0.289 NA
HETATM    2  H   UNL     1      -7.035   1.241 -34.021  1.00  0.00     0.128 HD
ENDROOT
BRANCH   1   3
HETATM    3  C   UNL     1      -7.909  -0.148 -35.277  1.00  0.00     0.131 C 
BRANCH   3   4
HETATM    4  C   UNL     1      -6.771  -1.005 -34.774  1.00  0.00    -0.042 A 
HETATM    5  C   UNL     1      -6.754  -2.386 -35.004  1.00  0.00     0.011 A 
HETATM    6  C   UNL     1      -5.695  -3.172 -34.536  1.00  0.00     0.040 A 
HETATM    7  C   UNL     1      -4.643  -2.590 -33.822  1.00  0.00     0.101 A 
HETATM    8  C   UNL     1      -4.677  -1.212 -33.552  1.00  0.00     0.102 A 
HETATM    9  C   UNL     1      -5.728  -0.427 -34.039  1.00  0.00     0.048 A 
BRANCH   7  10
HETATM   10  O   UNL     1      -3.566  -3.279 -33.324  1.00  0.00    -0.353 OA
HETATM   11  C   UNL     1      -3.480  -4.662 -33.637  1.00  0.00     0.210 C 
ENDBRANCH   7  10
BRANCH   8  12
HETATM   12  O   UNL     1      -3.607  -0.673 -32.882  1.00  0.00    -0.344 OA
BRANCH  12  13
HETATM   13  C   UNL     1      -3.710  -0.645 -31.457  1.00  0.00     0.209 C 
BRANCH  13  14
HETATM   14  C   UNL     1      -4.326   0.659 -31.000  1.00  0.00    -0.069 C 
HETATM   15  C   UNL     1      -3.640   1.914 -31.464  1.00  0.00     0.044 C 
HETATM   16  C   UNL     1      -5.412   0.701 -30.209  1.00  0.00     0.016 C 
ENDBRANCH  13  14
ENDBRANCH  12  13
ENDBRANCH   8  12
ENDBRANCH   3   4
ENDBRANCH   1   3
BRANCH   1  17
HETATM   17  C   UNL     1      -8.989   1.736 -34.115  1.00  0.00     0.009 A 
HETATM   18  C   UNL     1     -10.221   1.065 -34.073  1.00  0.00     0.039 A 
HETATM   19  C   UNL     1     -11.379   1.721 -33.601  1.00  0.00     0.030 A 
HETATM   20  C   UNL     1     -11.280   3.047 -33.204  1.00  0.00     0.063 A 
HETATM   21  C   UNL     1     -12.751   1.378 -33.419  1.00  0.00     0.156 A 
HETATM   22  N   UNL     1     -12.541   3.400 -32.810  1.00  0.00    -0.277 N 
HETATM   23  C   UNL     1     -10.088   3.767 -33.259  1.00  0.00     0.034 A 
HETATM   24  H   UNL     1     -12.844   4.302 -32.459  1.00  0.00     0.189 HD
HETATM   25  N   UNL     1     -13.456   2.421 -32.927  1.00  0.00    -0.168 NA
HETATM   26  C   UNL     1      -8.958   3.089 -33.740  1.00  0.00     0.026 A 
BRANCH  21  27
HETATM   27  C   UNL     1     -13.391   0.087 -33.708  1.00  0.00     0.270 C 
HETATM   28  N   UNL     1     -14.560   0.187 -34.411  1.00  0.00    -0.365 N 
HETATM   29  H   UNL     1     -14.887   1.108 -34.681  1.00  0.00     0.159 HD
HETATM   30  H   UNL     1     -15.062  -0.646 -34.670  1.00  0.00     0.159 HD
HETATM   31  O   UNL     1     -12.943  -1.003 -33.368  1.00  0.00    -0.266 OA
ENDBRANCH  21  27
ENDBRANCH   1  17
TORSDOF 8
ENDMDL
MODEL 5
REMARK VINA RESULT:      -8.0      2.862      7.848
REMARK  8 active torsions:
REMARK  status: ('A' for Active; 'I' for Inactive)
REMARK    1  A    between atoms: C_2  and  C_3 
REMARK    2  A    between atoms: C_3  and  O_4 
REMARK    3  A    between atoms: O_4  and  C_5 
REMARK    4  A    between atoms: C_6  and  O_7 
REMARK    5  A    between atoms: C_11  and  C_12 
REMARK    6  A    between atoms: C_12  and  N_13 
REMARK    7  A    between atoms: N_13  and  C_14 
REMARK    8  A    between atoms: C_21  and  C_22 
REMARK       I    between atoms: C_22  and  N_23 
ROOT
HETATM    1  N   UNL     1      -3.023   0.951 -31.451  1.00  0.00    -0.289 NA
HETATM    2  H   UNL     1      -2.141   1.073 -30.961  1.00  0.00     0.128 HD
ENDROOT
BRANCH   1   3
HETATM    3  C   UNL     1      -3.780  -0.187 -30.944  1.00  0.00     0.131 C 
BRANCH   3   4
HETATM    4  C   UNL     1      -4.249  -1.026 -32.109  1.00  0.00    -0.042 A 
HETATM    5  C   UNL     1      -3.569  -2.193 -32.476  1.00  0.00     0.011 A 
HETATM    6  C   UNL     1      -4.011  -2.966 -33.555  1.00  0.00     0.040 A 
HETATM    7  C   UNL     1      -5.136  -2.578 -34.290  1.00  0.00     0.101 A 
HETATM    8  C   UNL     1      -5.798  -1.385 -33.952  1.00  0.00     0.102 A 
HETATM    9  C   UNL     1      -5.363  -0.626 -32.860  1.00  0.00     0.048 A 
BRANCH   7  10
HETATM   10  O   UNL     1      -5.642  -3.268 -35.361  1.00  0.00    -0.353 OA
HETATM   11  C   UNL     1      -6.298  -4.498 -35.089  1.00  0.00     0.210 C 
ENDBRANCH   7  10
BRANCH   8  12
HETATM   12  O   UNL     1      -6.919  -1.059 -34.673  1.00  0.00    -0.344 OA
BRANCH  12  13
HETATM   13  C   UNL     1      -6.929   0.243 -35.262  1.00  0.00     0.209 C 
BRANCH  13  14
HETATM   14  C   UNL     1      -7.778   1.186 -34.439  1.00  0.00    -0.069 C 
HETATM   15  C   UNL     1      -9.205   0.768 -34.215  1.00  0.00     0.044 C 
HETATM   16  C   UNL     1      -7.298   2.342 -33.950  1.00  0.00     0.016 C 
ENDBRANCH  13  14
ENDBRANCH  12  13
ENDBRANCH   8  12
ENDBRANCH   3   4
ENDBRANCH   1   3
BRANCH   1  17
HETATM   17  C   UNL     1      -3.686   2.166 -31.664  1.00  0.00     0.009 A 
HETATM   18  C   UNL     1      -3.215   3.150 -32.548  1.00  0.00     0.039 A 
HETATM   19  C   UNL     1      -3.878   4.392 -32.656  1.00  0.00     0.030 A 
HETATM   20  C   UNL     1      -4.986   4.630 -31.856  1.00  0.00     0.063 A 
HETATM   21  C   UNL     1      -3.699   5.588 -33.413  1.00  0.00     0.156 A 
HETATM   22  N   UNL     1      -5.398   5.893 -32.177  1.00  0.00    -0.277 N 
HETATM   23  C   UNL     1      -5.471   3.699 -30.938  1.00  0.00     0.034 A 
HETATM   24  H   UNL     1      -6.183   6.401 -31.785  1.00  0.00     0.189 HD
HETATM   25  N   UNL     1      -4.646   6.505 -33.110  1.00  0.00    -0.168 NA
HETATM   26  C   UNL     1      -4.786   2.478 -30.850  1.00  0.00     0.026 A 
BRANCH  21  27
HETATM   27  C   UNL     1      -2.651   5.866 -34.403  1.00  0.00     0.270 C 
HETATM   28  N   UNL     1      -2.058   7.090 -34.263  1.00  0.00    -0.365 N 
HETATM   29  H   UNL     1      -2.365   7.694 -33.508  1.00  0.00     0.159 HD
HETATM   30  H   UNL     1      -1.316   7.363 -34.886  1.00  0.00     0.159 HD
HETATM   31  O   UNL     1      -2.309   5.090 -35.290  1.00  0.00    -0.266 OA
ENDBRANCH  21  27
ENDBRANCH   1  17
TORSDOF 8
ENDMDL
MODEL 6
REMARK VINA RESULT:      -7.9      3.331      8.189
REMARK  8 active torsions:
REMARK  status: ('A' for Active; 'I' for Inactive)
REMARK    1  A    between atoms: C_2  and  C_3 
REMARK    2  A    between atoms: C_3  and  O_4 
REMARK    3  A    between atoms: O_4  and  C_5 
REMARK    4  A    between atoms: C_6  and  O_7 
REMARK    5  A    between atoms: C_11  and  C_12 
REMARK    6  A    between atoms: C_12  and  N_13 
REMARK    7  A    between atoms: N_13  and  C_14 
REMARK    8  A    between atoms: C_21  and  C_22 
REMARK       I    between atoms: C_22  and  N_23 
ROOT
HETATM    1  N   UNL     1      -4.567   1.988 -31.927  1.00  0.00    -0.289 NA
HETATM    2  H   UNL     1      -5.451   1.886 -32.417  1.00  0.00     0.128 HD
ENDROOT
BRANCH   1   3
HETATM    3  C   UNL     1      -3.833   0.730 -31.851  1.00  0.00     0.131 C 
BRANCH   3   4
HETATM    4  C   UNL     1      -4.539  -0.304 -32.698  1.00  0.00    -0.042 A 
HETATM    5  C   UNL     1      -3.915  -1.512 -33.026  1.00  0.00     0.011 A 
HETATM    6  C   UNL     1      -4.576  -2.465 -33.809  1.00  0.00     0.040 A 
HETATM    7  C   UNL     1      -5.868  -2.219 -34.283  1.00  0.00     0.101 A 
HETATM    8  C   UNL     1      -6.483  -0.989 -33.992  1.00  0.00     0.102 A 
HETATM    9  C   UNL     1      -5.825  -0.048 -33.193  1.00  0.00     0.048 A 
BRANCH   7  10
HETATM   10  O   UNL     1      -6.593  -3.090 -35.057  1.00  0.00    -0.353 OA
HETATM   11  C   UNL     1      -6.156  -4.440 -35.095  1.00  0.00     0.210 C 
ENDBRANCH   7  10
BRANCH   8  12
HETATM   12  O   UNL     1      -7.765  -0.802 -34.443  1.00  0.00    -0.344 OA
BRANCH  12  13
HETATM   13  C   UNL     1      -8.195   0.557 -34.563  1.00  0.00     0.209 C 
BRANCH  13  14
HETATM   14  C   UNL     1      -9.485   0.769 -33.803  1.00  0.00    -0.069 C 
HETATM   15  C   UNL     1     -10.330   1.931 -34.244  1.00  0.00     0.044 C 
HETATM   16  C   UNL     1      -9.852  -0.019 -32.778  1.00  0.00     0.016 C 
ENDBRANCH  13  14
ENDBRANCH  12  13
ENDBRANCH   8  12
ENDBRANCH   3   4
ENDBRANCH   1   3
BRANCH   1  17
HETATM   17  C   UNL     1      -3.881   3.151 -32.303  1.00  0.00     0.009 A 
HETATM   18  C   UNL     1      -2.677   3.555 -31.706  1.00  0.00     0.039 A 
HETATM   19  C   UNL     1      -2.077   4.783 -32.064  1.00  0.00     0.030 A 
HETATM   20  C   UNL     1      -2.712   5.590 -32.997  1.00  0.00     0.063 A 
HETATM   21  C   UNL     1      -0.903   5.500 -31.687  1.00  0.00     0.156 A 
HETATM   22  N   UNL     1      -1.909   6.688 -33.129  1.00  0.00    -0.277 N 
HETATM   23  C   UNL     1      -3.926   5.249 -33.591  1.00  0.00     0.034 A 
HETATM   24  H   UNL     1      -2.063   7.492 -33.729  1.00  0.00     0.189 HD
HETATM   25  N   UNL     1      -0.810   6.672 -32.355  1.00  0.00    -0.168 NA
HETATM   26  C   UNL     1      -4.500   4.027 -33.209  1.00  0.00     0.026 A 
BRANCH  21  27
HETATM   27  C   UNL     1       0.114   5.090 -30.710  1.00  0.00     0.270 C 
HETATM   28  N   UNL     1      -0.238   5.312 -29.408  1.00  0.00    -0.365 N 
HETATM   29  H   UNL     1      -1.146   5.721 -29.214  1.00  0.00     0.159 HD
HETATM   30  H   UNL     1       0.389   5.048 -28.666  1.00  0.00     0.159 HD
HETATM   31  O   UNL     1       1.195   4.585 -31.001  1.00  0.00    -0.266 OA
ENDBRANCH  21  27
ENDBRANCH   1  17
TORSDOF 8
ENDMDL
MODEL 7
REMARK VINA RESULT:      -7.8      3.522      8.622
REMARK  8 active torsions:
REMARK  status: ('A' for Active; 'I' for Inactive)
REMARK    1  A    between atoms: C_2  and  C_3 
REMARK    2  A    between atoms: C_3  and  O_4 
REMARK    3  A    between atoms: O_4  and  C_5 
REMARK    4  A    between atoms: C_6  and  O_7 
REMARK    5  A    between atoms: C_11  and  C_12 
REMARK    6  A    between atoms: C_12  and  N_13 
REMARK    7  A    between atoms: N_13  and  C_14 
REMARK    8  A    between atoms: C_21  and  C_22 
REMARK       I    between atoms: C_22  and  N_23 
ROOT
HETATM    1  N   UNL     1      -2.765   2.808 -31.126  1.00  0.00    -0.289 NA
HETATM    2  H   UNL     1      -2.441   2.835 -30.163  1.00  0.00     0.128 HD
ENDROOT
BRANCH   1   3
HETATM    3  C   UNL     1      -4.107   2.250 -31.238  1.00  0.00     0.131 C 
BRANCH   3   4
HETATM    4  C   UNL     1      -4.012   0.841 -31.778  1.00  0.00    -0.042 A 
HETATM    5  C   UNL     1      -3.070  -0.061 -31.271  1.00  0.00     0.011 A 
HETATM    6  C   UNL     1      -2.990  -1.364 -31.775  1.00  0.00     0.040 A 
HETATM    7  C   UNL     1      -3.845  -1.781 -32.800  1.00  0.00     0.101 A 
HETATM    8  C   UNL     1      -4.764  -0.865 -33.341  1.00  0.00     0.102 A 
HETATM    9  C   UNL     1      -4.853   0.430 -32.821  1.00  0.00     0.048 A 
BRANCH   7  10
HETATM   10  O   UNL     1      -3.839  -3.034 -33.357  1.00  0.00    -0.353 OA
HETATM   11  C   UNL     1      -3.260  -4.081 -32.593  1.00  0.00     0.210 C 
ENDBRANCH   7  10
BRANCH   8  12
HETATM   12  O   UNL     1      -5.611  -1.324 -34.319  1.00  0.00    -0.344 OA
BRANCH  12  13
HETATM   13  C   UNL     1      -6.951  -1.601 -33.906  1.00  0.00     0.209 C 
BRANCH  13  14
HETATM   14  C   UNL     1      -7.840  -0.407 -34.174  1.00  0.00    -0.069 C 
HETATM   15  C   UNL     1      -8.857  -0.087 -33.114  1.00  0.00     0.044 C 
HETATM   16  C   UNL     1      -7.747   0.319 -35.302  1.00  0.00     0.016 C 
ENDBRANCH  13  14
ENDBRANCH  12  13
ENDBRANCH   8  12
ENDBRANCH   3   4
ENDBRANCH   1   3
BRANCH   1  17
HETATM   17  C   UNL     1      -2.458   3.984 -31.823  1.00  0.00     0.009 A 
HETATM   18  C   UNL     1      -2.259   5.220 -31.189  1.00  0.00     0.039 A 
HETATM   19  C   UNL     1      -2.041   6.389 -31.950  1.00  0.00     0.030 A 
HETATM   20  C   UNL     1      -2.050   6.296 -33.334  1.00  0.00     0.063 A 
HETATM   21  C   UNL     1      -1.810   7.768 -31.669  1.00  0.00     0.156 A 
HETATM   22  N   UNL     1      -1.820   7.567 -33.782  1.00  0.00    -0.277 N 
HETATM   23  C   UNL     1      -2.277   5.099 -34.012  1.00  0.00     0.034 A 
HETATM   24  H   UNL     1      -1.761   7.877 -34.746  1.00  0.00     0.189 HD
HETATM   25  N   UNL     1      -1.672   8.483 -32.809  1.00  0.00    -0.168 NA
HETATM   26  C   UNL     1      -2.499   3.958 -33.227  1.00  0.00     0.026 A 
BRANCH  21  27
HETATM   27  C   UNL     1      -1.725   8.405 -30.348  1.00  0.00     0.270 C 
HETATM   28  N   UNL     1      -0.946   7.729 -29.450  1.00  0.00    -0.365 N 
HETATM   29  H   UNL     1      -0.492   6.873 -29.749  1.00  0.00     0.159 HD
HETATM   30  H   UNL     1      -0.814   8.098 -28.522  1.00  0.00     0.159 HD
HETATM   31  O   UNL     1      -2.286   9.452 -30.043  1.00  0.00    -0.266 OA
ENDBRANCH  21  27
ENDBRANCH   1  17
TORSDOF 8
ENDMDL
MODEL 8
REMARK VINA RESULT:      -7.8      2.091      2.700
REMARK  8 active torsions:
REMARK  status: ('A' for Active; 'I' for Inactive)
REMARK    1  A    between atoms: C_2  and  C_3 
REMARK    2  A    between atoms: C_3  and  O_4 
REMARK    3  A    between atoms: O_4  and  C_5 
REMARK    4  A    between atoms: C_6  and  O_7 
REMARK    5  A    between atoms: C_11  and  C_12 
REMARK    6  A    between atoms: C_12  and  N_13 
REMARK    7  A    between atoms: N_13  and  C_14 
REMARK    8  A    between atoms: C_21  and  C_22 
REMARK       I    between atoms: C_22  and  N_23 
ROOT
HETATM    1  N   UNL     1      -7.499   1.391 -30.897  1.00  0.00    -0.289 NA
HETATM    2  H   UNL     1      -8.371   1.139 -30.442  1.00  0.00     0.128 HD
ENDROOT
BRANCH   1   3
HETATM    3  C   UNL     1      -6.543   1.977 -29.965  1.00  0.00     0.131 C 
BRANCH   3   4
HETATM    4  C   UNL     1      -6.055   3.294 -30.522  1.00  0.00    -0.042 A 
HETATM    5  C   UNL     1      -6.896   4.412 -30.569  1.00  0.00     0.011 A 
HETATM    6  C   UNL     1      -6.435   5.628 -31.085  1.00  0.00     0.040 A 
HETATM    7  C   UNL     1      -5.128   5.741 -31.571  1.00  0.00     0.101 A 
HETATM    8  C   UNL     1      -4.294   4.611 -31.565  1.00  0.00     0.102 A 
HETATM    9  C   UNL     1      -4.753   3.403 -31.030  1.00  0.00     0.048 A 
BRANCH   7  10
HETATM   10  O   UNL     1      -4.590   6.889 -32.096  1.00  0.00    -0.353 OA
HETATM   11  C   UNL     1      -4.375   7.972 -31.202  1.00  0.00     0.210 C 
ENDBRANCH   7  10
BRANCH   8  12
HETATM   12  O   UNL     1      -3.007   4.773 -32.014  1.00  0.00    -0.344 OA
BRANCH  12  13
HETATM   13  C   UNL     1      -2.655   4.034 -33.186  1.00  0.00     0.209 C 
BRANCH  13  14
HETATM   14  C   UNL     1      -2.570   4.955 -34.382  1.00  0.00    -0.069 C 
HETATM   15  C   UNL     1      -1.217   5.547 -34.667  1.00  0.00     0.044 C 
HETATM   16  C   UNL     1      -3.640   5.248 -35.141  1.00  0.00     0.016 C 
ENDBRANCH  13  14
ENDBRANCH  12  13
ENDBRANCH   8  12
ENDBRANCH   3   4
ENDBRANCH   1   3
BRANCH   1  17
HETATM   17  C   UNL     1      -7.059   0.403 -31.787  1.00  0.00     0.009 A 
HETATM   18  C   UNL     1      -5.805  -0.219 -31.681  1.00  0.00     0.039 A 
HETATM   19  C   UNL     1      -5.379  -1.145 -32.659  1.00  0.00     0.030 A 
HETATM   20  C   UNL     1      -6.213  -1.409 -33.736  1.00  0.00     0.063 A 
HETATM   21  C   UNL     1      -4.218  -1.943 -32.880  1.00  0.00     0.156 A 
HETATM   22  N   UNL     1      -5.538  -2.322 -34.498  1.00  0.00    -0.277 N 
HETATM   23  C   UNL     1      -7.452  -0.793 -33.904  1.00  0.00     0.034 A 
HETATM   24  H   UNL     1      -5.847  -2.743 -35.368  1.00  0.00     0.189 HD
HETATM   25  N   UNL     1      -4.331  -2.667 -34.016  1.00  0.00    -0.168 NA
HETATM   26  C   UNL     1      -7.842   0.127 -32.920  1.00  0.00     0.026 A 
BRANCH  21  27
HETATM   27  C   UNL     1      -3.018  -2.020 -32.037  1.00  0.00     0.270 C 
HETATM   28  N   UNL     1      -2.785  -3.259 -31.507  1.00  0.00    -0.365 N 
HETATM   29  H   UNL     1      -3.428  -4.011 -31.731  1.00  0.00     0.159 HD
HETATM   30  H   UNL     1      -1.975  -3.414 -30.928  1.00  0.00     0.159 HD
HETATM   31  O   UNL     1      -2.266  -1.078 -31.809  1.00  0.00    -0.266 OA
ENDBRANCH  21  27
ENDBRANCH   1  17
TORSDOF 8
ENDMDL
MODEL 9
REMARK VINA RESULT:      -7.7      3.807      8.590
REMARK  8 active torsions:
REMARK  status: ('A' for Active; 'I' for Inactive)
REMARK    1  A    between atoms: C_2  and  C_3 
REMARK    2  A    between atoms: C_3  and  O_4 
REMARK    3  A    between atoms: O_4  and  C_5 
REMARK    4  A    between atoms: C_6  and  O_7 
REMARK    5  A    between atoms: C_11  and  C_12 
REMARK    6  A    between atoms: C_12  and  N_13 
REMARK    7  A    between atoms: N_13  and  C_14 
REMARK    8  A    between atoms: C_21  and  C_22 
REMARK       I    between atoms: C_22  and  N_23 
ROOT
HETATM    1  N   UNL     1      -3.469   2.819 -31.159  1.00  0.00    -0.289 NA
HETATM    2  H   UNL     1      -4.331   3.026 -30.664  1.00  0.00     0.128 HD
ENDROOT
BRANCH   1   3
HETATM    3  C   UNL     1      -3.542   1.555 -31.882  1.00  0.00     0.131 C 
BRANCH   3   4
HETATM    4  C   UNL     1      -4.993   1.201 -32.111  1.00  0.00    -0.042 A 
HETATM    5  C   UNL     1      -6.015   2.092 -31.764  1.00  0.00     0.011 A 
HETATM    6  C   UNL     1      -7.356   1.757 -31.982  1.00  0.00     0.040 A 
HETATM    7  C   UNL     1      -7.695   0.521 -32.541  1.00  0.00     0.101 A 
HETATM    8  C   UNL     1      -6.675  -0.394 -32.852  1.00  0.00     0.102 A 
HETATM    9  C   UNL     1      -5.335  -0.047 -32.650  1.00  0.00     0.048 A 
BRANCH   7  10
HETATM   10  O   UNL     1      -8.978   0.105 -32.789  1.00  0.00    -0.353 OA
HETATM   11  C   UNL     1      -9.794   0.955 -33.583  1.00  0.00     0.210 C 
ENDBRANCH   7  10
BRANCH   8  12
HETATM   12  O   UNL     1      -7.047  -1.580 -33.434  1.00  0.00    -0.344 OA
BRANCH  12  13
HETATM   13  C   UNL     1      -6.568  -1.803 -34.762  1.00  0.00     0.209 C 
BRANCH  13  14
HETATM   14  C   UNL     1      -5.882  -3.147 -34.855  1.00  0.00    -0.069 C 
HETATM   15  C   UNL     1      -4.408  -3.161 -34.558  1.00  0.00     0.044 C 
HETATM   16  C   UNL     1      -6.540  -4.266 -35.203  1.00  0.00     0.016 C 
ENDBRANCH  13  14
ENDBRANCH  12  13
ENDBRANCH   8  12
ENDBRANCH   3   4
ENDBRANCH   1   3
BRANCH   1  17
HETATM   17  C   UNL     1      -2.946   3.943 -31.811  1.00  0.00     0.009 A 
HETATM   18  C   UNL     1      -2.871   5.210 -31.210  1.00  0.00     0.039 A 
HETATM   19  C   UNL     1      -2.416   6.326 -31.945  1.00  0.00     0.030 A 
HETATM   20  C   UNL     1      -2.069   6.152 -33.277  1.00  0.00     0.063 A 
HETATM   21  C   UNL     1      -2.213   7.713 -31.684  1.00  0.00     0.156 A 
HETATM   22  N   UNL     1      -1.681   7.388 -33.713  1.00  0.00    -0.277 N 
HETATM   23  C   UNL     1      -2.159   4.923 -33.929  1.00  0.00     0.034 A 
HETATM   24  H   UNL     1      -1.361   7.639 -34.642  1.00  0.00     0.189 HD
HETATM   25  N   UNL     1      -1.756   8.356 -32.782  1.00  0.00    -0.168 NA
HETATM   26  C   UNL     1      -2.621   3.836 -33.173  1.00  0.00     0.026 A 
BRANCH  21  27
HETATM   27  C   UNL     1      -2.450   8.425 -30.421  1.00  0.00     0.270 C 
HETATM   28  N   UNL     1      -1.435   8.304 -29.512  1.00  0.00    -0.365 N 
HETATM   29  H   UNL     1      -0.618   7.760 -29.766  1.00  0.00     0.159 HD
HETATM   30  H   UNL     1      -1.500   8.772 -28.622  1.00  0.00     0.159 HD
HETATM   31  O   UNL     1      -3.455   9.082 -30.170  1.00  0.00    -0.266 OA
ENDBRANCH  21  27
ENDBRANCH   1  17
TORSDOF 8
ENDMDL
MODEL 10
REMARK VINA RESULT:      -7.7      4.950      8.717
REMARK  8 active torsions:
REMARK  status: ('A' for Active; 'I' for Inactive)
REMARK    1  A    between atoms: C_2  and  C_3 
REMARK    2  A    between atoms: C_3  and  O_4 
REMARK    3  A    between atoms: O_4  and  C_5 
REMARK    4  A    between atoms: C_6  and  O_7 
REMARK    5  A    between atoms: C_11  and  C_12 
REMARK    6  A    between atoms: C_12  and  N_13 
REMARK    7  A    between atoms: N_13  and  C_14 
REMARK    8  A    between atoms: C_21  and  C_22 
REMARK       I    between atoms: C_22  and  N_23 
ROOT
HETATM    1  N   UNL     1      -9.314   1.623 -34.366  1.00  0.00    -0.289 NA
HETATM    2  H   UNL     1      -8.641   2.305 -34.027  1.00  0.00     0.128 HD
ENDROOT
BRANCH   1   3
HETATM    3  C   UNL     1      -8.940   0.260 -34.009  1.00  0.00     0.131 C 
BRANCH   3   4
HETATM    4  C   UNL     1      -7.477   0.233 -33.630  1.00  0.00    -0.042 A 
HETATM    5  C   UNL     1      -6.841   1.376 -33.133  1.00  0.00     0.011 A 
HETATM    6  C   UNL     1      -5.487   1.342 -32.782  1.00  0.00     0.040 A 
HETATM    7  C   UNL     1      -4.746   0.165 -32.933  1.00  0.00     0.101 A 
HETATM    8  C   UNL     1      -5.370  -0.973 -33.471  1.00  0.00     0.102 A 
HETATM    9  C   UNL     1      -6.728  -0.939 -33.801  1.00  0.00     0.048 A 
BRANCH   7  10
HETATM   10  O   UNL     1      -3.417   0.037 -32.618  1.00  0.00    -0.353 OA
HETATM   11  C   UNL     1      -3.071   0.066 -31.241  1.00  0.00     0.210 C 
ENDBRANCH   7  10
BRANCH   8  12
HETATM   12  O   UNL     1      -4.619  -2.118 -33.566  1.00  0.00    -0.344 OA
BRANCH  12  13
HETATM   13  C   UNL     1      -4.674  -2.800 -34.820  1.00  0.00     0.209 C 
BRANCH  13  14
HETATM   14  C   UNL     1      -5.236  -4.192 -34.638  1.00  0.00    -0.069 C 
HETATM   15  C   UNL     1      -6.617  -4.426 -35.183  1.00  0.00     0.044 C 
HETATM   16  C   UNL     1      -4.554  -5.165 -34.008  1.00  0.00     0.016 C 
ENDBRANCH  13  14
ENDBRANCH  12  13
ENDBRANCH   8  12
ENDBRANCH   3   4
ENDBRANCH   1   3
BRANCH   1  17
HETATM   17  C   UNL     1     -10.637   2.037 -34.166  1.00  0.00     0.009 A 
HETATM   18  C   UNL     1     -11.041   2.802 -33.061  1.00  0.00     0.039 A 
HETATM   19  C   UNL     1     -12.404   3.115 -32.867  1.00  0.00     0.030 A 
HETATM   20  C   UNL     1     -13.337   2.634 -33.774  1.00  0.00     0.063 A 
HETATM   21  C   UNL     1     -13.163   3.839 -31.899  1.00  0.00     0.156 A 
HETATM   22  N   UNL     1     -14.545   3.089 -33.325  1.00  0.00    -0.277 N 
HETATM   23  C   UNL     1     -12.990   1.842 -34.867  1.00  0.00     0.034 A 
HETATM   24  H   UNL     1     -15.455   2.928 -33.743  1.00  0.00     0.189 HD
HETATM   25  N   UNL     1     -14.482   3.818 -32.197  1.00  0.00    -0.168 NA
HETATM   26  C   UNL     1     -11.629   1.542 -35.028  1.00  0.00     0.026 A 
BRANCH  21  27
HETATM   27  C   UNL     1     -12.655   4.537 -30.711  1.00  0.00     0.270 C 
HETATM   28  N   UNL     1     -12.275   3.706 -29.693  1.00  0.00    -0.365 N 
HETATM   29  H   UNL     1     -12.359   2.704 -29.828  1.00  0.00     0.159 HD
HETATM   30  H   UNL     1     -11.898   4.093 -28.843  1.00  0.00     0.159 HD
HETATM   31  O   UNL     1     -12.562   5.756 -30.606  1.00  0.00    -0.266 OA
ENDBRANCH  21  27
ENDBRANCH   1  17
TORSDOF 8
ENDMDL
