MODEL 1
REMARK VINA RESULT:      -8.1      0.000      0.000
REMARK  3 active torsions:
REMARK  status: ('A' for Active; 'I' for Inactive)
REMARK    1  A    between atoms: C_12  and  C_13 
REMARK    2  A    between atoms: C_13  and  N_14 
REMARK    3  A    between atoms: C_18  and  C_19 
ROOT
HETATM    1  N   UNL     1      -9.674   1.545 -32.907  1.00  0.00    -0.067 N 
HETATM    2  H   UNL     1      -9.010   1.682 -33.679  1.00  0.00     0.280 HD
HETATM    3  C   UNL     1     -10.814   0.702 -33.439  1.00  0.00     0.236 C 
HETATM    4  C   UNL     1     -11.581   1.455 -34.517  1.00  0.00     0.040 C 
HETATM    5  C   UNL     1     -12.073   2.826 -34.051  1.00  0.00     0.062 C 
HETATM    6  C   UNL     1     -10.900   3.640 -33.503  1.00  0.00     0.040 C 
HETATM    7  C   UNL     1     -10.123   2.906 -32.423  1.00  0.00     0.236 C 
ENDROOT
BRANCH   1   8
HETATM    8  C   UNL     1      -8.914   0.840 -31.796  1.00  0.00     0.273 C 
BRANCH   8   9
HETATM    9  C   UNL     1      -7.677   0.120 -32.258  1.00  0.00    -0.028 A 
HETATM   10  C   UNL     1      -7.733  -0.739 -33.366  1.00  0.00     0.048 A 
HETATM   11  C   UNL     1      -6.585  -1.389 -33.824  1.00  0.00     0.103 A 
HETATM   12  C   UNL     1      -5.355  -1.182 -33.196  1.00  0.00     0.119 A 
HETATM   13  O   UNL     1      -6.732  -2.116 -34.973  1.00  0.00    -0.348 OA
HETATM   14  O   UNL     1      -4.193  -1.698 -33.702  1.00  0.00    -0.347 OA
HETATM   15  C   UNL     1      -5.291  -0.317 -32.097  1.00  0.00     0.047 A 
HETATM   16  C   UNL     1      -4.171  -3.125 -33.677  1.00  0.00     0.178 C 
HETATM   17  C   UNL     1      -4.879  -3.716 -34.886  1.00  0.00     0.053 C 
HETATM   18  C   UNL     1      -6.380  -3.492 -34.804  1.00  0.00     0.178 C 
HETATM   19 BR   UNL     1      -3.652   0.031 -31.205  1.00  0.00    -0.048 Br
HETATM   20  C   UNL     1      -6.443   0.322 -31.623  1.00  0.00     0.031 A 
ENDBRANCH   8   9
ENDBRANCH   1   8
BRANCH   5  21
HETATM   21  C   UNL     1     -13.195   2.710 -33.068  1.00  0.00     0.151 A 
HETATM   22  N   UNL     1     -13.961   1.623 -32.976  1.00  0.00    -0.158 NA
HETATM   23  N   UNL     1     -14.794   1.954 -31.976  1.00  0.00    -0.270 N 
HETATM   24  H   UNL     1     -15.508   1.297 -31.676  1.00  0.00     0.190 HD
HETATM   25  C   UNL     1     -14.512   3.199 -31.505  1.00  0.00     0.227 A 
HETATM   26  N   UNL     1     -13.501   3.706 -32.177  1.00  0.00    -0.225 NA
ENDBRANCH   5  21
TORSDOF 3
ENDMDL
MODEL 2
REMARK VINA RESULT:      -8.0      6.198      8.319
REMARK  3 active torsions:
REMARK  status: ('A' for Active; 'I' for Inactive)
REMARK    1  A    between atoms: C_12  and  C_13 
REMARK    2  A    between atoms: C_13  and  N_14 
REMARK    3  A    between atoms: C_18  and  C_19 
ROOT
HETATM    1  N   UNL     1      -3.376   4.689 -32.771  1.00  0.00    -0.067 N 
HETATM    2  H   UNL     1      -3.023   4.043 -33.486  1.00  0.00     0.280 HD
HETATM    3  C   UNL     1      -3.574   6.034 -33.438  1.00  0.00     0.236 C 
HETATM    4  C   UNL     1      -2.239   6.608 -33.893  1.00  0.00     0.040 C 
HETATM    5  C   UNL     1      -1.212   6.694 -32.764  1.00  0.00     0.062 C 
HETATM    6  C   UNL     1      -1.054   5.324 -32.101  1.00  0.00     0.040 C 
HETATM    7  C   UNL     1      -2.375   4.734 -31.638  1.00  0.00     0.236 C 
ENDROOT
BRANCH   1   8
HETATM    8  C   UNL     1      -4.685   4.106 -32.265  1.00  0.00     0.273 C 
BRANCH   8   9
HETATM    9  C   UNL     1      -4.856   2.639 -32.547  1.00  0.00    -0.028 A 
HETATM   10  C   UNL     1      -4.138   1.690 -31.806  1.00  0.00     0.048 A 
HETATM   11  C   UNL     1      -4.312   0.323 -32.037  1.00  0.00     0.103 A 
HETATM   12  C   UNL     1      -5.218  -0.123 -33.001  1.00  0.00     0.119 A 
HETATM   13  O   UNL     1      -3.644  -0.514 -31.185  1.00  0.00    -0.348 OA
HETATM   14  O   UNL     1      -5.507  -1.451 -33.157  1.00  0.00    -0.347 OA
HETATM   15  C   UNL     1      -5.945   0.820 -33.737  1.00  0.00     0.047 A 
HETATM   16  C   UNL     1      -4.382  -2.209 -33.602  1.00  0.00     0.178 C 
HETATM   17  C   UNL     1      -3.485  -2.610 -32.443  1.00  0.00     0.053 C 
HETATM   18  C   UNL     1      -2.758  -1.404 -31.869  1.00  0.00     0.178 C 
HETATM   19 BR   UNL     1      -7.211   0.291 -35.049  1.00  0.00    -0.048 Br
HETATM   20  C   UNL     1      -5.761   2.191 -33.520  1.00  0.00     0.031 A 
ENDBRANCH   8   9
ENDBRANCH   1   8
BRANCH   5  21
HETATM   21  C   UNL     1      -1.554   7.766 -31.779  1.00  0.00     0.151 A 
HETATM   22  N   UNL     1      -2.090   8.931 -32.143  1.00  0.00    -0.158 NA
HETATM   23  N   UNL     1      -2.239   9.550 -30.960  1.00  0.00    -0.270 N 
HETATM   24  H   UNL     1      -2.637  10.483 -30.926  1.00  0.00     0.190 HD
HETATM   25  C   UNL     1      -1.798   8.759 -29.943  1.00  0.00     0.227 A 
HETATM   26  N   UNL     1      -1.358   7.620 -30.430  1.00  0.00    -0.225 NA
ENDBRANCH   5  21
TORSDOF 3
ENDMDL
MODEL 3
REMARK VINA RESULT:      -8.0      6.322      8.995
REMARK  3 active torsions:
REMARK  status: ('A' for Active; 'I' for Inactive)
REMARK    1  A    between atoms: C_12  and  C_13 
REMARK    2  A    between atoms: C_13  and  N_14 
REMARK    3  A    between atoms: C_18  and  C_19 
ROOT
HETATM    1  N   UNL     1      -3.435   5.325 -31.849  1.00  0.00    -0.067 N 
HETATM    2  H   UNL     1      -3.746   5.751 -32.730  1.00  0.00     0.280 HD
HETATM    3  C   UNL     1      -2.964   6.447 -30.949  1.00  0.00     0.236 C 
HETATM    4  C   UNL     1      -1.735   7.126 -31.536  1.00  0.00     0.040 C 
HETATM    5  C   UNL     1      -0.602   6.146 -31.841  1.00  0.00     0.062 C 
HETATM    6  C   UNL     1      -1.119   5.017 -32.735  1.00  0.00     0.040 C 
HETATM    7  C   UNL     1      -2.345   4.325 -32.164  1.00  0.00     0.236 C 
ENDROOT
BRANCH   1   8
HETATM    8  C   UNL     1      -4.636   4.596 -31.270  1.00  0.00     0.273 C 
BRANCH   8   9
HETATM    9  C   UNL     1      -4.797   3.185 -31.766  1.00  0.00    -0.028 A 
HETATM   10  C   UNL     1      -4.114   2.134 -31.139  1.00  0.00     0.048 A 
HETATM   11  C   UNL     1      -4.280   0.815 -31.569  1.00  0.00     0.103 A 
HETATM   12  C   UNL     1      -5.145   0.519 -32.625  1.00  0.00     0.119 A 
HETATM   13  O   UNL     1      -3.651  -0.139 -30.819  1.00  0.00    -0.348 OA
HETATM   14  O   UNL     1      -5.430  -0.772 -32.981  1.00  0.00    -0.347 OA
HETATM   15  C   UNL     1      -5.839   1.563 -33.248  1.00  0.00     0.047 A 
HETATM   16  C   UNL     1      -4.288  -1.466 -33.482  1.00  0.00     0.178 C 
HETATM   17  C   UNL     1      -3.442  -2.036 -32.355  1.00  0.00     0.053 C 
HETATM   18  C   UNL     1      -2.738  -0.930 -31.585  1.00  0.00     0.178 C 
HETATM   19 BR   UNL     1      -7.047   1.236 -34.675  1.00  0.00    -0.048 Br
HETATM   20  C   UNL     1      -5.661   2.888 -32.831  1.00  0.00     0.031 A 
ENDBRANCH   8   9
ENDBRANCH   1   8
BRANCH   5  21
HETATM   21  C   UNL     1       0.043   5.633 -30.593  1.00  0.00     0.151 A 
HETATM   22  N   UNL     1       0.663   4.455 -30.535  1.00  0.00    -0.158 NA
HETATM   23  N   UNL     1       1.092   4.428 -29.263  1.00  0.00    -0.270 N 
HETATM   24  H   UNL     1       1.613   3.625 -28.923  1.00  0.00     0.190 HD
HETATM   25  C   UNL     1       0.726   5.563 -28.607  1.00  0.00     0.227 A 
HETATM   26  N   UNL     1       0.060   6.349 -29.424  1.00  0.00    -0.225 NA
ENDBRANCH   5  21
TORSDOF 3
ENDMDL
MODEL 4
REMARK VINA RESULT:      -8.0      6.141      8.775
REMARK  3 active torsions:
REMARK  status: ('A' for Active; 'I' for Inactive)
REMARK    1  A    between atoms: C_12  and  C_13 
REMARK    2  A    between atoms: C_13  and  N_14 
REMARK    3  A    between atoms: C_18  and  C_19 
ROOT
HETATM    1  N   UNL     1      -3.578   4.990 -31.601  1.00  0.00    -0.067 N 
HETATM    2  H   UNL     1      -3.974   5.413 -32.448  1.00  0.00     0.280 HD
HETATM    3  C   UNL     1      -3.198   6.122 -30.669  1.00  0.00     0.236 C 
HETATM    4  C   UNL     1      -2.083   6.963 -31.273  1.00  0.00     0.040 C 
HETATM    5  C   UNL     1      -0.860   6.135 -31.669  1.00  0.00     0.062 C 
HETATM    6  C   UNL     1      -1.283   4.991 -32.592  1.00  0.00     0.040 C 
HETATM    7  C   UNL     1      -2.396   4.138 -32.005  1.00  0.00     0.236 C 
ENDROOT
BRANCH   1   8
HETATM    8  C   UNL     1      -4.660   4.103 -31.009  1.00  0.00     0.273 C 
BRANCH   8   9
HETATM    9  C   UNL     1      -4.896   2.828 -31.772  1.00  0.00    -0.028 A 
HETATM   10  C   UNL     1      -5.797   2.806 -32.846  1.00  0.00     0.048 A 
HETATM   11  C   UNL     1      -6.001   1.637 -33.583  1.00  0.00     0.103 A 
HETATM   12  C   UNL     1      -5.297   0.471 -33.272  1.00  0.00     0.119 A 
HETATM   13  O   UNL     1      -6.817   1.756 -34.674  1.00  0.00    -0.348 OA
HETATM   14  O   UNL     1      -5.376  -0.648 -34.056  1.00  0.00    -0.347 OA
HETATM   15  C   UNL     1      -4.389   0.491 -32.207  1.00  0.00     0.047 A 
HETATM   16  C   UNL     1      -6.684  -1.221 -34.062  1.00  0.00     0.178 C 
HETATM   17  C   UNL     1      -7.590  -0.534 -35.070  1.00  0.00     0.053 C 
HETATM   18  C   UNL     1      -7.942   0.875 -34.619  1.00  0.00     0.178 C 
HETATM   19 BR   UNL     1      -3.381  -1.047 -31.737  1.00  0.00    -0.048 Br
HETATM   20  C   UNL     1      -4.195   1.656 -31.455  1.00  0.00     0.031 A 
ENDBRANCH   8   9
ENDBRANCH   1   8
BRANCH   5  21
HETATM   21  C   UNL     1      -0.104   5.650 -30.472  1.00  0.00     0.151 A 
HETATM   22  N   UNL     1       0.585   4.510 -30.471  1.00  0.00    -0.158 NA
HETATM   23  N   UNL     1       1.098   4.496 -29.230  1.00  0.00    -0.270 N 
HETATM   24  H   UNL     1       1.686   3.722 -28.936  1.00  0.00     0.190 HD
HETATM   25  C   UNL     1       0.712   5.602 -28.537  1.00  0.00     0.227 A 
HETATM   26  N   UNL     1      -0.052   6.355 -29.298  1.00  0.00    -0.225 NA
ENDBRANCH   5  21
TORSDOF 3
ENDMDL
MODEL 5
REMARK VINA RESULT:      -7.9      5.370      7.980
REMARK  3 active torsions:
REMARK  status: ('A' for Active; 'I' for Inactive)
REMARK    1  A    between atoms: C_12  and  C_13 
REMARK    2  A    between atoms: C_13  and  N_14 
REMARK    3  A    between atoms: C_18  and  C_19 
ROOT
HETATM    1  N   UNL     1      -4.332   3.660 -31.884  1.00  0.00    -0.067 N 
HETATM    2  H   UNL     1      -4.883   3.824 -32.735  1.00  0.00     0.280 HD
HETATM    3  C   UNL     1      -4.339   4.949 -31.089  1.00  0.00     0.236 C 
HETATM    4  C   UNL     1      -3.614   6.051 -31.847  1.00  0.00     0.040 C 
HETATM    5  C   UNL     1      -2.193   5.658 -32.255  1.00  0.00     0.062 C 
HETATM    6  C   UNL     1      -2.223   4.344 -33.037  1.00  0.00     0.040 C 
HETATM    7  C   UNL     1      -2.941   3.229 -32.296  1.00  0.00     0.236 C 
ENDROOT
BRANCH   1   8
HETATM    8  C   UNL     1      -5.010   2.525 -31.136  1.00  0.00     0.273 C 
BRANCH   8   9
HETATM    9  C   UNL     1      -5.190   1.273 -31.950  1.00  0.00    -0.028 A 
HETATM   10  C   UNL     1      -4.573   0.078 -31.552  1.00  0.00     0.048 A 
HETATM   11  C   UNL     1      -4.759  -1.099 -32.281  1.00  0.00     0.103 A 
HETATM   12  C   UNL     1      -5.577  -1.110 -33.413  1.00  0.00     0.119 A 
HETATM   13  O   UNL     1      -4.199  -2.226 -31.744  1.00  0.00    -0.348 OA
HETATM   14  O   UNL     1      -5.883  -2.272 -34.068  1.00  0.00    -0.347 OA
HETATM   15  C   UNL     1      -6.204   0.077 -33.808  1.00  0.00     0.047 A 
HETATM   16  C   UNL     1      -4.739  -2.882 -34.666  1.00  0.00     0.178 C 
HETATM   17  C   UNL     1      -3.971  -3.729 -33.665  1.00  0.00     0.053 C 
HETATM   18  C   UNL     1      -3.274  -2.859 -32.631  1.00  0.00     0.178 C 
HETATM   19 BR   UNL     1      -7.347   0.136 -35.322  1.00  0.00    -0.048 Br
HETATM   20  C   UNL     1      -6.006   1.263 -33.090  1.00  0.00     0.031 A 
ENDBRANCH   8   9
ENDBRANCH   1   8
BRANCH   5  21
HETATM   21  C   UNL     1      -1.272   5.599 -31.078  1.00  0.00     0.151 A 
HETATM   22  N   UNL     1      -1.469   6.319 -29.974  1.00  0.00    -0.158 NA
HETATM   23  N   UNL     1      -0.435   5.939 -29.205  1.00  0.00    -0.270 N 
HETATM   24  H   UNL     1      -0.325   6.334 -28.276  1.00  0.00     0.190 HD
HETATM   25  C   UNL     1       0.336   5.024 -29.853  1.00  0.00     0.227 A 
HETATM   26  N   UNL     1      -0.168   4.786 -31.045  1.00  0.00    -0.225 NA
ENDBRANCH   5  21
TORSDOF 3
ENDMDL
MODEL 6
REMARK VINA RESULT:      -7.6      3.752      5.611
REMARK  3 active torsions:
REMARK  status: ('A' for Active; 'I' for Inactive)
REMARK    1  A    between atoms: C_12  and  C_13 
REMARK    2  A    between atoms: C_13  and  N_14 
REMARK    3  A    between atoms: C_18  and  C_19 
ROOT
HETATM    1  N   UNL     1      -7.462   2.376 -32.240  1.00  0.00    -0.067 N 
HETATM    2  H   UNL     1      -8.371   2.648 -32.632  1.00  0.00     0.280 HD
HETATM    3  C   UNL     1      -7.119   3.381 -31.160  1.00  0.00     0.236 C 
HETATM    4  C   UNL     1      -6.914   4.764 -31.761  1.00  0.00     0.040 C 
HETATM    5  C   UNL     1      -5.875   4.777 -32.884  1.00  0.00     0.062 C 
HETATM    6  C   UNL     1      -6.243   3.738 -33.944  1.00  0.00     0.040 C 
HETATM    7  C   UNL     1      -6.450   2.349 -33.363  1.00  0.00     0.236 C 
ENDROOT
BRANCH   1   8
HETATM    8  C   UNL     1      -7.631   0.973 -31.680  1.00  0.00     0.273 C 
BRANCH   8   9
HETATM    9  C   UNL     1      -6.722  -0.051 -32.301  1.00  0.00    -0.028 A 
HETATM   10  C   UNL     1      -7.193  -0.883 -33.327  1.00  0.00     0.048 A 
HETATM   11  C   UNL     1      -6.349  -1.816 -33.934  1.00  0.00     0.103 A 
HETATM   12  C   UNL     1      -5.013  -1.925 -33.540  1.00  0.00     0.119 A 
HETATM   13  O   UNL     1      -6.881  -2.498 -34.994  1.00  0.00    -0.348 OA
HETATM   14  O   UNL     1      -4.131  -2.733 -34.205  1.00  0.00    -0.347 OA
HETATM   15  C   UNL     1      -4.535  -1.090 -32.525  1.00  0.00     0.047 A 
HETATM   16  C   UNL     1      -4.466  -4.117 -34.095  1.00  0.00     0.178 C 
HETATM   17  C   UNL     1      -5.508  -4.522 -35.126  1.00  0.00     0.053 C 
HETATM   18  C   UNL     1      -6.864  -3.915 -34.802  1.00  0.00     0.178 C 
HETATM   19 BR   UNL     1      -2.727  -1.164 -31.950  1.00  0.00    -0.048 Br
HETATM   20  C   UNL     1      -5.382  -0.165 -31.901  1.00  0.00     0.031 A 
ENDBRANCH   8   9
ENDBRANCH   1   8
BRANCH   5  21
HETATM   21  C   UNL     1      -4.487   4.590 -32.360  1.00  0.00     0.151 A 
HETATM   22  N   UNL     1      -4.146   4.883 -31.106  1.00  0.00    -0.158 NA
HETATM   23  N   UNL     1      -2.846   4.545 -31.084  1.00  0.00    -0.270 N 
HETATM   24  H   UNL     1      -2.309   4.663 -30.231  1.00  0.00     0.190 HD
HETATM   25  C   UNL     1      -2.451   4.071 -32.297  1.00  0.00     0.227 A 
HETATM   26  N   UNL     1      -3.470   4.085 -33.129  1.00  0.00    -0.225 NA
ENDBRANCH   5  21
TORSDOF 3
ENDMDL
MODEL 7
REMARK VINA RESULT:      -7.5      4.786      6.651
REMARK  3 active torsions:
REMARK  status: ('A' for Active; 'I' for Inactive)
REMARK    1  A    between atoms: C_12  and  C_13 
REMARK    2  A    between atoms: C_13  and  N_14 
REMARK    3  A    between atoms: C_18  and  C_19 
ROOT
HETATM    1  N   UNL     1      -5.412   0.904 -32.507  1.00  0.00    -0.067 N 
HETATM    2  H   UNL     1      -4.566   0.688 -33.046  1.00  0.00     0.280 HD
HETATM    3  C   UNL     1      -6.230  -0.367 -32.425  1.00  0.00     0.236 C 
HETATM    4  C   UNL     1      -6.714  -0.785 -33.806  1.00  0.00     0.040 C 
HETATM    5  C   UNL     1      -7.481   0.324 -34.528  1.00  0.00     0.062 C 
HETATM    6  C   UNL     1      -6.634   1.596 -34.575  1.00  0.00     0.040 C 
HETATM    7  C   UNL     1      -6.143   2.031 -33.204  1.00  0.00     0.236 C 
ENDROOT
BRANCH   1   8
HETATM    8  C   UNL     1      -4.950   1.375 -31.138  1.00  0.00     0.273 C 
BRANCH   8   9
HETATM    9  C   UNL     1      -4.404   2.776 -31.121  1.00  0.00    -0.028 A 
HETATM   10  C   UNL     1      -3.133   3.045 -31.649  1.00  0.00     0.048 A 
HETATM   11  C   UNL     1      -2.628   4.347 -31.669  1.00  0.00     0.103 A 
HETATM   12  C   UNL     1      -3.390   5.409 -31.176  1.00  0.00     0.119 A 
HETATM   13  O   UNL     1      -1.428   4.510 -32.303  1.00  0.00    -0.348 OA
HETATM   14  O   UNL     1      -2.979   6.708 -31.303  1.00  0.00    -0.347 OA
HETATM   15  C   UNL     1      -4.663   5.149 -30.658  1.00  0.00     0.047 A 
HETATM   16  C   UNL     1      -1.788   6.981 -30.564  1.00  0.00     0.178 C 
HETATM   17  C   UNL     1      -0.544   6.584 -31.342  1.00  0.00     0.053 C 
HETATM   18  C   UNL     1      -0.426   5.072 -31.451  1.00  0.00     0.178 C 
HETATM   19 BR   UNL     1      -5.765   6.542 -29.989  1.00  0.00    -0.048 Br
HETATM   20  C   UNL     1      -5.166   3.842 -30.620  1.00  0.00     0.031 A 
ENDBRANCH   8   9
ENDBRANCH   1   8
BRANCH   5  21
HETATM   21  C   UNL     1      -8.827   0.558 -33.919  1.00  0.00     0.151 A 
HETATM   22  N   UNL     1      -9.359  -0.263 -33.015  1.00  0.00    -0.158 NA
HETATM   23  N   UNL     1     -10.530   0.339 -32.747  1.00  0.00    -0.270 N 
HETATM   24  H   UNL     1     -11.166  -0.073 -32.071  1.00  0.00     0.190 HD
HETATM   25  C   UNL     1     -10.665   1.477 -33.480  1.00  0.00     0.227 A 
HETATM   26  N   UNL     1      -9.601   1.645 -34.235  1.00  0.00    -0.225 NA
ENDBRANCH   5  21
TORSDOF 3
ENDMDL
MODEL 8
REMARK VINA RESULT:      -7.5     15.241     16.734
REMARK  3 active torsions:
REMARK  status: ('A' for Active; 'I' for Inactive)
REMARK    1  A    between atoms: C_12  and  C_13 
REMARK    2  A    between atoms: C_13  and  N_14 
REMARK    3  A    between atoms: C_18  and  C_19 
ROOT
HETATM    1  N   UNL     1      -7.687 -12.559 -39.880  1.00  0.00    -0.067 N 
HETATM    2  H   UNL     1      -7.537 -12.108 -38.969  1.00  0.00     0.280 HD
HETATM    3  C   UNL     1      -9.069 -12.161 -40.356  1.00  0.00     0.236 C 
HETATM    4  C   UNL     1     -10.138 -12.728 -39.432  1.00  0.00     0.040 C 
HETATM    5  C   UNL     1     -10.027 -14.242 -39.251  1.00  0.00     0.062 C 
HETATM    6  C   UNL     1      -8.615 -14.608 -38.790  1.00  0.00     0.040 C 
HETATM    7  C   UNL     1      -7.532 -14.053 -39.701  1.00  0.00     0.236 C 
ENDROOT
BRANCH   1   8
HETATM    8  C   UNL     1      -6.596 -12.046 -40.805  1.00  0.00     0.273 C 
BRANCH   8   9
HETATM    9  C   UNL     1      -5.283 -12.765 -40.665  1.00  0.00    -0.028 A 
HETATM   10  C   UNL     1      -4.528 -12.634 -39.491  1.00  0.00     0.048 A 
HETATM   11  C   UNL     1      -3.322 -13.322 -39.335  1.00  0.00     0.103 A 
HETATM   12  C   UNL     1      -2.855 -14.168 -40.343  1.00  0.00     0.119 A 
HETATM   13  O   UNL     1      -2.725 -13.205 -38.111  1.00  0.00    -0.348 OA
HETATM   14  O   UNL     1      -1.749 -14.955 -40.166  1.00  0.00    -0.347 OA
HETATM   15  C   UNL     1      -3.609 -14.312 -41.513  1.00  0.00     0.047 A 
HETATM   16  C   UNL     1      -0.554 -14.192 -40.001  1.00  0.00     0.178 C 
HETATM   17  C   UNL     1      -0.376 -13.738 -38.562  1.00  0.00     0.053 C 
HETATM   18  C   UNL     1      -1.399 -12.675 -38.192  1.00  0.00     0.178 C 
HETATM   19 BR   UNL     1      -3.050 -15.459 -42.918  1.00  0.00    -0.048 Br
HETATM   20  C   UNL     1      -4.810 -13.610 -41.680  1.00  0.00     0.031 A 
ENDBRANCH   8   9
ENDBRANCH   1   8
BRANCH   5  21
HETATM   21  C   UNL     1     -10.432 -14.982 -40.486  1.00  0.00     0.151 A 
HETATM   22  N   UNL     1     -11.489 -14.634 -41.219  1.00  0.00    -0.158 NA
HETATM   23  N   UNL     1     -11.453 -15.541 -42.208  1.00  0.00    -0.270 N 
HETATM   24  H   UNL     1     -12.158 -15.519 -42.939  1.00  0.00     0.190 HD
HETATM   25  C   UNL     1     -10.401 -16.389 -42.047  1.00  0.00     0.227 A 
HETATM   26  N   UNL     1      -9.733 -16.061 -40.963  1.00  0.00    -0.225 NA
ENDBRANCH   5  21
TORSDOF 3
ENDMDL
MODEL 9
REMARK VINA RESULT:      -7.3      6.243      8.899
REMARK  3 active torsions:
REMARK  status: ('A' for Active; 'I' for Inactive)
REMARK    1  A    between atoms: C_12  and  C_13 
REMARK    2  A    between atoms: C_13  and  N_14 
REMARK    3  A    between atoms: C_18  and  C_19 
ROOT
HETATM    1  N   UNL     1      -4.400   2.345 -31.887  1.00  0.00    -0.067 N 
HETATM    2  H   UNL     1      -4.370   2.704 -30.925  1.00  0.00     0.280 HD
HETATM    3  C   UNL     1      -5.849   2.055 -32.215  1.00  0.00     0.236 C 
HETATM    4  C   UNL     1      -6.384   0.933 -31.337  1.00  0.00     0.040 C 
HETATM    5  C   UNL     1      -5.534  -0.336 -31.409  1.00  0.00     0.062 C 
HETATM    6  C   UNL     1      -4.076  -0.003 -31.092  1.00  0.00     0.040 C 
HETATM    7  C   UNL     1      -3.522   1.115 -31.960  1.00  0.00     0.236 C 
ENDROOT
BRANCH   1   8
HETATM    8  C   UNL     1      -3.820   3.432 -32.776  1.00  0.00     0.273 C 
BRANCH   8   9
HETATM    9  C   UNL     1      -3.200   4.577 -32.024  1.00  0.00    -0.028 A 
HETATM   10  C   UNL     1      -1.859   4.512 -31.619  1.00  0.00     0.048 A 
HETATM   11  C   UNL     1      -1.263   5.583 -30.948  1.00  0.00     0.103 A 
HETATM   12  C   UNL     1      -1.990   6.746 -30.682  1.00  0.00     0.119 A 
HETATM   13  O   UNL     1       0.075   5.455 -30.696  1.00  0.00    -0.348 OA
HETATM   14  O   UNL     1      -1.397   7.857 -30.148  1.00  0.00    -0.347 OA
HETATM   15  C   UNL     1      -3.325   6.821 -31.094  1.00  0.00     0.047 A 
HETATM   16  C   UNL     1      -0.916   7.638 -28.822  1.00  0.00     0.178 C 
HETATM   17  C   UNL     1       0.460   6.992 -28.826  1.00  0.00     0.053 C 
HETATM   18  C   UNL     1       0.385   5.549 -29.303  1.00  0.00     0.178 C 
HETATM   19 BR   UNL     1      -4.370   8.375 -30.789  1.00  0.00    -0.048 Br
HETATM   20  C   UNL     1      -3.931   5.743 -31.752  1.00  0.00     0.031 A 
ENDBRANCH   8   9
ENDBRANCH   1   8
BRANCH   5  21
HETATM   21  C   UNL     1      -5.686  -1.035 -32.723  1.00  0.00     0.151 A 
HETATM   22  N   UNL     1      -4.697  -1.726 -33.288  1.00  0.00    -0.158 NA
HETATM   23  N   UNL     1      -5.279  -2.179 -34.410  1.00  0.00    -0.270 N 
HETATM   24  H   UNL     1      -4.749  -2.755 -35.057  1.00  0.00     0.190 HD
HETATM   25  C   UNL     1      -6.571  -1.757 -34.487  1.00  0.00     0.227 A 
HETATM   26  N   UNL     1      -6.860  -1.029 -33.431  1.00  0.00    -0.225 NA
ENDBRANCH   5  21
TORSDOF 3
ENDMDL
MODEL 10
REMARK VINA RESULT:      -7.3      5.670      7.694
REMARK  3 active torsions:
REMARK  status: ('A' for Active; 'I' for Inactive)
REMARK    1  A    between atoms: C_12  and  C_13 
REMARK    2  A    between atoms: C_13  and  N_14 
REMARK    3  A    between atoms: C_18  and  C_19 
ROOT
HETATM    1  N   UNL     1      -4.999   2.330 -32.125  1.00  0.00    -0.067 N 
HETATM    2  H   UNL     1      -4.170   2.067 -31.580  1.00  0.00     0.280 HD
HETATM    3  C   UNL     1      -6.074   2.741 -31.140  1.00  0.00     0.236 C 
HETATM    4  C   UNL     1      -6.499   1.557 -30.285  1.00  0.00     0.040 C 
HETATM    5  C   UNL     1      -6.939   0.350 -31.115  1.00  0.00     0.062 C 
HETATM    6  C   UNL     1      -5.840  -0.024 -32.111  1.00  0.00     0.040 C 
HETATM    7  C   UNL     1      -5.402   1.146 -32.976  1.00  0.00     0.236 C 
ENDROOT
BRANCH   1   8
HETATM    8  C   UNL     1      -4.582   3.480 -33.027  1.00  0.00     0.273 C 
BRANCH   8   9
HETATM    9  C   UNL     1      -3.732   4.517 -32.347  1.00  0.00    -0.028 A 
HETATM   10  C   UNL     1      -2.383   4.253 -32.069  1.00  0.00     0.048 A 
HETATM   11  C   UNL     1      -1.574   5.220 -31.467  1.00  0.00     0.103 A 
HETATM   12  C   UNL     1      -2.093   6.477 -31.146  1.00  0.00     0.119 A 
HETATM   13  O   UNL     1      -0.252   4.895 -31.341  1.00  0.00    -0.348 OA
HETATM   14  O   UNL     1      -1.295   7.486 -30.680  1.00  0.00    -0.347 OA
HETATM   15  C   UNL     1      -3.435   6.750 -31.431  1.00  0.00     0.047 A 
HETATM   16  C   UNL     1      -0.728   7.192 -29.403  1.00  0.00     0.178 C 
HETATM   17  C   UNL     1       0.530   6.349 -29.531  1.00  0.00     0.053 C 
HETATM   18  C   UNL     1       0.199   4.936 -29.985  1.00  0.00     0.178 C 
HETATM   19 BR   UNL     1      -4.205   8.441 -31.043  1.00  0.00    -0.048 Br
HETATM   20  C   UNL     1      -4.253   5.777 -32.018  1.00  0.00     0.031 A 
ENDBRANCH   8   9
ENDBRANCH   1   8
BRANCH   5  21
HETATM   21  C   UNL     1      -8.257   0.584 -31.783  1.00  0.00     0.151 A 
HETATM   22  N   UNL     1      -9.117   1.513 -31.369  1.00  0.00    -0.158 NA
HETATM   23  N   UNL     1     -10.119   1.378 -32.254  1.00  0.00    -0.270 N 
HETATM   24  H   UNL     1     -10.938   1.975 -32.184  1.00  0.00     0.190 HD
HETATM   25  C   UNL     1      -9.840   0.395 -33.152  1.00  0.00     0.227 A 
HETATM   26  N   UNL     1      -8.664  -0.129 -32.881  1.00  0.00    -0.225 NA
ENDBRANCH   5  21
TORSDOF 3
ENDMDL
