MODEL 1
REMARK VINA RESULT:      -9.5      0.000      0.000
REMARK  6 active torsions:
REMARK  status: ('A' for Active; 'I' for Inactive)
REMARK    1  A    between atoms: O_2  and  C_3 
REMARK    2  A    between atoms: C_4  and  C_5 
REMARK    3  A    between atoms: C_6  and  C_7 
REMARK       I    between atoms: C_7  and  N_8 
REMARK    4  A    between atoms: N_8  and  C_9 
REMARK    5  A    between atoms: C_9  and  C_10 
REMARK       I    between atoms: C_10  and  N_11 
REMARK    6  A    between atoms: N_11  and  N_12 
ROOT
HETATM    1  C   UNL     1      -6.502   3.669 -33.008  1.00  0.00     0.255 C 
HETATM    2  N   UNL     1      -5.215   3.338 -33.398  1.00  0.00    -0.245 N 
HETATM    3  O   UNL     1      -6.784   4.310 -31.995  1.00  0.00    -0.270 OA
HETATM    4  H   UNL     1      -5.072   2.788 -34.247  1.00  0.00     0.192 HD
ENDROOT
BRANCH   1   5
HETATM    5  C   UNL     1      -7.593   3.004 -33.850  1.00  0.00     0.227 C 
BRANCH   5   6
HETATM    6  N   UNL     1      -7.461   1.564 -34.039  1.00  0.00    -0.349 N 
HETATM    7  C   UNL     1      -7.990   0.692 -33.120  1.00  0.00     0.241 C 
HETATM    8  O   UNL     1      -8.710   1.035 -32.192  1.00  0.00    -0.269 OA
HETATM    9  H   UNL     1      -6.819   1.228 -34.745  1.00  0.00     0.163 HD
BRANCH   7  10
HETATM   10  C   UNL     1      -7.556  -0.709 -33.330  1.00  0.00     0.075 C 
HETATM   11  C   UNL     1      -6.356  -0.949 -33.880  1.00  0.00     0.020 C 
BRANCH  11  12
HETATM   12  C   UNL     1      -5.885  -2.313 -34.148  1.00  0.00    -0.003 A 
HETATM   13  C   UNL     1      -4.570  -2.723 -33.859  1.00  0.00     0.078 A 
HETATM   14  C   UNL     1      -4.182  -4.034 -34.157  1.00  0.00     0.037 A 
HETATM   15  C   UNL     1      -5.095  -4.935 -34.714  1.00  0.00     0.003 A 
HETATM   16  C   UNL     1      -6.400  -4.533 -34.983  1.00  0.00     0.001 A 
HETATM   17  C   UNL     1      -6.794  -3.225 -34.705  1.00  0.00     0.014 A 
BRANCH  13  18
HETATM   18  O   UNL     1      -3.740  -1.774 -33.317  1.00  0.00    -0.355 OA
HETATM   19  C   UNL     1      -3.245  -2.019 -32.009  1.00  0.00     0.210 C 
ENDBRANCH  13  18
ENDBRANCH  11  12
ENDBRANCH   7  10
ENDBRANCH   5   6
ENDBRANCH   1   5
BRANCH   2  20
HETATM   20  N   UNL     1      -4.146   3.757 -32.662  1.00  0.00    -0.166 NA
HETATM   21  C   UNL     1      -3.442   4.725 -33.151  1.00  0.00     0.157 A 
HETATM   22  C   UNL     1      -3.612   5.456 -34.485  1.00  0.00     0.277 A 
HETATM   23  C   UNL     1      -2.270   5.314 -32.517  1.00  0.00     0.028 A 
HETATM   24  O   UNL     1      -4.491   5.235 -35.293  1.00  0.00    -0.266 OA
HETATM   25  N   UNL     1      -2.573   6.362 -34.544  1.00  0.00    -0.321 N 
HETATM   26  C   UNL     1      -1.786   6.281 -33.397  1.00  0.00     0.048 A 
HETATM   27  H   UNL     1      -2.421   6.985 -35.322  1.00  0.00     0.169 HD
HETATM   28  C   UNL     1      -0.661   7.020 -33.096  1.00  0.00     0.032 A 
HETATM   29  C   UNL     1      -0.030   6.761 -31.872  1.00  0.00     0.021 A 
HETATM   30  C   UNL     1      -0.533   5.780 -30.990  1.00  0.00     0.012 A 
HETATM   31 BR   UNL     1       0.354   5.471 -29.349  1.00  0.00    -0.051 Br
HETATM   32  C   UNL     1      -1.669   5.036 -31.306  1.00  0.00     0.035 A 
ENDBRANCH   2  20
TORSDOF 6
ENDMDL
MODEL 2
REMARK VINA RESULT:      -9.0      1.409      1.531
REMARK  6 active torsions:
REMARK  status: ('A' for Active; 'I' for Inactive)
REMARK    1  A    between atoms: O_2  and  C_3 
REMARK    2  A    between atoms: C_4  and  C_5 
REMARK    3  A    between atoms: C_6  and  C_7 
REMARK       I    between atoms: C_7  and  N_8 
REMARK    4  A    between atoms: N_8  and  C_9 
REMARK    5  A    between atoms: C_9  and  C_10 
REMARK       I    between atoms: C_10  and  N_11 
REMARK    6  A    between atoms: N_11  and  N_12 
ROOT
HETATM    1  C   UNL     1      -5.733   3.825 -32.582  1.00  0.00     0.255 C 
HETATM    2  N   UNL     1      -5.250   5.122 -32.637  1.00  0.00    -0.245 N 
HETATM    3  O   UNL     1      -5.411   2.992 -31.735  1.00  0.00    -0.270 OA
HETATM    4  H   UNL     1      -5.560   5.744 -33.386  1.00  0.00     0.192 HD
ENDROOT
BRANCH   1   5
HETATM    5  C   UNL     1      -6.580   3.430 -33.794  1.00  0.00     0.227 C 
BRANCH   5   6
HETATM    6  N   UNL     1      -6.417   2.060 -34.266  1.00  0.00    -0.349 N 
HETATM    7  C   UNL     1      -7.517   1.284 -34.537  1.00  0.00     0.241 C 
HETATM    8  O   UNL     1      -8.663   1.709 -34.550  1.00  0.00    -0.269 OA
HETATM    9  H   UNL     1      -5.500   1.636 -34.205  1.00  0.00     0.163 HD
BRANCH   7  10
HETATM   10  C   UNL     1      -7.182  -0.142 -34.762  1.00  0.00     0.075 C 
HETATM   11  C   UNL     1      -6.259  -0.730 -33.986  1.00  0.00     0.020 C 
BRANCH  11  12
HETATM   12  C   UNL     1      -5.856  -2.128 -34.183  1.00  0.00    -0.003 A 
HETATM   13  C   UNL     1      -4.570  -2.592 -33.848  1.00  0.00     0.078 A 
HETATM   14  C   UNL     1      -4.246  -3.934 -34.078  1.00  0.00     0.037 A 
HETATM   15  C   UNL     1      -5.196  -4.811 -34.613  1.00  0.00     0.003 A 
HETATM   16  C   UNL     1      -6.473  -4.354 -34.926  1.00  0.00     0.001 A 
HETATM   17  C   UNL     1      -6.801  -3.016 -34.717  1.00  0.00     0.014 A 
BRANCH  13  18
HETATM   18  O   UNL     1      -3.701  -1.663 -33.333  1.00  0.00    -0.355 OA
HETATM   19  C   UNL     1      -3.216  -1.891 -32.018  1.00  0.00     0.210 C 
ENDBRANCH  13  18
ENDBRANCH  11  12
ENDBRANCH   7  10
ENDBRANCH   5   6
ENDBRANCH   1   5
BRANCH   2  20
HETATM   20  N   UNL     1      -4.380   5.570 -31.688  1.00  0.00    -0.166 NA
HETATM   21  C   UNL     1      -3.165   5.796 -32.067  1.00  0.00     0.157 A 
HETATM   22  C   UNL     1      -2.536   5.588 -33.447  1.00  0.00     0.277 A 
HETATM   23  C   UNL     1      -2.093   6.280 -31.206  1.00  0.00     0.028 A 
HETATM   24  O   UNL     1      -3.128   5.189 -34.429  1.00  0.00    -0.266 OA
HETATM   25  N   UNL     1      -1.207   5.929 -33.302  1.00  0.00    -0.321 N 
HETATM   26  C   UNL     1      -0.944   6.333 -31.995  1.00  0.00     0.048 A 
HETATM   27  H   UNL     1      -0.535   5.882 -34.053  1.00  0.00     0.169 HD
HETATM   28  C   UNL     1       0.264   6.742 -31.469  1.00  0.00     0.032 A 
HETATM   29  C   UNL     1       0.285   7.103 -30.114  1.00  0.00     0.021 A 
HETATM   30  C   UNL     1      -0.887   7.047 -29.330  1.00  0.00     0.012 A 
HETATM   31 BR   UNL     1      -0.804   7.549 -27.508  1.00  0.00    -0.051 Br
HETATM   32  C   UNL     1      -2.102   6.628 -29.872  1.00  0.00     0.035 A 
ENDBRANCH   2  20
TORSDOF 6
ENDMDL
MODEL 3
REMARK VINA RESULT:      -8.8      2.011      2.271
REMARK  6 active torsions:
REMARK  status: ('A' for Active; 'I' for Inactive)
REMARK    1  A    between atoms: O_2  and  C_3 
REMARK    2  A    between atoms: C_4  and  C_5 
REMARK    3  A    between atoms: C_6  and  C_7 
REMARK       I    between atoms: C_7  and  N_8 
REMARK    4  A    between atoms: N_8  and  C_9 
REMARK    5  A    between atoms: C_9  and  C_10 
REMARK       I    between atoms: C_10  and  N_11 
REMARK    6  A    between atoms: N_11  and  N_12 
ROOT
HETATM    1  C   UNL     1      -8.237   3.573 -31.870  1.00  0.00     0.255 C 
HETATM    2  N   UNL     1      -7.114   3.692 -32.672  1.00  0.00    -0.245 N 
HETATM    3  O   UNL     1      -8.462   4.259 -30.873  1.00  0.00    -0.270 OA
HETATM    4  H   UNL     1      -7.000   3.070 -33.474  1.00  0.00     0.192 HD
ENDROOT
BRANCH   1   5
HETATM    5  C   UNL     1      -9.114   2.367 -32.212  1.00  0.00     0.227 C 
BRANCH   5   6
HETATM    6  N   UNL     1      -8.411   1.108 -32.427  1.00  0.00    -0.349 N 
HETATM    7  C   UNL     1      -8.151   0.667 -33.701  1.00  0.00     0.241 C 
HETATM    8  O   UNL     1      -8.346   1.336 -34.706  1.00  0.00    -0.269 OA
HETATM    9  H   UNL     1      -8.291   0.483 -31.640  1.00  0.00     0.163 HD
BRANCH   7  10
HETATM   10  C   UNL     1      -7.659  -0.730 -33.744  1.00  0.00     0.075 C 
HETATM   11  C   UNL     1      -6.428  -0.978 -34.216  1.00  0.00     0.020 C 
BRANCH  11  12
HETATM   12  C   UNL     1      -5.898  -2.343 -34.319  1.00  0.00    -0.003 A 
HETATM   13  C   UNL     1      -4.582  -2.667 -33.938  1.00  0.00     0.078 A 
HETATM   14  C   UNL     1      -4.134  -3.986 -34.079  1.00  0.00     0.037 A 
HETATM   15  C   UNL     1      -4.991  -4.976 -34.572  1.00  0.00     0.003 A 
HETATM   16  C   UNL     1      -6.296  -4.657 -34.932  1.00  0.00     0.001 A 
HETATM   17  C   UNL     1      -6.748  -3.344 -34.811  1.00  0.00     0.014 A 
BRANCH  13  18
HETATM   18  O   UNL     1      -3.810  -1.634 -33.469  1.00  0.00    -0.355 OA
HETATM   19  C   UNL     1      -3.374  -1.713 -32.119  1.00  0.00     0.210 C 
ENDBRANCH  13  18
ENDBRANCH  11  12
ENDBRANCH   7  10
ENDBRANCH   5   6
ENDBRANCH   1   5
BRANCH   2  20
HETATM   20  N   UNL     1      -6.178   4.647 -32.404  1.00  0.00    -0.166 NA
HETATM   21  C   UNL     1      -4.974   4.237 -32.170  1.00  0.00     0.157 A 
HETATM   22  C   UNL     1      -4.445   2.802 -32.105  1.00  0.00     0.277 A 
HETATM   23  C   UNL     1      -3.838   5.097 -31.867  1.00  0.00     0.028 A 
HETATM   24  O   UNL     1      -5.110   1.805 -32.303  1.00  0.00    -0.266 OA
HETATM   25  N   UNL     1      -3.112   2.915 -31.771  1.00  0.00    -0.321 N 
HETATM   26  C   UNL     1      -2.753   4.254 -31.630  1.00  0.00     0.048 A 
HETATM   27  H   UNL     1      -2.499   2.123 -31.648  1.00  0.00     0.169 HD
HETATM   28  C   UNL     1      -1.514   4.762 -31.299  1.00  0.00     0.032 A 
HETATM   29  C   UNL     1      -1.392   6.156 -31.216  1.00  0.00     0.021 A 
HETATM   30  C   UNL     1      -2.499   6.996 -31.461  1.00  0.00     0.012 A 
HETATM   31 BR   UNL     1      -2.281   8.871 -31.339  1.00  0.00    -0.051 Br
HETATM   32  C   UNL     1      -3.748   6.472 -31.791  1.00  0.00     0.035 A 
ENDBRANCH   2  20
TORSDOF 6
ENDMDL
MODEL 4
REMARK VINA RESULT:      -8.7      3.957      9.893
REMARK  6 active torsions:
REMARK  status: ('A' for Active; 'I' for Inactive)
REMARK    1  A    between atoms: O_2  and  C_3 
REMARK    2  A    between atoms: C_4  and  C_5 
REMARK    3  A    between atoms: C_6  and  C_7 
REMARK       I    between atoms: C_7  and  N_8 
REMARK    4  A    between atoms: N_8  and  C_9 
REMARK    5  A    between atoms: C_9  and  C_10 
REMARK       I    between atoms: C_10  and  N_11 
REMARK    6  A    between atoms: N_11  and  N_12 
ROOT
HETATM    1  C   UNL     1      -3.733   3.412 -31.697  1.00  0.00     0.255 C 
HETATM    2  N   UNL     1      -4.793   2.606 -32.082  1.00  0.00    -0.245 N 
HETATM    3  O   UNL     1      -2.578   3.018 -31.531  1.00  0.00    -0.270 OA
HETATM    4  H   UNL     1      -5.724   3.013 -32.181  1.00  0.00     0.192 HD
ENDROOT
BRANCH   1   5
HETATM    5  C   UNL     1      -4.149   4.830 -31.299  1.00  0.00     0.227 C 
BRANCH   5   6
HETATM    6  N   UNL     1      -3.175   5.583 -30.518  1.00  0.00    -0.349 N 
HETATM    7  C   UNL     1      -2.644   6.750 -31.010  1.00  0.00     0.241 C 
HETATM    8  O   UNL     1      -3.040   7.302 -32.027  1.00  0.00    -0.269 OA
HETATM    9  H   UNL     1      -2.761   5.139 -29.708  1.00  0.00     0.163 HD
BRANCH   7  10
HETATM   10  C   UNL     1      -1.500   7.250 -30.213  1.00  0.00     0.075 C 
HETATM   11  C   UNL     1      -1.347   6.830 -28.948  1.00  0.00     0.020 C 
BRANCH  11  12
HETATM   12  C   UNL     1      -0.257   7.317 -28.095  1.00  0.00    -0.003 A 
HETATM   13  C   UNL     1      -0.134   6.937 -26.745  1.00  0.00     0.078 A 
HETATM   14  C   UNL     1       0.921   7.453 -25.983  1.00  0.00     0.037 A 
HETATM   15  C   UNL     1       1.856   8.319 -26.561  1.00  0.00     0.003 A 
HETATM   16  C   UNL     1       1.742   8.679 -27.900  1.00  0.00     0.001 A 
HETATM   17  C   UNL     1       0.687   8.185 -28.664  1.00  0.00     0.014 A 
BRANCH  13  18
HETATM   18  O   UNL     1      -1.096   6.088 -26.259  1.00  0.00    -0.355 OA
HETATM   19  C   UNL     1      -2.209   6.679 -25.603  1.00  0.00     0.210 C 
ENDBRANCH  13  18
ENDBRANCH  11  12
ENDBRANCH   7  10
ENDBRANCH   5   6
ENDBRANCH   1   5
BRANCH   2  20
HETATM   20  N   UNL     1      -4.589   1.283 -32.343  1.00  0.00    -0.166 NA
HETATM   21  C   UNL     1      -5.360   0.735 -33.223  1.00  0.00     0.157 A 
HETATM   22  C   UNL     1      -6.523   1.356 -34.000  1.00  0.00     0.277 A 
HETATM   23  C   UNL     1      -5.297  -0.660 -33.641  1.00  0.00     0.028 A 
HETATM   24  O   UNL     1      -6.880   2.513 -33.913  1.00  0.00    -0.266 OA
HETATM   25  N   UNL     1      -7.044   0.333 -34.766  1.00  0.00    -0.321 N 
HETATM   26  C   UNL     1      -6.331  -0.847 -34.558  1.00  0.00     0.048 A 
HETATM   27  H   UNL     1      -7.834   0.446 -35.382  1.00  0.00     0.169 HD
HETATM   28  C   UNL     1      -6.556  -2.077 -35.140  1.00  0.00     0.032 A 
HETATM   29  C   UNL     1      -5.702  -3.126 -34.773  1.00  0.00     0.021 A 
HETATM   30  C   UNL     1      -4.658  -2.921 -33.846  1.00  0.00     0.012 A 
HETATM   31 BR   UNL     1      -3.531  -4.370 -33.388  1.00  0.00    -0.051 Br
HETATM   32  C   UNL     1      -4.442  -1.674 -33.262  1.00  0.00     0.035 A 
ENDBRANCH   2  20
TORSDOF 6
ENDMDL
MODEL 5
REMARK VINA RESULT:      -8.5      3.581      5.890
REMARK  6 active torsions:
REMARK  status: ('A' for Active; 'I' for Inactive)
REMARK    1  A    between atoms: O_2  and  C_3 
REMARK    2  A    between atoms: C_4  and  C_5 
REMARK    3  A    between atoms: C_6  and  C_7 
REMARK       I    between atoms: C_7  and  N_8 
REMARK    4  A    between atoms: N_8  and  C_9 
REMARK    5  A    between atoms: C_9  and  C_10 
REMARK       I    between atoms: C_10  and  N_11 
REMARK    6  A    between atoms: N_11  and  N_12 
ROOT
HETATM    1  C   UNL     1      -1.306   6.653 -33.394  1.00  0.00     0.255 C 
HETATM    2  N   UNL     1      -1.105   6.194 -32.102  1.00  0.00    -0.245 N 
HETATM    3  O   UNL     1      -1.413   7.839 -33.707  1.00  0.00    -0.270 OA
HETATM    4  H   UNL     1      -1.042   5.190 -31.929  1.00  0.00     0.192 HD
ENDROOT
BRANCH   1   5
HETATM    5  C   UNL     1      -1.579   5.541 -34.408  1.00  0.00     0.227 C 
BRANCH   5   6
HETATM    6  N   UNL     1      -2.546   4.530 -33.999  1.00  0.00    -0.349 N 
HETATM    7  C   UNL     1      -3.892   4.799 -34.042  1.00  0.00     0.241 C 
HETATM    8  O   UNL     1      -4.369   5.805 -34.547  1.00  0.00    -0.269 OA
HETATM    9  H   UNL     1      -2.209   3.712 -33.508  1.00  0.00     0.163 HD
BRANCH   7  10
HETATM   10  C   UNL     1      -4.714   3.768 -33.365  1.00  0.00     0.075 C 
HETATM   11  C   UNL     1      -4.136   2.949 -32.473  1.00  0.00     0.020 C 
BRANCH  11  12
HETATM   12  C   UNL     1      -4.886   1.885 -31.797  1.00  0.00    -0.003 A 
HETATM   13  C   UNL     1      -5.433   2.053 -30.511  1.00  0.00     0.078 A 
HETATM   14  C   UNL     1      -6.123   0.990 -29.916  1.00  0.00     0.037 A 
HETATM   15  C   UNL     1      -6.289  -0.218 -30.601  1.00  0.00     0.003 A 
HETATM   16  C   UNL     1      -5.763  -0.377 -31.880  1.00  0.00     0.001 A 
HETATM   17  C   UNL     1      -5.060   0.669 -32.475  1.00  0.00     0.014 A 
BRANCH  13  18
HETATM   18  O   UNL     1      -5.219   3.268 -29.911  1.00  0.00    -0.355 OA
HETATM   19  C   UNL     1      -6.358   4.086 -29.681  1.00  0.00     0.210 C 
ENDBRANCH  13  18
ENDBRANCH  11  12
ENDBRANCH   7  10
ENDBRANCH   5   6
ENDBRANCH   1   5
BRANCH   2  20
HETATM   20  N   UNL     1      -0.973   7.079 -31.072  1.00  0.00    -0.166 NA
HETATM   21  C   UNL     1      -0.320   6.675 -30.033  1.00  0.00     0.157 A 
HETATM   22  C   UNL     1       0.304   5.303 -29.765  1.00  0.00     0.277 A 
HETATM   23  C   UNL     1      -0.070   7.470 -28.838  1.00  0.00     0.028 A 
HETATM   24  O   UNL     1       0.295   4.371 -30.543  1.00  0.00    -0.266 OA
HETATM   25  N   UNL     1       0.833   5.380 -28.494  1.00  0.00    -0.321 N 
HETATM   26  C   UNL     1       0.616   6.644 -27.948  1.00  0.00     0.048 A 
HETATM   27  H   UNL     1       1.306   4.613 -28.040  1.00  0.00     0.169 HD
HETATM   28  C   UNL     1       0.993   7.096 -26.700  1.00  0.00     0.032 A 
HETATM   29  C   UNL     1       0.662   8.417 -26.369  1.00  0.00     0.021 A 
HETATM   30  C   UNL     1      -0.030   9.242 -27.281  1.00  0.00     0.012 A 
HETATM   31 BR   UNL     1      -0.450  11.019 -26.786  1.00  0.00    -0.051 Br
HETATM   32  C   UNL     1      -0.410   8.773 -28.538  1.00  0.00     0.035 A 
ENDBRANCH   2  20
TORSDOF 6
ENDMDL
MODEL 6
REMARK VINA RESULT:      -8.4      3.997      9.765
REMARK  6 active torsions:
REMARK  status: ('A' for Active; 'I' for Inactive)
REMARK    1  A    between atoms: O_2  and  C_3 
REMARK    2  A    between atoms: C_4  and  C_5 
REMARK    3  A    between atoms: C_6  and  C_7 
REMARK       I    between atoms: C_7  and  N_8 
REMARK    4  A    between atoms: N_8  and  C_9 
REMARK    5  A    between atoms: C_9  and  C_10 
REMARK       I    between atoms: C_10  and  N_11 
REMARK    6  A    between atoms: N_11  and  N_12 
ROOT
HETATM    1  C   UNL     1      -3.020   5.324 -34.381  1.00  0.00     0.255 C 
HETATM    2  N   UNL     1      -3.402   4.482 -33.349  1.00  0.00    -0.245 N 
HETATM    3  O   UNL     1      -3.674   5.515 -35.406  1.00  0.00    -0.270 OA
HETATM    4  H   UNL     1      -2.791   4.369 -32.538  1.00  0.00     0.192 HD
ENDROOT
BRANCH   1   5
HETATM    5  C   UNL     1      -1.599   5.872 -34.236  1.00  0.00     0.227 C 
BRANCH   5   6
HETATM    6  N   UNL     1      -1.145   6.112 -32.872  1.00  0.00    -0.349 N 
HETATM    7  C   UNL     1      -1.178   7.379 -32.343  1.00  0.00     0.241 C 
HETATM    8  O   UNL     1      -1.707   8.333 -32.895  1.00  0.00    -0.269 OA
HETATM    9  H   UNL     1      -0.635   5.378 -32.398  1.00  0.00     0.163 HD
BRANCH   7  10
HETATM   10  C   UNL     1      -0.458   7.490 -31.053  1.00  0.00     0.075 C 
HETATM   11  C   UNL     1      -1.160   7.649 -29.920  1.00  0.00     0.020 C 
BRANCH  11  12
HETATM   12  C   UNL     1      -0.504   7.803 -28.617  1.00  0.00    -0.003 A 
HETATM   13  C   UNL     1      -1.225   7.785 -27.408  1.00  0.00     0.078 A 
HETATM   14  C   UNL     1      -0.538   7.955 -26.200  1.00  0.00     0.037 A 
HETATM   15  C   UNL     1       0.851   8.117 -26.191  1.00  0.00     0.003 A 
HETATM   16  C   UNL     1       1.564   8.116 -27.385  1.00  0.00     0.001 A 
HETATM   17  C   UNL     1       0.889   7.964 -28.595  1.00  0.00     0.014 A 
BRANCH  13  18
HETATM   18  O   UNL     1      -2.584   7.626 -27.510  1.00  0.00    -0.355 OA
HETATM   19  C   UNL     1      -3.224   6.864 -26.496  1.00  0.00     0.210 C 
ENDBRANCH  13  18
ENDBRANCH  11  12
ENDBRANCH   7  10
ENDBRANCH   5   6
ENDBRANCH   1   5
BRANCH   2  20
HETATM   20  N   UNL     1      -4.594   3.822 -33.407  1.00  0.00    -0.166 NA
HETATM   21  C   UNL     1      -4.775   2.862 -32.561  1.00  0.00     0.157 A 
HETATM   22  C   UNL     1      -3.806   2.317 -31.508  1.00  0.00     0.277 A 
HETATM   23  C   UNL     1      -5.976   2.044 -32.462  1.00  0.00     0.028 A 
HETATM   24  O   UNL     1      -2.693   2.751 -31.295  1.00  0.00    -0.266 OA
HETATM   25  N   UNL     1      -4.466   1.264 -30.910  1.00  0.00    -0.321 N 
HETATM   26  C   UNL     1      -5.734   1.100 -31.465  1.00  0.00     0.048 A 
HETATM   27  H   UNL     1      -4.066   0.700 -30.175  1.00  0.00     0.169 HD
HETATM   28  C   UNL     1      -6.682   0.154 -31.132  1.00  0.00     0.032 A 
HETATM   29  C   UNL     1      -7.895   0.186 -31.834  1.00  0.00     0.021 A 
HETATM   30  C   UNL     1      -8.126   1.149 -32.839  1.00  0.00     0.012 A 
HETATM   31 BR   UNL     1      -9.782   1.150 -33.754  1.00  0.00    -0.051 Br
HETATM   32  C   UNL     1      -7.160   2.098 -33.170  1.00  0.00     0.035 A 
ENDBRANCH   2  20
TORSDOF 6
ENDMDL
MODEL 7
REMARK VINA RESULT:      -8.4      3.286      5.435
REMARK  6 active torsions:
REMARK  status: ('A' for Active; 'I' for Inactive)
REMARK    1  A    between atoms: O_2  and  C_3 
REMARK    2  A    between atoms: C_4  and  C_5 
REMARK    3  A    between atoms: C_6  and  C_7 
REMARK       I    between atoms: C_7  and  N_8 
REMARK    4  A    between atoms: N_8  and  C_9 
REMARK    5  A    between atoms: C_9  and  C_10 
REMARK       I    between atoms: C_10  and  N_11 
REMARK    6  A    between atoms: N_11  and  N_12 
ROOT
HETATM    1  C   UNL     1      -1.944   6.968 -33.250  1.00  0.00     0.255 C 
HETATM    2  N   UNL     1      -1.881   6.473 -31.957  1.00  0.00    -0.245 N 
HETATM    3  O   UNL     1      -1.711   8.135 -33.564  1.00  0.00    -0.270 OA
HETATM    4  H   UNL     1      -2.105   5.492 -31.782  1.00  0.00     0.192 HD
ENDROOT
BRANCH   1   5
HETATM    5  C   UNL     1      -2.522   5.978 -34.262  1.00  0.00     0.227 C 
BRANCH   5   6
HETATM    6  N   UNL     1      -3.775   5.336 -33.881  1.00  0.00    -0.349 N 
HETATM    7  C   UNL     1      -3.767   4.110 -33.263  1.00  0.00     0.241 C 
HETATM    8  O   UNL     1      -2.752   3.555 -32.866  1.00  0.00    -0.269 OA
HETATM    9  H   UNL     1      -4.640   5.713 -34.248  1.00  0.00     0.163 HD
BRANCH   7  10
HETATM   10  C   UNL     1      -5.112   3.495 -33.173  1.00  0.00     0.075 C 
HETATM   11  C   UNL     1      -5.226   2.221 -32.768  1.00  0.00     0.020 C 
BRANCH  11  12
HETATM   12  C   UNL     1      -6.525   1.544 -32.694  1.00  0.00    -0.003 A 
HETATM   13  C   UNL     1      -6.801   0.368 -33.417  1.00  0.00     0.078 A 
HETATM   14  C   UNL     1      -8.068  -0.217 -33.314  1.00  0.00     0.037 A 
HETATM   15  C   UNL     1      -9.043   0.345 -32.483  1.00  0.00     0.003 A 
HETATM   16  C   UNL     1      -8.763   1.498 -31.755  1.00  0.00     0.001 A 
HETATM   17  C   UNL     1      -7.510   2.098 -31.863  1.00  0.00     0.014 A 
BRANCH  13  18
HETATM   18  O   UNL     1      -5.789  -0.113 -34.209  1.00  0.00    -0.355 OA
HETATM   19  C   UNL     1      -5.180  -1.333 -33.812  1.00  0.00     0.210 C 
ENDBRANCH  13  18
ENDBRANCH  11  12
ENDBRANCH   7  10
ENDBRANCH   5   6
ENDBRANCH   1   5
BRANCH   2  20
HETATM   20  N   UNL     1      -1.504   7.286 -30.929  1.00  0.00    -0.166 NA
HETATM   21  C   UNL     1      -0.693   6.787 -30.055  1.00  0.00     0.157 A 
HETATM   22  C   UNL     1      -0.117   5.371 -29.979  1.00  0.00     0.277 A 
HETATM   23  C   UNL     1      -0.175   7.494 -28.891  1.00  0.00     0.028 A 
HETATM   24  O   UNL     1      -0.330   4.488 -30.786  1.00  0.00    -0.266 OA
HETATM   25  N   UNL     1       0.645   5.343 -28.830  1.00  0.00    -0.321 N 
HETATM   26  C   UNL     1       0.613   6.581 -28.190  1.00  0.00     0.048 A 
HETATM   27  H   UNL     1       1.145   4.527 -28.513  1.00  0.00     0.169 HD
HETATM   28  C   UNL     1       1.245   6.937 -27.017  1.00  0.00     0.032 A 
HETATM   29  C   UNL     1       1.065   8.251 -26.563  1.00  0.00     0.021 A 
HETATM   30  C   UNL     1       0.267   9.164 -27.285  1.00  0.00     0.012 A 
HETATM   31 BR   UNL     1       0.059  10.927 -26.632  1.00  0.00    -0.051 Br
HETATM   32  C   UNL     1      -0.371   8.792 -28.468  1.00  0.00     0.035 A 
ENDBRANCH   2  20
TORSDOF 6
ENDMDL
MODEL 8
REMARK VINA RESULT:      -8.2      3.550      9.073
REMARK  6 active torsions:
REMARK  status: ('A' for Active; 'I' for Inactive)
REMARK    1  A    between atoms: O_2  and  C_3 
REMARK    2  A    between atoms: C_4  and  C_5 
REMARK    3  A    between atoms: C_6  and  C_7 
REMARK       I    between atoms: C_7  and  N_8 
REMARK    4  A    between atoms: N_8  and  C_9 
REMARK    5  A    between atoms: C_9  and  C_10 
REMARK       I    between atoms: C_10  and  N_11 
REMARK    6  A    between atoms: N_11  and  N_12 
ROOT
HETATM    1  C   UNL     1      -5.489   4.686 -33.723  1.00  0.00     0.255 C 
HETATM    2  N   UNL     1      -5.746   3.688 -32.798  1.00  0.00    -0.245 N 
HETATM    3  O   UNL     1      -5.176   4.489 -34.897  1.00  0.00    -0.270 OA
HETATM    4  H   UNL     1      -5.985   3.940 -31.838  1.00  0.00     0.192 HD
ENDROOT
BRANCH   1   5
HETATM    5  C   UNL     1      -5.437   6.090 -33.117  1.00  0.00     0.227 C 
BRANCH   5   6
HETATM    6  N   UNL     1      -4.253   6.398 -32.325  1.00  0.00    -0.349 N 
HETATM    7  C   UNL     1      -3.042   6.608 -32.938  1.00  0.00     0.241 C 
HETATM    8  O   UNL     1      -2.900   6.699 -34.150  1.00  0.00    -0.269 OA
HETATM    9  H   UNL     1      -4.297   6.266 -31.322  1.00  0.00     0.163 HD
BRANCH   7  10
HETATM   10  C   UNL     1      -1.908   6.661 -31.986  1.00  0.00     0.075 C 
HETATM   11  C   UNL     1      -2.155   6.844 -30.680  1.00  0.00     0.020 C 
BRANCH  11  12
HETATM   12  C   UNL     1      -1.074   6.943 -29.693  1.00  0.00    -0.003 A 
HETATM   13  C   UNL     1      -0.782   8.143 -29.019  1.00  0.00     0.078 A 
HETATM   14  C   UNL     1       0.275   8.172 -28.101  1.00  0.00     0.037 A 
HETATM   15  C   UNL     1       1.018   7.016 -27.839  1.00  0.00     0.003 A 
HETATM   16  C   UNL     1       0.715   5.826 -28.493  1.00  0.00     0.001 A 
HETATM   17  C   UNL     1      -0.324   5.789 -29.420  1.00  0.00     0.014 A 
BRANCH  13  18
HETATM   18  O   UNL     1      -1.557   9.229 -29.340  1.00  0.00    -0.355 OA
HETATM   19  C   UNL     1      -1.789  10.185 -28.315  1.00  0.00     0.210 C 
ENDBRANCH  13  18
ENDBRANCH  11  12
ENDBRANCH   7  10
ENDBRANCH   5   6
ENDBRANCH   1   5
BRANCH   2  20
HETATM   20  N   UNL     1      -5.699   2.377 -33.172  1.00  0.00    -0.166 NA
HETATM   21  C   UNL     1      -4.845   1.624 -32.560  1.00  0.00     0.157 A 
HETATM   22  C   UNL     1      -3.827   2.007 -31.483  1.00  0.00     0.277 A 
HETATM   23  C   UNL     1      -4.646   0.203 -32.813  1.00  0.00     0.028 A 
HETATM   24  O   UNL     1      -3.696   3.118 -31.013  1.00  0.00    -0.266 OA
HETATM   25  N   UNL     1      -3.129   0.850 -31.207  1.00  0.00    -0.321 N 
HETATM   26  C   UNL     1      -3.604  -0.207 -31.983  1.00  0.00     0.048 A 
HETATM   27  H   UNL     1      -2.379   0.798 -30.534  1.00  0.00     0.169 HD
HETATM   28  C   UNL     1      -3.154  -1.511 -31.991  1.00  0.00     0.032 A 
HETATM   29  C   UNL     1      -3.791  -2.404 -32.864  1.00  0.00     0.021 A 
HETATM   30  C   UNL     1      -4.847  -1.975 -33.696  1.00  0.00     0.012 A 
HETATM   31 BR   UNL     1      -5.675  -3.221 -34.854  1.00  0.00    -0.051 Br
HETATM   32  C   UNL     1      -5.290  -0.653 -33.683  1.00  0.00     0.035 A 
ENDBRANCH   2  20
TORSDOF 6
ENDMDL
MODEL 9
REMARK VINA RESULT:      -8.2      3.801      6.786
REMARK  6 active torsions:
REMARK  status: ('A' for Active; 'I' for Inactive)
REMARK    1  A    between atoms: O_2  and  C_3 
REMARK    2  A    between atoms: C_4  and  C_5 
REMARK    3  A    between atoms: C_6  and  C_7 
REMARK       I    between atoms: C_7  and  N_8 
REMARK    4  A    between atoms: N_8  and  C_9 
REMARK    5  A    between atoms: C_9  and  C_10 
REMARK       I    between atoms: C_10  and  N_11 
REMARK    6  A    between atoms: N_11  and  N_12 
ROOT
HETATM    1  C   UNL     1      -5.855   4.400 -33.209  1.00  0.00     0.255 C 
HETATM    2  N   UNL     1      -7.013   4.010 -32.555  1.00  0.00    -0.245 N 
HETATM    3  O   UNL     1      -5.826   5.022 -34.271  1.00  0.00    -0.270 OA
HETATM    4  H   UNL     1      -6.946   3.482 -31.684  1.00  0.00     0.192 HD
ENDROOT
BRANCH   1   5
HETATM    5  C   UNL     1      -4.577   3.824 -32.596  1.00  0.00     0.227 C 
BRANCH   5   6
HETATM    6  N   UNL     1      -4.465   2.370 -32.607  1.00  0.00    -0.349 N 
HETATM    7  C   UNL     1      -4.716   1.646 -31.467  1.00  0.00     0.241 C 
HETATM    8  O   UNL     1      -5.178   2.128 -30.443  1.00  0.00    -0.269 OA
HETATM    9  H   UNL     1      -4.019   1.928 -33.400  1.00  0.00     0.163 HD
BRANCH   7  10
HETATM   10  C   UNL     1      -4.318   0.224 -31.582  1.00  0.00     0.075 C 
HETATM   11  C   UNL     1      -4.498  -0.417 -32.747  1.00  0.00     0.020 C 
BRANCH  11  12
HETATM   12  C   UNL     1      -4.160  -1.835 -32.913  1.00  0.00    -0.003 A 
HETATM   13  C   UNL     1      -4.685  -2.614 -33.962  1.00  0.00     0.078 A 
HETATM   14  C   UNL     1      -4.334  -3.966 -34.051  1.00  0.00     0.037 A 
HETATM   15  C   UNL     1      -3.454  -4.533 -33.124  1.00  0.00     0.003 A 
HETATM   16  C   UNL     1      -2.922  -3.757 -32.099  1.00  0.00     0.001 A 
HETATM   17  C   UNL     1      -3.276  -2.414 -31.990  1.00  0.00     0.014 A 
BRANCH  13  18
HETATM   18  O   UNL     1      -5.543  -1.978 -34.823  1.00  0.00    -0.355 OA
HETATM   19  C   UNL     1      -6.928  -2.262 -34.684  1.00  0.00     0.210 C 
ENDBRANCH  13  18
ENDBRANCH  11  12
ENDBRANCH   7  10
ENDBRANCH   5   6
ENDBRANCH   1   5
BRANCH   2  20
HETATM   20  N   UNL     1      -8.233   4.345 -33.064  1.00  0.00    -0.166 NA
HETATM   21  C   UNL     1      -8.937   3.390 -33.576  1.00  0.00     0.157 A 
HETATM   22  C   UNL     1      -8.573   1.911 -33.738  1.00  0.00     0.277 A 
HETATM   23  C   UNL     1     -10.261   3.544 -34.163  1.00  0.00     0.028 A 
HETATM   24  O   UNL     1      -7.535   1.405 -33.364  1.00  0.00    -0.266 OA
HETATM   25  N   UNL     1      -9.645   1.338 -34.389  1.00  0.00    -0.321 N 
HETATM   26  C   UNL     1     -10.633   2.288 -34.641  1.00  0.00     0.048 A 
HETATM   27  H   UNL     1      -9.686   0.362 -34.642  1.00  0.00     0.169 HD
HETATM   28  C   UNL     1     -11.843   2.095 -35.274  1.00  0.00     0.032 A 
HETATM   29  C   UNL     1     -12.681   3.210 -35.413  1.00  0.00     0.021 A 
HETATM   30  C   UNL     1     -12.291   4.475 -34.922  1.00  0.00     0.012 A 
HETATM   31 BR   UNL     1     -13.460   5.947 -35.132  1.00  0.00    -0.051 Br
HETATM   32  C   UNL     1     -11.064   4.659 -34.287  1.00  0.00     0.035 A 
ENDBRANCH   2  20
TORSDOF 6
ENDMDL
MODEL 10
REMARK VINA RESULT:      -8.1      2.557      5.114
REMARK  6 active torsions:
REMARK  status: ('A' for Active; 'I' for Inactive)
REMARK    1  A    between atoms: O_2  and  C_3 
REMARK    2  A    between atoms: C_4  and  C_5 
REMARK    3  A    between atoms: C_6  and  C_7 
REMARK       I    between atoms: C_7  and  N_8 
REMARK    4  A    between atoms: N_8  and  C_9 
REMARK    5  A    between atoms: C_9  and  C_10 
REMARK       I    between atoms: C_10  and  N_11 
REMARK    6  A    between atoms: N_11  and  N_12 
ROOT
HETATM    1  C   UNL     1      -4.592   0.548 -31.480  1.00  0.00     0.255 C 
HETATM    2  N   UNL     1      -4.786   1.862 -31.871  1.00  0.00    -0.245 N 
HETATM    3  O   UNL     1      -3.532   0.096 -31.045  1.00  0.00    -0.270 OA
HETATM    4  H   UNL     1      -5.695   2.150 -32.236  1.00  0.00     0.192 HD
ENDROOT
BRANCH   1   5
HETATM    5  C   UNL     1      -5.767  -0.375 -31.811  1.00  0.00     0.227 C 
BRANCH   5   6
HETATM    6  N   UNL     1      -6.891   0.249 -32.498  1.00  0.00    -0.349 N 
HETATM    7  C   UNL     1      -7.538  -0.414 -33.512  1.00  0.00     0.241 C 
HETATM    8  O   UNL     1      -7.330  -1.583 -33.802  1.00  0.00    -0.269 OA
HETATM    9  H   UNL     1      -7.059   1.235 -32.349  1.00  0.00     0.163 HD
BRANCH   7  10
HETATM   10  C   UNL     1      -8.482   0.448 -34.261  1.00  0.00     0.075 C 
HETATM   11  C   UNL     1      -9.419   1.135 -33.589  1.00  0.00     0.020 C 
BRANCH  11  12
HETATM   12  C   UNL     1     -10.407   1.975 -34.276  1.00  0.00    -0.003 A 
HETATM   13  C   UNL     1     -10.152   3.322 -34.597  1.00  0.00     0.078 A 
HETATM   14  C   UNL     1     -11.145   4.072 -35.237  1.00  0.00     0.037 A 
HETATM   15  C   UNL     1     -12.368   3.486 -35.577  1.00  0.00     0.003 A 
HETATM   16  C   UNL     1     -12.612   2.149 -35.275  1.00  0.00     0.001 A 
HETATM   17  C   UNL     1     -11.637   1.397 -34.623  1.00  0.00     0.014 A 
BRANCH  13  18
HETATM   18  O   UNL     1      -8.928   3.817 -34.224  1.00  0.00    -0.355 OA
HETATM   19  C   UNL     1      -8.855   5.203 -33.921  1.00  0.00     0.210 C 
ENDBRANCH  13  18
ENDBRANCH  11  12
ENDBRANCH   7  10
ENDBRANCH   5   6
ENDBRANCH   1   5
BRANCH   2  20
HETATM   20  N   UNL     1      -3.774   2.770 -31.753  1.00  0.00    -0.166 NA
HETATM   21  C   UNL     1      -3.782   3.765 -32.577  1.00  0.00     0.157 A 
HETATM   22  C   UNL     1      -4.757   4.058 -33.720  1.00  0.00     0.277 A 
HETATM   23  C   UNL     1      -2.794   4.836 -32.608  1.00  0.00     0.028 A 
HETATM   24  O   UNL     1      -5.720   3.376 -34.005  1.00  0.00    -0.266 OA
HETATM   25  N   UNL     1      -4.288   5.208 -34.319  1.00  0.00    -0.321 N 
HETATM   26  C   UNL     1      -3.141   5.666 -33.673  1.00  0.00     0.048 A 
HETATM   27  H   UNL     1      -4.729   5.640 -35.117  1.00  0.00     0.169 HD
HETATM   28  C   UNL     1      -2.389   6.779 -33.986  1.00  0.00     0.032 A 
HETATM   29  C   UNL     1      -1.267   7.041 -33.186  1.00  0.00     0.021 A 
HETATM   30  C   UNL     1      -0.931   6.194 -32.109  1.00  0.00     0.012 A 
HETATM   31 BR   UNL     1       0.591   6.594 -31.060  1.00  0.00    -0.051 Br
HETATM   32  C   UNL     1      -1.696   5.069 -31.805  1.00  0.00     0.035 A 
ENDBRANCH   2  20
TORSDOF 6
ENDMDL
