MODEL 1
REMARK VINA RESULT:      -9.4      0.000      0.000
REMARK  7 active torsions:
REMARK  status: ('A' for Active; 'I' for Inactive)
REMARK    1  A    between atoms: C_4  and  O_5 
REMARK    2  A    between atoms: O_5  and  C_6 
REMARK    3  A    between atoms: C_6  and  C_7 
REMARK       I    between atoms: C_7  and  N_8 
REMARK    4  A    between atoms: N_8  and  N_9 
REMARK       I    between atoms: N_9  and  C_10 
REMARK    5  A    between atoms: C_10  and  C_11 
REMARK    6  A    between atoms: C_13  and  C_14 
REMARK    7  A    between atoms: C_21  and  C_22 
ROOT
HETATM    1  N   UNL     1      -3.506   3.542 -33.234  1.00  0.00    -0.262 N 
HETATM    2  C   UNL     1      -3.492   2.581 -32.237  1.00  0.00     0.291 C 
HETATM    3  O   UNL     1      -2.776   2.677 -31.240  1.00  0.00    -0.264 OA
HETATM    4  H   UNL     1      -3.904   3.287 -34.137  1.00  0.00     0.190 HD
ENDROOT
BRANCH   2   5
HETATM    5  C   UNL     1      -4.415   1.484 -32.486  1.00  0.00     0.159 A 
HETATM    6  N   UNL     1      -4.004   0.267 -33.024  1.00  0.00    -0.216 NA
HETATM    7  C   UNL     1      -5.124  -0.418 -33.161  1.00  0.00     0.180 A 
HETATM    8  O   UNL     1      -6.236   0.237 -32.709  1.00  0.00    -0.293 OA
HETATM    9  C   UNL     1      -5.779   1.451 -32.273  1.00  0.00     0.094 A 
BRANCH   7  10
HETATM   10  C   UNL     1      -5.336  -1.741 -33.747  1.00  0.00     0.017 A 
HETATM   11  C   UNL     1      -6.601  -2.086 -34.245  1.00  0.00     0.016 A 
HETATM   12  C   UNL     1      -6.836  -3.354 -34.787  1.00  0.00     0.001 A 
HETATM   13  C   UNL     1      -5.808  -4.292 -34.836  1.00  0.00     0.000 A 
HETATM   14  C   UNL     1      -4.544  -3.964 -34.347  1.00  0.00     0.001 A 
HETATM   15  C   UNL     1      -4.310  -2.697 -33.808  1.00  0.00     0.016 A 
ENDBRANCH   7  10
BRANCH   9  16
HETATM   16  C   UNL     1      -6.661   2.523 -31.663  1.00  0.00     0.046 A 
HETATM   17  C   UNL     1      -8.001   2.103 -31.096  1.00  0.00     0.012 A 
HETATM   18  C   UNL     1      -6.896   2.471 -30.167  1.00  0.00     0.012 A 
ENDBRANCH   9  16
ENDBRANCH   2   5
BRANCH   1  19
HETATM   19  N   UNL     1      -2.493   4.521 -33.219  1.00  0.00    -0.265 N 
HETATM   20  C   UNL     1      -2.583   5.542 -34.159  1.00  0.00     0.260 C 
HETATM   21  O   UNL     1      -3.597   5.754 -34.818  1.00  0.00    -0.269 OA
HETATM   22  H   UNL     1      -1.573   4.165 -32.968  1.00  0.00     0.190 HD
BRANCH  20  23
HETATM   23  C   UNL     1      -1.293   6.360 -34.269  1.00  0.00     0.280 C 
BRANCH  23  24
HETATM   24  O   UNL     1      -1.477   7.652 -33.709  1.00  0.00    -0.342 OA
BRANCH  24  25
HETATM   25  C   UNL     1      -1.374   7.768 -32.351  1.00  0.00     0.069 A 
HETATM   26  C   UNL     1      -0.485   7.073 -31.527  1.00  0.00     0.043 A 
HETATM   27  C   UNL     1      -0.498   7.274 -30.136  1.00  0.00    -0.059 A 
HETATM   28  C   UNL     1       0.453   6.536 -29.239  1.00  0.00     0.048 C 
HETATM   29  C   UNL     1      -1.396   8.195 -29.584  1.00  0.00     0.007 A 
HETATM   30  C   UNL     1      -2.277   8.896 -30.404  1.00  0.00     0.003 A 
HETATM   31  C   UNL     1      -2.264   8.681 -31.782  1.00  0.00     0.037 A 
ENDBRANCH  24  25
ENDBRANCH  23  24
ENDBRANCH  20  23
ENDBRANCH   1  19
TORSDOF 7
ENDMDL
MODEL 2
REMARK VINA RESULT:      -9.3      0.352      1.219
REMARK  7 active torsions:
REMARK  status: ('A' for Active; 'I' for Inactive)
REMARK    1  A    between atoms: C_4  and  O_5 
REMARK    2  A    between atoms: O_5  and  C_6 
REMARK    3  A    between atoms: C_6  and  C_7 
REMARK       I    between atoms: C_7  and  N_8 
REMARK    4  A    between atoms: N_8  and  N_9 
REMARK       I    between atoms: N_9  and  C_10 
REMARK    5  A    between atoms: C_10  and  C_11 
REMARK    6  A    between atoms: C_13  and  C_14 
REMARK    7  A    between atoms: C_21  and  C_22 
ROOT
HETATM    1  N   UNL     1      -3.544   3.486 -33.290  1.00  0.00    -0.262 N 
HETATM    2  C   UNL     1      -3.539   2.540 -32.278  1.00  0.00     0.291 C 
HETATM    3  O   UNL     1      -2.839   2.655 -31.272  1.00  0.00    -0.264 OA
HETATM    4  H   UNL     1      -3.928   3.215 -34.195  1.00  0.00     0.190 HD
ENDROOT
BRANCH   2   5
HETATM    5  C   UNL     1      -4.451   1.433 -32.525  1.00  0.00     0.159 A 
HETATM    6  N   UNL     1      -4.026   0.213 -33.046  1.00  0.00    -0.216 NA
HETATM    7  C   UNL     1      -5.140  -0.482 -33.187  1.00  0.00     0.180 A 
HETATM    8  O   UNL     1      -6.261   0.170 -32.752  1.00  0.00    -0.293 OA
HETATM    9  C   UNL     1      -5.817   1.391 -32.325  1.00  0.00     0.094 A 
BRANCH   7  10
HETATM   10  C   UNL     1      -5.336  -1.811 -33.762  1.00  0.00     0.017 A 
HETATM   11  C   UNL     1      -6.592  -2.170 -34.273  1.00  0.00     0.016 A 
HETATM   12  C   UNL     1      -6.812  -3.445 -34.804  1.00  0.00     0.001 A 
HETATM   13  C   UNL     1      -5.778  -4.377 -34.830  1.00  0.00     0.000 A 
HETATM   14  C   UNL     1      -4.523  -4.036 -34.328  1.00  0.00     0.001 A 
HETATM   15  C   UNL     1      -4.304  -2.762 -33.799  1.00  0.00     0.016 A 
ENDBRANCH   7  10
BRANCH   9  16
HETATM   16  C   UNL     1      -6.713   2.463 -31.733  1.00  0.00     0.046 A 
HETATM   17  C   UNL     1      -8.030   2.031 -31.124  1.00  0.00     0.012 A 
HETATM   18  C   UNL     1      -6.917   2.457 -30.232  1.00  0.00     0.012 A 
ENDBRANCH   9  16
ENDBRANCH   2   5
BRANCH   1  19
HETATM   19  N   UNL     1      -2.538   4.471 -33.274  1.00  0.00    -0.265 N 
HETATM   20  C   UNL     1      -2.604   5.462 -34.248  1.00  0.00     0.260 C 
HETATM   21  O   UNL     1      -3.599   5.647 -34.944  1.00  0.00    -0.269 OA
HETATM   22  H   UNL     1      -1.624   4.130 -32.984  1.00  0.00     0.190 HD
BRANCH  20  23
HETATM   23  C   UNL     1      -1.317   6.285 -34.343  1.00  0.00     0.280 C 
BRANCH  23  24
HETATM   24  O   UNL     1      -1.517   7.582 -33.802  1.00  0.00    -0.342 OA
BRANCH  24  25
HETATM   25  C   UNL     1      -1.388   7.724 -32.449  1.00  0.00     0.069 A 
HETATM   26  C   UNL     1      -2.171   8.534 -31.624  1.00  0.00     0.043 A 
HETATM   27  C   UNL     1      -1.917   8.603 -30.243  1.00  0.00    -0.059 A 
HETATM   28  C   UNL     1      -2.752   9.468 -29.345  1.00  0.00     0.048 C 
HETATM   29  C   UNL     1      -0.883   7.833 -29.697  1.00  0.00     0.007 A 
HETATM   30  C   UNL     1      -0.106   7.016 -30.516  1.00  0.00     0.003 A 
HETATM   31  C   UNL     1      -0.359   6.965 -31.886  1.00  0.00     0.037 A 
ENDBRANCH  24  25
ENDBRANCH  23  24
ENDBRANCH  20  23
ENDBRANCH   1  19
TORSDOF 7
ENDMDL
MODEL 3
REMARK VINA RESULT:      -8.9      1.139      1.608
REMARK  7 active torsions:
REMARK  status: ('A' for Active; 'I' for Inactive)
REMARK    1  A    between atoms: C_4  and  O_5 
REMARK    2  A    between atoms: O_5  and  C_6 
REMARK    3  A    between atoms: C_6  and  C_7 
REMARK       I    between atoms: C_7  and  N_8 
REMARK    4  A    between atoms: N_8  and  N_9 
REMARK       I    between atoms: N_9  and  C_10 
REMARK    5  A    between atoms: C_10  and  C_11 
REMARK    6  A    between atoms: C_13  and  C_14 
REMARK    7  A    between atoms: C_21  and  C_22 
ROOT
HETATM    1  N   UNL     1      -4.794   3.841 -33.404  1.00  0.00    -0.262 N 
HETATM    2  C   UNL     1      -4.956   3.003 -32.314  1.00  0.00     0.291 C 
HETATM    3  O   UNL     1      -4.570   3.307 -31.186  1.00  0.00    -0.264 OA
HETATM    4  H   UNL     1      -4.887   3.437 -34.335  1.00  0.00     0.190 HD
ENDROOT
BRANCH   2   5
HETATM    5  C   UNL     1      -5.639   1.760 -32.644  1.00  0.00     0.159 A 
HETATM    6  N   UNL     1      -4.956   0.604 -33.010  1.00  0.00    -0.216 NA
HETATM    7  C   UNL     1      -5.914  -0.259 -33.296  1.00  0.00     0.180 A 
HETATM    8  O   UNL     1      -7.177   0.227 -33.099  1.00  0.00    -0.293 OA
HETATM    9  C   UNL     1      -6.998   1.516 -32.677  1.00  0.00     0.094 A 
BRANCH   7  10
HETATM   10  C   UNL     1      -5.809  -1.622 -33.813  1.00  0.00     0.017 A 
HETATM   11  C   UNL     1      -4.559  -2.258 -33.851  1.00  0.00     0.016 A 
HETATM   12  C   UNL     1      -4.429  -3.552 -34.365  1.00  0.00     0.001 A 
HETATM   13  C   UNL     1      -5.548  -4.225 -34.850  1.00  0.00     0.000 A 
HETATM   14  C   UNL     1      -6.797  -3.608 -34.818  1.00  0.00     0.001 A 
HETATM   15  C   UNL     1      -6.927  -2.316 -34.302  1.00  0.00     0.016 A 
ENDBRANCH   7  10
BRANCH   9  16
HETATM   16  C   UNL     1      -8.131   2.457 -32.314  1.00  0.00     0.046 A 
HETATM   17  C   UNL     1      -9.354   1.870 -31.640  1.00  0.00     0.012 A 
HETATM   18  C   UNL     1      -8.403   2.692 -30.841  1.00  0.00     0.012 A 
ENDBRANCH   9  16
ENDBRANCH   2   5
BRANCH   1  19
HETATM   19  N   UNL     1      -3.945   4.955 -33.256  1.00  0.00    -0.265 N 
HETATM   20  C   UNL     1      -3.480   5.559 -34.420  1.00  0.00     0.260 C 
HETATM   21  O   UNL     1      -3.954   5.322 -35.528  1.00  0.00    -0.269 OA
HETATM   22  H   UNL     1      -3.325   4.904 -32.450  1.00  0.00     0.190 HD
BRANCH  20  23
HETATM   23  C   UNL     1      -2.335   6.541 -34.161  1.00  0.00     0.280 C 
BRANCH  23  24
HETATM   24  O   UNL     1      -1.198   5.853 -33.661  1.00  0.00    -0.342 OA
BRANCH  24  25
HETATM   25  C   UNL     1      -0.817   6.122 -32.376  1.00  0.00     0.069 A 
HETATM   26  C   UNL     1      -0.086   5.278 -31.536  1.00  0.00     0.043 A 
HETATM   27  C   UNL     1       0.223   5.673 -30.223  1.00  0.00    -0.059 A 
HETATM   28  C   UNL     1       1.009   4.777 -29.311  1.00  0.00     0.048 C 
HETATM   29  C   UNL     1      -0.189   6.931 -29.770  1.00  0.00     0.007 A 
HETATM   30  C   UNL     1      -0.910   7.780 -30.609  1.00  0.00     0.003 A 
HETATM   31  C   UNL     1      -1.221   7.373 -31.905  1.00  0.00     0.037 A 
ENDBRANCH  24  25
ENDBRANCH  23  24
ENDBRANCH  20  23
ENDBRANCH   1  19
TORSDOF 7
ENDMDL
MODEL 4
REMARK VINA RESULT:      -8.8      1.522      1.884
REMARK  7 active torsions:
REMARK  status: ('A' for Active; 'I' for Inactive)
REMARK    1  A    between atoms: C_4  and  O_5 
REMARK    2  A    between atoms: O_5  and  C_6 
REMARK    3  A    between atoms: C_6  and  C_7 
REMARK       I    between atoms: C_7  and  N_8 
REMARK    4  A    between atoms: N_8  and  N_9 
REMARK       I    between atoms: N_9  and  C_10 
REMARK    5  A    between atoms: C_10  and  C_11 
REMARK    6  A    between atoms: C_13  and  C_14 
REMARK    7  A    between atoms: C_21  and  C_22 
ROOT
HETATM    1  N   UNL     1      -3.290   3.015 -32.659  1.00  0.00    -0.262 N 
HETATM    2  C   UNL     1      -4.365   2.504 -31.951  1.00  0.00     0.291 C 
HETATM    3  O   UNL     1      -4.671   2.914 -30.832  1.00  0.00    -0.264 OA
HETATM    4  H   UNL     1      -2.931   2.469 -33.441  1.00  0.00     0.190 HD
ENDROOT
BRANCH   2   5
HETATM    5  C   UNL     1      -5.086   1.467 -32.674  1.00  0.00     0.159 A 
HETATM    6  N   UNL     1      -4.673   0.137 -32.687  1.00  0.00    -0.216 NA
HETATM    7  C   UNL     1      -5.530  -0.458 -33.496  1.00  0.00     0.180 A 
HETATM    8  O   UNL     1      -6.506   0.370 -33.979  1.00  0.00    -0.293 OA
HETATM    9  C   UNL     1      -6.223   1.599 -33.447  1.00  0.00     0.094 A 
BRANCH   7  10
HETATM   10  C   UNL     1      -5.557  -1.843 -33.961  1.00  0.00     0.017 A 
HETATM   11  C   UNL     1      -6.758  -2.396 -34.430  1.00  0.00     0.016 A 
HETATM   12  C   UNL     1      -6.816  -3.727 -34.856  1.00  0.00     0.001 A 
HETATM   13  C   UNL     1      -5.673  -4.522 -34.817  1.00  0.00     0.000 A 
HETATM   14  C   UNL     1      -4.471  -3.987 -34.356  1.00  0.00     0.001 A 
HETATM   15  C   UNL     1      -4.414  -2.657 -33.932  1.00  0.00     0.016 A 
ENDBRANCH   7  10
BRANCH   9  16
HETATM   16  C   UNL     1      -7.055   2.843 -33.691  1.00  0.00     0.046 A 
HETATM   17  C   UNL     1      -8.542   2.671 -33.915  1.00  0.00     0.012 A 
HETATM   18  C   UNL     1      -8.057   3.237 -32.625  1.00  0.00     0.012 A 
ENDBRANCH   9  16
ENDBRANCH   2   5
BRANCH   1  19
HETATM   19  N   UNL     1      -2.385   3.847 -31.972  1.00  0.00    -0.265 N 
HETATM   20  C   UNL     1      -1.702   4.800 -32.722  1.00  0.00     0.260 C 
HETATM   21  O   UNL     1      -2.022   5.096 -33.871  1.00  0.00    -0.269 OA
HETATM   22  H   UNL     1      -1.901   3.391 -31.202  1.00  0.00     0.190 HD
BRANCH  20  23
HETATM   23  C   UNL     1      -0.533   5.426 -31.959  1.00  0.00     0.280 C 
BRANCH  23  24
HETATM   24  O   UNL     1      -0.732   5.300 -30.559  1.00  0.00    -0.342 OA
BRANCH  24  25
HETATM   25  C   UNL     1      -0.663   6.441 -29.810  1.00  0.00     0.069 A 
HETATM   26  C   UNL     1       0.468   6.935 -29.156  1.00  0.00     0.043 A 
HETATM   27  C   UNL     1       0.395   8.117 -28.399  1.00  0.00    -0.059 A 
HETATM   28  C   UNL     1       1.603   8.659 -27.693  1.00  0.00     0.048 C 
HETATM   29  C   UNL     1      -0.820   8.809 -28.323  1.00  0.00     0.007 A 
HETATM   30  C   UNL     1      -1.948   8.324 -28.982  1.00  0.00     0.003 A 
HETATM   31  C   UNL     1      -1.867   7.144 -29.720  1.00  0.00     0.037 A 
ENDBRANCH  24  25
ENDBRANCH  23  24
ENDBRANCH  20  23
ENDBRANCH   1  19
TORSDOF 7
ENDMDL
MODEL 5
REMARK VINA RESULT:      -8.7      4.222      8.293
REMARK  7 active torsions:
REMARK  status: ('A' for Active; 'I' for Inactive)
REMARK    1  A    between atoms: C_4  and  O_5 
REMARK    2  A    between atoms: O_5  and  C_6 
REMARK    3  A    between atoms: C_6  and  C_7 
REMARK       I    between atoms: C_7  and  N_8 
REMARK    4  A    between atoms: N_8  and  N_9 
REMARK       I    between atoms: N_9  and  C_10 
REMARK    5  A    between atoms: C_10  and  C_11 
REMARK    6  A    between atoms: C_13  and  C_14 
REMARK    7  A    between atoms: C_21  and  C_22 
ROOT
HETATM    1  N   UNL     1      -8.382   2.472 -33.566  1.00  0.00    -0.262 N 
HETATM    2  C   UNL     1      -7.038   2.596 -33.875  1.00  0.00     0.291 C 
HETATM    3  O   UNL     1      -6.546   3.656 -34.262  1.00  0.00    -0.264 OA
HETATM    4  H   UNL     1      -8.774   1.533 -33.511  1.00  0.00     0.190 HD
ENDROOT
BRANCH   2   5
HETATM    5  C   UNL     1      -6.288   1.365 -33.673  1.00  0.00     0.159 A 
HETATM    6  N   UNL     1      -6.547   0.202 -34.394  1.00  0.00    -0.216 NA
HETATM    7  C   UNL     1      -5.722  -0.688 -33.875  1.00  0.00     0.180 A 
HETATM    8  O   UNL     1      -4.905  -0.188 -32.899  1.00  0.00    -0.293 OA
HETATM    9  C   UNL     1      -5.265   1.126 -32.776  1.00  0.00     0.094 A 
BRANCH   7  10
HETATM   10  C   UNL     1      -5.590  -2.113 -34.173  1.00  0.00     0.017 A 
HETATM   11  C   UNL     1      -6.692  -2.826 -34.668  1.00  0.00     0.016 A 
HETATM   12  C   UNL     1      -6.598  -4.195 -34.937  1.00  0.00     0.001 A 
HETATM   13  C   UNL     1      -5.401  -4.869 -34.712  1.00  0.00     0.000 A 
HETATM   14  C   UNL     1      -4.296  -4.176 -34.222  1.00  0.00     0.001 A 
HETATM   15  C   UNL     1      -4.390  -2.807 -33.955  1.00  0.00     0.016 A 
ENDBRANCH   7  10
BRANCH   9  16
HETATM   16  C   UNL     1      -4.611   2.101 -31.815  1.00  0.00     0.046 A 
HETATM   17  C   UNL     1      -3.219   1.779 -31.314  1.00  0.00     0.012 A 
HETATM   18  C   UNL     1      -3.404   2.871 -32.310  1.00  0.00     0.012 A 
ENDBRANCH   9  16
ENDBRANCH   2   5
BRANCH   1  19
HETATM   19  N   UNL     1      -9.243   3.520 -33.945  1.00  0.00    -0.265 N 
HETATM   20  C   UNL     1     -10.186   3.936 -33.010  1.00  0.00     0.260 C 
HETATM   21  O   UNL     1     -10.142   3.607 -31.828  1.00  0.00    -0.269 OA
HETATM   22  H   UNL     1      -9.499   3.515 -34.930  1.00  0.00     0.190 HD
BRANCH  20  23
HETATM   23  C   UNL     1     -11.260   4.842 -33.617  1.00  0.00     0.280 C 
BRANCH  23  24
HETATM   24  O   UNL     1     -11.973   4.152 -34.633  1.00  0.00    -0.342 OA
BRANCH  24  25
HETATM   25  C   UNL     1     -12.806   3.143 -34.240  1.00  0.00     0.069 A 
HETATM   26  C   UNL     1     -13.807   3.227 -33.269  1.00  0.00     0.043 A 
HETATM   27  C   UNL     1     -14.583   2.100 -32.947  1.00  0.00    -0.059 A 
HETATM   28  C   UNL     1     -15.662   2.177 -31.907  1.00  0.00     0.048 C 
HETATM   29  C   UNL     1     -14.359   0.896 -33.623  1.00  0.00     0.007 A 
HETATM   30  C   UNL     1     -13.368   0.812 -34.600  1.00  0.00     0.003 A 
HETATM   31  C   UNL     1     -12.596   1.932 -34.904  1.00  0.00     0.037 A 
ENDBRANCH  24  25
ENDBRANCH  23  24
ENDBRANCH  20  23
ENDBRANCH   1  19
TORSDOF 7
ENDMDL
MODEL 6
REMARK VINA RESULT:      -8.7      1.897      2.443
REMARK  7 active torsions:
REMARK  status: ('A' for Active; 'I' for Inactive)
REMARK    1  A    between atoms: C_4  and  O_5 
REMARK    2  A    between atoms: O_5  and  C_6 
REMARK    3  A    between atoms: C_6  and  C_7 
REMARK       I    between atoms: C_7  and  N_8 
REMARK    4  A    between atoms: N_8  and  N_9 
REMARK       I    between atoms: N_9  and  C_10 
REMARK    5  A    between atoms: C_10  and  C_11 
REMARK    6  A    between atoms: C_13  and  C_14 
REMARK    7  A    between atoms: C_21  and  C_22 
ROOT
HETATM    1  N   UNL     1      -4.830   2.733 -31.010  1.00  0.00    -0.262 N 
HETATM    2  C   UNL     1      -4.258   2.294 -32.193  1.00  0.00     0.291 C 
HETATM    3  O   UNL     1      -3.214   2.772 -32.637  1.00  0.00    -0.264 OA
HETATM    4  H   UNL     1      -5.805   2.496 -30.835  1.00  0.00     0.190 HD
ENDROOT
BRANCH   2   5
HETATM    5  C   UNL     1      -5.002   1.213 -32.822  1.00  0.00     0.159 A 
HETATM    6  N   UNL     1      -4.534  -0.098 -32.858  1.00  0.00    -0.216 NA
HETATM    7  C   UNL     1      -5.441  -0.744 -33.566  1.00  0.00     0.180 A 
HETATM    8  O   UNL     1      -6.497   0.031 -33.958  1.00  0.00    -0.293 OA
HETATM    9  C   UNL     1      -6.216   1.281 -33.477  1.00  0.00     0.094 A 
BRANCH   7  10
HETATM   10  C   UNL     1      -5.454  -2.138 -34.005  1.00  0.00     0.017 A 
HETATM   11  C   UNL     1      -6.610  -2.672 -34.593  1.00  0.00     0.016 A 
HETATM   12  C   UNL     1      -6.656  -4.010 -34.997  1.00  0.00     0.001 A 
HETATM   13  C   UNL     1      -5.546  -4.831 -34.817  1.00  0.00     0.000 A 
HETATM   14  C   UNL     1      -4.389  -4.316 -34.236  1.00  0.00     0.001 A 
HETATM   15  C   UNL     1      -4.343  -2.979 -33.834  1.00  0.00     0.016 A 
ENDBRANCH   7  10
BRANCH   9  16
HETATM   16  C   UNL     1      -7.123   2.484 -33.653  1.00  0.00     0.046 A 
HETATM   17  C   UNL     1      -8.549   2.240 -34.099  1.00  0.00     0.012 A 
HETATM   18  C   UNL     1      -8.282   2.636 -32.688  1.00  0.00     0.012 A 
ENDBRANCH   9  16
ENDBRANCH   2   5
BRANCH   1  19
HETATM   19  N   UNL     1      -4.334   3.922 -30.442  1.00  0.00    -0.265 N 
HETATM   20  C   UNL     1      -5.067   5.085 -30.660  1.00  0.00     0.260 C 
HETATM   21  O   UNL     1      -6.212   5.077 -31.105  1.00  0.00    -0.269 OA
HETATM   22  H   UNL     1      -3.318   3.981 -30.418  1.00  0.00     0.190 HD
BRANCH  20  23
HETATM   23  C   UNL     1      -4.294   6.351 -30.281  1.00  0.00     0.280 C 
BRANCH  23  24
HETATM   24  O   UNL     1      -3.342   6.669 -31.286  1.00  0.00    -0.342 OA
BRANCH  24  25
HETATM   25  C   UNL     1      -2.021   6.557 -30.955  1.00  0.00     0.069 A 
HETATM   26  C   UNL     1      -1.352   7.276 -29.962  1.00  0.00     0.043 A 
HETATM   27  C   UNL     1       0.020   7.076 -29.738  1.00  0.00    -0.059 A 
HETATM   28  C   UNL     1       0.750   7.841 -28.673  1.00  0.00     0.048 C 
HETATM   29  C   UNL     1       0.711   6.132 -30.508  1.00  0.00     0.007 A 
HETATM   30  C   UNL     1       0.045   5.406 -31.493  1.00  0.00     0.003 A 
HETATM   31  C   UNL     1      -1.315   5.621 -31.714  1.00  0.00     0.037 A 
ENDBRANCH  24  25
ENDBRANCH  23  24
ENDBRANCH  20  23
ENDBRANCH   1  19
TORSDOF 7
ENDMDL
MODEL 7
REMARK VINA RESULT:      -8.4      1.845      2.323
REMARK  7 active torsions:
REMARK  status: ('A' for Active; 'I' for Inactive)
REMARK    1  A    between atoms: C_4  and  O_5 
REMARK    2  A    between atoms: O_5  and  C_6 
REMARK    3  A    between atoms: C_6  and  C_7 
REMARK       I    between atoms: C_7  and  N_8 
REMARK    4  A    between atoms: N_8  and  N_9 
REMARK       I    between atoms: N_9  and  C_10 
REMARK    5  A    between atoms: C_10  and  C_11 
REMARK    6  A    between atoms: C_13  and  C_14 
REMARK    7  A    between atoms: C_21  and  C_22 
ROOT
HETATM    1  N   UNL     1      -2.876   3.554 -31.313  1.00  0.00    -0.262 N 
HETATM    2  C   UNL     1      -4.158   3.869 -31.732  1.00  0.00     0.291 C 
HETATM    3  O   UNL     1      -4.550   5.031 -31.836  1.00  0.00    -0.264 OA
HETATM    4  H   UNL     1      -2.698   2.602 -30.996  1.00  0.00     0.190 HD
ENDROOT
BRANCH   2   5
HETATM    5  C   UNL     1      -4.961   2.697 -32.049  1.00  0.00     0.159 A 
HETATM    6  N   UNL     1      -4.421   1.554 -32.633  1.00  0.00    -0.216 NA
HETATM    7  C   UNL     1      -5.463   0.767 -32.824  1.00  0.00     0.180 A 
HETATM    8  O   UNL     1      -6.643   1.285 -32.365  1.00  0.00    -0.293 OA
HETATM    9  C   UNL     1      -6.318   2.517 -31.866  1.00  0.00     0.094 A 
BRANCH   7  10
HETATM   10  C   UNL     1      -5.531  -0.540 -33.474  1.00  0.00     0.017 A 
HETATM   11  C   UNL     1      -6.761  -1.016 -33.953  1.00  0.00     0.016 A 
HETATM   12  C   UNL     1      -6.856  -2.275 -34.555  1.00  0.00     0.001 A 
HETATM   13  C   UNL     1      -5.723  -3.074 -34.684  1.00  0.00     0.000 A 
HETATM   14  C   UNL     1      -4.493  -2.616 -34.214  1.00  0.00     0.001 A 
HETATM   15  C   UNL     1      -4.398  -1.357 -33.614  1.00  0.00     0.016 A 
ENDBRANCH   7  10
BRANCH   9  16
HETATM   16  C   UNL     1      -7.313   3.465 -31.225  1.00  0.00     0.046 A 
HETATM   17  C   UNL     1      -8.613   2.887 -30.707  1.00  0.00     0.012 A 
HETATM   18  C   UNL     1      -7.567   3.317 -29.739  1.00  0.00     0.012 A 
ENDBRANCH   9  16
ENDBRANCH   2   5
BRANCH   1  19
HETATM   19  N   UNL     1      -2.094   4.585 -30.758  1.00  0.00    -0.265 N 
HETATM   20  C   UNL     1      -1.118   5.151 -31.573  1.00  0.00     0.260 C 
HETATM   21  O   UNL     1      -1.073   4.964 -32.786  1.00  0.00    -0.269 OA
HETATM   22  H   UNL     1      -1.898   4.473 -29.765  1.00  0.00     0.190 HD
BRANCH  20  23
HETATM   23  C   UNL     1      -0.130   6.023 -30.794  1.00  0.00     0.280 C 
BRANCH  23  24
HETATM   24  O   UNL     1      -0.654   7.331 -30.621  1.00  0.00    -0.342 OA
BRANCH  24  25
HETATM   25  C   UNL     1      -0.420   7.947 -29.423  1.00  0.00     0.069 A 
HETATM   26  C   UNL     1       0.678   7.738 -28.585  1.00  0.00     0.043 A 
HETATM   27  C   UNL     1       0.785   8.428 -27.366  1.00  0.00    -0.059 A 
HETATM   28  C   UNL     1       1.960   8.214 -26.457  1.00  0.00     0.048 C 
HETATM   29  C   UNL     1      -0.209   9.345 -27.006  1.00  0.00     0.007 A 
HETATM   30  C   UNL     1      -1.301   9.564 -27.844  1.00  0.00     0.003 A 
HETATM   31  C   UNL     1      -1.404   8.865 -29.047  1.00  0.00     0.037 A 
ENDBRANCH  24  25
ENDBRANCH  23  24
ENDBRANCH  20  23
ENDBRANCH   1  19
TORSDOF 7
ENDMDL
MODEL 8
REMARK VINA RESULT:      -8.2      4.997      9.111
REMARK  7 active torsions:
REMARK  status: ('A' for Active; 'I' for Inactive)
REMARK    1  A    between atoms: C_4  and  O_5 
REMARK    2  A    between atoms: O_5  and  C_6 
REMARK    3  A    between atoms: C_6  and  C_7 
REMARK       I    between atoms: C_7  and  N_8 
REMARK    4  A    between atoms: N_8  and  N_9 
REMARK       I    between atoms: N_9  and  C_10 
REMARK    5  A    between atoms: C_10  and  C_11 
REMARK    6  A    between atoms: C_13  and  C_14 
REMARK    7  A    between atoms: C_21  and  C_22 
ROOT
HETATM    1  N   UNL     1      -9.178   1.510 -32.189  1.00  0.00    -0.262 N 
HETATM    2  C   UNL     1      -8.049   2.007 -32.818  1.00  0.00     0.291 C 
HETATM    3  O   UNL     1      -7.948   3.187 -33.155  1.00  0.00    -0.264 OA
HETATM    4  H   UNL     1      -9.312   0.500 -32.177  1.00  0.00     0.190 HD
ENDROOT
BRANCH   2   5
HETATM    5  C   UNL     1      -7.012   1.004 -33.010  1.00  0.00     0.159 A 
HETATM    6  N   UNL     1      -7.246  -0.200 -33.667  1.00  0.00    -0.216 NA
HETATM    7  C   UNL     1      -6.101  -0.849 -33.568  1.00  0.00     0.180 A 
HETATM    8  O   UNL     1      -5.114  -0.143 -32.937  1.00  0.00    -0.293 OA
HETATM    9  C   UNL     1      -5.698   1.044 -32.586  1.00  0.00     0.094 A 
BRANCH   7  10
HETATM   10  C   UNL     1      -5.762  -2.203 -34.004  1.00  0.00     0.017 A 
HETATM   11  C   UNL     1      -6.743  -3.008 -34.600  1.00  0.00     0.016 A 
HETATM   12  C   UNL     1      -6.451  -4.315 -35.001  1.00  0.00     0.001 A 
HETATM   13  C   UNL     1      -5.172  -4.834 -34.810  1.00  0.00     0.000 A 
HETATM   14  C   UNL     1      -4.185  -4.046 -34.221  1.00  0.00     0.001 A 
HETATM   15  C   UNL     1      -4.478  -2.739 -33.822  1.00  0.00     0.016 A 
ENDBRANCH   7  10
BRANCH   9  16
HETATM   16  C   UNL     1      -4.974   2.168 -31.870  1.00  0.00     0.046 A 
HETATM   17  C   UNL     1      -3.465   2.223 -31.976  1.00  0.00     0.012 A 
HETATM   18  C   UNL     1      -4.287   3.215 -32.723  1.00  0.00     0.012 A 
ENDBRANCH   9  16
ENDBRANCH   2   5
BRANCH   1  19
HETATM   19  N   UNL     1     -10.328   2.322 -32.164  1.00  0.00    -0.265 N 
HETATM   20  C   UNL     1     -11.295   2.084 -33.137  1.00  0.00     0.260 C 
HETATM   21  O   UNL     1     -11.300   1.076 -33.838  1.00  0.00    -0.269 OA
HETATM   22  H   UNL     1     -10.156   3.281 -31.870  1.00  0.00     0.190 HD
BRANCH  20  23
HETATM   23  C   UNL     1     -12.336   3.204 -33.222  1.00  0.00     0.280 C 
BRANCH  23  24
HETATM   24  O   UNL     1     -13.006   3.352 -31.979  1.00  0.00    -0.342 OA
BRANCH  24  25
HETATM   25  C   UNL     1     -14.369   3.453 -32.009  1.00  0.00     0.069 A 
HETATM   26  C   UNL     1     -15.118   4.611 -31.789  1.00  0.00     0.043 A 
HETATM   27  C   UNL     1     -16.522   4.571 -31.831  1.00  0.00    -0.059 A 
HETATM   28  C   UNL     1     -17.338   5.808 -31.598  1.00  0.00     0.048 C 
HETATM   29  C   UNL     1     -17.165   3.361 -32.115  1.00  0.00     0.007 A 
HETATM   30  C   UNL     1     -16.421   2.206 -32.345  1.00  0.00     0.003 A 
HETATM   31  C   UNL     1     -15.029   2.254 -32.290  1.00  0.00     0.037 A 
ENDBRANCH  24  25
ENDBRANCH  23  24
ENDBRANCH  20  23
ENDBRANCH   1  19
TORSDOF 7
ENDMDL
MODEL 9
REMARK VINA RESULT:      -8.0      3.189      4.684
REMARK  7 active torsions:
REMARK  status: ('A' for Active; 'I' for Inactive)
REMARK    1  A    between atoms: C_4  and  O_5 
REMARK    2  A    between atoms: O_5  and  C_6 
REMARK    3  A    between atoms: C_6  and  C_7 
REMARK       I    between atoms: C_7  and  N_8 
REMARK    4  A    between atoms: N_8  and  N_9 
REMARK       I    between atoms: N_9  and  C_10 
REMARK    5  A    between atoms: C_10  and  C_11 
REMARK    6  A    between atoms: C_13  and  C_14 
REMARK    7  A    between atoms: C_21  and  C_22 
ROOT
HETATM    1  N   UNL     1      -6.166   4.221 -33.425  1.00  0.00    -0.262 N 
HETATM    2  C   UNL     1      -6.192   2.877 -33.092  1.00  0.00     0.291 C 
HETATM    3  O   UNL     1      -5.323   2.353 -32.396  1.00  0.00    -0.264 OA
HETATM    4  H   UNL     1      -6.747   4.532 -34.202  1.00  0.00     0.190 HD
ENDROOT
BRANCH   2   5
HETATM    5  C   UNL     1      -7.350   2.177 -33.629  1.00  0.00     0.159 A 
HETATM    6  N   UNL     1      -8.633   2.717 -33.598  1.00  0.00    -0.216 NA
HETATM    7  C   UNL     1      -9.395   1.764 -34.102  1.00  0.00     0.180 A 
HETATM    8  O   UNL     1      -8.705   0.655 -34.507  1.00  0.00    -0.293 OA
HETATM    9  C   UNL     1      -7.397   0.924 -34.208  1.00  0.00     0.094 A 
BRANCH   7  10
HETATM   10  C   UNL     1     -10.849   1.722 -34.251  1.00  0.00     0.017 A 
HETATM   11  C   UNL     1     -11.503   2.727 -34.979  1.00  0.00     0.016 A 
HETATM   12  C   UNL     1     -12.895   2.723 -35.114  1.00  0.00     0.001 A 
HETATM   13  C   UNL     1     -13.650   1.714 -34.523  1.00  0.00     0.000 A 
HETATM   14  C   UNL     1     -13.016   0.706 -33.799  1.00  0.00     0.001 A 
HETATM   15  C   UNL     1     -11.625   0.710 -33.665  1.00  0.00     0.016 A 
ENDBRANCH   7  10
BRANCH   9  16
HETATM   16  C   UNL     1      -6.247  -0.021 -34.498  1.00  0.00     0.046 A 
HETATM   17  C   UNL     1      -5.881  -1.041 -33.440  1.00  0.00     0.012 A 
HETATM   18  C   UNL     1      -6.574  -1.489 -34.680  1.00  0.00     0.012 A 
ENDBRANCH   9  16
ENDBRANCH   2   5
BRANCH   1  19
HETATM   19  N   UNL     1      -4.983   4.940 -33.164  1.00  0.00    -0.265 N 
HETATM   20  C   UNL     1      -4.155   5.215 -34.248  1.00  0.00     0.260 C 
HETATM   21  O   UNL     1      -4.515   5.076 -35.413  1.00  0.00    -0.269 OA
HETATM   22  H   UNL     1      -4.558   4.731 -32.263  1.00  0.00     0.190 HD
BRANCH  20  23
HETATM   23  C   UNL     1      -2.770   5.709 -33.823  1.00  0.00     0.280 C 
BRANCH  23  24
HETATM   24  O   UNL     1      -2.869   6.521 -32.662  1.00  0.00    -0.342 OA
BRANCH  24  25
HETATM   25  C   UNL     1      -1.801   6.529 -31.809  1.00  0.00     0.069 A 
HETATM   26  C   UNL     1      -0.765   5.592 -31.771  1.00  0.00     0.043 A 
HETATM   27  C   UNL     1       0.267   5.710 -30.825  1.00  0.00    -0.059 A 
HETATM   28  C   UNL     1       1.386   4.711 -30.774  1.00  0.00     0.048 C 
HETATM   29  C   UNL     1       0.261   6.788 -29.933  1.00  0.00     0.007 A 
HETATM   30  C   UNL     1      -0.765   7.730 -29.975  1.00  0.00     0.003 A 
HETATM   31  C   UNL     1      -1.791   7.598 -30.909  1.00  0.00     0.037 A 
ENDBRANCH  24  25
ENDBRANCH  23  24
ENDBRANCH  20  23
ENDBRANCH   1  19
TORSDOF 7
ENDMDL
MODEL 10
REMARK VINA RESULT:      -8.0      2.446     10.160
REMARK  7 active torsions:
REMARK  status: ('A' for Active; 'I' for Inactive)
REMARK    1  A    between atoms: C_4  and  O_5 
REMARK    2  A    between atoms: O_5  and  C_6 
REMARK    3  A    between atoms: C_6  and  C_7 
REMARK       I    between atoms: C_7  and  N_8 
REMARK    4  A    between atoms: N_8  and  N_9 
REMARK       I    between atoms: N_9  and  C_10 
REMARK    5  A    between atoms: C_10  and  C_11 
REMARK    6  A    between atoms: C_13  and  C_14 
REMARK    7  A    between atoms: C_21  and  C_22 
ROOT
HETATM    1  N   UNL     1      -2.543   4.529 -30.773  1.00  0.00    -0.262 N 
HETATM    2  C   UNL     1      -1.579   5.350 -31.337  1.00  0.00     0.291 C 
HETATM    3  O   UNL     1      -1.063   5.107 -32.427  1.00  0.00    -0.264 OA
HETATM    4  H   UNL     1      -2.733   4.631 -29.778  1.00  0.00     0.190 HD
ENDROOT
BRANCH   2   5
HETATM    5  C   UNL     1      -1.271   6.515 -30.521  1.00  0.00     0.159 A 
HETATM    6  N   UNL     1      -0.306   6.493 -29.517  1.00  0.00    -0.216 NA
HETATM    7  C   UNL     1      -0.381   7.694 -28.974  1.00  0.00     0.180 A 
HETATM    8  O   UNL     1      -1.288   8.522 -29.575  1.00  0.00    -0.293 OA
HETATM    9  C   UNL     1      -1.852   7.767 -30.567  1.00  0.00     0.094 A 
BRANCH   7  10
HETATM   10  C   UNL     1       0.337   8.236 -27.822  1.00  0.00     0.017 A 
HETATM   11  C   UNL     1       0.105   9.559 -27.416  1.00  0.00     0.016 A 
HETATM   12  C   UNL     1       0.798  10.108 -26.333  1.00  0.00     0.001 A 
HETATM   13  C   UNL     1       1.734   9.342 -25.643  1.00  0.00     0.000 A 
HETATM   14  C   UNL     1       1.975   8.026 -26.032  1.00  0.00     0.001 A 
HETATM   15  C   UNL     1       1.281   7.477 -27.113  1.00  0.00     0.016 A 
ENDBRANCH   7  10
BRANCH   9  16
HETATM   16  C   UNL     1      -2.914   8.275 -31.524  1.00  0.00     0.046 A 
HETATM   17  C   UNL     1      -4.302   7.678 -31.428  1.00  0.00     0.012 A 
HETATM   18  C   UNL     1      -4.067   9.065 -30.937  1.00  0.00     0.012 A 
ENDBRANCH   9  16
ENDBRANCH   2   5
BRANCH   1  19
HETATM   19  N   UNL     1      -2.748   3.262 -31.353  1.00  0.00    -0.265 N 
HETATM   20  C   UNL     1      -4.020   2.709 -31.239  1.00  0.00     0.260 C 
HETATM   21  O   UNL     1      -4.998   3.359 -30.880  1.00  0.00    -0.269 OA
HETATM   22  H   UNL     1      -1.940   2.645 -31.305  1.00  0.00     0.190 HD
BRANCH  20  23
HETATM   23  C   UNL     1      -4.055   1.225 -31.612  1.00  0.00     0.280 C 
BRANCH  23  24
HETATM   24  O   UNL     1      -5.389   0.741 -31.588  1.00  0.00    -0.342 OA
BRANCH  24  25
HETATM   25  C   UNL     1      -5.784  -0.063 -32.621  1.00  0.00     0.069 A 
HETATM   26  C   UNL     1      -5.075  -1.148 -33.142  1.00  0.00     0.043 A 
HETATM   27  C   UNL     1      -5.590  -1.882 -34.224  1.00  0.00    -0.059 A 
HETATM   28  C   UNL     1      -4.840  -3.050 -34.793  1.00  0.00     0.048 C 
HETATM   29  C   UNL     1      -6.833  -1.529 -34.763  1.00  0.00     0.007 A 
HETATM   30  C   UNL     1      -7.547  -0.454 -34.238  1.00  0.00     0.003 A 
HETATM   31  C   UNL     1      -7.022   0.275 -33.172  1.00  0.00     0.037 A 
ENDBRANCH  24  25
ENDBRANCH  23  24
ENDBRANCH  20  23
ENDBRANCH   1  19
TORSDOF 7
ENDMDL
