MODEL 1
REMARK VINA RESULT:      -8.4      0.000      0.000
REMARK  10 active torsions:
REMARK  status: ('A' for Active; 'I' for Inactive)
REMARK    1  A    between atoms: C_2  and  C_3 
REMARK    2  A    between atoms: C_3  and  N_4 
REMARK    3  A    between atoms: C_10  and  C_11 
REMARK    4  A    between atoms: C_11  and  C_12 
REMARK    5  A    between atoms: C_12  and  S_13 
REMARK    6  A    between atoms: S_13  and  C_14 
REMARK    7  A    between atoms: N_15  and  C_16 
REMARK    8  A    between atoms: C_23  and  C_24 
REMARK    9  A    between atoms: C_24  and  N_25 
REMARK   10  A    between atoms: C_33  and  N_34 
ROOT
HETATM    1  S   UNL     1      -6.956   3.703 -31.276  1.00  0.00    -0.082 SA
ENDROOT
BRANCH   1   2
HETATM    2  C   UNL     1      -6.224   4.138 -32.884  1.00  0.00     0.166 C 
BRANCH   2   3
HETATM    3  C   UNL     1      -4.755   3.729 -32.931  1.00  0.00     0.177 C 
HETATM    4  O   UNL     1      -4.397   2.547 -32.853  1.00  0.00    -0.291 OA
BRANCH   3   5
HETATM    5  C   UNL     1      -3.733   4.806 -33.133  1.00  0.00     0.117 A 
HETATM    6  C   UNL     1      -3.562   5.417 -34.463  1.00  0.00     0.266 A 
HETATM    7  N   UNL     1      -2.544   6.301 -34.600  1.00  0.00    -0.274 N 
HETATM    8  O   UNL     1      -4.315   5.148 -35.395  1.00  0.00    -0.267 OA
HETATM    9  C   UNL     1      -1.717   6.717 -33.601  1.00  0.00     0.330 A 
HETATM   10  H   UNL     1      -2.401   6.727 -35.503  1.00  0.00     0.173 HD
HETATM   11  N   UNL     1      -1.946   6.161 -32.343  1.00  0.00    -0.289 N 
HETATM   12  O   UNL     1      -0.839   7.538 -33.856  1.00  0.00    -0.246 OA
HETATM   13  C   UNL     1      -2.945   5.210 -32.106  1.00  0.00     0.103 A 
BRANCH  11  14
HETATM   14  C   UNL     1      -1.016   6.569 -31.277  1.00  0.00     0.135 C 
BRANCH  14  15
HETATM   15  C   UNL     1       0.266   5.730 -31.214  1.00  0.00     0.016 C 
HETATM   16  C   UNL     1       0.476   5.053 -29.868  1.00  0.00     0.006 C 
ENDBRANCH  14  15
ENDBRANCH  11  14
BRANCH  13  17
HETATM   17  N   UNL     1      -3.107   4.683 -30.826  1.00  0.00    -0.287 NA
HETATM   18  H   UNL     1      -4.044   4.285 -30.691  1.00  0.00     0.125 HD
HETATM   19  H   UNL     1      -2.928   5.367 -30.097  1.00  0.00     0.125 HD
ENDBRANCH  13  17
ENDBRANCH   3   5
ENDBRANCH   2   3
ENDBRANCH   1   2
BRANCH   1  20
HETATM   20  C   UNL     1      -8.486   3.067 -31.779  1.00  0.00     0.196 A 
HETATM   21  N   UNL     1      -8.655   1.933 -32.553  1.00  0.00    -0.274 N 
HETATM   22  C   UNL     1     -10.023   1.918 -32.835  1.00  0.00     0.166 A 
HETATM   23  N   UNL     1     -10.587   2.977 -32.287  1.00  0.00    -0.131 NA
HETATM   24  N   UNL     1      -9.631   3.692 -31.631  1.00  0.00    -0.122 NA
BRANCH  21  25
HETATM   25  C   UNL     1      -7.681   0.979 -32.940  1.00  0.00     0.043 A 
HETATM   26  C   UNL     1      -7.058   0.186 -31.966  1.00  0.00     0.032 A 
HETATM   27  C   UNL     1      -6.108  -0.766 -32.343  1.00  0.00     0.026 A 
HETATM   28  C   UNL     1      -5.778  -0.922 -33.686  1.00  0.00     0.034 A 
HETATM   29 CL   UNL     1      -4.610  -2.095 -34.150  1.00  0.00    -0.084 Cl
HETATM   30  C   UNL     1      -6.386  -0.129 -34.659  1.00  0.00     0.026 A 
HETATM   31  C   UNL     1      -7.340   0.825 -34.290  1.00  0.00     0.032 A 
ENDBRANCH  21  25
BRANCH  22  32
HETATM   32  C   UNL     1     -10.774   0.827 -33.541  1.00  0.00     0.254 C 
HETATM   33  C   UNL     1     -10.669  -0.515 -32.809  1.00  0.00     0.049 C 
BRANCH  32  34
HETATM   34  N   UNL     1     -12.270   1.126 -33.805  1.00  0.00    -0.068 N 
HETATM   35  H   UNL     1     -12.559   1.783 -33.071  1.00  0.00     0.279 HD
HETATM   36  C   UNL     1     -12.579   1.810 -35.115  1.00  0.00     0.270 C 
HETATM   37  C   UNL     1     -13.138  -0.096 -33.631  1.00  0.00     0.270 C 
ENDBRANCH  32  34
ENDBRANCH  22  32
ENDBRANCH   1  20
TORSDOF 10
ENDMDL
MODEL 2
REMARK VINA RESULT:      -7.9      3.525      7.739
REMARK  10 active torsions:
REMARK  status: ('A' for Active; 'I' for Inactive)
REMARK    1  A    between atoms: C_2  and  C_3 
REMARK    2  A    between atoms: C_3  and  N_4 
REMARK    3  A    between atoms: C_10  and  C_11 
REMARK    4  A    between atoms: C_11  and  C_12 
REMARK    5  A    between atoms: C_12  and  S_13 
REMARK    6  A    between atoms: S_13  and  C_14 
REMARK    7  A    between atoms: N_15  and  C_16 
REMARK    8  A    between atoms: C_23  and  C_24 
REMARK    9  A    between atoms: C_24  and  N_25 
REMARK   10  A    between atoms: C_33  and  N_34 
ROOT
HETATM    1  S   UNL     1      -7.569   4.584 -31.104  1.00  0.00    -0.082 SA
ENDROOT
BRANCH   1   2
HETATM    2  C   UNL     1      -8.235   5.262 -32.656  1.00  0.00     0.166 C 
BRANCH   2   3
HETATM    3  C   UNL     1      -9.760   5.236 -32.640  1.00  0.00     0.177 C 
HETATM    4  O   UNL     1     -10.424   5.970 -31.896  1.00  0.00    -0.291 OA
BRANCH   3   5
HETATM    5  C   UNL     1     -10.457   4.324 -33.603  1.00  0.00     0.117 A 
HETATM    6  C   UNL     1     -10.478   4.650 -35.040  1.00  0.00     0.266 A 
HETATM    7  N   UNL     1     -11.222   3.843 -35.835  1.00  0.00    -0.274 N 
HETATM    8  O   UNL     1      -9.841   5.596 -35.493  1.00  0.00    -0.267 OA
HETATM    9  C   UNL     1     -11.890   2.728 -35.429  1.00  0.00     0.330 A 
HETATM   10  H   UNL     1     -11.259   4.051 -36.822  1.00  0.00     0.173 HD
HETATM   11  N   UNL     1     -11.800   2.419 -34.073  1.00  0.00    -0.289 N 
HETATM   12  O   UNL     1     -12.518   2.074 -36.258  1.00  0.00    -0.246 OA
HETATM   13  C   UNL     1     -11.090   3.209 -33.161  1.00  0.00     0.103 A 
BRANCH  11  14
HETATM   14  C   UNL     1     -12.567   1.246 -33.625  1.00  0.00     0.135 C 
BRANCH  14  15
HETATM   15  C   UNL     1     -14.058   1.526 -33.400  1.00  0.00     0.016 C 
HETATM   16  C   UNL     1     -14.968   0.665 -34.264  1.00  0.00     0.006 C 
ENDBRANCH  14  15
ENDBRANCH  11  14
BRANCH  13  17
HETATM   17  N   UNL     1     -11.055   2.850 -31.815  1.00  0.00    -0.287 NA
HETATM   18  H   UNL     1     -10.617   3.575 -31.235  1.00  0.00     0.125 HD
HETATM   19  H   UNL     1     -10.578   1.966 -31.659  1.00  0.00     0.125 HD
ENDBRANCH  13  17
ENDBRANCH   3   5
ENDBRANCH   2   3
ENDBRANCH   1   2
BRANCH   1  20
HETATM   20  C   UNL     1      -7.252   2.948 -31.575  1.00  0.00     0.196 A 
HETATM   21  N   UNL     1      -6.234   2.553 -32.423  1.00  0.00    -0.274 N 
HETATM   22  C   UNL     1      -6.479   1.195 -32.634  1.00  0.00     0.166 A 
HETATM   23  N   UNL     1      -7.570   0.847 -31.979  1.00  0.00    -0.131 NA
HETATM   24  N   UNL     1      -8.051   1.939 -31.321  1.00  0.00    -0.122 NA
BRANCH  21  25
HETATM   25  C   UNL     1      -5.161   3.328 -32.931  1.00  0.00     0.043 A 
HETATM   26  C   UNL     1      -5.344   4.095 -34.090  1.00  0.00     0.032 A 
HETATM   27  C   UNL     1      -4.295   4.873 -34.587  1.00  0.00     0.026 A 
HETATM   28  C   UNL     1      -3.067   4.880 -33.931  1.00  0.00     0.034 A 
HETATM   29 CL   UNL     1      -1.777   5.838 -34.542  1.00  0.00    -0.084 Cl
HETATM   30  C   UNL     1      -2.876   4.111 -32.784  1.00  0.00     0.026 A 
HETATM   31  C   UNL     1      -3.921   3.331 -32.279  1.00  0.00     0.032 A 
ENDBRANCH  21  25
BRANCH  22  32
HETATM   32  C   UNL     1      -5.597   0.237 -33.381  1.00  0.00     0.254 C 
HETATM   33  C   UNL     1      -5.003  -0.837 -32.465  1.00  0.00     0.049 C 
BRANCH  32  34
HETATM   34  N   UNL     1      -6.267  -0.464 -34.590  1.00  0.00    -0.068 N 
HETATM   35  H   UNL     1      -5.506  -0.685 -35.243  1.00  0.00     0.279 HD
HETATM   36  C   UNL     1      -6.948  -1.777 -34.289  1.00  0.00     0.270 C 
HETATM   37  C   UNL     1      -7.201   0.455 -35.339  1.00  0.00     0.270 C 
ENDBRANCH  32  34
ENDBRANCH  22  32
ENDBRANCH   1  20
TORSDOF 10
ENDMDL
MODEL 3
REMARK VINA RESULT:      -7.8      2.864      4.524
REMARK  10 active torsions:
REMARK  status: ('A' for Active; 'I' for Inactive)
REMARK    1  A    between atoms: C_2  and  C_3 
REMARK    2  A    between atoms: C_3  and  N_4 
REMARK    3  A    between atoms: C_10  and  C_11 
REMARK    4  A    between atoms: C_11  and  C_12 
REMARK    5  A    between atoms: C_12  and  S_13 
REMARK    6  A    between atoms: S_13  and  C_14 
REMARK    7  A    between atoms: N_15  and  C_16 
REMARK    8  A    between atoms: C_23  and  C_24 
REMARK    9  A    between atoms: C_24  and  N_25 
REMARK   10  A    between atoms: C_33  and  N_34 
ROOT
HETATM    1  S   UNL     1      -5.708   4.135 -33.867  1.00  0.00    -0.082 SA
ENDROOT
BRANCH   1   2
HETATM    2  C   UNL     1      -5.233   5.439 -32.690  1.00  0.00     0.166 C 
BRANCH   2   3
HETATM    3  C   UNL     1      -4.522   4.837 -31.483  1.00  0.00     0.177 C 
HETATM    4  O   UNL     1      -3.630   5.441 -30.873  1.00  0.00    -0.291 OA
BRANCH   3   5
HETATM    5  C   UNL     1      -4.971   3.489 -31.004  1.00  0.00     0.117 A 
HETATM    6  C   UNL     1      -6.240   3.358 -30.265  1.00  0.00     0.266 A 
HETATM    7  N   UNL     1      -6.527   2.132 -29.763  1.00  0.00    -0.274 N 
HETATM    8  O   UNL     1      -7.003   4.309 -30.125  1.00  0.00    -0.267 OA
HETATM    9  C   UNL     1      -5.778   1.008 -29.943  1.00  0.00     0.330 A 
HETATM   10  H   UNL     1      -7.386   2.018 -29.247  1.00  0.00     0.173 HD
HETATM   11  N   UNL     1      -4.615   1.159 -30.696  1.00  0.00    -0.289 N 
HETATM   12  O   UNL     1      -6.160  -0.048 -29.445  1.00  0.00    -0.246 OA
HETATM   13  C   UNL     1      -4.208   2.390 -31.223  1.00  0.00     0.103 A 
BRANCH  11  14
HETATM   14  C   UNL     1      -3.779  -0.043 -30.841  1.00  0.00     0.135 C 
BRANCH  14  15
HETATM   15  C   UNL     1      -4.261  -1.009 -31.931  1.00  0.00     0.016 C 
HETATM   16  C   UNL     1      -3.698  -0.691 -33.308  1.00  0.00     0.006 C 
ENDBRANCH  14  15
ENDBRANCH  11  14
BRANCH  13  17
HETATM   17  N   UNL     1      -3.024   2.472 -31.953  1.00  0.00    -0.287 NA
HETATM   18  H   UNL     1      -2.347   1.754 -31.669  1.00  0.00     0.125 HD
HETATM   19  H   UNL     1      -2.587   3.387 -31.886  1.00  0.00     0.125 HD
ENDBRANCH  13  17
ENDBRANCH   3   5
ENDBRANCH   2   3
ENDBRANCH   1   2
BRANCH   1  20
HETATM   20  C   UNL     1      -7.435   4.209 -33.752  1.00  0.00     0.196 A 
HETATM   21  N   UNL     1      -8.283   3.124 -33.877  1.00  0.00    -0.274 N 
HETATM   22  C   UNL     1      -9.558   3.691 -33.881  1.00  0.00     0.166 A 
HETATM   23  N   UNL     1      -9.446   5.002 -33.793  1.00  0.00    -0.131 NA
HETATM   24  N   UNL     1      -8.125   5.324 -33.713  1.00  0.00    -0.122 NA
BRANCH  21  25
HETATM   25  C   UNL     1      -7.947   1.748 -33.943  1.00  0.00     0.043 A 
HETATM   26  C   UNL     1      -7.505   1.197 -35.154  1.00  0.00     0.032 A 
HETATM   27  C   UNL     1      -7.158  -0.154 -35.222  1.00  0.00     0.026 A 
HETATM   28  C   UNL     1      -7.257  -0.953 -34.086  1.00  0.00     0.034 A 
HETATM   29 CL   UNL     1      -6.829  -2.616 -34.169  1.00  0.00    -0.084 Cl
HETATM   30  C   UNL     1      -7.706  -0.413 -32.881  1.00  0.00     0.026 A 
HETATM   31  C   UNL     1      -8.054   0.939 -32.804  1.00  0.00     0.032 A 
ENDBRANCH  21  25
BRANCH  22  32
HETATM   32  C   UNL     1     -10.862   2.948 -33.866  1.00  0.00     0.254 C 
HETATM   33  C   UNL     1     -11.886   3.594 -32.926  1.00  0.00     0.049 C 
BRANCH  32  34
HETATM   34  N   UNL     1     -11.523   2.757 -35.254  1.00  0.00    -0.068 N 
HETATM   35  H   UNL     1     -10.750   2.632 -35.918  1.00  0.00     0.279 HD
HETATM   36  C   UNL     1     -12.394   1.532 -35.400  1.00  0.00     0.270 C 
HETATM   37  C   UNL     1     -12.265   3.989 -35.710  1.00  0.00     0.270 C 
ENDBRANCH  32  34
ENDBRANCH  22  32
ENDBRANCH   1  20
TORSDOF 10
ENDMDL
MODEL 4
REMARK VINA RESULT:      -7.7      4.445      6.834
REMARK  10 active torsions:
REMARK  status: ('A' for Active; 'I' for Inactive)
REMARK    1  A    between atoms: C_2  and  C_3 
REMARK    2  A    between atoms: C_3  and  N_4 
REMARK    3  A    between atoms: C_10  and  C_11 
REMARK    4  A    between atoms: C_11  and  C_12 
REMARK    5  A    between atoms: C_12  and  S_13 
REMARK    6  A    between atoms: S_13  and  C_14 
REMARK    7  A    between atoms: N_15  and  C_16 
REMARK    8  A    between atoms: C_23  and  C_24 
REMARK    9  A    between atoms: C_24  and  N_25 
REMARK   10  A    between atoms: C_33  and  N_34 
ROOT
HETATM    1  S   UNL     1      -7.485   3.267 -31.953  1.00  0.00    -0.082 SA
ENDROOT
BRANCH   1   2
HETATM    2  C   UNL     1      -6.460   1.889 -31.350  1.00  0.00     0.166 C 
BRANCH   2   3
HETATM    3  C   UNL     1      -5.285   1.644 -32.292  1.00  0.00     0.177 C 
HETATM    4  O   UNL     1      -4.612   2.571 -32.762  1.00  0.00    -0.291 OA
BRANCH   3   5
HETATM    5  C   UNL     1      -4.917   0.225 -32.601  1.00  0.00     0.117 A 
HETATM    6  C   UNL     1      -3.889  -0.460 -31.797  1.00  0.00     0.266 A 
HETATM    7  N   UNL     1      -3.525  -1.700 -32.204  1.00  0.00    -0.274 N 
HETATM    8  O   UNL     1      -3.399   0.064 -30.801  1.00  0.00    -0.267 OA
HETATM    9  C   UNL     1      -4.076  -2.385 -33.245  1.00  0.00     0.330 A 
HETATM   10  H   UNL     1      -2.817  -2.186 -31.675  1.00  0.00     0.173 HD
HETATM   11  N   UNL     1      -5.086  -1.728 -33.946  1.00  0.00    -0.289 N 
HETATM   12  O   UNL     1      -3.663  -3.514 -33.500  1.00  0.00    -0.246 OA
HETATM   13  C   UNL     1      -5.506  -0.431 -33.632  1.00  0.00     0.103 A 
BRANCH  11  14
HETATM   14  C   UNL     1      -5.641  -2.447 -35.104  1.00  0.00     0.135 C 
BRANCH  14  15
HETATM   15  C   UNL     1      -6.764  -3.429 -34.749  1.00  0.00     0.016 C 
HETATM   16  C   UNL     1      -6.555  -4.818 -35.331  1.00  0.00     0.006 C 
ENDBRANCH  14  15
ENDBRANCH  11  14
BRANCH  13  17
HETATM   17  N   UNL     1      -6.511   0.172 -34.386  1.00  0.00    -0.287 NA
HETATM   18  H   UNL     1      -6.790  -0.407 -35.187  1.00  0.00     0.125 HD
HETATM   19  H   UNL     1      -6.248   1.096 -34.719  1.00  0.00     0.125 HD
ENDBRANCH  13  17
ENDBRANCH   3   5
ENDBRANCH   2   3
ENDBRANCH   1   2
BRANCH   1  20
HETATM   20  C   UNL     1      -8.872   2.408 -32.534  1.00  0.00     0.196 A 
HETATM   21  N   UNL     1     -10.027   3.001 -33.009  1.00  0.00    -0.274 N 
HETATM   22  C   UNL     1     -10.904   1.931 -33.195  1.00  0.00     0.166 A 
HETATM   23  N   UNL     1     -10.305   0.814 -32.827  1.00  0.00    -0.131 NA
HETATM   24  N   UNL     1      -9.041   1.112 -32.415  1.00  0.00    -0.122 NA
BRANCH  21  25
HETATM   25  C   UNL     1     -10.263   4.371 -33.287  1.00  0.00     0.043 A 
HETATM   26  C   UNL     1      -9.952   4.888 -34.553  1.00  0.00     0.032 A 
HETATM   27  C   UNL     1     -10.195   6.233 -34.838  1.00  0.00     0.026 A 
HETATM   28  C   UNL     1     -10.743   7.061 -33.861  1.00  0.00     0.034 A 
HETATM   29 CL   UNL     1     -11.043   8.716 -34.212  1.00  0.00    -0.084 Cl
HETATM   30  C   UNL     1     -11.044   6.555 -32.597  1.00  0.00     0.026 A 
HETATM   31  C   UNL     1     -10.806   5.209 -32.304  1.00  0.00     0.032 A 
ENDBRANCH  21  25
BRANCH  22  32
HETATM   32  C   UNL     1     -12.267   1.995 -33.820  1.00  0.00     0.254 C 
HETATM   33  C   UNL     1     -12.253   1.550 -35.286  1.00  0.00     0.049 C 
BRANCH  32  34
HETATM   34  N   UNL     1     -13.368   1.198 -33.076  1.00  0.00    -0.068 N 
HETATM   35  H   UNL     1     -12.954   0.919 -32.179  1.00  0.00     0.279 HD
HETATM   36  C   UNL     1     -14.616   1.973 -32.732  1.00  0.00     0.270 C 
HETATM   37  C   UNL     1     -13.723  -0.086 -33.784  1.00  0.00     0.270 C 
ENDBRANCH  32  34
ENDBRANCH  22  32
ENDBRANCH   1  20
TORSDOF 10
ENDMDL
MODEL 5
REMARK VINA RESULT:      -7.6      2.285      3.284
REMARK  10 active torsions:
REMARK  status: ('A' for Active; 'I' for Inactive)
REMARK    1  A    between atoms: C_2  and  C_3 
REMARK    2  A    between atoms: C_3  and  N_4 
REMARK    3  A    between atoms: C_10  and  C_11 
REMARK    4  A    between atoms: C_11  and  C_12 
REMARK    5  A    between atoms: C_12  and  S_13 
REMARK    6  A    between atoms: S_13  and  C_14 
REMARK    7  A    between atoms: N_15  and  C_16 
REMARK    8  A    between atoms: C_23  and  C_24 
REMARK    9  A    between atoms: C_24  and  N_25 
REMARK   10  A    between atoms: C_33  and  N_34 
ROOT
HETATM    1  S   UNL     1      -3.466   2.827 -31.483  1.00  0.00    -0.082 SA
ENDROOT
BRANCH   1   2
HETATM    2  C   UNL     1      -3.306   3.797 -33.014  1.00  0.00     0.166 C 
BRANCH   2   3
HETATM    3  C   UNL     1      -2.220   4.857 -32.865  1.00  0.00     0.177 C 
HETATM    4  O   UNL     1      -1.330   5.014 -33.711  1.00  0.00    -0.291 OA
BRANCH   3   5
HETATM    5  C   UNL     1      -2.282   5.763 -31.673  1.00  0.00     0.117 A 
HETATM    6  C   UNL     1      -3.382   6.736 -31.547  1.00  0.00     0.266 A 
HETATM    7  N   UNL     1      -3.313   7.600 -30.504  1.00  0.00    -0.274 N 
HETATM    8  O   UNL     1      -4.320   6.752 -32.339  1.00  0.00    -0.267 OA
HETATM    9  C   UNL     1      -2.356   7.598 -29.536  1.00  0.00     0.330 A 
HETATM   10  H   UNL     1      -4.050   8.281 -30.401  1.00  0.00     0.173 HD
HETATM   11  N   UNL     1      -1.364   6.626 -29.657  1.00  0.00    -0.289 N 
HETATM   12  O   UNL     1      -2.418   8.429 -28.634  1.00  0.00    -0.246 OA
HETATM   13  C   UNL     1      -1.321   5.713 -30.717  1.00  0.00     0.103 A 
BRANCH  11  14
HETATM   14  C   UNL     1      -0.299   6.660 -28.641  1.00  0.00     0.135 C 
BRANCH  14  15
HETATM   15  C   UNL     1       0.848   7.622 -28.973  1.00  0.00     0.016 C 
HETATM   16  C   UNL     1       1.340   8.409 -27.767  1.00  0.00     0.006 C 
ENDBRANCH  14  15
ENDBRANCH  11  14
BRANCH  13  17
HETATM   17  N   UNL     1      -0.290   4.778 -30.784  1.00  0.00    -0.287 NA
HETATM   18  H   UNL     1      -0.348   4.203 -31.633  1.00  0.00     0.125 HD
HETATM   19  H   UNL     1      -0.263   4.169 -29.971  1.00  0.00     0.125 HD
ENDBRANCH  13  17
ENDBRANCH   3   5
ENDBRANCH   2   3
ENDBRANCH   1   2
BRANCH   1  20
HETATM   20  C   UNL     1      -5.132   3.102 -31.099  1.00  0.00     0.196 A 
HETATM   21  N   UNL     1      -6.194   2.392 -31.628  1.00  0.00    -0.274 N 
HETATM   22  C   UNL     1      -7.321   3.072 -31.163  1.00  0.00     0.166 A 
HETATM   23  N   UNL     1      -6.933   4.108 -30.446  1.00  0.00    -0.131 NA
HETATM   24  N   UNL     1      -5.571   4.127 -30.406  1.00  0.00    -0.122 NA
BRANCH  21  25
HETATM   25  C   UNL     1      -6.158   1.218 -32.424  1.00  0.00     0.043 A 
HETATM   26  C   UNL     1      -5.911  -0.024 -31.822  1.00  0.00     0.032 A 
HETATM   27  C   UNL     1      -5.889  -1.184 -32.598  1.00  0.00     0.026 A 
HETATM   28  C   UNL     1      -6.107  -1.105 -33.971  1.00  0.00     0.034 A 
HETATM   29 CL   UNL     1      -6.081  -2.534 -34.926  1.00  0.00    -0.084 Cl
HETATM   30  C   UNL     1      -6.342   0.129 -34.577  1.00  0.00     0.026 A 
HETATM   31  C   UNL     1      -6.368   1.296 -33.807  1.00  0.00     0.032 A 
ENDBRANCH  21  25
BRANCH  22  32
HETATM   32  C   UNL     1      -8.750   2.648 -31.336  1.00  0.00     0.254 C 
HETATM   33  C   UNL     1      -9.683   3.334 -30.332  1.00  0.00     0.049 C 
BRANCH  32  34
HETATM   34  N   UNL     1      -9.327   2.851 -32.759  1.00  0.00    -0.068 N 
HETATM   35  H   UNL     1      -8.567   2.611 -33.407  1.00  0.00     0.279 HD
HETATM   36  C   UNL     1     -10.483   1.954 -33.131  1.00  0.00     0.270 C 
HETATM   37  C   UNL     1      -9.667   4.294 -33.039  1.00  0.00     0.270 C 
ENDBRANCH  32  34
ENDBRANCH  22  32
ENDBRANCH   1  20
TORSDOF 10
ENDMDL
MODEL 6
REMARK VINA RESULT:      -7.6      3.486      8.079
REMARK  10 active torsions:
REMARK  status: ('A' for Active; 'I' for Inactive)
REMARK    1  A    between atoms: C_2  and  C_3 
REMARK    2  A    between atoms: C_3  and  N_4 
REMARK    3  A    between atoms: C_10  and  C_11 
REMARK    4  A    between atoms: C_11  and  C_12 
REMARK    5  A    between atoms: C_12  and  S_13 
REMARK    6  A    between atoms: S_13  and  C_14 
REMARK    7  A    between atoms: N_15  and  C_16 
REMARK    8  A    between atoms: C_23  and  C_24 
REMARK    9  A    between atoms: C_24  and  N_25 
REMARK   10  A    between atoms: C_33  and  N_34 
ROOT
HETATM    1  S   UNL     1      -7.091   3.189 -30.159  1.00  0.00    -0.082 SA
ENDROOT
BRANCH   1   2
HETATM    2  C   UNL     1      -8.877   3.128 -30.505  1.00  0.00     0.166 C 
BRANCH   2   3
HETATM    3  C   UNL     1      -9.177   3.721 -31.878  1.00  0.00     0.177 C 
HETATM    4  O   UNL     1      -8.583   4.719 -32.310  1.00  0.00    -0.291 OA
BRANCH   3   5
HETATM    5  C   UNL     1     -10.189   3.026 -32.737  1.00  0.00     0.117 A 
HETATM    6  C   UNL     1      -9.744   2.088 -33.783  1.00  0.00     0.266 A 
HETATM    7  N   UNL     1     -10.704   1.585 -34.597  1.00  0.00    -0.274 N 
HETATM    8  O   UNL     1      -8.564   1.769 -33.900  1.00  0.00    -0.267 OA
HETATM    9  C   UNL     1     -12.040   1.821 -34.484  1.00  0.00     0.330 A 
HETATM   10  H   UNL     1     -10.423   0.946 -35.326  1.00  0.00     0.173 HD
HETATM   11  N   UNL     1     -12.429   2.667 -33.447  1.00  0.00    -0.289 N 
HETATM   12  O   UNL     1     -12.809   1.288 -35.281  1.00  0.00    -0.246 OA
HETATM   13  C   UNL     1     -11.513   3.270 -32.578  1.00  0.00     0.103 A 
BRANCH  11  14
HETATM   14  C   UNL     1     -13.867   2.966 -33.361  1.00  0.00     0.135 C 
BRANCH  14  15
HETATM   15  C   UNL     1     -14.635   2.059 -32.391  1.00  0.00     0.016 C 
HETATM   16  C   UNL     1     -16.142   2.260 -32.444  1.00  0.00     0.006 C 
ENDBRANCH  14  15
ENDBRANCH  11  14
BRANCH  13  17
HETATM   17  N   UNL     1     -11.970   4.120 -31.572  1.00  0.00    -0.287 NA
HETATM   18  H   UNL     1     -12.873   3.813 -31.191  1.00  0.00     0.125 HD
HETATM   19  H   UNL     1     -12.051   5.084 -31.883  1.00  0.00     0.125 HD
ENDBRANCH  13  17
ENDBRANCH   3   5
ENDBRANCH   2   3
ENDBRANCH   1   2
BRANCH   1  20
HETATM   20  C   UNL     1      -6.569   1.710 -30.893  1.00  0.00     0.196 A 
HETATM   21  N   UNL     1      -5.718   1.624 -31.980  1.00  0.00    -0.274 N 
HETATM   22  C   UNL     1      -5.726   0.267 -32.308  1.00  0.00     0.166 A 
HETATM   23  N   UNL     1      -6.541  -0.369 -31.489  1.00  0.00    -0.131 NA
HETATM   24  N   UNL     1      -7.066   0.529 -30.609  1.00  0.00    -0.122 NA
BRANCH  21  25
HETATM   25  C   UNL     1      -4.972   2.660 -32.597  1.00  0.00     0.043 A 
HETATM   26  C   UNL     1      -5.578   3.472 -33.566  1.00  0.00     0.032 A 
HETATM   27  C   UNL     1      -4.853   4.503 -34.167  1.00  0.00     0.026 A 
HETATM   28  C   UNL     1      -3.526   4.720 -33.805  1.00  0.00     0.034 A 
HETATM   29 CL   UNL     1      -2.634   5.990 -34.543  1.00  0.00    -0.084 Cl
HETATM   30  C   UNL     1      -2.914   3.908 -32.849  1.00  0.00     0.026 A 
HETATM   31  C   UNL     1      -3.634   2.875 -32.241  1.00  0.00     0.032 A 
ENDBRANCH  21  25
BRANCH  22  32
HETATM   32  C   UNL     1      -4.868  -0.404 -33.340  1.00  0.00     0.254 C 
HETATM   33  C   UNL     1      -3.467  -0.723 -32.809  1.00  0.00     0.049 C 
BRANCH  32  34
HETATM   34  N   UNL     1      -5.467  -1.695 -33.952  1.00  0.00    -0.068 N 
HETATM   35  H   UNL     1      -5.910  -2.195 -33.173  1.00  0.00     0.279 HD
HETATM   36  C   UNL     1      -6.551  -1.488 -34.981  1.00  0.00     0.270 C 
HETATM   37  C   UNL     1      -4.403  -2.622 -34.485  1.00  0.00     0.270 C 
ENDBRANCH  32  34
ENDBRANCH  22  32
ENDBRANCH   1  20
TORSDOF 10
ENDMDL
MODEL 7
REMARK VINA RESULT:      -7.6      3.266      4.741
REMARK  10 active torsions:
REMARK  status: ('A' for Active; 'I' for Inactive)
REMARK    1  A    between atoms: C_2  and  C_3 
REMARK    2  A    between atoms: C_3  and  N_4 
REMARK    3  A    between atoms: C_10  and  C_11 
REMARK    4  A    between atoms: C_11  and  C_12 
REMARK    5  A    between atoms: C_12  and  S_13 
REMARK    6  A    between atoms: S_13  and  C_14 
REMARK    7  A    between atoms: N_15  and  C_16 
REMARK    8  A    between atoms: C_23  and  C_24 
REMARK    9  A    between atoms: C_24  and  N_25 
REMARK   10  A    between atoms: C_33  and  N_34 
ROOT
HETATM    1  S   UNL     1      -6.401   5.660 -30.515  1.00  0.00    -0.082 SA
ENDROOT
BRANCH   1   2
HETATM    2  C   UNL     1      -5.130   5.751 -29.215  1.00  0.00     0.166 C 
BRANCH   2   3
HETATM    3  C   UNL     1      -4.424   7.102 -29.250  1.00  0.00     0.177 C 
HETATM    4  O   UNL     1      -4.961   8.138 -28.835  1.00  0.00    -0.291 OA
BRANCH   3   5
HETATM    5  C   UNL     1      -3.015   7.145 -29.758  1.00  0.00     0.117 A 
HETATM    6  C   UNL     1      -2.759   7.304 -31.200  1.00  0.00     0.266 A 
HETATM    7  N   UNL     1      -1.467   7.219 -31.601  1.00  0.00    -0.274 N 
HETATM    8  O   UNL     1      -3.670   7.518 -31.995  1.00  0.00    -0.267 OA
HETATM    9  C   UNL     1      -0.391   7.067 -30.780  1.00  0.00     0.330 A 
HETATM   10  H   UNL     1      -1.266   7.317 -32.585  1.00  0.00     0.173 HD
HETATM   11  N   UNL     1      -0.668   6.978 -29.416  1.00  0.00    -0.289 N 
HETATM   12  O   UNL     1       0.733   7.020 -31.272  1.00  0.00    -0.246 OA
HETATM   13  C   UNL     1      -1.970   7.014 -28.903  1.00  0.00     0.103 A 
BRANCH  11  14
HETATM   14  C   UNL     1       0.489   6.758 -28.535  1.00  0.00     0.135 C 
BRANCH  14  15
HETATM   15  C   UNL     1       1.152   8.051 -28.042  1.00  0.00     0.016 C 
HETATM   16  C   UNL     1       1.476   8.032 -26.556  1.00  0.00     0.006 C 
ENDBRANCH  14  15
ENDBRANCH  11  14
BRANCH  13  17
HETATM   17  N   UNL     1      -2.176   6.902 -27.530  1.00  0.00    -0.287 NA
HETATM   18  H   UNL     1      -2.711   6.060 -27.289  1.00  0.00     0.125 HD
HETATM   19  H   UNL     1      -2.641   7.716 -27.138  1.00  0.00     0.125 HD
ENDBRANCH  13  17
ENDBRANCH   3   5
ENDBRANCH   2   3
ENDBRANCH   1   2
BRANCH   1  20
HETATM   20  C   UNL     1      -6.428   3.956 -30.822  1.00  0.00     0.196 A 
HETATM   21  N   UNL     1      -5.653   3.309 -31.767  1.00  0.00    -0.274 N 
HETATM   22  C   UNL     1      -6.137   2.000 -31.764  1.00  0.00     0.166 A 
HETATM   23  N   UNL     1      -7.132   1.912 -30.902  1.00  0.00    -0.131 NA
HETATM   24  N   UNL     1      -7.313   3.129 -30.317  1.00  0.00    -0.122 NA
BRANCH  21  25
HETATM   25  C   UNL     1      -4.583   3.835 -32.536  1.00  0.00     0.043 A 
HETATM   26  C   UNL     1      -3.262   3.664 -32.099  1.00  0.00     0.032 A 
HETATM   27  C   UNL     1      -2.204   4.166 -32.860  1.00  0.00     0.026 A 
HETATM   28  C   UNL     1      -2.464   4.840 -34.049  1.00  0.00     0.034 A 
HETATM   29 CL   UNL     1      -1.161   5.457 -34.986  1.00  0.00    -0.084 Cl
HETATM   30  C   UNL     1      -3.776   5.023 -34.484  1.00  0.00     0.026 A 
HETATM   31  C   UNL     1      -4.842   4.522 -33.729  1.00  0.00     0.032 A 
ENDBRANCH  21  25
BRANCH  22  32
HETATM   32  C   UNL     1      -5.562   0.836 -32.517  1.00  0.00     0.254 C 
HETATM   33  C   UNL     1      -5.343  -0.384 -31.617  1.00  0.00     0.049 C 
BRANCH  32  34
HETATM   34  N   UNL     1      -6.376   0.392 -33.757  1.00  0.00    -0.068 N 
HETATM   35  H   UNL     1      -5.701  -0.045 -34.395  1.00  0.00     0.279 HD
HETATM   36  C   UNL     1      -7.439  -0.650 -33.503  1.00  0.00     0.270 C 
HETATM   37  C   UNL     1      -6.957   1.563 -34.511  1.00  0.00     0.270 C 
ENDBRANCH  32  34
ENDBRANCH  22  32
ENDBRANCH   1  20
TORSDOF 10
ENDMDL
MODEL 8
REMARK VINA RESULT:      -7.5      4.291      8.934
REMARK  10 active torsions:
REMARK  status: ('A' for Active; 'I' for Inactive)
REMARK    1  A    between atoms: C_2  and  C_3 
REMARK    2  A    between atoms: C_3  and  N_4 
REMARK    3  A    between atoms: C_10  and  C_11 
REMARK    4  A    between atoms: C_11  and  C_12 
REMARK    5  A    between atoms: C_12  and  S_13 
REMARK    6  A    between atoms: S_13  and  C_14 
REMARK    7  A    between atoms: N_15  and  C_16 
REMARK    8  A    between atoms: C_23  and  C_24 
REMARK    9  A    between atoms: C_24  and  N_25 
REMARK   10  A    between atoms: C_33  and  N_34 
ROOT
HETATM    1  S   UNL     1      -6.047   3.462 -31.879  1.00  0.00    -0.082 SA
ENDROOT
BRANCH   1   2
HETATM    2  C   UNL     1      -6.076   2.301 -33.281  1.00  0.00     0.166 C 
BRANCH   2   3
HETATM    3  C   UNL     1      -6.666   0.961 -32.854  1.00  0.00     0.177 C 
HETATM    4  O   UNL     1      -7.876   0.812 -32.637  1.00  0.00    -0.291 OA
BRANCH   3   5
HETATM    5  C   UNL     1      -5.741  -0.213 -32.751  1.00  0.00     0.117 A 
HETATM    6  C   UNL     1      -4.879  -0.368 -31.566  1.00  0.00     0.266 A 
HETATM    7  N   UNL     1      -3.986  -1.387 -31.592  1.00  0.00    -0.274 N 
HETATM    8  O   UNL     1      -4.977   0.382 -30.598  1.00  0.00    -0.267 OA
HETATM    9  C   UNL     1      -3.868  -2.311 -32.586  1.00  0.00     0.330 A 
HETATM   10  H   UNL     1      -3.379  -1.509 -30.795  1.00  0.00     0.173 HD
HETATM   11  N   UNL     1      -4.739  -2.167 -33.664  1.00  0.00    -0.289 N 
HETATM   12  O   UNL     1      -3.024  -3.198 -32.479  1.00  0.00    -0.246 OA
HETATM   13  C   UNL     1      -5.670  -1.125 -33.752  1.00  0.00     0.103 A 
BRANCH  11  14
HETATM   14  C   UNL     1      -4.574  -3.132 -34.762  1.00  0.00     0.135 C 
BRANCH  14  15
HETATM   15  C   UNL     1      -5.346  -4.442 -34.562  1.00  0.00     0.016 C 
HETATM   16  C   UNL     1      -6.623  -4.519 -35.385  1.00  0.00     0.006 C 
ENDBRANCH  14  15
ENDBRANCH  11  14
BRANCH  13  17
HETATM   17  N   UNL     1      -6.499  -1.031 -34.868  1.00  0.00    -0.287 NA
HETATM   18  H   UNL     1      -7.298  -0.407 -34.702  1.00  0.00     0.125 HD
HETATM   19  H   UNL     1      -6.843  -1.937 -35.176  1.00  0.00     0.125 HD
ENDBRANCH  13  17
ENDBRANCH   3   5
ENDBRANCH   2   3
ENDBRANCH   1   2
BRANCH   1  20
HETATM   20  C   UNL     1      -4.366   3.872 -31.834  1.00  0.00     0.196 A 
HETATM   21  N   UNL     1      -3.863   5.107 -31.465  1.00  0.00    -0.274 N 
HETATM   22  C   UNL     1      -2.498   5.012 -31.744  1.00  0.00     0.166 A 
HETATM   23  N   UNL     1      -2.245   3.824 -32.259  1.00  0.00    -0.131 NA
HETATM   24  N   UNL     1      -3.407   3.116 -32.316  1.00  0.00    -0.122 NA
BRANCH  21  25
HETATM   25  C   UNL     1      -4.556   6.204 -30.895  1.00  0.00     0.043 A 
HETATM   26  C   UNL     1      -4.543   6.390 -29.506  1.00  0.00     0.032 A 
HETATM   27  C   UNL     1      -5.212   7.477 -28.939  1.00  0.00     0.026 A 
HETATM   28  C   UNL     1      -5.894   8.374 -29.757  1.00  0.00     0.034 A 
HETATM   29 CL   UNL     1      -6.715   9.714 -29.060  1.00  0.00    -0.084 Cl
HETATM   30  C   UNL     1      -5.918   8.189 -31.139  1.00  0.00     0.026 A 
HETATM   31  C   UNL     1      -5.250   7.104 -31.715  1.00  0.00     0.032 A 
ENDBRANCH  21  25
BRANCH  22  32
HETATM   32  C   UNL     1      -1.449   6.033 -31.413  1.00  0.00     0.254 C 
HETATM   33  C   UNL     1      -0.055   5.410 -31.285  1.00  0.00     0.049 C 
BRANCH  32  34
HETATM   34  N   UNL     1      -1.364   7.228 -32.394  1.00  0.00    -0.068 N 
HETATM   35  H   UNL     1      -0.363   7.400 -32.542  1.00  0.00     0.279 HD
HETATM   36  C   UNL     1      -1.949   6.991 -33.765  1.00  0.00     0.270 C 
HETATM   37  C   UNL     1      -1.917   8.499 -31.798  1.00  0.00     0.270 C 
ENDBRANCH  32  34
ENDBRANCH  22  32
ENDBRANCH   1  20
TORSDOF 10
ENDMDL
MODEL 9
REMARK VINA RESULT:      -7.4      3.777      8.636
REMARK  10 active torsions:
REMARK  status: ('A' for Active; 'I' for Inactive)
REMARK    1  A    between atoms: C_2  and  C_3 
REMARK    2  A    between atoms: C_3  and  N_4 
REMARK    3  A    between atoms: C_10  and  C_11 
REMARK    4  A    between atoms: C_11  and  C_12 
REMARK    5  A    between atoms: C_12  and  S_13 
REMARK    6  A    between atoms: S_13  and  C_14 
REMARK    7  A    between atoms: N_15  and  C_16 
REMARK    8  A    between atoms: C_23  and  C_24 
REMARK    9  A    between atoms: C_24  and  N_25 
REMARK   10  A    between atoms: C_33  and  N_34 
ROOT
HETATM    1  S   UNL     1      -9.594   1.118 -32.081  1.00  0.00    -0.082 SA
ENDROOT
BRANCH   1   2
HETATM    2  C   UNL     1     -10.304   0.709 -33.707  1.00  0.00     0.166 C 
BRANCH   2   3
HETATM    3  C   UNL     1     -11.232   1.823 -34.181  1.00  0.00     0.177 C 
HETATM    4  O   UNL     1     -10.979   2.513 -35.177  1.00  0.00    -0.291 OA
BRANCH   3   5
HETATM    5  C   UNL     1     -12.512   2.036 -33.432  1.00  0.00     0.117 A 
HETATM    6  C   UNL     1     -13.544   0.983 -33.426  1.00  0.00     0.266 A 
HETATM    7  N   UNL     1     -14.720   1.288 -32.827  1.00  0.00    -0.274 N 
HETATM    8  O   UNL     1     -13.339  -0.119 -33.927  1.00  0.00    -0.267 OA
HETATM    9  C   UNL     1     -15.000   2.452 -32.178  1.00  0.00     0.330 A 
HETATM   10  H   UNL     1     -15.445   0.586 -32.817  1.00  0.00     0.173 HD
HETATM   11  N   UNL     1     -13.980   3.401 -32.154  1.00  0.00    -0.289 N 
HETATM   12  O   UNL     1     -16.106   2.596 -31.662  1.00  0.00    -0.246 OA
HETATM   13  C   UNL     1     -12.743   3.201 -32.777  1.00  0.00     0.103 A 
BRANCH  11  14
HETATM   14  C   UNL     1     -14.303   4.680 -31.501  1.00  0.00     0.135 C 
BRANCH  14  15
HETATM   15  C   UNL     1     -13.704   4.830 -30.097  1.00  0.00     0.016 C 
HETATM   16  C   UNL     1     -14.297   5.991 -29.312  1.00  0.00     0.006 C 
ENDBRANCH  14  15
ENDBRANCH  11  14
BRANCH  13  17
HETATM   17  N   UNL     1     -11.774   4.201 -32.729  1.00  0.00    -0.287 NA
HETATM   18  H   UNL     1     -12.110   5.082 -33.136  1.00  0.00     0.125 HD
HETATM   19  H   UNL     1     -10.910   3.929 -33.190  1.00  0.00     0.125 HD
ENDBRANCH  13  17
ENDBRANCH   3   5
ENDBRANCH   2   3
ENDBRANCH   1   2
BRANCH   1  20
HETATM   20  C   UNL     1      -8.427   2.316 -32.531  1.00  0.00     0.196 A 
HETATM   21  N   UNL     1      -7.145   2.045 -32.972  1.00  0.00    -0.274 N 
HETATM   22  C   UNL     1      -6.540   3.302 -33.046  1.00  0.00     0.166 A 
HETATM   23  N   UNL     1      -7.403   4.218 -32.650  1.00  0.00    -0.131 NA
HETATM   24  N   UNL     1      -8.576   3.605 -32.329  1.00  0.00    -0.122 NA
BRANCH  21  25
HETATM   25  C   UNL     1      -6.579   0.791 -33.315  1.00  0.00     0.043 A 
HETATM   26  C   UNL     1      -6.850   0.224 -34.568  1.00  0.00     0.032 A 
HETATM   27  C   UNL     1      -6.284  -1.004 -34.917  1.00  0.00     0.026 A 
HETATM   28  C   UNL     1      -5.454  -1.666 -34.017  1.00  0.00     0.034 A 
HETATM   29 CL   UNL     1      -4.756  -3.176 -34.447  1.00  0.00    -0.084 Cl
HETATM   30  C   UNL     1      -5.189  -1.112 -32.764  1.00  0.00     0.026 A 
HETATM   31  C   UNL     1      -5.751   0.118 -32.407  1.00  0.00     0.032 A 
ENDBRANCH  21  25
BRANCH  22  32
HETATM   32  C   UNL     1      -5.176   3.602 -33.594  1.00  0.00     0.254 C 
HETATM   33  C   UNL     1      -5.037   5.064 -34.032  1.00  0.00     0.049 C 
BRANCH  32  34
HETATM   34  N   UNL     1      -3.999   3.259 -32.648  1.00  0.00    -0.068 N 
HETATM   35  H   UNL     1      -3.832   2.252 -32.762  1.00  0.00     0.279 HD
HETATM   36  C   UNL     1      -2.686   3.933 -32.966  1.00  0.00     0.270 C 
HETATM   37  C   UNL     1      -4.355   3.457 -31.196  1.00  0.00     0.270 C 
ENDBRANCH  32  34
ENDBRANCH  22  32
ENDBRANCH   1  20
TORSDOF 10
ENDMDL
MODEL 10
REMARK VINA RESULT:      -7.4      3.610      5.281
REMARK  10 active torsions:
REMARK  status: ('A' for Active; 'I' for Inactive)
REMARK    1  A    between atoms: C_2  and  C_3 
REMARK    2  A    between atoms: C_3  and  N_4 
REMARK    3  A    between atoms: C_10  and  C_11 
REMARK    4  A    between atoms: C_11  and  C_12 
REMARK    5  A    between atoms: C_12  and  S_13 
REMARK    6  A    between atoms: S_13  and  C_14 
REMARK    7  A    between atoms: N_15  and  C_16 
REMARK    8  A    between atoms: C_23  and  C_24 
REMARK    9  A    between atoms: C_24  and  N_25 
REMARK   10  A    between atoms: C_33  and  N_34 
ROOT
HETATM    1  S   UNL     1      -7.057   5.507 -31.285  1.00  0.00    -0.082 SA
ENDROOT
BRANCH   1   2
HETATM    2  C   UNL     1      -6.342   5.511 -29.611  1.00  0.00     0.166 C 
BRANCH   2   3
HETATM    3  C   UNL     1      -5.705   6.862 -29.305  1.00  0.00     0.177 C 
HETATM    4  O   UNL     1      -6.275   7.933 -29.556  1.00  0.00    -0.291 OA
BRANCH   3   5
HETATM    5  C   UNL     1      -4.367   6.871 -28.629  1.00  0.00     0.117 A 
HETATM    6  C   UNL     1      -4.271   6.579 -27.188  1.00  0.00     0.266 A 
HETATM    7  N   UNL     1      -3.047   6.717 -26.621  1.00  0.00    -0.274 N 
HETATM    8  O   UNL     1      -5.248   6.216 -26.539  1.00  0.00    -0.267 OA
HETATM    9  C   UNL     1      -1.899   7.034 -27.281  1.00  0.00     0.330 A 
HETATM   10  H   UNL     1      -2.957   6.530 -25.633  1.00  0.00     0.173 HD
HETATM   11  N   UNL     1      -2.020   7.246 -28.654  1.00  0.00    -0.289 N 
HETATM   12  O   UNL     1      -0.850   7.113 -26.648  1.00  0.00    -0.246 OA
HETATM   13  C   UNL     1      -3.244   7.168 -29.328  1.00  0.00     0.103 A 
BRANCH  11  14
HETATM   14  C   UNL     1      -0.790   7.643 -29.357  1.00  0.00     0.135 C 
BRANCH  14  15
HETATM   15  C   UNL     1      -0.013   6.469 -29.966  1.00  0.00     0.016 C 
HETATM   16  C   UNL     1       0.405   6.708 -31.408  1.00  0.00     0.006 C 
ENDBRANCH  14  15
ENDBRANCH  11  14
BRANCH  13  17
HETATM   17  N   UNL     1      -3.294   7.409 -30.700  1.00  0.00    -0.287 NA
HETATM   18  H   UNL     1      -3.033   8.375 -30.930  1.00  0.00     0.125 HD
HETATM   19  H   UNL     1      -4.207   7.207 -31.098  1.00  0.00     0.125 HD
ENDBRANCH  13  17
ENDBRANCH   3   5
ENDBRANCH   2   3
ENDBRANCH   1   2
BRANCH   1  20
HETATM   20  C   UNL     1      -6.962   3.821 -31.672  1.00  0.00     0.196 A 
HETATM   21  N   UNL     1      -6.010   3.252 -32.497  1.00  0.00    -0.274 N 
HETATM   22  C   UNL     1      -6.434   1.930 -32.641  1.00  0.00     0.166 A 
HETATM   23  N   UNL     1      -7.558   1.764 -31.971  1.00  0.00    -0.131 NA
HETATM   24  N   UNL     1      -7.887   2.941 -31.369  1.00  0.00    -0.122 NA
BRANCH  21  25
HETATM   25  C   UNL     1      -4.846   3.852 -33.041  1.00  0.00     0.043 A 
HETATM   26  C   UNL     1      -3.614   3.696 -32.391  1.00  0.00     0.032 A 
HETATM   27  C   UNL     1      -2.461   4.271 -32.930  1.00  0.00     0.026 A 
HETATM   28  C   UNL     1      -2.539   5.004 -34.111  1.00  0.00     0.034 A 
HETATM   29 CL   UNL     1      -1.120   5.711 -34.775  1.00  0.00    -0.084 Cl
HETATM   30  C   UNL     1      -3.764   5.171 -34.757  1.00  0.00     0.026 A 
HETATM   31  C   UNL     1      -4.922   4.596 -34.225  1.00  0.00     0.032 A 
ENDBRANCH  21  25
BRANCH  22  32
HETATM   32  C   UNL     1      -5.691   0.827 -33.337  1.00  0.00     0.254 C 
HETATM   33  C   UNL     1      -4.762   0.066 -32.386  1.00  0.00     0.049 C 
BRANCH  32  34
HETATM   34  N   UNL     1      -6.584  -0.199 -34.077  1.00  0.00    -0.068 N 
HETATM   35  H   UNL     1      -7.343  -0.432 -33.426  1.00  0.00     0.279 HD
HETATM   36  C   UNL     1      -7.255   0.303 -35.332  1.00  0.00     0.270 C 
HETATM   37  C   UNL     1      -5.861  -1.496 -34.349  1.00  0.00     0.270 C 
ENDBRANCH  32  34
ENDBRANCH  22  32
ENDBRANCH   1  20
TORSDOF 10
ENDMDL
