MODEL 1
REMARK VINA RESULT:      -9.6      0.000      0.000
REMARK  6 active torsions:
REMARK  status: ('A' for Active; 'I' for Inactive)
REMARK    1  A    between atoms: C_2  and  S_3 
REMARK    2  A    between atoms: S_3  and  C_4 
REMARK    3  A    between atoms: C_5  and  C_6 
REMARK       I    between atoms: C_6  and  N_7 
REMARK    4  A    between atoms: N_7  and  C_8 
REMARK    5  A    between atoms: N_9  and  C_10 
REMARK    6  A    between atoms: C_22  and  C_23 
ROOT
HETATM    1  C   UNL     1      -8.232   1.594 -34.130  1.00  0.00     0.152 A 
HETATM    2  N   UNL     1      -7.753   2.844 -33.763  1.00  0.00    -0.044 N 
HETATM    3  N   UNL     1      -8.755   3.764 -33.607  1.00  0.00    -0.148 NA
HETATM    4  C   UNL     1      -9.868   3.080 -33.902  1.00  0.00     0.115 A 
HETATM    5  C   UNL     1      -9.601   1.728 -34.198  1.00  0.00     0.087 A 
ENDROOT
BRANCH   1   6
HETATM    6  N   UNL     1      -7.394   0.519 -34.396  1.00  0.00    -0.307 N 
HETATM    7  C   UNL     1      -6.938  -0.335 -33.412  1.00  0.00     0.258 C 
HETATM    8  O   UNL     1      -7.073  -0.204 -32.200  1.00  0.00    -0.267 OA
HETATM    9  H   UNL     1      -7.182   0.317 -35.376  1.00  0.00     0.170 HD
BRANCH   7  10
HETATM   10  C   UNL     1      -6.325  -1.585 -33.916  1.00  0.00     0.049 A 
HETATM   11  C   UNL     1      -4.942  -1.807 -33.994  1.00  0.00     0.016 A 
HETATM   12  C   UNL     1      -4.486  -3.017 -34.539  1.00  0.00     0.019 A 
HETATM   13  C   UNL     1      -5.387  -3.995 -34.973  1.00  0.00     0.001 A 
HETATM   14  C   UNL     1      -6.757  -3.778 -34.866  1.00  0.00     0.001 A 
HETATM   15  C   UNL     1      -7.226  -2.578 -34.337  1.00  0.00     0.018 A 
BRANCH  11  16
HETATM   16  S   UNL     1      -3.703  -0.669 -33.391  1.00  0.00    -0.129 SA
BRANCH  16  17
HETATM   17  C   UNL     1      -3.522  -1.343 -31.705  1.00  0.00     0.075 C 
HETATM   18  C   UNL     1      -2.948  -2.747 -31.761  1.00  0.00     0.016 C 
ENDBRANCH  16  17
ENDBRANCH  11  16
ENDBRANCH   7  10
ENDBRANCH   1   6
BRANCH   2  19
HETATM   19  C   UNL     1      -6.415   3.253 -33.595  1.00  0.00     0.732 A 
HETATM   20  N   UNL     1      -5.803   4.052 -34.410  1.00  0.00    -0.067 NA
HETATM   21  C   UNL     1      -4.498   4.362 -34.089  1.00  0.00     0.065 A 
HETATM   22  C   UNL     1      -3.851   3.892 -33.004  1.00  0.00     0.036 A 
HETATM   23  C   UNL     1      -3.814   5.311 -35.047  1.00  0.00     0.060 C 
HETATM   24  C   UNL     1      -2.429   4.218 -32.651  1.00  0.00     0.046 C 
HETATM   25  C   UNL     1      -4.589   2.986 -32.090  1.00  0.00     0.268 A 
HETATM   26  C   UNL     1      -1.672   4.899 -33.791  1.00  0.00     0.005 C 
HETATM   27  C   UNL     1      -2.541   5.943 -34.480  1.00  0.00     0.006 C 
HETATM   28  O   UNL     1      -4.088   2.529 -31.071  1.00  0.00    -0.267 OA
HETATM   29  N   UNL     1      -5.865   2.711 -32.468  1.00  0.00    -0.152 N 
HETATM   30  H   UNL     1      -6.431   2.104 -31.883  1.00  0.00     0.188 HD
ENDBRANCH   2  19
BRANCH   4  31
HETATM   31  C   UNL     1     -11.220   3.710 -33.938  1.00  0.00     0.105 A 
HETATM   32  O   UNL     1     -12.261   3.355 -33.123  1.00  0.00    -0.320 OA
HETATM   33  C   UNL     1     -13.326   4.121 -33.470  1.00  0.00     0.142 A 
HETATM   34  C   UNL     1     -12.993   4.971 -34.497  1.00  0.00     0.027 A 
HETATM   35  C   UNL     1     -11.634   4.710 -34.797  1.00  0.00     0.041 A 
ENDBRANCH   4  31
TORSDOF 6
ENDMDL
MODEL 2
REMARK VINA RESULT:      -9.5      2.563      7.461
REMARK  6 active torsions:
REMARK  status: ('A' for Active; 'I' for Inactive)
REMARK    1  A    between atoms: C_2  and  S_3 
REMARK    2  A    between atoms: S_3  and  C_4 
REMARK    3  A    between atoms: C_5  and  C_6 
REMARK       I    between atoms: C_6  and  N_7 
REMARK    4  A    between atoms: N_7  and  C_8 
REMARK    5  A    between atoms: N_9  and  C_10 
REMARK    6  A    between atoms: C_22  and  C_23 
ROOT
HETATM    1  C   UNL     1      -5.337   2.093 -32.658  1.00  0.00     0.152 A 
HETATM    2  N   UNL     1      -4.280   1.192 -32.648  1.00  0.00    -0.044 N 
HETATM    3  N   UNL     1      -3.081   1.794 -32.376  1.00  0.00    -0.148 NA
HETATM    4  C   UNL     1      -3.395   3.087 -32.235  1.00  0.00     0.115 A 
HETATM    5  C   UNL     1      -4.779   3.318 -32.366  1.00  0.00     0.087 A 
ENDROOT
BRANCH   1   6
HETATM    6  N   UNL     1      -6.638   1.718 -32.964  1.00  0.00    -0.307 N 
HETATM    7  C   UNL     1      -7.647   1.682 -32.022  1.00  0.00     0.258 C 
HETATM    8  O   UNL     1      -7.530   1.825 -30.810  1.00  0.00    -0.267 OA
HETATM    9  H   UNL     1      -6.861   1.544 -33.947  1.00  0.00     0.170 HD
BRANCH   7  10
HETATM   10  C   UNL     1      -9.012   1.568 -32.585  1.00  0.00     0.049 A 
HETATM   11  C   UNL     1      -9.778   2.661 -33.015  1.00  0.00     0.016 A 
HETATM   12  C   UNL     1     -11.081   2.425 -33.483  1.00  0.00     0.019 A 
HETATM   13  C   UNL     1     -11.598   1.128 -33.544  1.00  0.00     0.001 A 
HETATM   14  C   UNL     1     -10.821   0.047 -33.141  1.00  0.00     0.001 A 
HETATM   15  C   UNL     1      -9.530   0.265 -32.665  1.00  0.00     0.018 A 
BRANCH  11  16
HETATM   16  S   UNL     1      -9.190   4.348 -33.065  1.00  0.00    -0.129 SA
BRANCH  16  17
HETATM   17  C   UNL     1     -10.267   5.044 -31.767  1.00  0.00     0.075 C 
HETATM   18  C   UNL     1     -10.030   4.328 -30.450  1.00  0.00     0.016 C 
ENDBRANCH  16  17
ENDBRANCH  11  16
ENDBRANCH   7  10
ENDBRANCH   1   6
BRANCH   2  19
HETATM   19  C   UNL     1      -4.306  -0.189 -32.926  1.00  0.00     0.732 A 
HETATM   20  N   UNL     1      -5.093  -0.729 -33.803  1.00  0.00    -0.067 NA
HETATM   21  C   UNL     1      -4.979  -2.094 -33.959  1.00  0.00     0.065 A 
HETATM   22  C   UNL     1      -4.118  -2.868 -33.271  1.00  0.00     0.036 A 
HETATM   23  C   UNL     1      -5.895  -2.694 -35.002  1.00  0.00     0.060 C 
HETATM   24  C   UNL     1      -3.992  -4.356 -33.430  1.00  0.00     0.046 C 
HETATM   25  C   UNL     1      -3.228  -2.212 -32.282  1.00  0.00     0.268 A 
HETATM   26  C   UNL     1      -5.140  -4.969 -34.234  1.00  0.00     0.005 C 
HETATM   27  C   UNL     1      -5.489  -4.104 -35.438  1.00  0.00     0.006 C 
HETATM   28  O   UNL     1      -2.401  -2.833 -31.627  1.00  0.00    -0.267 OA
HETATM   29  N   UNL     1      -3.397  -0.869 -32.165  1.00  0.00    -0.152 N 
HETATM   30  H   UNL     1      -2.815  -0.354 -31.512  1.00  0.00     0.188 HD
ENDBRANCH   2  19
BRANCH   4  31
HETATM   31  C   UNL     1      -2.373   4.148 -32.000  1.00  0.00     0.105 A 
HETATM   32  O   UNL     1      -1.422   4.102 -31.017  1.00  0.00    -0.320 OA
HETATM   33  C   UNL     1      -0.701   5.249 -31.095  1.00  0.00     0.142 A 
HETATM   34  C   UNL     1      -1.167   6.041 -32.117  1.00  0.00     0.027 A 
HETATM   35  C   UNL     1      -2.243   5.330 -32.704  1.00  0.00     0.041 A 
ENDBRANCH   4  31
TORSDOF 6
ENDMDL
MODEL 3
REMARK VINA RESULT:      -9.2      2.484      6.791
REMARK  6 active torsions:
REMARK  status: ('A' for Active; 'I' for Inactive)
REMARK    1  A    between atoms: C_2  and  S_3 
REMARK    2  A    between atoms: S_3  and  C_4 
REMARK    3  A    between atoms: C_5  and  C_6 
REMARK       I    between atoms: C_6  and  N_7 
REMARK    4  A    between atoms: N_7  and  C_8 
REMARK    5  A    between atoms: N_9  and  C_10 
REMARK    6  A    between atoms: C_22  and  C_23 
ROOT
HETATM    1  C   UNL     1      -7.507   0.608 -34.503  1.00  0.00     0.152 A 
HETATM    2  N   UNL     1      -6.251   0.829 -33.955  1.00  0.00    -0.044 N 
HETATM    3  N   UNL     1      -5.487  -0.306 -33.920  1.00  0.00    -0.148 NA
HETATM    4  C   UNL     1      -6.286  -1.248 -34.435  1.00  0.00     0.115 A 
HETATM    5  C   UNL     1      -7.531  -0.727 -34.841  1.00  0.00     0.087 A 
ENDROOT
BRANCH   1   6
HETATM    6  N   UNL     1      -8.472   1.602 -34.591  1.00  0.00    -0.307 N 
HETATM    7  C   UNL     1      -9.509   1.720 -33.687  1.00  0.00     0.258 C 
HETATM    8  O   UNL     1      -9.809   0.928 -32.801  1.00  0.00    -0.267 OA
HETATM    9  H   UNL     1      -8.350   2.317 -35.312  1.00  0.00     0.170 HD
BRANCH   7  10
HETATM   10  C   UNL     1     -10.243   3.005 -33.754  1.00  0.00     0.049 A 
HETATM   11  C   UNL     1     -11.463   3.178 -34.423  1.00  0.00     0.016 A 
HETATM   12  C   UNL     1     -12.034   4.460 -34.457  1.00  0.00     0.019 A 
HETATM   13  C   UNL     1     -11.415   5.539 -33.817  1.00  0.00     0.001 A 
HETATM   14  C   UNL     1     -10.219   5.352 -33.132  1.00  0.00     0.001 A 
HETATM   15  C   UNL     1      -9.635   4.087 -33.098  1.00  0.00     0.018 A 
BRANCH  11  16
HETATM   16  S   UNL     1     -12.385   1.858 -35.198  1.00  0.00    -0.129 SA
BRANCH  16  17
HETATM   17  C   UNL     1     -13.303   1.277 -33.732  1.00  0.00     0.075 C 
HETATM   18  C   UNL     1     -13.235  -0.236 -33.637  1.00  0.00     0.016 C 
ENDBRANCH  16  17
ENDBRANCH  11  16
ENDBRANCH   7  10
ENDBRANCH   1   6
BRANCH   2  19
HETATM   19  C   UNL     1      -5.732   2.022 -33.413  1.00  0.00     0.732 A 
HETATM   20  N   UNL     1      -6.250   3.191 -33.627  1.00  0.00    -0.067 NA
HETATM   21  C   UNL     1      -5.624   4.252 -33.008  1.00  0.00     0.065 A 
HETATM   22  C   UNL     1      -4.539   4.138 -32.216  1.00  0.00     0.036 A 
HETATM   23  C   UNL     1      -6.260   5.601 -33.258  1.00  0.00     0.060 C 
HETATM   24  C   UNL     1      -3.848   5.289 -31.545  1.00  0.00     0.046 C 
HETATM   25  C   UNL     1      -3.981   2.782 -31.990  1.00  0.00     0.268 A 
HETATM   26  C   UNL     1      -4.302   6.650 -32.074  1.00  0.00     0.005 C 
HETATM   27  C   UNL     1      -5.812   6.684 -32.274  1.00  0.00     0.006 C 
HETATM   28  O   UNL     1      -3.012   2.582 -31.270  1.00  0.00    -0.267 OA
HETATM   29  N   UNL     1      -4.634   1.782 -32.636  1.00  0.00    -0.152 N 
HETATM   30  H   UNL     1      -4.310   0.827 -32.519  1.00  0.00     0.188 HD
ENDBRANCH   2  19
BRANCH   4  31
HETATM   31  C   UNL     1      -5.892  -2.684 -34.526  1.00  0.00     0.105 A 
HETATM   32  O   UNL     1      -4.663  -3.172 -34.172  1.00  0.00    -0.320 OA
HETATM   33  C   UNL     1      -4.670  -4.506 -34.423  1.00  0.00     0.142 A 
HETATM   34  C   UNL     1      -5.886  -4.894 -34.933  1.00  0.00     0.027 A 
HETATM   35  C   UNL     1      -6.676  -3.719 -34.996  1.00  0.00     0.041 A 
ENDBRANCH   4  31
TORSDOF 6
ENDMDL
MODEL 4
REMARK VINA RESULT:      -9.1      2.509      6.714
REMARK  6 active torsions:
REMARK  status: ('A' for Active; 'I' for Inactive)
REMARK    1  A    between atoms: C_2  and  S_3 
REMARK    2  A    between atoms: S_3  and  C_4 
REMARK    3  A    between atoms: C_5  and  C_6 
REMARK       I    between atoms: C_6  and  N_7 
REMARK    4  A    between atoms: N_7  and  C_8 
REMARK    5  A    between atoms: N_9  and  C_10 
REMARK    6  A    between atoms: C_22  and  C_23 
ROOT
HETATM    1  C   UNL     1      -7.685   0.011 -34.428  1.00  0.00     0.152 A 
HETATM    2  N   UNL     1      -6.551   0.404 -33.730  1.00  0.00    -0.044 N 
HETATM    3  N   UNL     1      -5.614  -0.591 -33.649  1.00  0.00    -0.148 NA
HETATM    4  C   UNL     1      -6.183  -1.620 -34.289  1.00  0.00     0.115 A 
HETATM    5  C   UNL     1      -7.447  -1.288 -34.817  1.00  0.00     0.087 A 
ENDROOT
BRANCH   1   6
HETATM    6  N   UNL     1      -8.789   0.838 -34.590  1.00  0.00    -0.307 N 
HETATM    7  C   UNL     1      -9.918   0.740 -33.802  1.00  0.00     0.258 C 
HETATM    8  O   UNL     1     -10.171  -0.134 -32.980  1.00  0.00    -0.267 OA
HETATM    9  H   UNL     1      -8.714   1.598 -35.270  1.00  0.00     0.170 HD
BRANCH   7  10
HETATM   10  C   UNL     1     -10.846   1.889 -33.909  1.00  0.00     0.049 A 
HETATM   11  C   UNL     1     -10.850   2.981 -33.029  1.00  0.00     0.016 A 
HETATM   12  C   UNL     1     -11.815   3.984 -33.207  1.00  0.00     0.019 A 
HETATM   13  C   UNL     1     -12.740   3.913 -34.254  1.00  0.00     0.001 A 
HETATM   14  C   UNL     1     -12.710   2.841 -35.140  1.00  0.00     0.001 A 
HETATM   15  C   UNL     1     -11.765   1.832 -34.970  1.00  0.00     0.018 A 
BRANCH  11  16
HETATM   16  S   UNL     1      -9.664   3.219 -31.712  1.00  0.00    -0.129 SA
BRANCH  16  17
HETATM   17  C   UNL     1      -9.532   5.037 -31.799  1.00  0.00     0.075 C 
HETATM   18  C   UNL     1      -9.238   5.607 -30.423  1.00  0.00     0.016 C 
ENDBRANCH  16  17
ENDBRANCH  11  16
ENDBRANCH   7  10
ENDBRANCH   1   6
BRANCH   2  19
HETATM   19  C   UNL     1      -6.302   1.633 -33.087  1.00  0.00     0.732 A 
HETATM   20  N   UNL     1      -6.319   2.777 -33.697  1.00  0.00    -0.067 NA
HETATM   21  C   UNL     1      -6.068   3.884 -32.914  1.00  0.00     0.065 A 
HETATM   22  C   UNL     1      -5.817   3.837 -31.591  1.00  0.00     0.036 A 
HETATM   23  C   UNL     1      -6.113   5.206 -33.647  1.00  0.00     0.060 C 
HETATM   24  C   UNL     1      -5.536   5.036 -30.733  1.00  0.00     0.046 C 
HETATM   25  C   UNL     1      -5.815   2.510 -30.928  1.00  0.00     0.268 A 
HETATM   26  C   UNL     1      -5.263   6.302 -31.547  1.00  0.00     0.005 C 
HETATM   27  C   UNL     1      -6.228   6.418 -32.720  1.00  0.00     0.006 C 
HETATM   28  O   UNL     1      -5.618   2.375 -29.727  1.00  0.00    -0.267 OA
HETATM   29  N   UNL     1      -6.056   1.460 -31.755  1.00  0.00    -0.152 N 
HETATM   30  H   UNL     1      -6.078   0.522 -31.365  1.00  0.00     0.188 HD
ENDBRANCH   2  19
BRANCH   4  31
HETATM   31  C   UNL     1      -5.544  -2.965 -34.387  1.00  0.00     0.105 A 
HETATM   32  O   UNL     1      -4.290  -3.261 -33.926  1.00  0.00    -0.320 OA
HETATM   33  C   UNL     1      -4.047  -4.564 -34.221  1.00  0.00     0.142 A 
HETATM   34  C   UNL     1      -5.126  -5.121 -34.865  1.00  0.00     0.027 A 
HETATM   35  C   UNL     1      -6.094  -4.092 -34.969  1.00  0.00     0.041 A 
ENDBRANCH   4  31
TORSDOF 6
ENDMDL
MODEL 5
REMARK VINA RESULT:      -9.1      2.593      6.928
REMARK  6 active torsions:
REMARK  status: ('A' for Active; 'I' for Inactive)
REMARK    1  A    between atoms: C_2  and  S_3 
REMARK    2  A    between atoms: S_3  and  C_4 
REMARK    3  A    between atoms: C_5  and  C_6 
REMARK       I    between atoms: C_6  and  N_7 
REMARK    4  A    between atoms: N_7  and  C_8 
REMARK    5  A    between atoms: N_9  and  C_10 
REMARK    6  A    between atoms: C_22  and  C_23 
ROOT
HETATM    1  C   UNL     1      -7.714   0.125 -34.417  1.00  0.00     0.152 A 
HETATM    2  N   UNL     1      -6.588   0.589 -33.751  1.00  0.00    -0.044 N 
HETATM    3  N   UNL     1      -5.612  -0.364 -33.643  1.00  0.00    -0.148 NA
HETATM    4  C   UNL     1      -6.148  -1.440 -34.232  1.00  0.00     0.115 A 
HETATM    5  C   UNL     1      -7.430  -1.179 -34.755  1.00  0.00     0.087 A 
ENDROOT
BRANCH   1   6
HETATM    6  N   UNL     1      -8.852   0.900 -34.596  1.00  0.00    -0.307 N 
HETATM    7  C   UNL     1      -9.964   0.795 -33.786  1.00  0.00     0.258 C 
HETATM    8  O   UNL     1     -10.170  -0.050 -32.921  1.00  0.00    -0.267 OA
HETATM    9  H   UNL     1      -8.817   1.631 -35.311  1.00  0.00     0.170 HD
BRANCH   7  10
HETATM   10  C   UNL     1     -10.938   1.902 -33.928  1.00  0.00     0.049 A 
HETATM   11  C   UNL     1     -11.046   2.974 -33.030  1.00  0.00     0.016 A 
HETATM   12  C   UNL     1     -12.045   3.935 -33.248  1.00  0.00     0.019 A 
HETATM   13  C   UNL     1     -12.901   3.843 -34.350  1.00  0.00     0.001 A 
HETATM   14  C   UNL     1     -12.769   2.792 -35.251  1.00  0.00     0.001 A 
HETATM   15  C   UNL     1     -11.788   1.825 -35.043  1.00  0.00     0.018 A 
BRANCH  11  16
HETATM   16  S   UNL     1      -9.953   3.239 -31.640  1.00  0.00    -0.129 SA
BRANCH  16  17
HETATM   17  C   UNL     1      -9.589   5.005 -31.922  1.00  0.00     0.075 C 
HETATM   18  C   UNL     1      -9.730   5.782 -30.626  1.00  0.00     0.016 C 
ENDBRANCH  16  17
ENDBRANCH  11  16
ENDBRANCH   7  10
ENDBRANCH   1   6
BRANCH   2  19
HETATM   19  C   UNL     1      -6.380   1.853 -33.162  1.00  0.00     0.732 A 
HETATM   20  N   UNL     1      -6.460   2.071 -31.887  1.00  0.00    -0.067 NA
HETATM   21  C   UNL     1      -6.213   3.364 -31.478  1.00  0.00     0.065 A 
HETATM   22  C   UNL     1      -5.900   4.377 -32.309  1.00  0.00     0.036 A 
HETATM   23  C   UNL     1      -6.293   3.586 -29.984  1.00  0.00     0.060 C 
HETATM   24  C   UNL     1      -5.637   5.789 -31.873  1.00  0.00     0.046 C 
HETATM   25  C   UNL     1      -5.811   4.086 -33.761  1.00  0.00     0.268 A 
HETATM   26  C   UNL     1      -6.045   6.052 -30.423  1.00  0.00     0.005 C 
HETATM   27  C   UNL     1      -5.643   4.892 -29.521  1.00  0.00     0.006 C 
HETATM   28  O   UNL     1      -5.513   4.940 -34.586  1.00  0.00    -0.267 OA
HETATM   29  N   UNL     1      -6.077   2.798 -34.101  1.00  0.00    -0.152 N 
HETATM   30  H   UNL     1      -6.026   2.526 -35.078  1.00  0.00     0.188 HD
ENDBRANCH   2  19
BRANCH   4  31
HETATM   31  C   UNL     1      -5.458  -2.762 -34.285  1.00  0.00     0.105 A 
HETATM   32  O   UNL     1      -4.181  -2.986 -33.847  1.00  0.00    -0.320 OA
HETATM   33  C   UNL     1      -3.893  -4.291 -34.086  1.00  0.00     0.142 A 
HETATM   34  C   UNL     1      -4.965  -4.920 -34.672  1.00  0.00     0.027 A 
HETATM   35  C   UNL     1      -5.977  -3.936 -34.797  1.00  0.00     0.041 A 
ENDBRANCH   4  31
TORSDOF 6
ENDMDL
MODEL 6
REMARK VINA RESULT:      -9.1      2.242      7.609
REMARK  6 active torsions:
REMARK  status: ('A' for Active; 'I' for Inactive)
REMARK    1  A    between atoms: C_2  and  S_3 
REMARK    2  A    between atoms: S_3  and  C_4 
REMARK    3  A    between atoms: C_5  and  C_6 
REMARK       I    between atoms: C_6  and  N_7 
REMARK    4  A    between atoms: N_7  and  C_8 
REMARK    5  A    between atoms: N_9  and  C_10 
REMARK    6  A    between atoms: C_22  and  C_23 
ROOT
HETATM    1  C   UNL     1      -5.839   0.783 -33.382  1.00  0.00     0.152 A 
HETATM    2  N   UNL     1      -7.173   0.423 -33.244  1.00  0.00    -0.044 N 
HETATM    3  N   UNL     1      -7.384  -0.907 -33.491  1.00  0.00    -0.148 NA
HETATM    4  C   UNL     1      -6.169  -1.373 -33.805  1.00  0.00     0.115 A 
HETATM    5  C   UNL     1      -5.177  -0.376 -33.718  1.00  0.00     0.087 A 
ENDROOT
BRANCH   1   6
HETATM    6  N   UNL     1      -5.397   2.091 -33.233  1.00  0.00    -0.307 N 
HETATM    7  C   UNL     1      -4.672   2.515 -32.138  1.00  0.00     0.258 C 
HETATM    8  O   UNL     1      -4.441   1.881 -31.114  1.00  0.00    -0.267 OA
HETATM    9  H   UNL     1      -5.552   2.734 -34.013  1.00  0.00     0.170 HD
BRANCH   7  10
HETATM   10  C   UNL     1      -4.027   3.839 -32.299  1.00  0.00     0.049 A 
HETATM   11  C   UNL     1      -4.618   5.053 -31.921  1.00  0.00     0.016 A 
HETATM   12  C   UNL     1      -3.923   6.246 -32.174  1.00  0.00     0.019 A 
HETATM   13  C   UNL     1      -2.657   6.227 -32.768  1.00  0.00     0.001 A 
HETATM   14  C   UNL     1      -2.067   5.017 -33.115  1.00  0.00     0.001 A 
HETATM   15  C   UNL     1      -2.747   3.824 -32.880  1.00  0.00     0.018 A 
BRANCH  11  16
HETATM   16  S   UNL     1      -6.187   5.190 -31.077  1.00  0.00    -0.129 SA
BRANCH  16  17
HETATM   17  C   UNL     1      -7.121   6.048 -32.389  1.00  0.00     0.075 C 
HETATM   18  C   UNL     1      -7.296   5.136 -33.589  1.00  0.00     0.016 C 
ENDBRANCH  16  17
ENDBRANCH  11  16
ENDBRANCH   7  10
ENDBRANCH   1   6
BRANCH   2  19
HETATM   19  C   UNL     1      -8.275   1.249 -32.947  1.00  0.00     0.732 A 
HETATM   20  N   UNL     1      -8.348   1.992 -31.888  1.00  0.00    -0.067 NA
HETATM   21  C   UNL     1      -9.493   2.750 -31.758  1.00  0.00     0.065 A 
HETATM   22  C   UNL     1     -10.504   2.758 -32.648  1.00  0.00     0.036 A 
HETATM   23  C   UNL     1      -9.543   3.622 -30.523  1.00  0.00     0.060 C 
HETATM   24  C   UNL     1     -11.756   3.574 -32.511  1.00  0.00     0.046 C 
HETATM   25  C   UNL     1     -10.379   1.899 -33.852  1.00  0.00     0.268 A 
HETATM   26  C   UNL     1     -11.924   4.179 -31.117  1.00  0.00     0.005 C 
HETATM   27  C   UNL     1     -10.602   4.724 -30.592  1.00  0.00     0.006 C 
HETATM   28  O   UNL     1     -11.238   1.859 -34.723  1.00  0.00    -0.267 OA
HETATM   29  N   UNL     1      -9.235   1.169 -33.915  1.00  0.00    -0.152 N 
HETATM   30  H   UNL     1      -9.080   0.566 -34.717  1.00  0.00     0.188 HD
ENDBRANCH   2  19
BRANCH   4  31
HETATM   31  C   UNL     1      -5.927  -2.783 -34.226  1.00  0.00     0.105 A 
HETATM   32  O   UNL     1      -4.746  -3.452 -34.049  1.00  0.00    -0.320 OA
HETATM   33  C   UNL     1      -4.896  -4.690 -34.585  1.00  0.00     0.142 A 
HETATM   34  C   UNL     1      -6.160  -4.838 -35.106  1.00  0.00     0.027 A 
HETATM   35  C   UNL     1      -6.827  -3.610 -34.872  1.00  0.00     0.041 A 
ENDBRANCH   4  31
TORSDOF 6
ENDMDL
MODEL 7
REMARK VINA RESULT:      -9.0      1.898      2.876
REMARK  6 active torsions:
REMARK  status: ('A' for Active; 'I' for Inactive)
REMARK    1  A    between atoms: C_2  and  S_3 
REMARK    2  A    between atoms: S_3  and  C_4 
REMARK    3  A    between atoms: C_5  and  C_6 
REMARK       I    between atoms: C_6  and  N_7 
REMARK    4  A    between atoms: N_7  and  C_8 
REMARK    5  A    between atoms: N_9  and  C_10 
REMARK    6  A    between atoms: C_22  and  C_23 
ROOT
HETATM    1  C   UNL     1      -7.157   2.839 -33.609  1.00  0.00     0.152 A 
HETATM    2  N   UNL     1      -6.950   4.209 -33.688  1.00  0.00    -0.044 N 
HETATM    3  N   UNL     1      -8.074   4.887 -34.079  1.00  0.00    -0.148 NA
HETATM    4  C   UNL     1      -8.983   3.922 -34.264  1.00  0.00     0.115 A 
HETATM    5  C   UNL     1      -8.475   2.644 -33.954  1.00  0.00     0.087 A 
ENDROOT
BRANCH   1   6
HETATM    6  N   UNL     1      -6.144   1.946 -33.284  1.00  0.00    -0.307 N 
HETATM    7  C   UNL     1      -6.301   0.947 -32.345  1.00  0.00     0.258 C 
HETATM    8  O   UNL     1      -7.252   0.788 -31.588  1.00  0.00    -0.267 OA
HETATM    9  H   UNL     1      -5.281   1.992 -33.831  1.00  0.00     0.170 HD
BRANCH   7  10
HETATM   10  C   UNL     1      -5.240  -0.087 -32.361  1.00  0.00     0.049 A 
HETATM   11  C   UNL     1      -5.286  -1.248 -33.146  1.00  0.00     0.016 A 
HETATM   12  C   UNL     1      -4.240  -2.177 -33.033  1.00  0.00     0.019 A 
HETATM   13  C   UNL     1      -3.160  -1.942 -32.176  1.00  0.00     0.001 A 
HETATM   14  C   UNL     1      -3.109  -0.775 -31.422  1.00  0.00     0.001 A 
HETATM   15  C   UNL     1      -4.144   0.153 -31.516  1.00  0.00     0.018 A 
BRANCH  11  16
HETATM   16  S   UNL     1      -6.569  -1.610 -34.337  1.00  0.00    -0.129 SA
BRANCH  16  17
HETATM   17  C   UNL     1      -5.827  -3.101 -35.083  1.00  0.00     0.075 C 
HETATM   18  C   UNL     1      -6.744  -4.295 -34.890  1.00  0.00     0.016 C 
ENDBRANCH  16  17
ENDBRANCH  11  16
ENDBRANCH   7  10
ENDBRANCH   1   6
BRANCH   2  19
HETATM   19  C   UNL     1      -5.757   4.928 -33.471  1.00  0.00     0.732 A 
HETATM   20  N   UNL     1      -4.636   4.646 -34.055  1.00  0.00    -0.067 NA
HETATM   21  C   UNL     1      -3.568   5.460 -33.739  1.00  0.00     0.065 A 
HETATM   22  C   UNL     1      -3.632   6.499 -32.884  1.00  0.00     0.036 A 
HETATM   23  C   UNL     1      -2.277   5.122 -34.449  1.00  0.00     0.060 C 
HETATM   24  C   UNL     1      -2.474   7.386 -32.529  1.00  0.00     0.046 C 
HETATM   25  C   UNL     1      -4.937   6.794 -32.241  1.00  0.00     0.268 A 
HETATM   26  C   UNL     1      -1.129   6.826 -32.996  1.00  0.00     0.005 C 
HETATM   27  C   UNL     1      -1.236   6.243 -34.399  1.00  0.00     0.006 C 
HETATM   28  O   UNL     1      -5.092   7.730 -31.468  1.00  0.00    -0.267 OA
HETATM   29  N   UNL     1      -5.944   5.950 -32.584  1.00  0.00    -0.152 N 
HETATM   30  H   UNL     1      -6.867   6.099 -32.187  1.00  0.00     0.188 HD
ENDBRANCH   2  19
BRANCH   4  31
HETATM   31  C   UNL     1     -10.359   4.193 -34.774  1.00  0.00     0.105 A 
HETATM   32  O   UNL     1     -10.845   5.439 -35.064  1.00  0.00    -0.320 OA
HETATM   33  C   UNL     1     -12.132   5.288 -35.467  1.00  0.00     0.142 A 
HETATM   34  C   UNL     1     -12.490   3.961 -35.446  1.00  0.00     0.027 A 
HETATM   35  C   UNL     1     -11.346   3.253 -35.003  1.00  0.00     0.041 A 
ENDBRANCH   4  31
TORSDOF 6
ENDMDL
MODEL 8
REMARK VINA RESULT:      -9.0      1.799      2.377
REMARK  6 active torsions:
REMARK  status: ('A' for Active; 'I' for Inactive)
REMARK    1  A    between atoms: C_2  and  S_3 
REMARK    2  A    between atoms: S_3  and  C_4 
REMARK    3  A    between atoms: C_5  and  C_6 
REMARK       I    between atoms: C_6  and  N_7 
REMARK    4  A    between atoms: N_7  and  C_8 
REMARK    5  A    between atoms: N_9  and  C_10 
REMARK    6  A    between atoms: C_22  and  C_23 
ROOT
HETATM    1  C   UNL     1      -7.705   3.166 -33.948  1.00  0.00     0.152 A 
HETATM    2  N   UNL     1      -7.306   4.495 -33.886  1.00  0.00    -0.044 N 
HETATM    3  N   UNL     1      -8.336   5.364 -34.128  1.00  0.00    -0.148 NA
HETATM    4  C   UNL     1      -9.383   4.563 -34.362  1.00  0.00     0.115 A 
HETATM    5  C   UNL     1      -9.053   3.200 -34.229  1.00  0.00     0.087 A 
ENDROOT
BRANCH   1   6
HETATM    6  N   UNL     1      -6.819   2.109 -33.790  1.00  0.00    -0.307 N 
HETATM    7  C   UNL     1      -7.092   1.017 -32.991  1.00  0.00     0.258 C 
HETATM    8  O   UNL     1      -8.041   0.882 -32.225  1.00  0.00    -0.267 OA
HETATM    9  H   UNL     1      -5.969   2.116 -34.359  1.00  0.00     0.170 HD
BRANCH   7  10
HETATM   10  C   UNL     1      -6.185  -0.136 -33.191  1.00  0.00     0.049 A 
HETATM   11  C   UNL     1      -5.112  -0.448 -32.345  1.00  0.00     0.016 A 
HETATM   12  C   UNL     1      -4.294  -1.540 -32.672  1.00  0.00     0.019 A 
HETATM   13  C   UNL     1      -4.554  -2.319 -33.804  1.00  0.00     0.001 A 
HETATM   14  C   UNL     1      -5.638  -2.020 -34.622  1.00  0.00     0.001 A 
HETATM   15  C   UNL     1      -6.454  -0.933 -34.317  1.00  0.00     0.018 A 
BRANCH  11  16
HETATM   16  S   UNL     1      -4.737   0.422 -30.829  1.00  0.00    -0.129 SA
BRANCH  16  17
HETATM   17  C   UNL     1      -3.470   1.561 -31.482  1.00  0.00     0.075 C 
HETATM   18  C   UNL     1      -3.880   3.001 -31.231  1.00  0.00     0.016 C 
ENDBRANCH  16  17
ENDBRANCH  11  16
ENDBRANCH   7  10
ENDBRANCH   1   6
BRANCH   2  19
HETATM   19  C   UNL     1      -6.013   5.009 -33.666  1.00  0.00     0.732 A 
HETATM   20  N   UNL     1      -4.972   4.648 -34.348  1.00  0.00    -0.067 NA
HETATM   21  C   UNL     1      -3.784   5.262 -34.011  1.00  0.00     0.065 A 
HETATM   22  C   UNL     1      -3.657   6.189 -33.042  1.00  0.00     0.036 A 
HETATM   23  C   UNL     1      -2.590   4.837 -34.837  1.00  0.00     0.060 C 
HETATM   24  C   UNL     1      -2.367   6.857 -32.664  1.00  0.00     0.046 C 
HETATM   25  C   UNL     1      -4.873   6.582 -32.288  1.00  0.00     0.268 A 
HETATM   26  C   UNL     1      -1.141   6.178 -33.276  1.00  0.00     0.005 C 
HETATM   27  C   UNL     1      -1.397   5.788 -34.726  1.00  0.00     0.006 C 
HETATM   28  O   UNL     1      -4.855   7.430 -31.406  1.00  0.00    -0.267 OA
HETATM   29  N   UNL     1      -6.007   5.933 -32.659  1.00  0.00    -0.152 N 
HETATM   30  H   UNL     1      -6.879   6.159 -32.190  1.00  0.00     0.188 HD
ENDBRANCH   2  19
BRANCH   4  31
HETATM   31  C   UNL     1     -10.727   5.081 -34.750  1.00  0.00     0.105 A 
HETATM   32  O   UNL     1     -11.895   4.381 -34.615  1.00  0.00    -0.320 OA
HETATM   33  C   UNL     1     -12.894   5.160 -35.101  1.00  0.00     0.142 A 
HETATM   34  C   UNL     1     -12.394   6.360 -35.548  1.00  0.00     0.027 A 
HETATM   35  C   UNL     1     -10.997   6.312 -35.319  1.00  0.00     0.041 A 
ENDBRANCH   4  31
TORSDOF 6
ENDMDL
MODEL 9
REMARK VINA RESULT:      -8.9      1.393      1.977
REMARK  6 active torsions:
REMARK  status: ('A' for Active; 'I' for Inactive)
REMARK    1  A    between atoms: C_2  and  S_3 
REMARK    2  A    between atoms: S_3  and  C_4 
REMARK    3  A    between atoms: C_5  and  C_6 
REMARK       I    between atoms: C_6  and  N_7 
REMARK    4  A    between atoms: N_7  and  C_8 
REMARK    5  A    between atoms: N_9  and  C_10 
REMARK    6  A    between atoms: C_22  and  C_23 
ROOT
HETATM    1  C   UNL     1      -7.852   2.189 -34.081  1.00  0.00     0.152 A 
HETATM    2  N   UNL     1      -7.376   3.461 -33.794  1.00  0.00    -0.044 N 
HETATM    3  N   UNL     1      -8.369   4.404 -33.791  1.00  0.00    -0.148 NA
HETATM    4  C   UNL     1      -9.472   3.710 -34.099  1.00  0.00     0.115 A 
HETATM    5  C   UNL     1      -9.210   2.334 -34.255  1.00  0.00     0.087 A 
ENDROOT
BRANCH   1   6
HETATM    6  N   UNL     1      -7.018   1.084 -34.191  1.00  0.00    -0.307 N 
HETATM    7  C   UNL     1      -7.057   0.026 -33.306  1.00  0.00     0.258 C 
HETATM    8  O   UNL     1      -7.693  -0.037 -32.259  1.00  0.00    -0.267 OA
HETATM    9  H   UNL     1      -6.414   1.029 -35.015  1.00  0.00     0.170 HD
BRANCH   7  10
HETATM   10  C   UNL     1      -6.330  -1.183 -33.756  1.00  0.00     0.049 A 
HETATM   11  C   UNL     1      -4.936  -1.323 -33.715  1.00  0.00     0.016 A 
HETATM   12  C   UNL     1      -4.364  -2.501 -34.220  1.00  0.00     0.019 A 
HETATM   13  C   UNL     1      -5.165  -3.527 -34.732  1.00  0.00     0.001 A 
HETATM   14  C   UNL     1      -6.549  -3.391 -34.743  1.00  0.00     0.001 A 
HETATM   15  C   UNL     1      -7.132  -2.224 -34.254  1.00  0.00     0.018 A 
BRANCH  11  16
HETATM   16  S   UNL     1      -3.822  -0.118 -33.006  1.00  0.00    -0.129 SA
BRANCH  16  17
HETATM   17  C   UNL     1      -3.973  -0.614 -31.256  1.00  0.00     0.075 C 
HETATM   18  C   UNL     1      -4.749   0.435 -30.480  1.00  0.00     0.016 C 
ENDBRANCH  16  17
ENDBRANCH  11  16
ENDBRANCH   7  10
ENDBRANCH   1   6
BRANCH   2  19
HETATM   19  C   UNL     1      -6.045   3.867 -33.571  1.00  0.00     0.732 A 
HETATM   20  N   UNL     1      -5.397   3.624 -32.476  1.00  0.00    -0.067 NA
HETATM   21  C   UNL     1      -4.096   4.080 -32.429  1.00  0.00     0.065 A 
HETATM   22  C   UNL     1      -3.486   4.741 -33.433  1.00  0.00     0.036 A 
HETATM   23  C   UNL     1      -3.356   3.767 -31.148  1.00  0.00     0.060 C 
HETATM   24  C   UNL     1      -2.074   5.247 -33.388  1.00  0.00     0.046 C 
HETATM   25  C   UNL     1      -4.260   4.991 -34.674  1.00  0.00     0.268 A 
HETATM   26  C   UNL     1      -1.471   5.210 -31.983  1.00  0.00     0.005 C 
HETATM   27  C   UNL     1      -1.838   3.919 -31.262  1.00  0.00     0.006 C 
HETATM   28  O   UNL     1      -3.780   5.565 -35.643  1.00  0.00    -0.267 OA
HETATM   29  N   UNL     1      -5.537   4.529 -34.652  1.00  0.00    -0.152 N 
HETATM   30  H   UNL     1      -6.121   4.659 -35.473  1.00  0.00     0.188 HD
ENDBRANCH   2  19
BRANCH   4  31
HETATM   31  C   UNL     1     -10.806   4.351 -34.285  1.00  0.00     0.105 A 
HETATM   32  O   UNL     1     -11.202   5.507 -33.668  1.00  0.00    -0.320 OA
HETATM   33  C   UNL     1     -12.478   5.757 -34.055  1.00  0.00     0.142 A 
HETATM   34  C   UNL     1     -12.919   4.782 -34.918  1.00  0.00     0.027 A 
HETATM   35  C   UNL     1     -11.840   3.877 -35.070  1.00  0.00     0.041 A 
ENDBRANCH   4  31
TORSDOF 6
ENDMDL
MODEL 10
REMARK VINA RESULT:      -8.7      2.006      7.566
REMARK  6 active torsions:
REMARK  status: ('A' for Active; 'I' for Inactive)
REMARK    1  A    between atoms: C_2  and  S_3 
REMARK    2  A    between atoms: S_3  and  C_4 
REMARK    3  A    between atoms: C_5  and  C_6 
REMARK       I    between atoms: C_6  and  N_7 
REMARK    4  A    between atoms: N_7  and  C_8 
REMARK    5  A    between atoms: N_9  and  C_10 
REMARK    6  A    between atoms: C_22  and  C_23 
ROOT
HETATM    1  C   UNL     1      -6.590   0.735 -32.787  1.00  0.00     0.152 A 
HETATM    2  N   UNL     1      -7.757   0.459 -33.485  1.00  0.00    -0.044 N 
HETATM    3  N   UNL     1      -7.752  -0.793 -34.040  1.00  0.00    -0.148 NA
HETATM    4  C   UNL     1      -6.558  -1.291 -33.697  1.00  0.00     0.115 A 
HETATM    5  C   UNL     1      -5.818  -0.399 -32.895  1.00  0.00     0.087 A 
ENDROOT
BRANCH   1   6
HETATM    6  N   UNL     1      -6.350   1.964 -32.186  1.00  0.00    -0.307 N 
HETATM    7  C   UNL     1      -5.101   2.551 -32.157  1.00  0.00     0.258 C 
HETATM    8  O   UNL     1      -4.040   2.045 -32.507  1.00  0.00    -0.267 OA
HETATM    9  H   UNL     1      -7.156   2.480 -31.828  1.00  0.00     0.170 HD
BRANCH   7  10
HETATM   10  C   UNL     1      -5.098   3.978 -31.762  1.00  0.00     0.049 A 
HETATM   11  C   UNL     1      -4.928   5.042 -32.659  1.00  0.00     0.016 A 
HETATM   12  C   UNL     1      -4.894   6.350 -32.152  1.00  0.00     0.019 A 
HETATM   13  C   UNL     1      -5.052   6.594 -30.784  1.00  0.00     0.001 A 
HETATM   14  C   UNL     1      -5.249   5.535 -29.904  1.00  0.00     0.001 A 
HETATM   15  C   UNL     1      -5.275   4.230 -30.391  1.00  0.00     0.018 A 
BRANCH  11  16
HETATM   16  S   UNL     1      -4.804   4.855 -34.433  1.00  0.00    -0.129 SA
BRANCH  16  17
HETATM   17  C   UNL     1      -3.150   5.591 -34.663  1.00  0.00     0.075 C 
HETATM   18  C   UNL     1      -2.094   4.723 -34.003  1.00  0.00     0.016 C 
ENDBRANCH  16  17
ENDBRANCH  11  16
ENDBRANCH   7  10
ENDBRANCH   1   6
BRANCH   2  19
HETATM   19  C   UNL     1      -8.861   1.305 -33.713  1.00  0.00     0.732 A 
HETATM   20  N   UNL     1      -8.751   2.553 -34.043  1.00  0.00    -0.067 NA
HETATM   21  C   UNL     1      -9.933   3.233 -34.243  1.00  0.00     0.065 A 
HETATM   22  C   UNL     1     -11.157   2.682 -34.119  1.00  0.00     0.036 A 
HETATM   23  C   UNL     1      -9.775   4.682 -34.645  1.00  0.00     0.060 C 
HETATM   24  C   UNL     1     -12.449   3.416 -34.327  1.00  0.00     0.046 C 
HETATM   25  C   UNL     1     -11.241   1.248 -33.748  1.00  0.00     0.268 A 
HETATM   26  C   UNL     1     -12.268   4.933 -34.405  1.00  0.00     0.005 C 
HETATM   27  C   UNL     1     -11.045   5.297 -35.237  1.00  0.00     0.006 C 
HETATM   28  O   UNL     1     -12.309   0.660 -33.634  1.00  0.00    -0.267 OA
HETATM   29  N   UNL     1     -10.043   0.638 -33.553  1.00  0.00    -0.152 N 
HETATM   30  H   UNL     1     -10.026  -0.346 -33.305  1.00  0.00     0.188 HD
ENDBRANCH   2  19
BRANCH   4  31
HETATM   31  C   UNL     1      -6.076  -2.627 -34.154  1.00  0.00     0.105 A 
HETATM   32  O   UNL     1      -4.792  -3.079 -34.009  1.00  0.00    -0.320 OA
HETATM   33  C   UNL     1      -4.730  -4.313 -34.570  1.00  0.00     0.142 A 
HETATM   34  C   UNL     1      -5.956  -4.673 -35.077  1.00  0.00     0.027 A 
HETATM   35  C   UNL     1      -6.826  -3.588 -34.806  1.00  0.00     0.041 A 
ENDBRANCH   4  31
TORSDOF 6
ENDMDL
