MODEL 1
REMARK VINA RESULT:      -8.3      0.000      0.000
REMARK  5 active torsions:
REMARK  status: ('A' for Active; 'I' for Inactive)
REMARK    1  A    between atoms: N_3  and  C_4 
REMARK    2  A    between atoms: C_12  and  C_13 
REMARK    3  A    between atoms: C_13  and  N_14 
REMARK       I    between atoms: N_14  and  C_15 
REMARK       I    between atoms: C_15  and  N_16 
REMARK    4  A    between atoms: N_16  and  C_17 
REMARK    5  A    between atoms: C_17  and  C_18 
ROOT
HETATM    1  C   UNL     1      -6.122   4.868 -33.806  1.00  0.00     0.165 C 
ENDROOT
BRANCH   1   2
HETATM    2  C   UNL     1      -4.658   5.127 -33.618  1.00  0.00    -0.016 A 
HETATM    3  C   UNL     1      -3.985   5.348 -32.420  1.00  0.00     0.021 A 
HETATM    4  N   UNL     1      -2.636   5.573 -32.699  1.00  0.00    -0.319 N 
HETATM    5  C   UNL     1      -4.550   5.276 -31.036  1.00  0.00     0.069 C 
HETATM    6  C   UNL     1      -2.456   5.432 -34.073  1.00  0.00     0.014 A 
HETATM    7  C   UNL     1      -1.167   5.649 -34.790  1.00  0.00     0.068 C 
HETATM    8  C   UNL     1      -3.685   5.163 -34.642  1.00  0.00     0.035 A 
BRANCH   4   9
HETATM    9  C   UNL     1      -1.628   5.910 -31.748  1.00  0.00     0.039 A 
HETATM   10  C   UNL     1      -1.424   7.250 -31.390  1.00  0.00     0.030 A 
HETATM   11  C   UNL     1      -0.431   7.583 -30.467  1.00  0.00     0.002 A 
HETATM   12  C   UNL     1       0.356   6.585 -29.895  1.00  0.00     0.000 A 
HETATM   13  C   UNL     1       0.155   5.251 -30.246  1.00  0.00     0.002 A 
HETATM   14  C   UNL     1      -0.834   4.911 -31.173  1.00  0.00     0.030 A 
ENDBRANCH   4   9
ENDBRANCH   1   2
BRANCH   1  15
HETATM   15  N   UNL     1      -6.281   3.503 -34.254  1.00  0.00    -0.339 N 
HETATM   16  C   UNL     1      -6.572   2.500 -33.373  1.00  0.00     0.316 C 
HETATM   17  N   UNL     1      -6.894   1.340 -34.025  1.00  0.00    -0.339 N 
HETATM   18  O   UNL     1      -6.579   2.627 -32.157  1.00  0.00    -0.247 OA
HETATM   19  H   UNL     1      -6.457   1.195 -34.922  1.00  0.00     0.164 HD
HETATM   20  H   UNL     1      -6.561   3.371 -35.213  1.00  0.00     0.164 HD
BRANCH  17  21
HETATM   21  C   UNL     1      -7.242   0.157 -33.272  1.00  0.00     0.162 C 
BRANCH  21  22
HETATM   22  C   UNL     1      -6.365  -1.015 -33.634  1.00  0.00    -0.040 A 
HETATM   23  C   UNL     1      -6.792  -1.952 -34.585  1.00  0.00     0.009 A 
HETATM   24  C   UNL     1      -5.961  -3.010 -34.962  1.00  0.00     0.001 A 
HETATM   25  C   UNL     1      -4.694  -3.141 -34.397  1.00  0.00     0.000 A 
HETATM   26  C   UNL     1      -4.252  -2.210 -33.459  1.00  0.00     0.001 A 
HETATM   27  C   UNL     1      -5.079  -1.148 -33.087  1.00  0.00     0.009 A 
ENDBRANCH  21  22
ENDBRANCH  17  21
ENDBRANCH   1  15
TORSDOF 5
ENDMDL
MODEL 2
REMARK VINA RESULT:      -8.2      2.202      3.711
REMARK  5 active torsions:
REMARK  status: ('A' for Active; 'I' for Inactive)
REMARK    1  A    between atoms: N_3  and  C_4 
REMARK    2  A    between atoms: C_12  and  C_13 
REMARK    3  A    between atoms: C_13  and  N_14 
REMARK       I    between atoms: N_14  and  C_15 
REMARK       I    between atoms: C_15  and  N_16 
REMARK    4  A    between atoms: N_16  and  C_17 
REMARK    5  A    between atoms: C_17  and  C_18 
ROOT
HETATM    1  C   UNL     1      -1.854   4.474 -32.626  1.00  0.00     0.165 C 
ENDROOT
BRANCH   1   2
HETATM    2  C   UNL     1      -1.763   5.411 -31.461  1.00  0.00    -0.016 A 
HETATM    3  C   UNL     1      -0.656   5.651 -30.652  1.00  0.00     0.021 A 
HETATM    4  N   UNL     1      -1.011   6.575 -29.669  1.00  0.00    -0.319 N 
HETATM    5  C   UNL     1       0.727   5.104 -30.824  1.00  0.00     0.069 C 
HETATM    6  C   UNL     1      -2.328   6.960 -29.902  1.00  0.00     0.014 A 
HETATM    7  C   UNL     1      -3.109   7.894 -29.040  1.00  0.00     0.068 C 
HETATM    8  C   UNL     1      -2.797   6.253 -30.991  1.00  0.00     0.035 A 
BRANCH   4   9
HETATM    9  C   UNL     1      -0.178   7.026 -28.602  1.00  0.00     0.039 A 
HETATM   10  C   UNL     1       0.746   8.057 -28.822  1.00  0.00     0.030 A 
HETATM   11  C   UNL     1       1.568   8.493 -27.782  1.00  0.00     0.002 A 
HETATM   12  C   UNL     1       1.470   7.908 -26.520  1.00  0.00     0.000 A 
HETATM   13  C   UNL     1       0.550   6.884 -26.297  1.00  0.00     0.002 A 
HETATM   14  C   UNL     1      -0.273   6.441 -27.335  1.00  0.00     0.030 A 
ENDBRANCH   4   9
ENDBRANCH   1   2
BRANCH   1  15
HETATM   15  N   UNL     1      -3.242   4.108 -32.798  1.00  0.00    -0.339 N 
HETATM   16  C   UNL     1      -3.736   2.947 -32.274  1.00  0.00     0.316 C 
HETATM   17  N   UNL     1      -5.102   2.900 -32.361  1.00  0.00    -0.339 N 
HETATM   18  O   UNL     1      -3.053   2.073 -31.760  1.00  0.00    -0.247 OA
HETATM   19  H   UNL     1      -5.517   3.392 -33.138  1.00  0.00     0.164 HD
HETATM   20  H   UNL     1      -3.894   4.861 -32.947  1.00  0.00     0.164 HD
BRANCH  17  21
HETATM   21  C   UNL     1      -5.823   1.755 -31.855  1.00  0.00     0.162 C 
BRANCH  21  22
HETATM   22  C   UNL     1      -6.202   0.801 -32.959  1.00  0.00    -0.040 A 
HETATM   23  C   UNL     1      -6.767   1.282 -34.149  1.00  0.00     0.009 A 
HETATM   24  C   UNL     1      -7.072   0.407 -35.194  1.00  0.00     0.001 A 
HETATM   25  C   UNL     1      -6.813  -0.956 -35.065  1.00  0.00     0.000 A 
HETATM   26  C   UNL     1      -6.242  -1.446 -33.893  1.00  0.00     0.001 A 
HETATM   27  C   UNL     1      -5.930  -0.572 -32.849  1.00  0.00     0.009 A 
ENDBRANCH  21  22
ENDBRANCH  17  21
ENDBRANCH   1  15
TORSDOF 5
ENDMDL
MODEL 3
REMARK VINA RESULT:      -8.2      1.488      2.137
REMARK  5 active torsions:
REMARK  status: ('A' for Active; 'I' for Inactive)
REMARK    1  A    between atoms: N_3  and  C_4 
REMARK    2  A    between atoms: C_12  and  C_13 
REMARK    3  A    between atoms: C_13  and  N_14 
REMARK       I    between atoms: N_14  and  C_15 
REMARK       I    between atoms: C_15  and  N_16 
REMARK    4  A    between atoms: N_16  and  C_17 
REMARK    5  A    between atoms: C_17  and  C_18 
ROOT
HETATM    1  C   UNL     1      -7.116   3.020 -32.262  1.00  0.00     0.165 C 
ENDROOT
BRANCH   1   2
HETATM    2  C   UNL     1      -5.896   3.753 -32.728  1.00  0.00    -0.016 A 
HETATM    3  C   UNL     1      -4.856   4.250 -31.948  1.00  0.00     0.021 A 
HETATM    4  N   UNL     1      -3.935   4.886 -32.780  1.00  0.00    -0.319 N 
HETATM    5  C   UNL     1      -4.668   4.076 -30.473  1.00  0.00     0.069 C 
HETATM    6  C   UNL     1      -4.371   4.733 -34.094  1.00  0.00     0.014 A 
HETATM    7  C   UNL     1      -3.699   5.319 -35.289  1.00  0.00     0.068 C 
HETATM    8  C   UNL     1      -5.569   4.046 -34.072  1.00  0.00     0.035 A 
BRANCH   4   9
HETATM    9  C   UNL     1      -2.767   5.588 -32.358  1.00  0.00     0.039 A 
HETATM   10  C   UNL     1      -2.825   6.969 -32.130  1.00  0.00     0.030 A 
HETATM   11  C   UNL     1      -1.681   7.660 -31.726  1.00  0.00     0.002 A 
HETATM   12  C   UNL     1      -0.480   6.977 -31.542  1.00  0.00     0.000 A 
HETATM   13  C   UNL     1      -0.419   5.602 -31.764  1.00  0.00     0.002 A 
HETATM   14  C   UNL     1      -1.559   4.906 -32.173  1.00  0.00     0.030 A 
ENDBRANCH   4   9
ENDBRANCH   1   2
BRANCH   1  15
HETATM   15  N   UNL     1      -6.867   1.602 -32.399  1.00  0.00    -0.339 N 
HETATM   16  C   UNL     1      -7.257   0.922 -33.517  1.00  0.00     0.316 C 
HETATM   17  N   UNL     1      -6.736  -0.344 -33.539  1.00  0.00    -0.339 N 
HETATM   18  O   UNL     1      -7.953   1.391 -34.406  1.00  0.00    -0.247 OA
HETATM   19  H   UNL     1      -6.573  -0.776 -32.643  1.00  0.00     0.164 HD
HETATM   20  H   UNL     1      -6.092   1.226 -31.876  1.00  0.00     0.164 HD
BRANCH  17  21
HETATM   21  C   UNL     1      -7.024  -1.229 -34.646  1.00  0.00     0.162 C 
BRANCH  21  22
HETATM   22  C   UNL     1      -6.192  -2.485 -34.587  1.00  0.00    -0.040 A 
HETATM   23  C   UNL     1      -4.886  -2.447 -34.079  1.00  0.00     0.009 A 
HETATM   24  C   UNL     1      -4.131  -3.618 -33.976  1.00  0.00     0.001 A 
HETATM   25  C   UNL     1      -4.673  -4.839 -34.374  1.00  0.00     0.000 A 
HETATM   26  C   UNL     1      -5.974  -4.893 -34.869  1.00  0.00     0.001 A 
HETATM   27  C   UNL     1      -6.733  -3.724 -34.967  1.00  0.00     0.009 A 
ENDBRANCH  21  22
ENDBRANCH  17  21
ENDBRANCH   1  15
TORSDOF 5
ENDMDL
MODEL 4
REMARK VINA RESULT:      -8.1      1.956      3.230
REMARK  5 active torsions:
REMARK  status: ('A' for Active; 'I' for Inactive)
REMARK    1  A    between atoms: N_3  and  C_4 
REMARK    2  A    between atoms: C_12  and  C_13 
REMARK    3  A    between atoms: C_13  and  N_14 
REMARK       I    between atoms: N_14  and  C_15 
REMARK       I    between atoms: C_15  and  N_16 
REMARK    4  A    between atoms: N_16  and  C_17 
REMARK    5  A    between atoms: C_17  and  C_18 
ROOT
HETATM    1  C   UNL     1      -3.649   6.134 -32.335  1.00  0.00     0.165 C 
ENDROOT
BRANCH   1   2
HETATM    2  C   UNL     1      -2.396   6.023 -31.521  1.00  0.00    -0.016 A 
HETATM    3  C   UNL     1      -2.086   6.702 -30.347  1.00  0.00     0.021 A 
HETATM    4  N   UNL     1      -0.809   6.322 -29.933  1.00  0.00    -0.319 N 
HETATM    5  C   UNL     1      -2.975   7.624 -29.572  1.00  0.00     0.069 C 
HETATM    6  C   UNL     1      -0.343   5.356 -30.821  1.00  0.00     0.014 A 
HETATM    7  C   UNL     1       1.009   4.729 -30.767  1.00  0.00     0.068 C 
HETATM    8  C   UNL     1      -1.304   5.168 -31.795  1.00  0.00     0.035 A 
BRANCH   4   9
HETATM    9  C   UNL     1      -0.099   6.849 -28.814  1.00  0.00     0.039 A 
HETATM   10  C   UNL     1      -0.264   6.275 -27.546  1.00  0.00     0.030 A 
HETATM   11  C   UNL     1       0.423   6.795 -26.448  1.00  0.00     0.002 A 
HETATM   12  C   UNL     1       1.279   7.884 -26.609  1.00  0.00     0.000 A 
HETATM   13  C   UNL     1       1.448   8.456 -27.869  1.00  0.00     0.002 A 
HETATM   14  C   UNL     1       0.761   7.942 -28.972  1.00  0.00     0.030 A 
ENDBRANCH   4   9
ENDBRANCH   1   2
BRANCH   1  15
HETATM   15  N   UNL     1      -4.324   4.857 -32.295  1.00  0.00    -0.339 N 
HETATM   16  C   UNL     1      -5.190   4.484 -33.284  1.00  0.00     0.316 C 
HETATM   17  N   UNL     1      -5.544   3.167 -33.169  1.00  0.00    -0.339 N 
HETATM   18  O   UNL     1      -5.574   5.220 -34.181  1.00  0.00    -0.247 OA
HETATM   19  H   UNL     1      -5.557   2.788 -32.234  1.00  0.00     0.164 HD
HETATM   20  H   UNL     1      -3.871   4.121 -31.777  1.00  0.00     0.164 HD
BRANCH  17  21
HETATM   21  C   UNL     1      -6.450   2.572 -34.125  1.00  0.00     0.162 C 
BRANCH  21  22
HETATM   22  C   UNL     1      -6.377   1.066 -34.102  1.00  0.00    -0.040 A 
HETATM   23  C   UNL     1      -7.144   0.305 -34.995  1.00  0.00     0.009 A 
HETATM   24  C   UNL     1      -7.041  -1.087 -35.011  1.00  0.00     0.001 A 
HETATM   25  C   UNL     1      -6.166  -1.735 -34.140  1.00  0.00     0.000 A 
HETATM   26  C   UNL     1      -5.388  -0.991 -33.256  1.00  0.00     0.001 A 
HETATM   27  C   UNL     1      -5.486   0.402 -33.243  1.00  0.00     0.009 A 
ENDBRANCH  21  22
ENDBRANCH  17  21
ENDBRANCH   1  15
TORSDOF 5
ENDMDL
MODEL 5
REMARK VINA RESULT:      -8.0      4.743      8.264
REMARK  5 active torsions:
REMARK  status: ('A' for Active; 'I' for Inactive)
REMARK    1  A    between atoms: N_3  and  C_4 
REMARK    2  A    between atoms: C_12  and  C_13 
REMARK    3  A    between atoms: C_13  and  N_14 
REMARK       I    between atoms: N_14  and  C_15 
REMARK       I    between atoms: C_15  and  N_16 
REMARK    4  A    between atoms: N_16  and  C_17 
REMARK    5  A    between atoms: C_17  and  C_18 
ROOT
HETATM    1  C   UNL     1      -7.647   3.497 -33.588  1.00  0.00     0.165 C 
ENDROOT
BRANCH   1   2
HETATM    2  C   UNL     1      -9.120   3.562 -33.854  1.00  0.00    -0.016 A 
HETATM    3  C   UNL     1     -10.108   2.712 -33.365  1.00  0.00     0.021 A 
HETATM    4  N   UNL     1     -11.341   3.115 -33.879  1.00  0.00    -0.319 N 
HETATM    5  C   UNL     1      -9.938   1.598 -32.379  1.00  0.00     0.069 C 
HETATM    6  C   UNL     1     -11.130   4.258 -34.646  1.00  0.00     0.014 A 
HETATM    7  C   UNL     1     -12.186   4.972 -35.420  1.00  0.00     0.068 C 
HETATM    8  C   UNL     1      -9.778   4.537 -34.639  1.00  0.00     0.035 A 
BRANCH   4   9
HETATM    9  C   UNL     1     -12.589   2.456 -33.676  1.00  0.00     0.039 A 
HETATM   10  C   UNL     1     -12.959   1.384 -34.499  1.00  0.00     0.030 A 
HETATM   11  C   UNL     1     -14.185   0.745 -34.307  1.00  0.00     0.002 A 
HETATM   12  C   UNL     1     -15.043   1.167 -33.294  1.00  0.00     0.000 A 
HETATM   13  C   UNL     1     -14.679   2.232 -32.470  1.00  0.00     0.002 A 
HETATM   14  C   UNL     1     -13.455   2.879 -32.660  1.00  0.00     0.030 A 
ENDBRANCH   4   9
ENDBRANCH   1   2
BRANCH   1  15
HETATM   15  N   UNL     1      -7.148   2.255 -34.135  1.00  0.00    -0.339 N 
HETATM   16  C   UNL     1      -6.169   1.546 -33.500  1.00  0.00     0.316 C 
HETATM   17  N   UNL     1      -6.001   0.309 -34.062  1.00  0.00    -0.339 N 
HETATM   18  O   UNL     1      -5.543   1.948 -32.529  1.00  0.00    -0.247 OA
HETATM   19  H   UNL     1      -6.204   0.235 -35.047  1.00  0.00     0.164 HD
HETATM   20  H   UNL     1      -7.773   1.742 -34.736  1.00  0.00     0.164 HD
BRANCH  17  21
HETATM   21  C   UNL     1      -5.015  -0.603 -33.529  1.00  0.00     0.162 C 
BRANCH  21  22
HETATM   22  C   UNL     1      -5.281  -2.025 -33.955  1.00  0.00    -0.040 A 
HETATM   23  C   UNL     1      -6.508  -2.372 -34.537  1.00  0.00     0.009 A 
HETATM   24  C   UNL     1      -6.740  -3.676 -34.979  1.00  0.00     0.001 A 
HETATM   25  C   UNL     1      -5.748  -4.646 -34.849  1.00  0.00     0.000 A 
HETATM   26  C   UNL     1      -4.520  -4.313 -34.283  1.00  0.00     0.001 A 
HETATM   27  C   UNL     1      -4.284  -3.007 -33.846  1.00  0.00     0.009 A 
ENDBRANCH  21  22
ENDBRANCH  17  21
ENDBRANCH   1  15
TORSDOF 5
ENDMDL
MODEL 6
REMARK VINA RESULT:      -7.8      3.149      5.041
REMARK  5 active torsions:
REMARK  status: ('A' for Active; 'I' for Inactive)
REMARK    1  A    between atoms: N_3  and  C_4 
REMARK    2  A    between atoms: C_12  and  C_13 
REMARK    3  A    between atoms: C_13  and  N_14 
REMARK       I    between atoms: N_14  and  C_15 
REMARK       I    between atoms: C_15  and  N_16 
REMARK    4  A    between atoms: N_16  and  C_17 
REMARK    5  A    between atoms: C_17  and  C_18 
ROOT
HETATM    1  C   UNL     1      -6.195   1.361 -30.019  1.00  0.00     0.165 C 
ENDROOT
BRANCH   1   2
HETATM    2  C   UNL     1      -5.567   2.612 -30.552  1.00  0.00    -0.016 A 
HETATM    3  C   UNL     1      -4.629   2.719 -31.576  1.00  0.00     0.021 A 
HETATM    4  N   UNL     1      -4.291   4.064 -31.735  1.00  0.00    -0.319 N 
HETATM    5  C   UNL     1      -4.110   1.619 -32.448  1.00  0.00     0.069 C 
HETATM    6  C   UNL     1      -5.066   4.806 -30.847  1.00  0.00     0.014 A 
HETATM    7  C   UNL     1      -4.969   6.282 -30.659  1.00  0.00     0.068 C 
HETATM    8  C   UNL     1      -5.845   3.929 -30.119  1.00  0.00     0.035 A 
BRANCH   4   9
HETATM    9  C   UNL     1      -3.309   4.581 -32.630  1.00  0.00     0.039 A 
HETATM   10  C   UNL     1      -1.986   4.744 -32.200  1.00  0.00     0.030 A 
HETATM   11  C   UNL     1      -1.025   5.259 -33.073  1.00  0.00     0.002 A 
HETATM   12  C   UNL     1      -1.378   5.608 -34.375  1.00  0.00     0.000 A 
HETATM   13  C   UNL     1      -2.693   5.444 -34.808  1.00  0.00     0.002 A 
HETATM   14  C   UNL     1      -3.660   4.933 -33.939  1.00  0.00     0.030 A 
ENDBRANCH   4   9
ENDBRANCH   1   2
BRANCH   1  15
HETATM   15  N   UNL     1      -7.585   1.354 -30.416  1.00  0.00    -0.339 N 
HETATM   16  C   UNL     1      -8.012   0.618 -31.485  1.00  0.00     0.316 C 
HETATM   17  N   UNL     1      -9.379   0.579 -31.551  1.00  0.00    -0.339 N 
HETATM   18  O   UNL     1      -7.271   0.038 -32.265  1.00  0.00    -0.247 OA
HETATM   19  H   UNL     1      -9.867   1.383 -31.187  1.00  0.00     0.164 HD
HETATM   20  H   UNL     1      -8.262   1.560 -29.697  1.00  0.00     0.164 HD
BRANCH  17  21
HETATM   21  C   UNL     1     -10.033  -0.157 -32.609  1.00  0.00     0.162 C 
BRANCH  21  22
HETATM   22  C   UNL     1     -10.883   0.741 -33.471  1.00  0.00    -0.040 A 
HETATM   23  C   UNL     1     -12.235   0.441 -33.690  1.00  0.00     0.009 A 
HETATM   24  C   UNL     1     -13.038   1.298 -34.446  1.00  0.00     0.001 A 
HETATM   25  C   UNL     1     -12.503   2.465 -34.987  1.00  0.00     0.000 A 
HETATM   26  C   UNL     1     -11.164   2.782 -34.768  1.00  0.00     0.001 A 
HETATM   27  C   UNL     1     -10.361   1.930 -34.007  1.00  0.00     0.009 A 
ENDBRANCH  21  22
ENDBRANCH  17  21
ENDBRANCH   1  15
TORSDOF 5
ENDMDL
MODEL 7
REMARK VINA RESULT:      -7.8      2.795      9.351
REMARK  5 active torsions:
REMARK  status: ('A' for Active; 'I' for Inactive)
REMARK    1  A    between atoms: N_3  and  C_4 
REMARK    2  A    between atoms: C_12  and  C_13 
REMARK    3  A    between atoms: C_13  and  N_14 
REMARK       I    between atoms: N_14  and  C_15 
REMARK       I    between atoms: C_15  and  N_16 
REMARK    4  A    between atoms: N_16  and  C_17 
REMARK    5  A    between atoms: C_17  and  C_18 
ROOT
HETATM    1  C   UNL     1      -2.842   4.560 -32.405  1.00  0.00     0.165 C 
ENDROOT
BRANCH   1   2
HETATM    2  C   UNL     1      -3.650   3.312 -32.224  1.00  0.00    -0.016 A 
HETATM    3  C   UNL     1      -4.886   3.014 -32.790  1.00  0.00     0.021 A 
HETATM    4  N   UNL     1      -5.295   1.758 -32.338  1.00  0.00    -0.319 N 
HETATM    5  C   UNL     1      -5.645   3.829 -33.790  1.00  0.00     0.069 C 
HETATM    6  C   UNL     1      -4.281   1.244 -31.534  1.00  0.00     0.014 A 
HETATM    7  C   UNL     1      -4.346  -0.056 -30.806  1.00  0.00     0.068 C 
HETATM    8  C   UNL     1      -3.274   2.186 -31.456  1.00  0.00     0.035 A 
BRANCH   4   9
HETATM    9  C   UNL     1      -6.539   1.126 -32.630  1.00  0.00     0.039 A 
HETATM   10  C   UNL     1      -7.648   1.347 -31.802  1.00  0.00     0.030 A 
HETATM   11  C   UNL     1      -8.865   0.722 -32.081  1.00  0.00     0.002 A 
HETATM   12  C   UNL     1      -8.983  -0.119 -33.185  1.00  0.00     0.000 A 
HETATM   13  C   UNL     1      -7.883  -0.340 -34.013  1.00  0.00     0.002 A 
HETATM   14  C   UNL     1      -6.661   0.279 -33.738  1.00  0.00     0.030 A 
ENDBRANCH   4   9
ENDBRANCH   1   2
BRANCH   1  15
HETATM   15  N   UNL     1      -2.405   5.004 -31.101  1.00  0.00    -0.339 N 
HETATM   16  C   UNL     1      -1.079   5.181 -30.822  1.00  0.00     0.316 C 
HETATM   17  N   UNL     1      -0.900   5.807 -29.618  1.00  0.00    -0.339 N 
HETATM   18  O   UNL     1      -0.166   4.855 -31.567  1.00  0.00    -0.247 OA
HETATM   19  H   UNL     1      -1.607   5.641 -28.919  1.00  0.00     0.164 HD
HETATM   20  H   UNL     1      -3.066   5.538 -30.559  1.00  0.00     0.164 HD
BRANCH  17  21
HETATM   21  C   UNL     1       0.433   6.095 -29.141  1.00  0.00     0.162 C 
BRANCH  21  22
HETATM   22  C   UNL     1       0.431   7.192 -28.106  1.00  0.00    -0.040 A 
HETATM   23  C   UNL     1      -0.454   7.140 -27.020  1.00  0.00     0.009 A 
HETATM   24  C   UNL     1      -0.424   8.127 -26.033  1.00  0.00     0.001 A 
HETATM   25  C   UNL     1       0.493   9.173 -26.116  1.00  0.00     0.000 A 
HETATM   26  C   UNL     1       1.386   9.231 -27.183  1.00  0.00     0.001 A 
HETATM   27  C   UNL     1       1.362   8.241 -28.168  1.00  0.00     0.009 A 
ENDBRANCH  21  22
ENDBRANCH  17  21
ENDBRANCH   1  15
TORSDOF 5
ENDMDL
MODEL 8
REMARK VINA RESULT:      -7.6      2.010      8.456
REMARK  5 active torsions:
REMARK  status: ('A' for Active; 'I' for Inactive)
REMARK    1  A    between atoms: N_3  and  C_4 
REMARK    2  A    between atoms: C_12  and  C_13 
REMARK    3  A    between atoms: C_13  and  N_14 
REMARK       I    between atoms: N_14  and  C_15 
REMARK       I    between atoms: C_15  and  N_16 
REMARK    4  A    between atoms: N_16  and  C_17 
REMARK    5  A    between atoms: C_17  and  C_18 
ROOT
HETATM    1  C   UNL     1      -6.838   2.461 -30.528  1.00  0.00     0.165 C 
ENDROOT
BRANCH   1   2
HETATM    2  C   UNL     1      -6.788   1.605 -31.757  1.00  0.00    -0.016 A 
HETATM    3  C   UNL     1      -6.376   0.279 -31.849  1.00  0.00     0.021 A 
HETATM    4  N   UNL     1      -6.464  -0.126 -33.181  1.00  0.00    -0.319 N 
HETATM    5  C   UNL     1      -5.985  -0.629 -30.724  1.00  0.00     0.069 C 
HETATM    6  C   UNL     1      -6.989   0.934 -33.915  1.00  0.00     0.014 A 
HETATM    7  C   UNL     1      -7.188   0.932 -35.393  1.00  0.00     0.068 C 
HETATM    8  C   UNL     1      -7.187   1.996 -33.055  1.00  0.00     0.035 A 
BRANCH   4   9
HETATM    9  C   UNL     1      -6.062  -1.393 -33.701  1.00  0.00     0.039 A 
HETATM   10  C   UNL     1      -7.025  -2.287 -34.187  1.00  0.00     0.030 A 
HETATM   11  C   UNL     1      -6.635  -3.531 -34.687  1.00  0.00     0.002 A 
HETATM   12  C   UNL     1      -5.287  -3.885 -34.708  1.00  0.00     0.000 A 
HETATM   13  C   UNL     1      -4.326  -2.997 -34.228  1.00  0.00     0.002 A 
HETATM   14  C   UNL     1      -4.710  -1.752 -33.722  1.00  0.00     0.030 A 
ENDBRANCH   4   9
ENDBRANCH   1   2
BRANCH   1  15
HETATM   15  N   UNL     1      -5.552   3.104 -30.378  1.00  0.00    -0.339 N 
HETATM   16  C   UNL     1      -5.354   4.392 -30.788  1.00  0.00     0.316 C 
HETATM   17  N   UNL     1      -4.147   4.874 -30.359  1.00  0.00    -0.339 N 
HETATM   18  O   UNL     1      -6.165   5.047 -31.427  1.00  0.00    -0.247 OA
HETATM   19  H   UNL     1      -3.408   4.196 -30.250  1.00  0.00     0.164 HD
HETATM   20  H   UNL     1      -4.954   2.756 -29.645  1.00  0.00     0.164 HD
BRANCH  17  21
HETATM   21  C   UNL     1      -3.748   6.225 -30.682  1.00  0.00     0.162 C 
BRANCH  21  22
HETATM   22  C   UNL     1      -2.252   6.399 -30.610  1.00  0.00    -0.040 A 
HETATM   23  C   UNL     1      -1.426   5.836 -31.593  1.00  0.00     0.009 A 
HETATM   24  C   UNL     1      -0.044   6.038 -31.557  1.00  0.00     0.001 A 
HETATM   25  C   UNL     1       0.526   6.806 -30.544  1.00  0.00     0.000 A 
HETATM   26  C   UNL     1      -0.284   7.381 -29.568  1.00  0.00     0.001 A 
HETATM   27  C   UNL     1      -1.667   7.186 -29.605  1.00  0.00     0.009 A 
ENDBRANCH  21  22
ENDBRANCH  17  21
ENDBRANCH   1  15
TORSDOF 5
ENDMDL
MODEL 9
REMARK VINA RESULT:      -7.6      1.048      2.039
REMARK  5 active torsions:
REMARK  status: ('A' for Active; 'I' for Inactive)
REMARK    1  A    between atoms: N_3  and  C_4 
REMARK    2  A    between atoms: C_12  and  C_13 
REMARK    3  A    between atoms: C_13  and  N_14 
REMARK       I    between atoms: N_14  and  C_15 
REMARK       I    between atoms: C_15  and  N_16 
REMARK    4  A    between atoms: N_16  and  C_17 
REMARK    5  A    between atoms: C_17  and  C_18 
ROOT
HETATM    1  C   UNL     1      -6.649   4.276 -33.873  1.00  0.00     0.165 C 
ENDROOT
BRANCH   1   2
HETATM    2  C   UNL     1      -5.672   4.828 -32.880  1.00  0.00    -0.016 A 
HETATM    3  C   UNL     1      -4.331   5.133 -33.092  1.00  0.00     0.021 A 
HETATM    4  N   UNL     1      -3.782   5.598 -31.896  1.00  0.00    -0.319 N 
HETATM    5  C   UNL     1      -3.582   5.076 -34.387  1.00  0.00     0.069 C 
HETATM    6  C   UNL     1      -4.802   5.640 -30.948  1.00  0.00     0.014 A 
HETATM    7  C   UNL     1      -4.622   6.026 -29.519  1.00  0.00     0.068 C 
HETATM    8  C   UNL     1      -5.958   5.169 -31.538  1.00  0.00     0.035 A 
BRANCH   4   9
HETATM    9  C   UNL     1      -2.416   5.944 -31.679  1.00  0.00     0.039 A 
HETATM   10  C   UNL     1      -1.994   7.270 -31.847  1.00  0.00     0.030 A 
HETATM   11  C   UNL     1      -0.656   7.609 -31.644  1.00  0.00     0.002 A 
HETATM   12  C   UNL     1       0.265   6.632 -31.269  1.00  0.00     0.000 A 
HETATM   13  C   UNL     1      -0.151   5.313 -31.098  1.00  0.00     0.002 A 
HETATM   14  C   UNL     1      -1.489   4.966 -31.303  1.00  0.00     0.030 A 
ENDBRANCH   4   9
ENDBRANCH   1   2
BRANCH   1  15
HETATM   15  N   UNL     1      -6.288   2.902 -34.140  1.00  0.00    -0.339 N 
HETATM   16  C   UNL     1      -7.065   1.868 -33.699  1.00  0.00     0.316 C 
HETATM   17  N   UNL     1      -6.667   0.676 -34.242  1.00  0.00    -0.339 N 
HETATM   18  O   UNL     1      -8.018   1.993 -32.943  1.00  0.00    -0.247 OA
HETATM   19  H   UNL     1      -5.687   0.592 -34.465  1.00  0.00     0.164 HD
HETATM   20  H   UNL     1      -5.714   2.735 -34.952  1.00  0.00     0.164 HD
BRANCH  17  21
HETATM   21  C   UNL     1      -7.366  -0.543 -33.908  1.00  0.00     0.162 C 
BRANCH  21  22
HETATM   22  C   UNL     1      -6.495  -1.758 -34.103  1.00  0.00    -0.040 A 
HETATM   23  C   UNL     1      -7.037  -2.943 -34.622  1.00  0.00     0.009 A 
HETATM   24  C   UNL     1      -6.223  -4.054 -34.853  1.00  0.00     0.001 A 
HETATM   25  C   UNL     1      -4.859  -3.993 -34.572  1.00  0.00     0.000 A 
HETATM   26  C   UNL     1      -4.305  -2.819 -34.068  1.00  0.00     0.001 A 
HETATM   27  C   UNL     1      -5.117  -1.705 -33.843  1.00  0.00     0.009 A 
ENDBRANCH  21  22
ENDBRANCH  17  21
ENDBRANCH   1  15
TORSDOF 5
ENDMDL
MODEL 10
REMARK VINA RESULT:      -7.5      5.310      8.125
REMARK  5 active torsions:
REMARK  status: ('A' for Active; 'I' for Inactive)
REMARK    1  A    between atoms: N_3  and  C_4 
REMARK    2  A    between atoms: C_12  and  C_13 
REMARK    3  A    between atoms: C_13  and  N_14 
REMARK       I    between atoms: N_14  and  C_15 
REMARK       I    between atoms: C_15  and  N_16 
REMARK    4  A    between atoms: N_16  and  C_17 
REMARK    5  A    between atoms: C_17  and  C_18 
ROOT
HETATM    1  C   UNL     1      -8.051   1.807 -31.585  1.00  0.00     0.165 C 
ENDROOT
BRANCH   1   2
HETATM    2  C   UNL     1      -9.388   2.085 -32.202  1.00  0.00    -0.016 A 
HETATM    3  C   UNL     1     -10.270   3.113 -31.884  1.00  0.00     0.021 A 
HETATM    4  N   UNL     1     -11.410   2.988 -32.680  1.00  0.00    -0.319 N 
HETATM    5  C   UNL     1     -10.041   4.239 -30.925  1.00  0.00     0.069 C 
HETATM    6  C   UNL     1     -11.212   1.911 -33.541  1.00  0.00     0.014 A 
HETATM    7  C   UNL     1     -12.219   1.404 -34.517  1.00  0.00     0.068 C 
HETATM    8  C   UNL     1      -9.983   1.351 -33.254  1.00  0.00     0.035 A 
BRANCH   4   9
HETATM    9  C   UNL     1     -12.577   3.803 -32.607  1.00  0.00     0.039 A 
HETATM   10  C   UNL     1     -13.606   3.476 -31.713  1.00  0.00     0.030 A 
HETATM   11  C   UNL     1     -14.753   4.267 -31.647  1.00  0.00     0.002 A 
HETATM   12  C   UNL     1     -14.879   5.388 -32.465  1.00  0.00     0.000 A 
HETATM   13  C   UNL     1     -13.857   5.720 -33.354  1.00  0.00     0.002 A 
HETATM   14  C   UNL     1     -12.707   4.929 -33.428  1.00  0.00     0.030 A 
ENDBRANCH   4   9
ENDBRANCH   1   2
BRANCH   1  15
HETATM   15  N   UNL     1      -7.143   1.418 -32.640  1.00  0.00    -0.339 N 
HETATM   16  C   UNL     1      -6.173   0.480 -32.427  1.00  0.00     0.316 C 
HETATM   17  N   UNL     1      -5.575   0.104 -33.599  1.00  0.00    -0.339 N 
HETATM   18  O   UNL     1      -5.895   0.008 -31.334  1.00  0.00    -0.247 OA
HETATM   19  H   UNL     1      -5.536   0.802 -34.326  1.00  0.00     0.164 HD
HETATM   20  H   UNL     1      -7.470   1.537 -33.586  1.00  0.00     0.164 HD
BRANCH  17  21
HETATM   21  C   UNL     1      -4.524  -0.888 -33.593  1.00  0.00     0.162 C 
BRANCH  21  22
HETATM   22  C   UNL     1      -5.035  -2.247 -33.999  1.00  0.00    -0.040 A 
HETATM   23  C   UNL     1      -6.341  -2.396 -34.488  1.00  0.00     0.009 A 
HETATM   24  C   UNL     1      -6.801  -3.644 -34.913  1.00  0.00     0.001 A 
HETATM   25  C   UNL     1      -5.962  -4.755 -34.861  1.00  0.00     0.000 A 
HETATM   26  C   UNL     1      -4.658  -4.620 -34.389  1.00  0.00     0.001 A 
HETATM   27  C   UNL     1      -4.194  -3.371 -33.969  1.00  0.00     0.009 A 
ENDBRANCH  21  22
ENDBRANCH  17  21
ENDBRANCH   1  15
TORSDOF 5
ENDMDL
