MODEL 1
REMARK VINA RESULT:      -9.8      0.000      0.000
REMARK  6 active torsions:
REMARK  status: ('A' for Active; 'I' for Inactive)
REMARK    1  A    between atoms: C_2  and  C_3 
REMARK    2  A    between atoms: C_5  and  N_6 
REMARK       I    between atoms: N_6  and  C_7 
REMARK    3  A    between atoms: C_7  and  C_8 
REMARK    4  A    between atoms: N_11  and  C_12 
REMARK    5  A    between atoms: C_18  and  C_19 
REMARK    6  A    between atoms: C_28  and  O_29 
ROOT
HETATM    1  C   UNL     1      -4.600   2.773 -31.139  1.00  0.00     0.081 C 
HETATM    2  C   UNL     1      -5.463   1.649 -30.534  1.00  0.00     0.034 C 
HETATM    3  C   UNL     1      -5.578   0.412 -31.432  1.00  0.00     0.125 C 
HETATM    4  N   UNL     1      -4.251  -0.070 -31.842  1.00  0.00    -0.364 N 
HETATM    5  C   UNL     1      -3.437   0.975 -32.492  1.00  0.00     0.125 C 
HETATM    6  C   UNL     1      -3.261   2.170 -31.568  1.00  0.00     0.034 C 
ENDROOT
BRANCH   1   7
HETATM    7  C   UNL     1      -5.325   3.483 -32.279  1.00  0.00     0.226 C 
HETATM    8  N   UNL     1      -4.759   4.459 -33.038  1.00  0.00    -0.324 N 
HETATM    9  H   UNL     1      -5.347   4.648 -33.845  1.00  0.00     0.169 HD
HETATM   10  O   UNL     1      -6.483   3.166 -32.578  1.00  0.00    -0.273 OA
BRANCH   8  11
HETATM   11  C   UNL     1      -3.545   5.173 -33.039  1.00  0.00     0.068 A 
HETATM   12  C   UNL     1      -2.776   5.486 -31.918  1.00  0.00     0.040 A 
HETATM   13  C   UNL     1      -1.502   6.092 -32.025  1.00  0.00    -0.048 A 
HETATM   14  C   UNL     1      -1.036   6.402 -33.315  1.00  0.00     0.011 A 
HETATM   15  C   UNL     1      -1.821   6.167 -34.442  1.00  0.00     0.039 A 
HETATM   16  C   UNL     1      -3.068   5.579 -34.291  1.00  0.00     0.092 A 
BRANCH  13  17
HETATM   17  C   UNL     1      -0.616   6.309 -30.781  1.00  0.00    -0.024 C 
HETATM   18  C   UNL     1      -1.441   7.095 -29.743  1.00  0.00     0.019 C 
HETATM   19  C   UNL     1       0.670   7.111 -31.091  1.00  0.00     0.019 C 
HETATM   20  C   UNL     1      -0.156   4.978 -30.141  1.00  0.00     0.019 C 
ENDBRANCH  13  17
BRANCH  16  21
HETATM   21  O   UNL     1      -3.821   5.384 -35.418  1.00  0.00    -0.358 OA
HETATM   22  H   UNL     1      -3.278   4.830 -36.006  1.00  0.00     0.218 HD
ENDBRANCH  16  21
ENDBRANCH   8  11
ENDBRANCH   1   7
BRANCH   4  23
HETATM   23  C   UNL     1      -4.014  -1.402 -32.210  1.00  0.00     0.146 A 
HETATM   24  N   UNL     1      -4.841  -1.947 -33.074  1.00  0.00    -0.146 NA
HETATM   25  N   UNL     1      -4.586  -3.234 -33.414  1.00  0.00    -0.188 N 
HETATM   26  C   UNL     1      -3.565  -4.031 -32.955  1.00  0.00     0.175 A 
HETATM   27  C   UNL     1      -5.290  -4.014 -34.288  1.00  0.00     0.258 A 
HETATM   28  C   UNL     1      -2.666  -3.457 -32.041  1.00  0.00     0.058 A 
HETATM   29  N   UNL     1      -3.647  -5.221 -33.506  1.00  0.00    -0.128 NA
HETATM   30  C   UNL     1      -2.846  -2.185 -31.661  1.00  0.00     0.056 A 
HETATM   31  N   UNL     1      -4.736  -5.214 -34.349  1.00  0.00    -0.123 NA
BRANCH  27  32
HETATM   32  C   UNL     1      -6.464  -3.488 -34.997  1.00  0.00     0.454 C 
HETATM   33  F   UNL     1      -6.183  -2.367 -35.715  1.00  0.00    -0.163 F 
HETATM   34  F   UNL     1      -6.978  -4.382 -35.886  1.00  0.00    -0.163 F 
HETATM   35  F   UNL     1      -7.484  -3.168 -34.154  1.00  0.00    -0.163 F 
ENDBRANCH  27  32
ENDBRANCH   4  23
TORSDOF 6
ENDMDL
MODEL 2
REMARK VINA RESULT:      -9.7      4.675      8.867
REMARK  6 active torsions:
REMARK  status: ('A' for Active; 'I' for Inactive)
REMARK    1  A    between atoms: C_2  and  C_3 
REMARK    2  A    between atoms: C_5  and  N_6 
REMARK       I    between atoms: N_6  and  C_7 
REMARK    3  A    between atoms: C_7  and  C_8 
REMARK    4  A    between atoms: N_11  and  C_12 
REMARK    5  A    between atoms: C_18  and  C_19 
REMARK    6  A    between atoms: C_28  and  O_29 
ROOT
HETATM    1  C   UNL     1      -8.636   3.308 -32.585  1.00  0.00     0.081 C 
HETATM    2  C   UNL     1      -8.877   4.829 -32.611  1.00  0.00     0.034 C 
HETATM    3  C   UNL     1      -7.790   5.636 -31.892  1.00  0.00     0.125 C 
HETATM    4  N   UNL     1      -6.451   5.280 -32.385  1.00  0.00    -0.364 N 
HETATM    5  C   UNL     1      -6.175   3.834 -32.297  1.00  0.00     0.125 C 
HETATM    6  C   UNL     1      -7.212   3.040 -33.076  1.00  0.00     0.034 C 
ENDROOT
BRANCH   1   7
HETATM    7  C   UNL     1      -8.907   2.722 -31.201  1.00  0.00     0.226 C 
HETATM    8  N   UNL     1      -8.234   1.658 -30.690  1.00  0.00    -0.324 N 
HETATM    9  H   UNL     1      -8.442   1.565 -29.700  1.00  0.00     0.169 HD
HETATM   10  O   UNL     1      -9.761   3.230 -30.463  1.00  0.00    -0.273 OA
BRANCH   8  11
HETATM   11  C   UNL     1      -7.265   0.747 -31.154  1.00  0.00     0.068 A 
HETATM   12  C   UNL     1      -7.331   0.011 -32.338  1.00  0.00     0.040 A 
HETATM   13  C   UNL     1      -6.250  -0.781 -32.792  1.00  0.00    -0.048 A 
HETATM   14  C   UNL     1      -5.097  -0.832 -31.987  1.00  0.00     0.011 A 
HETATM   15  C   UNL     1      -5.041  -0.166 -30.764  1.00  0.00     0.039 A 
HETATM   16  C   UNL     1      -6.126   0.594 -30.354  1.00  0.00     0.092 A 
BRANCH  13  17
HETATM   17  C   UNL     1      -6.297  -1.480 -34.167  1.00  0.00    -0.024 C 
HETATM   18  C   UNL     1      -6.780  -0.449 -35.206  1.00  0.00     0.019 C 
HETATM   19  C   UNL     1      -7.261  -2.690 -34.194  1.00  0.00     0.019 C 
HETATM   20  C   UNL     1      -4.914  -2.014 -34.607  1.00  0.00     0.019 C 
ENDBRANCH  13  17
BRANCH  16  21
HETATM   21  O   UNL     1      -6.044   1.215 -29.136  1.00  0.00    -0.358 OA
HETATM   22  H   UNL     1      -6.954   1.233 -28.787  1.00  0.00     0.218 HD
ENDBRANCH  16  21
ENDBRANCH   8  11
ENDBRANCH   1   7
BRANCH   4  23
HETATM   23  C   UNL     1      -5.361   6.158 -32.304  1.00  0.00     0.146 A 
HETATM   24  N   UNL     1      -4.301   5.873 -33.028  1.00  0.00    -0.146 NA
HETATM   25  N   UNL     1      -3.265   6.741 -32.934  1.00  0.00    -0.188 N 
HETATM   26  C   UNL     1      -3.197   7.879 -32.166  1.00  0.00     0.175 A 
HETATM   27  C   UNL     1      -2.064   6.670 -33.584  1.00  0.00     0.258 A 
HETATM   28  C   UNL     1      -4.328   8.202 -31.399  1.00  0.00     0.058 A 
HETATM   29  N   UNL     1      -2.029   8.458 -32.331  1.00  0.00    -0.128 NA
HETATM   30  C   UNL     1      -5.397   7.397 -31.444  1.00  0.00     0.056 A 
HETATM   31  N   UNL     1      -1.310   7.697 -33.226  1.00  0.00    -0.123 NA
BRANCH  27  32
HETATM   32  C   UNL     1      -1.773   5.575 -34.518  1.00  0.00     0.454 C 
HETATM   33  F   UNL     1      -2.743   5.415 -35.458  1.00  0.00    -0.163 F 
HETATM   34  F   UNL     1      -0.615   5.773 -35.206  1.00  0.00    -0.163 F 
HETATM   35  F   UNL     1      -1.634   4.375 -33.890  1.00  0.00    -0.163 F 
ENDBRANCH  27  32
ENDBRANCH   4  23
TORSDOF 6
ENDMDL
MODEL 3
REMARK VINA RESULT:      -9.6      1.375      1.834
REMARK  6 active torsions:
REMARK  status: ('A' for Active; 'I' for Inactive)
REMARK    1  A    between atoms: C_2  and  C_3 
REMARK    2  A    between atoms: C_5  and  N_6 
REMARK       I    between atoms: N_6  and  C_7 
REMARK    3  A    between atoms: C_7  and  C_8 
REMARK    4  A    between atoms: N_11  and  C_12 
REMARK    5  A    between atoms: C_18  and  C_19 
REMARK    6  A    between atoms: C_28  and  O_29 
ROOT
HETATM    1  C   UNL     1      -5.404   4.026 -32.091  1.00  0.00     0.081 C 
HETATM    2  C   UNL     1      -6.426   2.885 -31.932  1.00  0.00     0.034 C 
HETATM    3  C   UNL     1      -6.031   1.599 -32.667  1.00  0.00     0.125 C 
HETATM    4  N   UNL     1      -4.671   1.176 -32.303  1.00  0.00    -0.364 N 
HETATM    5  C   UNL     1      -3.666   2.233 -32.520  1.00  0.00     0.125 C 
HETATM    6  C   UNL     1      -4.020   3.483 -31.728  1.00  0.00     0.034 C 
ENDROOT
BRANCH   1   7
HETATM    7  C   UNL     1      -5.455   4.632 -33.491  1.00  0.00     0.226 C 
HETATM    8  N   UNL     1      -4.556   5.542 -33.950  1.00  0.00    -0.324 N 
HETATM    9  H   UNL     1      -4.670   5.659 -34.953  1.00  0.00     0.169 HD
HETATM   10  O   UNL     1      -6.333   4.285 -34.292  1.00  0.00    -0.273 OA
BRANCH   8  11
HETATM   11  C   UNL     1      -3.469   6.260 -33.414  1.00  0.00     0.068 A 
HETATM   12  C   UNL     1      -3.491   7.038 -32.256  1.00  0.00     0.040 A 
HETATM   13  C   UNL     1      -2.318   7.617 -31.717  1.00  0.00    -0.048 A 
HETATM   14  C   UNL     1      -1.112   7.409 -32.410  1.00  0.00     0.011 A 
HETATM   15  C   UNL     1      -1.082   6.700 -33.610  1.00  0.00     0.039 A 
HETATM   16  C   UNL     1      -2.257   6.155 -34.106  1.00  0.00     0.092 A 
BRANCH  13  17
HETATM   17  C   UNL     1      -2.345   8.363 -30.366  1.00  0.00    -0.024 C 
HETATM   18  C   UNL     1      -3.544   7.831 -29.556  1.00  0.00     0.019 C 
HETATM   19  C   UNL     1      -2.505   9.893 -30.527  1.00  0.00     0.019 C 
HETATM   20  C   UNL     1      -1.055   8.142 -29.542  1.00  0.00     0.019 C 
ENDBRANCH  13  17
BRANCH  16  21
HETATM   21  O   UNL     1      -2.194   5.485 -35.299  1.00  0.00    -0.358 OA
HETATM   22  H   UNL     1      -2.964   5.788 -35.812  1.00  0.00     0.218 HD
ENDBRANCH  16  21
ENDBRANCH   8  11
ENDBRANCH   1   7
BRANCH   4  23
HETATM   23  C   UNL     1      -4.246  -0.156 -32.397  1.00  0.00     0.146 A 
HETATM   24  N   UNL     1      -4.924  -0.953 -33.193  1.00  0.00    -0.146 NA
HETATM   25  N   UNL     1      -4.488  -2.234 -33.268  1.00  0.00    -0.188 N 
HETATM   26  C   UNL     1      -3.422  -2.792 -32.603  1.00  0.00     0.175 A 
HETATM   27  C   UNL     1      -5.015  -3.245 -34.021  1.00  0.00     0.258 A 
HETATM   28  C   UNL     1      -2.681  -1.949 -31.759  1.00  0.00     0.058 A 
HETATM   29  N   UNL     1      -3.313  -4.062 -32.924  1.00  0.00    -0.128 NA
HETATM   30  C   UNL     1      -3.044  -0.665 -31.638  1.00  0.00     0.056 A 
HETATM   31  N   UNL     1      -4.318  -4.352 -33.819  1.00  0.00    -0.123 NA
BRANCH  27  32
HETATM   32  C   UNL     1      -6.178  -3.015 -34.889  1.00  0.00     0.454 C 
HETATM   33  F   UNL     1      -7.318  -2.782 -34.185  1.00  0.00    -0.163 F 
HETATM   34  F   UNL     1      -6.013  -1.936 -35.703  1.00  0.00    -0.163 F 
HETATM   35  F   UNL     1      -6.433  -4.069 -35.712  1.00  0.00    -0.163 F 
ENDBRANCH  27  32
ENDBRANCH   4  23
TORSDOF 6
ENDMDL
MODEL 4
REMARK VINA RESULT:      -9.4      2.457      3.646
REMARK  6 active torsions:
REMARK  status: ('A' for Active; 'I' for Inactive)
REMARK    1  A    between atoms: C_2  and  C_3 
REMARK    2  A    between atoms: C_5  and  N_6 
REMARK       I    between atoms: N_6  and  C_7 
REMARK    3  A    between atoms: C_7  and  C_8 
REMARK    4  A    between atoms: N_11  and  C_12 
REMARK    5  A    between atoms: C_18  and  C_19 
REMARK    6  A    between atoms: C_28  and  O_29 
ROOT
HETATM    1  C   UNL     1      -4.879   5.228 -31.210  1.00  0.00     0.081 C 
HETATM    2  C   UNL     1      -6.336   4.791 -31.451  1.00  0.00     0.034 C 
HETATM    3  C   UNL     1      -6.517   3.909 -32.691  1.00  0.00     0.125 C 
HETATM    4  N   UNL     1      -5.594   2.765 -32.667  1.00  0.00    -0.364 N 
HETATM    5  C   UNL     1      -4.184   3.170 -32.512  1.00  0.00     0.125 C 
HETATM    6  C   UNL     1      -3.994   3.981 -31.240  1.00  0.00     0.034 C 
ENDROOT
BRANCH   1   7
HETATM    7  C   UNL     1      -4.441   6.292 -32.214  1.00  0.00     0.226 C 
HETATM    8  N   UNL     1      -3.170   6.765 -32.302  1.00  0.00    -0.324 N 
HETATM    9  H   UNL     1      -3.067   7.313 -33.150  1.00  0.00     0.169 HD
HETATM   10  O   UNL     1      -5.250   6.756 -33.027  1.00  0.00    -0.273 OA
BRANCH   8  11
HETATM   11  C   UNL     1      -1.969   6.598 -31.584  1.00  0.00     0.068 A 
HETATM   12  C   UNL     1      -1.636   7.228 -30.384  1.00  0.00     0.040 A 
HETATM   13  C   UNL     1      -0.464   6.900 -29.663  1.00  0.00    -0.048 A 
HETATM   14  C   UNL     1       0.388   5.926 -30.214  1.00  0.00     0.011 A 
HETATM   15  C   UNL     1       0.112   5.342 -31.449  1.00  0.00     0.039 A 
HETATM   16  C   UNL     1      -1.045   5.697 -32.126  1.00  0.00     0.092 A 
BRANCH  13  17
HETATM   17  C   UNL     1      -0.183   7.515 -28.275  1.00  0.00    -0.024 C 
HETATM   18  C   UNL     1      -1.311   8.519 -27.965  1.00  0.00     0.019 C 
HETATM   19  C   UNL     1       1.168   8.264 -28.212  1.00  0.00     0.019 C 
HETATM   20  C   UNL     1      -0.147   6.452 -27.153  1.00  0.00     0.019 C 
ENDBRANCH  13  17
BRANCH  16  21
HETATM   21  O   UNL     1      -1.271   5.120 -33.347  1.00  0.00    -0.358 OA
HETATM   22  H   UNL     1      -0.437   4.679 -33.589  1.00  0.00     0.218 HD
ENDBRANCH  16  21
ENDBRANCH   8  11
ENDBRANCH   1   7
BRANCH   4  23
HETATM   23  C   UNL     1      -5.857   1.570 -33.352  1.00  0.00     0.146 A 
HETATM   24  N   UNL     1      -5.126   0.522 -33.042  1.00  0.00    -0.146 NA
HETATM   25  N   UNL     1      -5.405  -0.620 -33.716  1.00  0.00    -0.188 N 
HETATM   26  C   UNL     1      -6.361  -0.802 -34.687  1.00  0.00     0.175 A 
HETATM   27  C   UNL     1      -4.796  -1.835 -33.574  1.00  0.00     0.258 A 
HETATM   28  C   UNL     1      -7.158   0.306 -35.017  1.00  0.00     0.058 A 
HETATM   29  N   UNL     1      -6.330  -2.045 -35.114  1.00  0.00    -0.128 NA
HETATM   30  C   UNL     1      -6.949   1.470 -34.389  1.00  0.00     0.056 A 
HETATM   31  N   UNL     1      -5.341  -2.700 -34.414  1.00  0.00    -0.123 NA
BRANCH  27  32
HETATM   32  C   UNL     1      -3.713  -2.030 -32.601  1.00  0.00     0.454 C 
HETATM   33  F   UNL     1      -2.660  -1.196 -32.815  1.00  0.00    -0.163 F 
HETATM   34  F   UNL     1      -4.118  -1.799 -31.322  1.00  0.00    -0.163 F 
HETATM   35  F   UNL     1      -3.219  -3.298 -32.614  1.00  0.00    -0.163 F 
ENDBRANCH  27  32
ENDBRANCH   4  23
TORSDOF 6
ENDMDL
MODEL 5
REMARK VINA RESULT:      -9.3      3.641      6.252
REMARK  6 active torsions:
REMARK  status: ('A' for Active; 'I' for Inactive)
REMARK    1  A    between atoms: C_2  and  C_3 
REMARK    2  A    between atoms: C_5  and  N_6 
REMARK       I    between atoms: N_6  and  C_7 
REMARK    3  A    between atoms: C_7  and  C_8 
REMARK    4  A    between atoms: N_11  and  C_12 
REMARK    5  A    between atoms: C_18  and  C_19 
REMARK    6  A    between atoms: C_28  and  O_29 
ROOT
HETATM    1  C   UNL     1      -6.212   2.994 -32.613  1.00  0.00     0.081 C 
HETATM    2  C   UNL     1      -4.712   2.774 -32.341  1.00  0.00     0.034 C 
HETATM    3  C   UNL     1      -4.388   1.388 -31.772  1.00  0.00     0.125 C 
HETATM    4  N   UNL     1      -4.959   0.324 -32.610  1.00  0.00    -0.364 N 
HETATM    5  C   UNL     1      -6.411   0.478 -32.820  1.00  0.00     0.125 C 
HETATM    6  C   UNL     1      -6.723   1.824 -33.455  1.00  0.00     0.034 C 
ENDROOT
BRANCH   1   7
HETATM    7  C   UNL     1      -6.995   3.179 -31.315  1.00  0.00     0.226 C 
HETATM    8  N   UNL     1      -8.333   2.970 -31.208  1.00  0.00    -0.324 N 
HETATM    9  H   UNL     1      -8.602   2.965 -30.229  1.00  0.00     0.169 HD
HETATM   10  O   UNL     1      -6.413   3.511 -30.275  1.00  0.00    -0.273 OA
BRANCH   8  11
HETATM   11  C   UNL     1      -9.389   2.660 -32.088  1.00  0.00     0.068 A 
HETATM   12  C   UNL     1     -10.024   3.551 -32.955  1.00  0.00     0.040 A 
HETATM   13  C   UNL     1     -10.987   3.124 -33.899  1.00  0.00    -0.048 A 
HETATM   14  C   UNL     1     -11.315   1.756 -33.920  1.00  0.00     0.011 A 
HETATM   15  C   UNL     1     -10.749   0.864 -33.011  1.00  0.00     0.039 A 
HETATM   16  C   UNL     1      -9.815   1.326 -32.097  1.00  0.00     0.092 A 
BRANCH  13  17
HETATM   17  C   UNL     1     -11.577   4.105 -34.934  1.00  0.00    -0.024 C 
HETATM   18  C   UNL     1     -10.431   4.998 -35.448  1.00  0.00     0.019 C 
HETATM   19  C   UNL     1     -12.678   5.015 -34.340  1.00  0.00     0.019 C 
HETATM   20  C   UNL     1     -12.216   3.379 -36.141  1.00  0.00     0.019 C 
ENDBRANCH  13  17
BRANCH  16  21
HETATM   21  O   UNL     1      -9.298   0.426 -31.204  1.00  0.00    -0.358 OA
HETATM   22  H   UNL     1      -9.022  -0.343 -31.735  1.00  0.00     0.218 HD
ENDBRANCH  16  21
ENDBRANCH   8  11
ENDBRANCH   1   7
BRANCH   4  23
HETATM   23  C   UNL     1      -4.430  -0.974 -32.645  1.00  0.00     0.146 A 
HETATM   24  N   UNL     1      -4.974  -1.827 -33.485  1.00  0.00    -0.146 NA
HETATM   25  N   UNL     1      -4.440  -3.072 -33.500  1.00  0.00    -0.188 N 
HETATM   26  C   UNL     1      -3.399  -3.542 -32.735  1.00  0.00     0.175 A 
HETATM   27  C   UNL     1      -4.822  -4.127 -34.280  1.00  0.00     0.258 A 
HETATM   28  C   UNL     1      -2.800  -2.638 -31.844  1.00  0.00     0.058 A 
HETATM   29  N   UNL     1      -3.168  -4.803 -33.024  1.00  0.00    -0.128 NA
HETATM   30  C   UNL     1      -3.267  -1.384 -31.775  1.00  0.00     0.056 A 
HETATM   31  N   UNL     1      -4.066  -5.176 -34.000  1.00  0.00    -0.123 NA
BRANCH  27  32
HETATM   32  C   UNL     1      -5.917  -3.994 -35.250  1.00  0.00     0.454 C 
HETATM   33  F   UNL     1      -5.690  -3.012 -36.165  1.00  0.00    -0.163 F 
HETATM   34  F   UNL     1      -6.117  -5.134 -35.967  1.00  0.00    -0.163 F 
HETATM   35  F   UNL     1      -7.109  -3.710 -34.658  1.00  0.00    -0.163 F 
ENDBRANCH  27  32
ENDBRANCH   4  23
TORSDOF 6
ENDMDL
MODEL 6
REMARK VINA RESULT:      -9.3      2.738      4.624
REMARK  6 active torsions:
REMARK  status: ('A' for Active; 'I' for Inactive)
REMARK    1  A    between atoms: C_2  and  C_3 
REMARK    2  A    between atoms: C_5  and  N_6 
REMARK       I    between atoms: N_6  and  C_7 
REMARK    3  A    between atoms: C_7  and  C_8 
REMARK    4  A    between atoms: N_11  and  C_12 
REMARK    5  A    between atoms: C_18  and  C_19 
REMARK    6  A    between atoms: C_28  and  O_29 
ROOT
HETATM    1  C   UNL     1      -2.883   6.628 -32.276  1.00  0.00     0.081 C 
HETATM    2  C   UNL     1      -3.923   6.096 -33.279  1.00  0.00     0.034 C 
HETATM    3  C   UNL     1      -3.780   4.599 -33.575  1.00  0.00     0.125 C 
HETATM    4  N   UNL     1      -3.757   3.812 -32.334  1.00  0.00    -0.364 N 
HETATM    5  C   UNL     1      -2.716   4.261 -31.391  1.00  0.00     0.125 C 
HETATM    6  C   UNL     1      -2.906   5.728 -31.039  1.00  0.00     0.034 C 
ENDROOT
BRANCH   1   7
HETATM    7  C   UNL     1      -1.498   6.734 -32.908  1.00  0.00     0.226 C 
HETATM    8  N   UNL     1      -0.341   6.695 -32.197  1.00  0.00    -0.324 N 
HETATM    9  H   UNL     1       0.447   6.590 -32.829  1.00  0.00     0.169 HD
HETATM   10  O   UNL     1      -1.377   6.835 -34.136  1.00  0.00    -0.273 OA
BRANCH   8  11
HETATM   11  C   UNL     1       0.016   6.658 -30.834  1.00  0.00     0.068 A 
HETATM   12  C   UNL     1      -0.167   7.687 -29.909  1.00  0.00     0.040 A 
HETATM   13  C   UNL     1       0.099   7.514 -28.530  1.00  0.00    -0.048 A 
HETATM   14  C   UNL     1       0.592   6.264 -28.114  1.00  0.00     0.011 A 
HETATM   15  C   UNL     1       0.853   5.249 -29.033  1.00  0.00     0.039 A 
HETATM   16  C   UNL     1       0.585   5.463 -30.377  1.00  0.00     0.092 A 
BRANCH  13  17
HETATM   17  C   UNL     1      -0.234   8.622 -27.510  1.00  0.00    -0.024 C 
HETATM   18  C   UNL     1      -1.193   9.619 -28.189  1.00  0.00     0.019 C 
HETATM   19  C   UNL     1       1.018   9.396 -27.032  1.00  0.00     0.019 C 
HETATM   20  C   UNL     1      -0.916   8.069 -26.237  1.00  0.00     0.019 C 
ENDBRANCH  13  17
BRANCH  16  21
HETATM   21  O   UNL     1       0.876   4.452 -31.253  1.00  0.00    -0.358 OA
HETATM   22  H   UNL     1       0.552   4.753 -32.121  1.00  0.00     0.218 HD
ENDBRANCH  16  21
ENDBRANCH   8  11
ENDBRANCH   1   7
BRANCH   4  23
HETATM   23  C   UNL     1      -4.138   2.464 -32.289  1.00  0.00     0.146 A 
HETATM   24  N   UNL     1      -5.144   2.094 -33.052  1.00  0.00    -0.146 NA
HETATM   25  N   UNL     1      -5.488   0.785 -32.991  1.00  0.00    -0.188 N 
HETATM   26  C   UNL     1      -4.908  -0.196 -32.222  1.00  0.00     0.175 A 
HETATM   27  C   UNL     1      -6.485   0.158 -33.684  1.00  0.00     0.258 A 
HETATM   28  C   UNL     1      -3.824   0.183 -31.413  1.00  0.00     0.058 A 
HETATM   29  N   UNL     1      -5.518  -1.342 -32.426  1.00  0.00    -0.128 NA
HETATM   30  C   UNL     1      -3.418   1.459 -31.422  1.00  0.00     0.056 A 
HETATM   31  N   UNL     1      -6.516  -1.121 -33.349  1.00  0.00    -0.123 NA
BRANCH  27  32
HETATM   32  C   UNL     1      -7.328   0.898 -34.633  1.00  0.00     0.454 C 
HETATM   33  F   UNL     1      -6.609   1.475 -35.633  1.00  0.00    -0.163 F 
HETATM   34  F   UNL     1      -8.245   0.100 -35.245  1.00  0.00    -0.163 F 
HETATM   35  F   UNL     1      -8.038   1.894 -34.035  1.00  0.00    -0.163 F 
ENDBRANCH  27  32
ENDBRANCH   4  23
TORSDOF 6
ENDMDL
MODEL 7
REMARK VINA RESULT:      -9.3      3.549      6.060
REMARK  6 active torsions:
REMARK  status: ('A' for Active; 'I' for Inactive)
REMARK    1  A    between atoms: C_2  and  C_3 
REMARK    2  A    between atoms: C_5  and  N_6 
REMARK       I    between atoms: N_6  and  C_7 
REMARK    3  A    between atoms: C_7  and  C_8 
REMARK    4  A    between atoms: N_11  and  C_12 
REMARK    5  A    between atoms: C_18  and  C_19 
REMARK    6  A    between atoms: C_28  and  O_29 
ROOT
HETATM    1  C   UNL     1      -5.619   3.442 -33.098  1.00  0.00     0.081 C 
HETATM    2  C   UNL     1      -4.167   3.108 -32.706  1.00  0.00     0.034 C 
HETATM    3  C   UNL     1      -4.011   1.739 -32.034  1.00  0.00     0.125 C 
HETATM    4  N   UNL     1      -4.622   0.677 -32.847  1.00  0.00    -0.364 N 
HETATM    5  C   UNL     1      -6.036   0.944 -33.169  1.00  0.00     0.125 C 
HETATM    6  C   UNL     1      -6.179   2.268 -33.904  1.00  0.00     0.034 C 
ENDROOT
BRANCH   1   7
HETATM    7  C   UNL     1      -6.465   3.779 -31.873  1.00  0.00     0.226 C 
HETATM    8  N   UNL     1      -7.819   3.891 -31.902  1.00  0.00    -0.324 N 
HETATM    9  H   UNL     1      -8.180   3.929 -30.953  1.00  0.00     0.169 HD
HETATM   10  O   UNL     1      -5.931   3.943 -30.769  1.00  0.00    -0.273 OA
BRANCH   8  11
HETATM   11  C   UNL     1      -8.823   3.857 -32.890  1.00  0.00     0.068 A 
HETATM   12  C   UNL     1      -9.781   2.856 -33.054  1.00  0.00     0.040 A 
HETATM   13  C   UNL     1     -10.835   2.970 -33.991  1.00  0.00    -0.048 A 
HETATM   14  C   UNL     1     -10.874   4.127 -34.789  1.00  0.00     0.011 A 
HETATM   15  C   UNL     1      -9.883   5.103 -34.695  1.00  0.00     0.039 A 
HETATM   16  C   UNL     1      -8.863   4.948 -33.767  1.00  0.00     0.092 A 
BRANCH  13  17
HETATM   17  C   UNL     1     -11.956   1.911 -34.062  1.00  0.00    -0.024 C 
HETATM   18  C   UNL     1     -12.336   1.723 -35.544  1.00  0.00     0.019 C 
HETATM   19  C   UNL     1     -13.225   2.326 -33.281  1.00  0.00     0.019 C 
HETATM   20  C   UNL     1     -11.517   0.545 -33.487  1.00  0.00     0.019 C 
ENDBRANCH  13  17
BRANCH  16  21
HETATM   21  O   UNL     1      -7.894   5.915 -33.719  1.00  0.00    -0.358 OA
HETATM   22  H   UNL     1      -7.813   6.252 -34.629  1.00  0.00     0.218 HD
ENDBRANCH  16  21
ENDBRANCH   8  11
ENDBRANCH   1   7
BRANCH   4  23
HETATM   23  C   UNL     1      -4.214  -0.662 -32.766  1.00  0.00     0.146 A 
HETATM   24  N   UNL     1      -4.794  -1.521 -33.575  1.00  0.00    -0.146 NA
HETATM   25  N   UNL     1      -4.377  -2.806 -33.478  1.00  0.00    -0.188 N 
HETATM   26  C   UNL     1      -3.421  -3.311 -32.629  1.00  0.00     0.175 A 
HETATM   27  C   UNL     1      -4.817  -3.876 -34.206  1.00  0.00     0.258 A 
HETATM   28  C   UNL     1      -2.784  -2.403 -31.769  1.00  0.00     0.058 A 
HETATM   29  N   UNL     1      -3.295  -4.606 -32.821  1.00  0.00    -0.128 NA
HETATM   30  C   UNL     1      -3.136  -1.111 -31.810  1.00  0.00     0.056 A 
HETATM   31  N   UNL     1      -4.176  -4.966 -33.816  1.00  0.00    -0.123 NA
BRANCH  27  32
HETATM   32  C   UNL     1      -5.848  -3.716 -35.240  1.00  0.00     0.454 C 
HETATM   33  F   UNL     1      -6.985  -3.143 -34.761  1.00  0.00    -0.163 F 
HETATM   34  F   UNL     1      -5.434  -2.924 -36.267  1.00  0.00    -0.163 F 
HETATM   35  F   UNL     1      -6.213  -4.900 -35.804  1.00  0.00    -0.163 F 
ENDBRANCH  27  32
ENDBRANCH   4  23
TORSDOF 6
ENDMDL
MODEL 8
REMARK VINA RESULT:      -9.3      5.444     10.134
REMARK  6 active torsions:
REMARK  status: ('A' for Active; 'I' for Inactive)
REMARK    1  A    between atoms: C_2  and  C_3 
REMARK    2  A    between atoms: C_5  and  N_6 
REMARK       I    between atoms: N_6  and  C_7 
REMARK    3  A    between atoms: C_7  and  C_8 
REMARK    4  A    between atoms: N_11  and  C_12 
REMARK    5  A    between atoms: C_18  and  C_19 
REMARK    6  A    between atoms: C_28  and  O_29 
ROOT
HETATM    1  C   UNL     1      -3.955   3.017 -32.653  1.00  0.00     0.081 C 
HETATM    2  C   UNL     1      -5.130   3.799 -32.036  1.00  0.00     0.034 C 
HETATM    3  C   UNL     1      -4.756   4.565 -30.762  1.00  0.00     0.125 C 
HETATM    4  N   UNL     1      -3.578   5.417 -30.981  1.00  0.00    -0.364 N 
HETATM    5  C   UNL     1      -2.419   4.669 -31.502  1.00  0.00     0.125 C 
HETATM    6  C   UNL     1      -2.771   3.972 -32.807  1.00  0.00     0.034 C 
ENDROOT
BRANCH   1   7
HETATM    7  C   UNL     1      -3.615   1.777 -31.829  1.00  0.00     0.226 C 
HETATM    8  N   UNL     1      -4.293   0.603 -31.922  1.00  0.00    -0.324 N 
HETATM    9  H   UNL     1      -3.782  -0.127 -31.433  1.00  0.00     0.169 HD
HETATM   10  O   UNL     1      -2.662   1.792 -31.041  1.00  0.00    -0.273 OA
BRANCH   8  11
HETATM   11  C   UNL     1      -5.438   0.139 -32.598  1.00  0.00     0.068 A 
HETATM   12  C   UNL     1      -6.751   0.553 -32.369  1.00  0.00     0.040 A 
HETATM   13  C   UNL     1      -7.826   0.131 -33.187  1.00  0.00    -0.048 A 
HETATM   14  C   UNL     1      -7.534  -0.757 -34.238  1.00  0.00     0.011 A 
HETATM   15  C   UNL     1      -6.243  -1.243 -34.435  1.00  0.00     0.039 A 
HETATM   16  C   UNL     1      -5.220  -0.809 -33.606  1.00  0.00     0.092 A 
BRANCH  13  17
HETATM   17  C   UNL     1      -9.246   0.704 -32.995  1.00  0.00    -0.024 C 
HETATM   18  C   UNL     1      -9.218   1.638 -31.769  1.00  0.00     0.019 C 
HETATM   19  C   UNL     1     -10.309  -0.393 -32.750  1.00  0.00     0.019 C 
HETATM   20  C   UNL     1      -9.728   1.513 -34.221  1.00  0.00     0.019 C 
ENDBRANCH  13  17
BRANCH  16  21
HETATM   21  O   UNL     1      -3.968  -1.324 -33.815  1.00  0.00    -0.358 OA
HETATM   22  H   UNL     1      -3.908  -2.110 -33.242  1.00  0.00     0.218 HD
ENDBRANCH  16  21
ENDBRANCH   8  11
ENDBRANCH   1   7
BRANCH   4  23
HETATM   23  C   UNL     1      -3.323   6.562 -30.213  1.00  0.00     0.146 A 
HETATM   24  N   UNL     1      -2.077   6.786 -29.857  1.00  0.00    -0.146 NA
HETATM   25  N   UNL     1      -1.860   7.901 -29.119  1.00  0.00    -0.188 N 
HETATM   26  C   UNL     1      -2.793   8.819 -28.699  1.00  0.00     0.175 A 
HETATM   27  C   UNL     1      -0.664   8.353 -28.635  1.00  0.00     0.258 A 
HETATM   28  C   UNL     1      -4.126   8.598 -29.083  1.00  0.00     0.058 A 
HETATM   29  N   UNL     1      -2.206   9.762 -27.997  1.00  0.00    -0.128 NA
HETATM   30  C   UNL     1      -4.422   7.520 -29.821  1.00  0.00     0.056 A 
HETATM   31  N   UNL     1      -0.861   9.471 -27.954  1.00  0.00    -0.123 NA
BRANCH  27  32
HETATM   32  C   UNL     1       0.583   7.625 -28.899  1.00  0.00     0.454 C 
HETATM   33  F   UNL     1       0.791   7.406 -30.226  1.00  0.00    -0.163 F 
HETATM   34  F   UNL     1       1.681   8.296 -28.455  1.00  0.00    -0.163 F 
HETATM   35  F   UNL     1       0.618   6.407 -28.291  1.00  0.00    -0.163 F 
ENDBRANCH  27  32
ENDBRANCH   4  23
TORSDOF 6
ENDMDL
MODEL 9
REMARK VINA RESULT:      -9.2      4.534      8.664
REMARK  6 active torsions:
REMARK  status: ('A' for Active; 'I' for Inactive)
REMARK    1  A    between atoms: C_2  and  C_3 
REMARK    2  A    between atoms: C_5  and  N_6 
REMARK       I    between atoms: N_6  and  C_7 
REMARK    3  A    between atoms: C_7  and  C_8 
REMARK    4  A    between atoms: N_11  and  C_12 
REMARK    5  A    between atoms: C_18  and  C_19 
REMARK    6  A    between atoms: C_28  and  O_29 
ROOT
HETATM    1  C   UNL     1      -8.758   3.661 -32.377  1.00  0.00     0.081 C 
HETATM    2  C   UNL     1      -8.879   5.151 -32.009  1.00  0.00     0.034 C 
HETATM    3  C   UNL     1      -7.602   5.740 -31.400  1.00  0.00     0.125 C 
HETATM    4  N   UNL     1      -6.435   5.475 -32.255  1.00  0.00    -0.364 N 
HETATM    5  C   UNL     1      -6.260   4.042 -32.556  1.00  0.00     0.125 C 
HETATM    6  C   UNL     1      -7.501   3.478 -33.231  1.00  0.00     0.034 C 
ENDROOT
BRANCH   1   7
HETATM    7  C   UNL     1      -8.764   2.775 -31.133  1.00  0.00     0.226 C 
HETATM    8  N   UNL     1      -8.234   1.525 -31.097  1.00  0.00    -0.324 N 
HETATM    9  H   UNL     1      -8.179   1.204 -30.135  1.00  0.00     0.169 HD
HETATM   10  O   UNL     1      -9.247   3.191 -30.072  1.00  0.00    -0.273 OA
BRANCH   8  11
HETATM   11  C   UNL     1      -7.659   0.635 -32.026  1.00  0.00     0.068 A 
HETATM   12  C   UNL     1      -6.309   0.291 -32.107  1.00  0.00     0.040 A 
HETATM   13  C   UNL     1      -5.840  -0.713 -32.986  1.00  0.00    -0.048 A 
HETATM   14  C   UNL     1      -6.785  -1.345 -33.814  1.00  0.00     0.011 A 
HETATM   15  C   UNL     1      -8.125  -0.963 -33.804  1.00  0.00     0.039 A 
HETATM   16  C   UNL     1      -8.541   0.031 -32.931  1.00  0.00     0.092 A 
BRANCH  13  17
HETATM   17  C   UNL     1      -4.365  -1.166 -32.964  1.00  0.00    -0.024 C 
HETATM   18  C   UNL     1      -4.002  -1.525 -31.509  1.00  0.00     0.019 C 
HETATM   19  C   UNL     1      -3.391  -0.069 -33.454  1.00  0.00     0.019 C 
HETATM   20  C   UNL     1      -4.113  -2.404 -33.855  1.00  0.00     0.019 C 
ENDBRANCH  13  17
BRANCH  16  21
HETATM   21  O   UNL     1      -9.860   0.397 -32.965  1.00  0.00    -0.358 OA
HETATM   22  H   UNL     1     -10.266  -0.006 -32.177  1.00  0.00     0.218 HD
ENDBRANCH  16  21
ENDBRANCH   8  11
ENDBRANCH   1   7
BRANCH   4  23
HETATM   23  C   UNL     1      -5.289   6.282 -32.236  1.00  0.00     0.146 A 
HETATM   24  N   UNL     1      -4.282   5.920 -33.001  1.00  0.00    -0.146 NA
HETATM   25  N   UNL     1      -3.190   6.721 -32.966  1.00  0.00    -0.188 N 
HETATM   26  C   UNL     1      -3.015   7.862 -32.221  1.00  0.00     0.175 A 
HETATM   27  C   UNL     1      -2.026   6.564 -33.666  1.00  0.00     0.258 A 
HETATM   28  C   UNL     1      -4.088   8.267 -31.410  1.00  0.00     0.058 A 
HETATM   29  N   UNL     1      -1.821   8.363 -32.445  1.00  0.00    -0.128 NA
HETATM   30  C   UNL     1      -5.208   7.532 -31.395  1.00  0.00     0.056 A 
HETATM   31  N   UNL     1      -1.193   7.544 -33.358  1.00  0.00    -0.123 NA
BRANCH  27  32
HETATM   32  C   UNL     1      -1.847   5.439 -34.594  1.00  0.00     0.454 C 
HETATM   33  F   UNL     1      -1.838   4.235 -33.962  1.00  0.00    -0.163 F 
HETATM   34  F   UNL     1      -2.841   5.367 -35.521  1.00  0.00    -0.163 F 
HETATM   35  F   UNL     1      -0.684   5.522 -35.298  1.00  0.00    -0.163 F 
ENDBRANCH  27  32
ENDBRANCH   4  23
TORSDOF 6
ENDMDL
MODEL 10
REMARK VINA RESULT:      -9.2      4.532      8.454
REMARK  6 active torsions:
REMARK  status: ('A' for Active; 'I' for Inactive)
REMARK    1  A    between atoms: C_2  and  C_3 
REMARK    2  A    between atoms: C_5  and  N_6 
REMARK       I    between atoms: N_6  and  C_7 
REMARK    3  A    between atoms: C_7  and  C_8 
REMARK    4  A    between atoms: N_11  and  C_12 
REMARK    5  A    between atoms: C_18  and  C_19 
REMARK    6  A    between atoms: C_28  and  O_29 
ROOT
HETATM    1  C   UNL     1      -5.649   1.524 -30.607  1.00  0.00     0.081 C 
HETATM    2  C   UNL     1      -6.186   2.778 -29.892  1.00  0.00     0.034 C 
HETATM    3  C   UNL     1      -7.229   3.551 -30.707  1.00  0.00     0.125 C 
HETATM    4  N   UNL     1      -8.312   2.666 -31.158  1.00  0.00    -0.364 N 
HETATM    5  C   UNL     1      -7.821   1.497 -31.911  1.00  0.00     0.125 C 
HETATM    6  C   UNL     1      -6.844   0.688 -31.071  1.00  0.00     0.034 C 
ENDROOT
BRANCH   1   7
HETATM    7  C   UNL     1      -4.703   1.892 -31.747  1.00  0.00     0.226 C 
HETATM    8  N   UNL     1      -4.121   0.977 -32.566  1.00  0.00    -0.324 N 
HETATM    9  H   UNL     1      -3.693   1.450 -33.357  1.00  0.00     0.169 HD
HETATM   10  O   UNL     1      -4.446   3.078 -31.988  1.00  0.00    -0.273 OA
BRANCH   8  11
HETATM   11  C   UNL     1      -4.059  -0.428 -32.643  1.00  0.00     0.068 A 
HETATM   12  C   UNL     1      -4.850  -1.241 -33.456  1.00  0.00     0.040 A 
HETATM   13  C   UNL     1      -4.629  -2.634 -33.568  1.00  0.00    -0.048 A 
HETATM   14  C   UNL     1      -3.591  -3.192 -32.799  1.00  0.00     0.011 A 
HETATM   15  C   UNL     1      -2.841  -2.410 -31.923  1.00  0.00     0.039 A 
HETATM   16  C   UNL     1      -3.095  -1.049 -31.839  1.00  0.00     0.092 A 
BRANCH  13  17
HETATM   17  C   UNL     1      -5.430  -3.490 -34.571  1.00  0.00    -0.024 C 
HETATM   18  C   UNL     1      -4.974  -4.954 -34.415  1.00  0.00     0.019 C 
HETATM   19  C   UNL     1      -5.204  -3.062 -36.040  1.00  0.00     0.019 C 
HETATM   20  C   UNL     1      -6.955  -3.419 -34.325  1.00  0.00     0.019 C 
ENDBRANCH  13  17
BRANCH  16  21
HETATM   21  O   UNL     1      -2.354  -0.316 -30.951  1.00  0.00    -0.358 OA
HETATM   22  H   UNL     1      -1.898  -0.967 -30.388  1.00  0.00     0.218 HD
ENDBRANCH  16  21
ENDBRANCH   8  11
ENDBRANCH   1   7
BRANCH   4  23
HETATM   23  C   UNL     1      -9.597   3.140 -31.458  1.00  0.00     0.146 A 
HETATM   24  N   UNL     1     -10.317   2.441 -32.308  1.00  0.00    -0.146 NA
HETATM   25  N   UNL     1     -11.556   2.921 -32.576  1.00  0.00    -0.188 N 
HETATM   26  C   UNL     1     -12.140   4.055 -32.063  1.00  0.00     0.175 A 
HETATM   27  C   UNL     1     -12.490   2.379 -33.413  1.00  0.00     0.258 A 
HETATM   28  C   UNL     1     -11.387   4.803 -31.144  1.00  0.00     0.058 A 
HETATM   29  N   UNL     1     -13.347   4.198 -32.562  1.00  0.00    -0.128 NA
HETATM   30  C   UNL     1     -10.154   4.390 -30.821  1.00  0.00     0.056 A 
HETATM   31  N   UNL     1     -13.571   3.142 -33.416  1.00  0.00    -0.123 NA
BRANCH  27  32
HETATM   32  C   UNL     1     -12.221   1.132 -34.142  1.00  0.00     0.454 C 
HETATM   33  F   UNL     1     -13.252   0.765 -34.949  1.00  0.00    -0.163 F 
HETATM   34  F   UNL     1     -11.129   1.229 -34.950  1.00  0.00    -0.163 F 
HETATM   35  F   UNL     1     -11.979   0.082 -33.311  1.00  0.00    -0.163 F 
ENDBRANCH  27  32
ENDBRANCH   4  23
TORSDOF 6
ENDMDL
