MODEL 1
REMARK VINA RESULT:      -8.4      0.000      0.000
REMARK  5 active torsions:
REMARK  status: ('A' for Active; 'I' for Inactive)
REMARK    1  A    between atoms: C_7  and  C_8 
REMARK    2  A    between atoms: N_9  and  N_10 
REMARK       I    between atoms: N_10  and  C_11 
REMARK    3  A    between atoms: C_11  and  C_12 
REMARK    4  A    between atoms: C_12  and  O_13 
REMARK    5  A    between atoms: O_13  and  C_14 
ROOT
HETATM    1  C   UNL     1      -6.863   0.097 -33.647  1.00  0.00     0.153 C 
HETATM    2  N   UNL     1      -7.454   0.461 -32.553  1.00  0.00    -0.184 NA
ENDROOT
BRANCH   2   3
HETATM    3  N   UNL     1      -8.454   1.405 -32.636  1.00  0.00    -0.246 N 
HETATM    4  C   UNL     1      -9.807   1.150 -32.841  1.00  0.00     0.261 C 
HETATM    5  O   UNL     1     -10.335   0.041 -32.896  1.00  0.00    -0.269 OA
HETATM    6  H   UNL     1      -8.127   2.339 -32.878  1.00  0.00     0.192 HD
BRANCH   4   7
HETATM    7  C   UNL     1     -10.649   2.421 -32.903  1.00  0.00     0.280 C 
BRANCH   7   8
HETATM    8  O   UNL     1     -11.495   2.443 -34.047  1.00  0.00    -0.342 OA
BRANCH   8   9
HETATM    9  C   UNL     1     -12.793   2.063 -33.828  1.00  0.00     0.069 A 
HETATM   10  C   UNL     1     -13.455   2.764 -32.817  1.00  0.00     0.037 A 
HETATM   11  C   UNL     1     -14.784   2.472 -32.504  1.00  0.00     0.003 A 
HETATM   12  C   UNL     1     -15.457   1.466 -33.194  1.00  0.00     0.000 A 
HETATM   13  C   UNL     1     -14.800   0.754 -34.194  1.00  0.00     0.003 A 
HETATM   14  C   UNL     1     -13.470   1.048 -34.510  1.00  0.00     0.037 A 
ENDBRANCH   8   9
ENDBRANCH   7   8
ENDBRANCH   4   7
ENDBRANCH   2   3
BRANCH   1  15
HETATM   15  C   UNL     1      -5.766  -0.858 -33.621  1.00  0.00     0.018 A 
HETATM   16  C   UNL     1      -4.476  -0.665 -33.146  1.00  0.00     0.018 A 
HETATM   17  C   UNL     1      -3.823   0.523 -32.535  1.00  0.00     0.069 C 
HETATM   18  N   UNL     1      -3.789  -1.842 -33.319  1.00  0.00    -0.358 N 
HETATM   19  H   UNL     1      -2.823  -1.993 -33.063  1.00  0.00     0.166 HD
HETATM   20  C   UNL     1      -4.594  -2.798 -33.890  1.00  0.00     0.043 A 
HETATM   21  C   UNL     1      -5.841  -2.212 -34.094  1.00  0.00     0.004 A 
HETATM   22  C   UNL     1      -4.311  -4.123 -34.241  1.00  0.00     0.030 A 
HETATM   23  C   UNL     1      -6.857  -2.991 -34.689  1.00  0.00     0.014 A 
HETATM   24  C   UNL     1      -6.592  -4.317 -35.050  1.00  0.00     0.001 A 
HETATM   25  C   UNL     1      -5.336  -4.874 -34.826  1.00  0.00     0.002 A 
ENDBRANCH   1  15
TORSDOF 5
ENDMDL
MODEL 2
REMARK VINA RESULT:      -8.4      1.164      1.559
REMARK  5 active torsions:
REMARK  status: ('A' for Active; 'I' for Inactive)
REMARK    1  A    between atoms: C_7  and  C_8 
REMARK    2  A    between atoms: N_9  and  N_10 
REMARK       I    between atoms: N_10  and  C_11 
REMARK    3  A    between atoms: C_11  and  C_12 
REMARK    4  A    between atoms: C_12  and  O_13 
REMARK    5  A    between atoms: O_13  and  C_14 
ROOT
HETATM    1  C   UNL     1      -7.420  -0.187 -33.785  1.00  0.00     0.153 C 
HETATM    2  N   UNL     1      -7.775   0.452 -34.855  1.00  0.00    -0.184 NA
ENDROOT
BRANCH   2   3
HETATM    3  N   UNL     1      -8.989   1.103 -34.854  1.00  0.00    -0.246 N 
HETATM    4  C   UNL     1      -9.270   2.313 -34.227  1.00  0.00     0.261 C 
HETATM    5  O   UNL     1      -8.459   3.033 -33.647  1.00  0.00    -0.269 OA
HETATM    6  H   UNL     1      -9.786   0.499 -35.052  1.00  0.00     0.192 HD
BRANCH   4   7
HETATM    7  C   UNL     1     -10.721   2.750 -34.400  1.00  0.00     0.280 C 
BRANCH   7   8
HETATM    8  O   UNL     1     -11.447   2.685 -33.178  1.00  0.00    -0.342 OA
BRANCH   8   9
HETATM    9  C   UNL     1     -12.733   2.222 -33.280  1.00  0.00     0.069 A 
HETATM   10  C   UNL     1     -12.914   1.164 -34.173  1.00  0.00     0.037 A 
HETATM   11  C   UNL     1     -14.179   0.601 -34.360  1.00  0.00     0.003 A 
HETATM   12  C   UNL     1     -15.274   1.104 -33.661  1.00  0.00     0.000 A 
HETATM   13  C   UNL     1     -15.104   2.167 -32.778  1.00  0.00     0.003 A 
HETATM   14  C   UNL     1     -13.837   2.729 -32.589  1.00  0.00     0.037 A 
ENDBRANCH   8   9
ENDBRANCH   7   8
ENDBRANCH   4   7
ENDBRANCH   2   3
BRANCH   1  15
HETATM   15  C   UNL     1      -6.174  -0.936 -33.741  1.00  0.00     0.018 A 
HETATM   16  C   UNL     1      -4.933  -0.504 -33.294  1.00  0.00     0.018 A 
HETATM   17  C   UNL     1      -4.490   0.802 -32.738  1.00  0.00     0.069 C 
HETATM   18  N   UNL     1      -4.054  -1.551 -33.433  1.00  0.00    -0.358 N 
HETATM   19  H   UNL     1      -3.074  -1.522 -33.186  1.00  0.00     0.166 HD
HETATM   20  C   UNL     1      -4.686  -2.653 -33.954  1.00  0.00     0.043 A 
HETATM   21  C   UNL     1      -6.018  -2.300 -34.160  1.00  0.00     0.004 A 
HETATM   22  C   UNL     1      -4.181  -3.923 -34.260  1.00  0.00     0.030 A 
HETATM   23  C   UNL     1      -6.889  -3.266 -34.710  1.00  0.00     0.014 A 
HETATM   24  C   UNL     1      -6.402  -4.540 -35.025  1.00  0.00     0.001 A 
HETATM   25  C   UNL     1      -5.066  -4.862 -34.800  1.00  0.00     0.002 A 
ENDBRANCH   1  15
TORSDOF 5
ENDMDL
MODEL 3
REMARK VINA RESULT:      -8.2      4.908      8.698
REMARK  5 active torsions:
REMARK  status: ('A' for Active; 'I' for Inactive)
REMARK    1  A    between atoms: C_7  and  C_8 
REMARK    2  A    between atoms: N_9  and  N_10 
REMARK       I    between atoms: N_10  and  C_11 
REMARK    3  A    between atoms: C_11  and  C_12 
REMARK    4  A    between atoms: C_12  and  O_13 
REMARK    5  A    between atoms: O_13  and  C_14 
ROOT
HETATM    1  C   UNL     1      -3.074   3.172 -32.831  1.00  0.00     0.153 C 
HETATM    2  N   UNL     1      -4.247   3.038 -32.296  1.00  0.00    -0.184 NA
ENDROOT
BRANCH   2   3
HETATM    3  N   UNL     1      -4.778   1.771 -32.198  1.00  0.00    -0.246 N 
HETATM    4  C   UNL     1      -5.732   1.215 -33.044  1.00  0.00     0.261 C 
HETATM    5  O   UNL     1      -6.190   1.734 -34.060  1.00  0.00    -0.269 OA
HETATM    6  H   UNL     1      -4.696   1.354 -31.272  1.00  0.00     0.192 HD
BRANCH   4   7
HETATM    7  C   UNL     1      -6.123  -0.206 -32.648  1.00  0.00     0.280 C 
BRANCH   7   8
HETATM    8  O   UNL     1      -6.722  -0.914 -33.728  1.00  0.00    -0.342 OA
BRANCH   8   9
HETATM    9  C   UNL     1      -6.133  -2.110 -34.047  1.00  0.00     0.069 A 
HETATM   10  C   UNL     1      -7.008  -3.100 -34.500  1.00  0.00     0.037 A 
HETATM   11  C   UNL     1      -6.528  -4.361 -34.862  1.00  0.00     0.003 A 
HETATM   12  C   UNL     1      -5.167  -4.641 -34.762  1.00  0.00     0.000 A 
HETATM   13  C   UNL     1      -4.290  -3.664 -34.298  1.00  0.00     0.003 A 
HETATM   14  C   UNL     1      -4.771  -2.401 -33.938  1.00  0.00     0.037 A 
ENDBRANCH   8   9
ENDBRANCH   7   8
ENDBRANCH   4   7
ENDBRANCH   2   3
BRANCH   1  15
HETATM   15  C   UNL     1      -2.481   4.488 -33.009  1.00  0.00     0.018 A 
HETATM   16  C   UNL     1      -2.721   5.404 -34.024  1.00  0.00     0.018 A 
HETATM   17  C   UNL     1      -3.623   5.347 -35.204  1.00  0.00     0.069 C 
HETATM   18  N   UNL     1      -1.942   6.509 -33.779  1.00  0.00    -0.358 N 
HETATM   19  H   UNL     1      -1.911   7.337 -34.358  1.00  0.00     0.166 HD
HETATM   20  C   UNL     1      -1.202   6.341 -32.634  1.00  0.00     0.043 A 
HETATM   21  C   UNL     1      -1.516   5.082 -32.127  1.00  0.00     0.004 A 
HETATM   22  C   UNL     1      -0.284   7.201 -32.018  1.00  0.00     0.030 A 
HETATM   23  C   UNL     1      -0.871   4.657 -30.945  1.00  0.00     0.014 A 
HETATM   24  C   UNL     1       0.052   5.501 -30.317  1.00  0.00     0.001 A 
HETATM   25  C   UNL     1       0.338   6.756 -30.847  1.00  0.00     0.002 A 
ENDBRANCH   1  15
TORSDOF 5
ENDMDL
MODEL 4
REMARK VINA RESULT:      -7.9      4.319      8.315
REMARK  5 active torsions:
REMARK  status: ('A' for Active; 'I' for Inactive)
REMARK    1  A    between atoms: C_7  and  C_8 
REMARK    2  A    between atoms: N_9  and  N_10 
REMARK       I    between atoms: N_10  and  C_11 
REMARK    3  A    between atoms: C_11  and  C_12 
REMARK    4  A    between atoms: C_12  and  O_13 
REMARK    5  A    between atoms: O_13  and  C_14 
ROOT
HETATM    1  C   UNL     1      -4.466   2.951 -32.318  1.00  0.00     0.153 C 
HETATM    2  N   UNL     1      -5.510   2.769 -33.065  1.00  0.00    -0.184 NA
ENDROOT
BRANCH   2   3
HETATM    3  N   UNL     1      -5.897   1.476 -33.339  1.00  0.00    -0.246 N 
HETATM    4  C   UNL     1      -6.903   0.766 -32.691  1.00  0.00     0.261 C 
HETATM    5  O   UNL     1      -7.661   1.207 -31.830  1.00  0.00    -0.269 OA
HETATM    6  H   UNL     1      -5.190   0.922 -33.821  1.00  0.00     0.192 HD
BRANCH   4   7
HETATM    7  C   UNL     1      -7.067  -0.654 -33.224  1.00  0.00     0.280 C 
BRANCH   7   8
HETATM    8  O   UNL     1      -6.136  -0.945 -34.260  1.00  0.00    -0.342 OA
BRANCH   8   9
HETATM    9  C   UNL     1      -5.734  -2.253 -34.342  1.00  0.00     0.069 A 
HETATM   10  C   UNL     1      -6.720  -3.153 -34.753  1.00  0.00     0.037 A 
HETATM   11  C   UNL     1      -6.431  -4.513 -34.881  1.00  0.00     0.003 A 
HETATM   12  C   UNL     1      -5.154  -4.984 -34.586  1.00  0.00     0.000 A 
HETATM   13  C   UNL     1      -4.169  -4.095 -34.162  1.00  0.00     0.003 A 
HETATM   14  C   UNL     1      -4.457  -2.733 -34.037  1.00  0.00     0.037 A 
ENDBRANCH   8   9
ENDBRANCH   7   8
ENDBRANCH   4   7
ENDBRANCH   2   3
BRANCH   1  15
HETATM   15  C   UNL     1      -3.976   4.290 -32.032  1.00  0.00     0.018 A 
HETATM   16  C   UNL     1      -4.354   5.136 -30.999  1.00  0.00     0.018 A 
HETATM   17  C   UNL     1      -5.335   4.960 -29.896  1.00  0.00     0.069 C 
HETATM   18  N   UNL     1      -3.625   6.294 -31.122  1.00  0.00    -0.358 N 
HETATM   19  H   UNL     1      -3.693   7.091 -30.504  1.00  0.00     0.166 HD
HETATM   20  C   UNL     1      -2.780   6.226 -32.203  1.00  0.00     0.043 A 
HETATM   21  C   UNL     1      -2.977   4.982 -32.797  1.00  0.00     0.004 A 
HETATM   22  C   UNL     1      -1.868   7.168 -32.696  1.00  0.00     0.030 A 
HETATM   23  C   UNL     1      -2.228   4.666 -33.951  1.00  0.00     0.014 A 
HETATM   24  C   UNL     1      -1.314   5.595 -34.461  1.00  0.00     0.001 A 
HETATM   25  C   UNL     1      -1.137   6.827 -33.839  1.00  0.00     0.002 A 
ENDBRANCH   1  15
TORSDOF 5
ENDMDL
MODEL 5
REMARK VINA RESULT:      -7.7      5.283      9.168
REMARK  5 active torsions:
REMARK  status: ('A' for Active; 'I' for Inactive)
REMARK    1  A    between atoms: C_7  and  C_8 
REMARK    2  A    between atoms: N_9  and  N_10 
REMARK       I    between atoms: N_10  and  C_11 
REMARK    3  A    between atoms: C_11  and  C_12 
REMARK    4  A    between atoms: C_12  and  O_13 
REMARK    5  A    between atoms: O_13  and  C_14 
ROOT
HETATM    1  C   UNL     1      -3.266   3.618 -32.255  1.00  0.00     0.153 C 
HETATM    2  N   UNL     1      -3.826   2.601 -31.677  1.00  0.00    -0.184 NA
ENDROOT
BRANCH   2   3
HETATM    3  N   UNL     1      -3.947   1.431 -32.392  1.00  0.00    -0.246 N 
HETATM    4  C   UNL     1      -3.285   0.236 -32.128  1.00  0.00     0.261 C 
HETATM    5  O   UNL     1      -2.552   0.012 -31.166  1.00  0.00    -0.269 OA
HETATM    6  H   UNL     1      -4.293   1.556 -33.343  1.00  0.00     0.192 HD
BRANCH   4   7
HETATM    7  C   UNL     1      -3.626  -0.867 -33.125  1.00  0.00     0.280 C 
BRANCH   7   8
HETATM    8  O   UNL     1      -5.022  -0.923 -33.399  1.00  0.00    -0.342 OA
BRANCH   8   9
HETATM    9  C   UNL     1      -5.469  -2.100 -33.943  1.00  0.00     0.069 A 
HETATM   10  C   UNL     1      -4.504  -3.102 -34.065  1.00  0.00     0.037 A 
HETATM   11  C   UNL     1      -4.839  -4.348 -34.599  1.00  0.00     0.003 A 
HETATM   12  C   UNL     1      -6.142  -4.596 -35.025  1.00  0.00     0.000 A 
HETATM   13  C   UNL     1      -7.106  -3.597 -34.919  1.00  0.00     0.003 A 
HETATM   14  C   UNL     1      -6.772  -2.350 -34.383  1.00  0.00     0.037 A 
ENDBRANCH   8   9
ENDBRANCH   7   8
ENDBRANCH   4   7
ENDBRANCH   2   3
BRANCH   1  15
HETATM   15  C   UNL     1      -3.153   4.896 -31.572  1.00  0.00     0.018 A 
HETATM   16  C   UNL     1      -4.177   5.737 -31.156  1.00  0.00     0.018 A 
HETATM   17  C   UNL     1      -5.654   5.611 -31.264  1.00  0.00     0.069 C 
HETATM   18  N   UNL     1      -3.600   6.827 -30.551  1.00  0.00    -0.358 N 
HETATM   19  H   UNL     1      -4.106   7.605 -30.152  1.00  0.00     0.166 HD
HETATM   20  C   UNL     1      -2.230   6.722 -30.558  1.00  0.00     0.043 A 
HETATM   21  C   UNL     1      -1.917   5.522 -31.193  1.00  0.00     0.004 A 
HETATM   22  C   UNL     1      -1.255   7.594 -30.059  1.00  0.00     0.030 A 
HETATM   23  C   UNL     1      -0.556   5.180 -31.343  1.00  0.00     0.014 A 
HETATM   24  C   UNL     1       0.434   6.040 -30.853  1.00  0.00     0.001 A 
HETATM   25  C   UNL     1       0.086   7.229 -30.218  1.00  0.00     0.002 A 
ENDBRANCH   1  15
TORSDOF 5
ENDMDL
MODEL 6
REMARK VINA RESULT:      -7.6      1.619      2.021
REMARK  5 active torsions:
REMARK  status: ('A' for Active; 'I' for Inactive)
REMARK    1  A    between atoms: C_7  and  C_8 
REMARK    2  A    between atoms: N_9  and  N_10 
REMARK       I    between atoms: N_10  and  C_11 
REMARK    3  A    between atoms: C_11  and  C_12 
REMARK    4  A    between atoms: C_12  and  O_13 
REMARK    5  A    between atoms: O_13  and  C_14 
ROOT
HETATM    1  C   UNL     1      -6.179  -0.210 -33.539  1.00  0.00     0.153 C 
HETATM    2  N   UNL     1      -6.972   0.159 -32.582  1.00  0.00    -0.184 NA
ENDROOT
BRANCH   2   3
HETATM    3  N   UNL     1      -7.870   1.172 -32.834  1.00  0.00    -0.246 N 
HETATM    4  C   UNL     1      -7.742   2.499 -32.438  1.00  0.00     0.261 C 
HETATM    5  O   UNL     1      -6.768   2.996 -31.875  1.00  0.00    -0.269 OA
HETATM    6  H   UNL     1      -8.816   0.850 -33.039  1.00  0.00     0.192 HD
BRANCH   4   7
HETATM    7  C   UNL     1      -8.926   3.364 -32.860  1.00  0.00     0.280 C 
BRANCH   7   8
HETATM    8  O   UNL     1      -9.331   3.095 -34.197  1.00  0.00    -0.342 OA
BRANCH   8   9
HETATM    9  C   UNL     1     -10.611   2.625 -34.343  1.00  0.00     0.069 A 
HETATM   10  C   UNL     1     -11.423   3.371 -35.200  1.00  0.00     0.037 A 
HETATM   11  C   UNL     1     -12.746   2.990 -35.435  1.00  0.00     0.003 A 
HETATM   12  C   UNL     1     -13.268   1.863 -34.802  1.00  0.00     0.000 A 
HETATM   13  C   UNL     1     -12.468   1.123 -33.936  1.00  0.00     0.003 A 
HETATM   14  C   UNL     1     -11.143   1.503 -33.703  1.00  0.00     0.037 A 
ENDBRANCH   8   9
ENDBRANCH   7   8
ENDBRANCH   4   7
ENDBRANCH   2   3
BRANCH   1  15
HETATM   15  C   UNL     1      -5.174  -1.238 -33.322  1.00  0.00     0.018 A 
HETATM   16  C   UNL     1      -4.009  -1.151 -32.572  1.00  0.00     0.018 A 
HETATM   17  C   UNL     1      -3.435  -0.032 -31.779  1.00  0.00     0.069 C 
HETATM   18  N   UNL     1      -3.374  -2.366 -32.647  1.00  0.00    -0.358 N 
HETATM   19  H   UNL     1      -2.498  -2.592 -32.196  1.00  0.00     0.166 HD
HETATM   20  C   UNL     1      -4.091  -3.245 -33.422  1.00  0.00     0.043 A 
HETATM   21  C   UNL     1      -5.226  -2.568 -33.862  1.00  0.00     0.004 A 
HETATM   22  C   UNL     1      -3.819  -4.575 -33.766  1.00  0.00     0.030 A 
HETATM   23  C   UNL     1      -6.133  -3.255 -34.698  1.00  0.00     0.014 A 
HETATM   24  C   UNL     1      -5.876  -4.583 -35.055  1.00  0.00     0.001 A 
HETATM   25  C   UNL     1      -4.736  -5.233 -34.593  1.00  0.00     0.002 A 
ENDBRANCH   1  15
TORSDOF 5
ENDMDL
MODEL 7
REMARK VINA RESULT:      -7.6      4.824      8.582
REMARK  5 active torsions:
REMARK  status: ('A' for Active; 'I' for Inactive)
REMARK    1  A    between atoms: C_7  and  C_8 
REMARK    2  A    between atoms: N_9  and  N_10 
REMARK       I    between atoms: N_10  and  C_11 
REMARK    3  A    between atoms: C_11  and  C_12 
REMARK    4  A    between atoms: C_12  and  O_13 
REMARK    5  A    between atoms: O_13  and  C_14 
ROOT
HETATM    1  C   UNL     1      -5.641   1.597 -32.756  1.00  0.00     0.153 C 
HETATM    2  N   UNL     1      -5.614   2.704 -33.429  1.00  0.00    -0.184 NA
ENDROOT
BRANCH   2   3
HETATM    3  N   UNL     1      -4.880   3.755 -32.927  1.00  0.00    -0.246 N 
HETATM    4  C   UNL     1      -4.598   4.947 -33.586  1.00  0.00     0.261 C 
HETATM    5  O   UNL     1      -5.030   5.286 -34.686  1.00  0.00    -0.269 OA
HETATM    6  H   UNL     1      -4.253   3.499 -32.165  1.00  0.00     0.192 HD
BRANCH   4   7
HETATM    7  C   UNL     1      -3.740   5.898 -32.756  1.00  0.00     0.280 C 
BRANCH   7   8
HETATM    8  O   UNL     1      -2.352   5.736 -33.027  1.00  0.00    -0.342 OA
BRANCH   8   9
HETATM    9  C   UNL     1      -1.506   6.121 -32.019  1.00  0.00     0.069 A 
HETATM   10  C   UNL     1      -0.402   5.289 -31.820  1.00  0.00     0.037 A 
HETATM   11  C   UNL     1       0.536   5.579 -30.827  1.00  0.00     0.003 A 
HETATM   12  C   UNL     1       0.367   6.701 -30.018  1.00  0.00     0.000 A 
HETATM   13  C   UNL     1      -0.738   7.528 -30.201  1.00  0.00     0.003 A 
HETATM   14  C   UNL     1      -1.675   7.238 -31.197  1.00  0.00     0.037 A 
ENDBRANCH   8   9
ENDBRANCH   7   8
ENDBRANCH   4   7
ENDBRANCH   2   3
BRANCH   1  15
HETATM   15  C   UNL     1      -6.438   0.467 -33.207  1.00  0.00     0.018 A 
HETATM   16  C   UNL     1      -7.821   0.373 -33.284  1.00  0.00     0.018 A 
HETATM   17  C   UNL     1      -8.891   1.350 -32.950  1.00  0.00     0.069 C 
HETATM   18  N   UNL     1      -8.127  -0.874 -33.771  1.00  0.00    -0.358 N 
HETATM   19  H   UNL     1      -9.062  -1.222 -33.931  1.00  0.00     0.166 HD
HETATM   20  C   UNL     1      -6.984  -1.596 -34.017  1.00  0.00     0.043 A 
HETATM   21  C   UNL     1      -5.907  -0.783 -33.672  1.00  0.00     0.004 A 
HETATM   22  C   UNL     1      -6.826  -2.897 -34.510  1.00  0.00     0.030 A 
HETATM   23  C   UNL     1      -4.602  -1.302 -33.820  1.00  0.00     0.014 A 
HETATM   24  C   UNL     1      -4.424  -2.602 -34.308  1.00  0.00     0.001 A 
HETATM   25  C   UNL     1      -5.522  -3.386 -34.650  1.00  0.00     0.002 A 
ENDBRANCH   1  15
TORSDOF 5
ENDMDL
MODEL 8
REMARK VINA RESULT:      -7.5      6.589     10.316
REMARK  5 active torsions:
REMARK  status: ('A' for Active; 'I' for Inactive)
REMARK    1  A    between atoms: C_7  and  C_8 
REMARK    2  A    between atoms: N_9  and  N_10 
REMARK       I    between atoms: N_10  and  C_11 
REMARK    3  A    between atoms: C_11  and  C_12 
REMARK    4  A    between atoms: C_12  and  O_13 
REMARK    5  A    between atoms: O_13  and  C_14 
ROOT
HETATM    1  C   UNL     1      -4.244   2.742 -31.841  1.00  0.00     0.153 C 
HETATM    2  N   UNL     1      -3.195   3.387 -32.247  1.00  0.00    -0.184 NA
ENDROOT
BRANCH   2   3
HETATM    3  N   UNL     1      -2.336   3.896 -31.300  1.00  0.00    -0.246 N 
HETATM    4  C   UNL     1      -1.467   4.969 -31.473  1.00  0.00     0.261 C 
HETATM    5  O   UNL     1      -1.390   5.684 -32.470  1.00  0.00    -0.269 OA
HETATM    6  H   UNL     1      -2.106   3.245 -30.550  1.00  0.00     0.192 HD
BRANCH   4   7
HETATM    7  C   UNL     1      -0.635   5.268 -30.230  1.00  0.00     0.280 C 
BRANCH   7   8
HETATM    8  O   UNL     1      -0.372   6.660 -30.087  1.00  0.00    -0.342 OA
BRANCH   8   9
HETATM    9  C   UNL     1       0.147   7.041 -28.877  1.00  0.00     0.069 A 
HETATM   10  C   UNL     1      -0.333   6.330 -27.775  1.00  0.00     0.037 A 
HETATM   11  C   UNL     1       0.126   6.621 -26.488  1.00  0.00     0.003 A 
HETATM   12  C   UNL     1       1.061   7.636 -26.296  1.00  0.00     0.000 A 
HETATM   13  C   UNL     1       1.535   8.358 -27.388  1.00  0.00     0.003 A 
HETATM   14  C   UNL     1       1.077   8.064 -28.677  1.00  0.00     0.037 A 
ENDBRANCH   8   9
ENDBRANCH   7   8
ENDBRANCH   4   7
ENDBRANCH   2   3
BRANCH   1  15
HETATM   15  C   UNL     1      -5.216   2.223 -32.790  1.00  0.00     0.018 A 
HETATM   16  C   UNL     1      -6.196   2.924 -33.480  1.00  0.00     0.018 A 
HETATM   17  C   UNL     1      -6.555   4.367 -33.477  1.00  0.00     0.069 C 
HETATM   18  N   UNL     1      -6.873   2.026 -34.267  1.00  0.00    -0.358 N 
HETATM   19  H   UNL     1      -7.644   2.256 -34.879  1.00  0.00     0.166 HD
HETATM   20  C   UNL     1      -6.363   0.759 -34.114  1.00  0.00     0.043 A 
HETATM   21  C   UNL     1      -5.322   0.849 -33.192  1.00  0.00     0.004 A 
HETATM   22  C   UNL     1      -6.745  -0.447 -34.713  1.00  0.00     0.030 A 
HETATM   23  C   UNL     1      -4.632  -0.333 -32.846  1.00  0.00     0.014 A 
HETATM   24  C   UNL     1      -5.001  -1.549 -33.432  1.00  0.00     0.001 A 
HETATM   25  C   UNL     1      -6.042  -1.602 -34.355  1.00  0.00     0.002 A 
ENDBRANCH   1  15
TORSDOF 5
ENDMDL
MODEL 9
REMARK VINA RESULT:      -7.4      1.870      2.143
REMARK  5 active torsions:
REMARK  status: ('A' for Active; 'I' for Inactive)
REMARK    1  A    between atoms: C_7  and  C_8 
REMARK    2  A    between atoms: N_9  and  N_10 
REMARK       I    between atoms: N_10  and  C_11 
REMARK    3  A    between atoms: C_11  and  C_12 
REMARK    4  A    between atoms: C_12  and  O_13 
REMARK    5  A    between atoms: O_13  and  C_14 
ROOT
HETATM    1  C   UNL     1      -6.925   0.560 -32.670  1.00  0.00     0.153 C 
HETATM    2  N   UNL     1      -7.440   0.461 -31.485  1.00  0.00    -0.184 NA
ENDROOT
BRANCH   2   3
HETATM    3  N   UNL     1      -8.450   1.331 -31.138  1.00  0.00    -0.246 N 
HETATM    4  C   UNL     1      -8.302   2.682 -30.841  1.00  0.00     0.261 C 
HETATM    5  O   UNL     1      -7.261   3.332 -30.922  1.00  0.00    -0.269 OA
HETATM    6  H   UNL     1      -9.286   0.876 -30.774  1.00  0.00     0.192 HD
BRANCH   4   7
HETATM    7  C   UNL     1      -9.620   3.358 -30.474  1.00  0.00     0.280 C 
BRANCH   7   8
HETATM    8  O   UNL     1     -10.196   4.038 -31.585  1.00  0.00    -0.342 OA
BRANCH   8   9
HETATM    9  C   UNL     1     -11.520   3.767 -31.819  1.00  0.00     0.069 A 
HETATM   10  C   UNL     1     -12.397   4.183 -30.815  1.00  0.00     0.037 A 
HETATM   11  C   UNL     1     -13.772   3.970 -30.940  1.00  0.00     0.003 A 
HETATM   12  C   UNL     1     -14.276   3.328 -32.069  1.00  0.00     0.000 A 
HETATM   13  C   UNL     1     -13.406   2.898 -33.068  1.00  0.00     0.003 A 
HETATM   14  C   UNL     1     -12.030   3.114 -32.943  1.00  0.00     0.037 A 
ENDBRANCH   8   9
ENDBRANCH   7   8
ENDBRANCH   4   7
ENDBRANCH   2   3
BRANCH   1  15
HETATM   15  C   UNL     1      -5.823  -0.295 -33.079  1.00  0.00     0.018 A 
HETATM   16  C   UNL     1      -4.462  -0.069 -32.923  1.00  0.00     0.018 A 
HETATM   17  C   UNL     1      -3.720   1.065 -32.311  1.00  0.00     0.069 C 
HETATM   18  N   UNL     1      -3.797  -1.147 -33.453  1.00  0.00    -0.358 N 
HETATM   19  H   UNL     1      -2.793  -1.255 -33.479  1.00  0.00     0.166 HD
HETATM   20  C   UNL     1      -4.684  -2.072 -33.950  1.00  0.00     0.043 A 
HETATM   21  C   UNL     1      -5.964  -1.566 -33.732  1.00  0.00     0.004 A 
HETATM   22  C   UNL     1      -4.450  -3.304 -34.573  1.00  0.00     0.030 A 
HETATM   23  C   UNL     1      -7.068  -2.330 -34.169  1.00  0.00     0.014 A 
HETATM   24  C   UNL     1      -6.854  -3.562 -34.797  1.00  0.00     0.001 A 
HETATM   25  C   UNL     1      -5.562  -4.041 -34.993  1.00  0.00     0.002 A 
ENDBRANCH   1  15
TORSDOF 5
ENDMDL
MODEL 10
REMARK VINA RESULT:      -7.4      1.978      2.685
REMARK  5 active torsions:
REMARK  status: ('A' for Active; 'I' for Inactive)
REMARK    1  A    between atoms: C_7  and  C_8 
REMARK    2  A    between atoms: N_9  and  N_10 
REMARK       I    between atoms: N_10  and  C_11 
REMARK    3  A    between atoms: C_11  and  C_12 
REMARK    4  A    between atoms: C_12  and  O_13 
REMARK    5  A    between atoms: O_13  and  C_14 
ROOT
HETATM    1  C   UNL     1      -6.761   0.220 -33.499  1.00  0.00     0.153 C 
HETATM    2  N   UNL     1      -7.429   0.445 -32.411  1.00  0.00    -0.184 NA
ENDROOT
BRANCH   2   3
HETATM    3  N   UNL     1      -8.391   1.430 -32.429  1.00  0.00    -0.246 N 
HETATM    4  C   UNL     1      -9.731   1.263 -32.767  1.00  0.00     0.261 C 
HETATM    5  O   UNL     1     -10.285   0.195 -33.021  1.00  0.00    -0.269 OA
HETATM    6  H   UNL     1      -8.019   2.376 -32.509  1.00  0.00     0.192 HD
BRANCH   4   7
HETATM    7  C   UNL     1     -10.527   2.562 -32.706  1.00  0.00     0.280 C 
BRANCH   7   8
HETATM    8  O   UNL     1      -9.772   3.672 -33.179  1.00  0.00    -0.342 OA
BRANCH   8   9
HETATM    9  C   UNL     1     -10.452   4.546 -33.987  1.00  0.00     0.069 A 
HETATM   10  C   UNL     1     -11.820   4.295 -34.115  1.00  0.00     0.037 A 
HETATM   11  C   UNL     1     -12.622   5.120 -34.907  1.00  0.00     0.003 A 
HETATM   12  C   UNL     1     -12.056   6.197 -35.586  1.00  0.00     0.000 A 
HETATM   13  C   UNL     1     -10.690   6.446 -35.474  1.00  0.00     0.003 A 
HETATM   14  C   UNL     1      -9.888   5.621 -34.679  1.00  0.00     0.037 A 
ENDBRANCH   8   9
ENDBRANCH   7   8
ENDBRANCH   4   7
ENDBRANCH   2   3
BRANCH   1  15
HETATM   15  C   UNL     1      -5.699  -0.772 -33.532  1.00  0.00     0.018 A 
HETATM   16  C   UNL     1      -4.387  -0.633 -33.100  1.00  0.00     0.018 A 
HETATM   17  C   UNL     1      -3.671   0.518 -32.488  1.00  0.00     0.069 C 
HETATM   18  N   UNL     1      -3.748  -1.829 -33.320  1.00  0.00    -0.358 N 
HETATM   19  H   UNL     1      -2.779  -2.019 -33.101  1.00  0.00     0.166 HD
HETATM   20  C   UNL     1      -4.605  -2.745 -33.881  1.00  0.00     0.043 A 
HETATM   21  C   UNL     1      -5.837  -2.112 -34.028  1.00  0.00     0.004 A 
HETATM   22  C   UNL     1      -4.381  -4.072 -34.268  1.00  0.00     0.030 A 
HETATM   23  C   UNL     1      -6.900  -2.843 -34.602  1.00  0.00     0.014 A 
HETATM   24  C   UNL     1      -6.695  -4.170 -34.998  1.00  0.00     0.001 A 
HETATM   25  C   UNL     1      -5.452  -4.774 -34.831  1.00  0.00     0.002 A 
ENDBRANCH   1  15
TORSDOF 5
ENDMDL
