MODEL 1
REMARK VINA RESULT:     -10.0      0.000      0.000
REMARK  7 active torsions:
REMARK  status: ('A' for Active; 'I' for Inactive)
REMARK    1  A    between atoms: C_2  and  O_3 
REMARK    2  A    between atoms: O_3  and  C_4 
REMARK    3  A    between atoms: C_7  and  C_8 
REMARK    4  A    between atoms: N_9  and  N_10 
REMARK    5  A    between atoms: C_21  and  C_22 
REMARK       I    between atoms: C_22  and  N_23 
REMARK    6  A    between atoms: N_23  and  C_24 
REMARK    7  A    between atoms: C_31  and  N_32 
ROOT
HETATM    1  N   UNL     1      -9.220   0.960 -32.539  1.00  0.00    -0.197 N 
HETATM    2  C   UNL     1      -8.147   0.137 -32.864  1.00  0.00     0.183 A 
HETATM    3  C   UNL     1      -7.024   0.683 -32.258  1.00  0.00     0.125 A 
HETATM    4  N   UNL     1      -5.775   0.203 -32.494  1.00  0.00    -0.242 NA
HETATM    5  C   UNL     1      -5.741  -0.884 -33.276  1.00  0.00     0.086 A 
HETATM    6  C   UNL     1      -6.904  -1.454 -33.862  1.00  0.00     0.088 A 
HETATM    7  N   UNL     1      -8.136  -0.931 -33.697  1.00  0.00    -0.225 NA
HETATM    8  C   UNL     1      -4.505  -1.479 -33.498  1.00  0.00     0.034 A 
HETATM    9  C   UNL     1      -4.380  -2.634 -34.267  1.00  0.00     0.002 A 
HETATM   10  C   UNL     1      -5.514  -3.203 -34.829  1.00  0.00     0.002 A 
HETATM   11  C   UNL     1      -6.762  -2.606 -34.625  1.00  0.00     0.034 A 
HETATM   12  C   UNL     1      -7.429   1.766 -31.447  1.00  0.00     0.110 C 
HETATM   13  C   UNL     1      -8.816   1.758 -31.448  1.00  0.00     0.143 C 
ENDROOT
BRANCH   1  14
HETATM   14  N   UNL     1     -10.193   1.327 -33.446  1.00  0.00    -0.176 NA
HETATM   15  C   UNL     1     -11.220   0.546 -33.485  1.00  0.00     0.150 C 
BRANCH  15  16
HETATM   16  C   UNL     1     -12.583   1.090 -33.652  1.00  0.00    -0.017 A 
HETATM   17  C   UNL     1     -12.963   2.206 -32.896  1.00  0.00     0.016 A 
HETATM   18  C   UNL     1     -14.315   2.503 -32.724  1.00  0.00     0.037 A 
HETATM   19  C   UNL     1     -15.281   1.681 -33.304  1.00  0.00     0.068 A 
HETATM   20  C   UNL     1     -14.898   0.634 -34.145  1.00  0.00     0.037 A 
HETATM   21  C   UNL     1     -13.546   0.321 -34.307  1.00  0.00     0.016 A 
BRANCH  19  22
HETATM   22  O   UNL     1     -16.624   1.825 -33.082  1.00  0.00    -0.352 OA
BRANCH  22  23
HETATM   23  C   UNL     1     -16.921   2.694 -31.979  1.00  0.00     0.171 C 
HETATM   24  C   UNL     1     -18.266   3.350 -32.233  1.00  0.00     0.034 C 
ENDBRANCH  22  23
ENDBRANCH  19  22
ENDBRANCH  15  16
ENDBRANCH   1  14
BRANCH  13  25
HETATM   25  N   UNL     1      -9.656   2.545 -30.715  1.00  0.00    -0.383 N 
HETATM   26  H   UNL     1      -9.396   2.814 -29.770  1.00  0.00     0.157 HD
HETATM   27  H   UNL     1     -10.056   3.351 -31.209  1.00  0.00     0.157 HD
ENDBRANCH  13  25
BRANCH  12  28
HETATM   28  C   UNL     1      -6.597   2.729 -30.751  1.00  0.00     0.258 C 
HETATM   29  N   UNL     1      -5.490   3.102 -31.475  1.00  0.00    -0.352 N 
HETATM   30  H   UNL     1      -5.260   2.534 -32.285  1.00  0.00     0.163 HD
HETATM   31  O   UNL     1      -6.904   3.219 -29.669  1.00  0.00    -0.267 OA
BRANCH  29  32
HETATM   32  C   UNL     1      -4.510   4.067 -31.010  1.00  0.00     0.084 C 
HETATM   33  C   UNL     1      -3.102   3.628 -31.418  1.00  0.00     0.025 C 
HETATM   34  C   UNL     1      -2.887   3.720 -32.929  1.00  0.00     0.002 C 
HETATM   35  C   UNL     1      -3.206   5.114 -33.462  1.00  0.00     0.000 C 
HETATM   36  C   UNL     1      -4.605   5.577 -33.065  1.00  0.00     0.002 C 
HETATM   37  C   UNL     1      -4.837   5.463 -31.558  1.00  0.00     0.025 C 
ENDBRANCH  29  32
ENDBRANCH  12  28
TORSDOF 7
ENDMDL
MODEL 2
REMARK VINA RESULT:      -9.1      1.948      2.813
REMARK  7 active torsions:
REMARK  status: ('A' for Active; 'I' for Inactive)
REMARK    1  A    between atoms: C_2  and  O_3 
REMARK    2  A    between atoms: O_3  and  C_4 
REMARK    3  A    between atoms: C_7  and  C_8 
REMARK    4  A    between atoms: N_9  and  N_10 
REMARK    5  A    between atoms: C_21  and  C_22 
REMARK       I    between atoms: C_22  and  N_23 
REMARK    6  A    between atoms: N_23  and  C_24 
REMARK    7  A    between atoms: C_31  and  N_32 
ROOT
HETATM    1  N   UNL     1      -7.042   1.287 -31.620  1.00  0.00    -0.197 N 
HETATM    2  C   UNL     1      -6.582   0.200 -32.355  1.00  0.00     0.183 A 
HETATM    3  C   UNL     1      -5.207   0.353 -32.479  1.00  0.00     0.125 A 
HETATM    4  N   UNL     1      -4.461  -0.465 -33.267  1.00  0.00    -0.242 NA
HETATM    5  C   UNL     1      -5.150  -1.469 -33.826  1.00  0.00     0.086 A 
HETATM    6  C   UNL     1      -6.553  -1.632 -33.662  1.00  0.00     0.088 A 
HETATM    7  N   UNL     1      -7.310  -0.776 -32.949  1.00  0.00    -0.225 NA
HETATM    8  C   UNL     1      -4.440  -2.393 -34.583  1.00  0.00     0.034 A 
HETATM    9  C   UNL     1      -5.067  -3.490 -35.172  1.00  0.00     0.002 A 
HETATM   10  C   UNL     1      -6.434  -3.662 -35.002  1.00  0.00     0.002 A 
HETATM   11  C   UNL     1      -7.162  -2.732 -34.254  1.00  0.00     0.034 A 
HETATM   12  C   UNL     1      -4.803   1.461 -31.702  1.00  0.00     0.110 C 
HETATM   13  C   UNL     1      -5.921   1.868 -30.990  1.00  0.00     0.143 C 
ENDROOT
BRANCH   1  14
HETATM   14  N   UNL     1      -8.196   1.977 -31.932  1.00  0.00    -0.176 NA
HETATM   15  C   UNL     1      -8.221   2.480 -33.121  1.00  0.00     0.150 C 
BRANCH  15  16
HETATM   16  C   UNL     1      -9.462   2.476 -33.921  1.00  0.00    -0.017 A 
HETATM   17  C   UNL     1     -10.162   3.679 -34.091  1.00  0.00     0.016 A 
HETATM   18  C   UNL     1     -11.500   3.656 -34.483  1.00  0.00     0.037 A 
HETATM   19  C   UNL     1     -12.135   2.433 -34.700  1.00  0.00     0.068 A 
HETATM   20  C   UNL     1     -11.407   1.243 -34.635  1.00  0.00     0.037 A 
HETATM   21  C   UNL     1     -10.071   1.258 -34.225  1.00  0.00     0.016 A 
BRANCH  19  22
HETATM   22  O   UNL     1     -13.474   2.316 -34.962  1.00  0.00    -0.352 OA
BRANCH  22  23
HETATM   23  C   UNL     1     -14.219   1.789 -33.854  1.00  0.00     0.171 C 
HETATM   24  C   UNL     1     -15.060   0.628 -34.351  1.00  0.00     0.034 C 
ENDBRANCH  22  23
ENDBRANCH  19  22
ENDBRANCH  15  16
ENDBRANCH   1  14
BRANCH  13  25
HETATM   25  N   UNL     1      -5.991   2.829 -30.024  1.00  0.00    -0.383 N 
HETATM   26  H   UNL     1      -6.815   3.421 -29.963  1.00  0.00     0.157 HD
HETATM   27  H   UNL     1      -5.702   2.538 -29.083  1.00  0.00     0.157 HD
ENDBRANCH  13  25
BRANCH  12  28
HETATM   28  C   UNL     1      -3.499   2.093 -31.648  1.00  0.00     0.258 C 
HETATM   29  N   UNL     1      -3.428   3.242 -32.399  1.00  0.00    -0.352 N 
HETATM   30  H   UNL     1      -4.185   3.406 -33.056  1.00  0.00     0.163 HD
HETATM   31  O   UNL     1      -2.588   1.685 -30.934  1.00  0.00    -0.267 OA
BRANCH  29  32
HETATM   32  C   UNL     1      -2.239   4.070 -32.496  1.00  0.00     0.084 C 
HETATM   33  C   UNL     1      -2.241   4.843 -33.817  1.00  0.00     0.025 C 
HETATM   34  C   UNL     1      -3.330   5.915 -33.853  1.00  0.00     0.002 C 
HETATM   35  C   UNL     1      -3.231   6.862 -32.661  1.00  0.00     0.000 C 
HETATM   36  C   UNL     1      -3.224   6.114 -31.330  1.00  0.00     0.002 C 
HETATM   37  C   UNL     1      -2.155   5.022 -31.295  1.00  0.00     0.025 C 
ENDBRANCH  29  32
ENDBRANCH  12  28
TORSDOF 7
ENDMDL
MODEL 3
REMARK VINA RESULT:      -8.9      2.680      8.109
REMARK  7 active torsions:
REMARK  status: ('A' for Active; 'I' for Inactive)
REMARK    1  A    between atoms: C_2  and  O_3 
REMARK    2  A    between atoms: O_3  and  C_4 
REMARK    3  A    between atoms: C_7  and  C_8 
REMARK    4  A    between atoms: N_9  and  N_10 
REMARK    5  A    between atoms: C_21  and  C_22 
REMARK       I    between atoms: C_22  and  N_23 
REMARK    6  A    between atoms: N_23  and  C_24 
REMARK    7  A    between atoms: C_31  and  N_32 
ROOT
HETATM    1  N   UNL     1      -7.180   2.544 -31.930  1.00  0.00    -0.197 N 
HETATM    2  C   UNL     1      -6.147   3.271 -32.511  1.00  0.00     0.183 A 
HETATM    3  C   UNL     1      -6.733   4.152 -33.410  1.00  0.00     0.125 A 
HETATM    4  N   UNL     1      -5.992   4.914 -34.256  1.00  0.00    -0.242 NA
HETATM    5  C   UNL     1      -4.668   4.807 -34.079  1.00  0.00     0.086 A 
HETATM    6  C   UNL     1      -4.083   3.925 -33.129  1.00  0.00     0.088 A 
HETATM    7  N   UNL     1      -4.813   3.106 -32.345  1.00  0.00    -0.225 NA
HETATM    8  C   UNL     1      -3.847   5.615 -34.855  1.00  0.00     0.034 A 
HETATM    9  C   UNL     1      -2.460   5.596 -34.712  1.00  0.00     0.002 A 
HETATM   10  C   UNL     1      -1.885   4.748 -33.776  1.00  0.00     0.002 A 
HETATM   11  C   UNL     1      -2.700   3.920 -32.999  1.00  0.00     0.034 A 
HETATM   12  C   UNL     1      -8.137   4.063 -33.281  1.00  0.00     0.110 C 
HETATM   13  C   UNL     1      -8.378   3.242 -32.191  1.00  0.00     0.143 C 
ENDROOT
BRANCH   1  14
HETATM   14  N   UNL     1      -7.113   1.184 -31.702  1.00  0.00    -0.176 NA
HETATM   15  C   UNL     1      -7.438   0.450 -32.713  1.00  0.00     0.150 C 
BRANCH  15  16
HETATM   16  C   UNL     1      -6.707  -0.799 -33.010  1.00  0.00    -0.017 A 
HETATM   17  C   UNL     1      -5.357  -0.896 -32.644  1.00  0.00     0.016 A 
HETATM   18  C   UNL     1      -4.543  -1.860 -33.238  1.00  0.00     0.037 A 
HETATM   19  C   UNL     1      -5.077  -2.719 -34.198  1.00  0.00     0.068 A 
HETATM   20  C   UNL     1      -6.444  -2.690 -34.482  1.00  0.00     0.037 A 
HETATM   21  C   UNL     1      -7.262  -1.716 -33.903  1.00  0.00     0.016 A 
BRANCH  19  22
HETATM   22  O   UNL     1      -4.322  -3.604 -34.920  1.00  0.00    -0.352 OA
BRANCH  22  23
HETATM   23  C   UNL     1      -4.558  -4.972 -34.555  1.00  0.00     0.171 C 
HETATM   24  C   UNL     1      -3.740  -5.286 -33.316  1.00  0.00     0.034 C 
ENDBRANCH  22  23
ENDBRANCH  19  22
ENDBRANCH  15  16
ENDBRANCH   1  14
BRANCH  13  25
HETATM   25  N   UNL     1      -9.580   2.954 -31.612  1.00  0.00    -0.383 N 
HETATM   26  H   UNL     1      -9.691   2.091 -31.086  1.00  0.00     0.157 HD
HETATM   27  H   UNL     1     -10.030   3.728 -31.109  1.00  0.00     0.157 HD
ENDBRANCH  13  25
BRANCH  12  28
HETATM   28  C   UNL     1      -9.157   4.672 -34.114  1.00  0.00     0.258 C 
HETATM   29  N   UNL     1     -10.329   3.955 -34.136  1.00  0.00    -0.352 N 
HETATM   30  H   UNL     1     -10.294   3.010 -33.765  1.00  0.00     0.163 HD
HETATM   31  O   UNL     1      -9.007   5.757 -34.666  1.00  0.00    -0.267 OA
BRANCH  29  32
HETATM   32  C   UNL     1     -11.508   4.362 -34.879  1.00  0.00     0.084 C 
HETATM   33  C   UNL     1     -11.827   3.333 -35.967  1.00  0.00     0.025 C 
HETATM   34  C   UNL     1     -12.312   2.008 -35.379  1.00  0.00     0.002 C 
HETATM   35  C   UNL     1     -13.500   2.205 -34.442  1.00  0.00     0.000 C 
HETATM   36  C   UNL     1     -13.208   3.230 -33.349  1.00  0.00     0.002 C 
HETATM   37  C   UNL     1     -12.698   4.550 -33.927  1.00  0.00     0.025 C 
ENDBRANCH  29  32
ENDBRANCH  12  28
TORSDOF 7
ENDMDL
MODEL 4
REMARK VINA RESULT:      -8.8      1.950      2.544
REMARK  7 active torsions:
REMARK  status: ('A' for Active; 'I' for Inactive)
REMARK    1  A    between atoms: C_2  and  O_3 
REMARK    2  A    between atoms: O_3  and  C_4 
REMARK    3  A    between atoms: C_7  and  C_8 
REMARK    4  A    between atoms: N_9  and  N_10 
REMARK    5  A    between atoms: C_21  and  C_22 
REMARK       I    between atoms: C_22  and  N_23 
REMARK    6  A    between atoms: N_23  and  C_24 
REMARK    7  A    between atoms: C_31  and  N_32 
ROOT
HETATM    1  N   UNL     1      -8.883   0.505 -32.879  1.00  0.00    -0.197 N 
HETATM    2  C   UNL     1      -7.837  -0.378 -33.126  1.00  0.00     0.183 A 
HETATM    3  C   UNL     1      -6.742   0.086 -32.410  1.00  0.00     0.125 A 
HETATM    4  N   UNL     1      -5.509  -0.468 -32.545  1.00  0.00    -0.242 NA
HETATM    5  C   UNL     1      -5.471  -1.541 -33.346  1.00  0.00     0.086 A 
HETATM    6  C   UNL     1      -6.609  -2.025 -34.047  1.00  0.00     0.088 A 
HETATM    7  N   UNL     1      -7.816  -1.429 -33.981  1.00  0.00    -0.225 NA
HETATM    8  C   UNL     1      -4.258  -2.208 -33.471  1.00  0.00     0.034 A 
HETATM    9  C   UNL     1      -4.135  -3.355 -34.254  1.00  0.00     0.002 A 
HETATM   10  C   UNL     1      -5.246  -3.840 -34.928  1.00  0.00     0.002 A 
HETATM   11  C   UNL     1      -6.468  -3.170 -34.822  1.00  0.00     0.034 A 
HETATM   12  C   UNL     1      -7.153   1.176 -31.612  1.00  0.00     0.110 C 
HETATM   13  C   UNL     1      -8.531   1.256 -31.737  1.00  0.00     0.143 C 
ENDROOT
BRANCH   1  14
HETATM   14  N   UNL     1      -9.746   0.950 -33.859  1.00  0.00    -0.176 NA
HETATM   15  C   UNL     1     -10.994   0.930 -33.531  1.00  0.00     0.150 C 
BRANCH  15  16
HETATM   16  C   UNL     1     -11.906   2.015 -33.948  1.00  0.00    -0.017 A 
HETATM   17  C   UNL     1     -12.164   2.193 -35.314  1.00  0.00     0.016 A 
HETATM   18  C   UNL     1     -12.678   3.406 -35.772  1.00  0.00     0.037 A 
HETATM   19  C   UNL     1     -12.928   4.437 -34.866  1.00  0.00     0.068 A 
HETATM   20  C   UNL     1     -12.772   4.219 -33.495  1.00  0.00     0.037 A 
HETATM   21  C   UNL     1     -12.241   3.012 -33.032  1.00  0.00     0.016 A 
BRANCH  19  22
HETATM   22  O   UNL     1     -13.311   5.696 -35.244  1.00  0.00    -0.352 OA
BRANCH  22  23
HETATM   23  C   UNL     1     -12.503   6.728 -34.659  1.00  0.00     0.171 C 
HETATM   24  C   UNL     1     -11.262   6.908 -35.514  1.00  0.00     0.034 C 
ENDBRANCH  22  23
ENDBRANCH  19  22
ENDBRANCH  15  16
ENDBRANCH   1  14
BRANCH  13  25
HETATM   25  N   UNL     1      -9.385   2.080 -31.063  1.00  0.00    -0.383 N 
HETATM   26  H   UNL     1      -9.130   3.052 -30.911  1.00  0.00     0.157 HD
HETATM   27  H   UNL     1     -10.372   2.018 -31.336  1.00  0.00     0.157 HD
ENDBRANCH  13  25
BRANCH  12  28
HETATM   28  C   UNL     1      -6.329   2.072 -30.822  1.00  0.00     0.258 C 
HETATM   29  N   UNL     1      -5.411   2.761 -31.578  1.00  0.00    -0.352 N 
HETATM   30  H   UNL     1      -5.259   2.432 -32.526  1.00  0.00     0.163 HD
HETATM   31  O   UNL     1      -6.502   2.253 -29.621  1.00  0.00    -0.267 OA
BRANCH  29  32
HETATM   32  C   UNL     1      -4.482   3.733 -31.028  1.00  0.00     0.084 C 
HETATM   33  C   UNL     1      -3.052   3.397 -31.458  1.00  0.00     0.025 C 
HETATM   34  C   UNL     1      -2.835   3.620 -32.954  1.00  0.00     0.002 C 
HETATM   35  C   UNL     1      -3.219   5.034 -33.377  1.00  0.00     0.000 C 
HETATM   36  C   UNL     1      -4.642   5.395 -32.958  1.00  0.00     0.002 C 
HETATM   37  C   UNL     1      -4.875   5.151 -31.467  1.00  0.00     0.025 C 
ENDBRANCH  29  32
ENDBRANCH  12  28
TORSDOF 7
ENDMDL
MODEL 5
REMARK VINA RESULT:      -8.8      5.158      8.353
REMARK  7 active torsions:
REMARK  status: ('A' for Active; 'I' for Inactive)
REMARK    1  A    between atoms: C_2  and  O_3 
REMARK    2  A    between atoms: O_3  and  C_4 
REMARK    3  A    between atoms: C_7  and  C_8 
REMARK    4  A    between atoms: N_9  and  N_10 
REMARK    5  A    between atoms: C_21  and  C_22 
REMARK       I    between atoms: C_22  and  N_23 
REMARK    6  A    between atoms: N_23  and  C_24 
REMARK    7  A    between atoms: C_31  and  N_32 
ROOT
HETATM    1  N   UNL     1      -4.791   3.115 -31.795  1.00  0.00    -0.197 N 
HETATM    2  C   UNL     1      -5.194   4.168 -30.982  1.00  0.00     0.183 A 
HETATM    3  C   UNL     1      -4.100   5.011 -30.844  1.00  0.00     0.125 A 
HETATM    4  N   UNL     1      -4.109   6.068 -29.990  1.00  0.00    -0.242 NA
HETATM    5  C   UNL     1      -5.283   6.271 -29.377  1.00  0.00     0.086 A 
HETATM    6  C   UNL     1      -6.407   5.418 -29.555  1.00  0.00     0.088 A 
HETATM    7  N   UNL     1      -6.376   4.321 -30.337  1.00  0.00    -0.225 NA
HETATM    8  C   UNL     1      -5.393   7.380 -28.548  1.00  0.00     0.034 A 
HETATM    9  C   UNL     1      -6.588   7.690 -27.899  1.00  0.00     0.002 A 
HETATM   10  C   UNL     1      -7.692   6.869 -28.081  1.00  0.00     0.002 A 
HETATM   11  C   UNL     1      -7.590   5.742 -28.902  1.00  0.00     0.034 A 
HETATM   12  C   UNL     1      -3.064   4.548 -31.685  1.00  0.00     0.110 C 
HETATM   13  C   UNL     1      -3.604   3.520 -32.442  1.00  0.00     0.143 C 
ENDROOT
BRANCH   1  14
HETATM   14  N   UNL     1      -5.125   1.799 -31.550  1.00  0.00    -0.176 NA
HETATM   15  C   UNL     1      -6.020   1.311 -32.342  1.00  0.00     0.150 C 
BRANCH  15  16
HETATM   16  C   UNL     1      -5.925  -0.080 -32.831  1.00  0.00    -0.017 A 
HETATM   17  C   UNL     1      -4.658  -0.663 -32.967  1.00  0.00     0.016 A 
HETATM   18  C   UNL     1      -4.493  -1.788 -33.775  1.00  0.00     0.037 A 
HETATM   19  C   UNL     1      -5.592  -2.324 -34.446  1.00  0.00     0.068 A 
HETATM   20  C   UNL     1      -6.870  -1.806 -34.224  1.00  0.00     0.037 A 
HETATM   21  C   UNL     1      -7.039  -0.668 -33.430  1.00  0.00     0.016 A 
BRANCH  19  22
HETATM   22  O   UNL     1      -5.496  -3.344 -35.354  1.00  0.00    -0.352 OA
BRANCH  22  23
HETATM   23  C   UNL     1      -5.858  -4.620 -34.806  1.00  0.00     0.171 C 
HETATM   24  C   UNL     1      -4.612  -5.262 -34.223  1.00  0.00     0.034 C 
ENDBRANCH  22  23
ENDBRANCH  19  22
ENDBRANCH  15  16
ENDBRANCH   1  14
BRANCH  13  25
HETATM   25  N   UNL     1      -3.017   2.843 -33.471  1.00  0.00    -0.383 N 
HETATM   26  H   UNL     1      -3.201   1.851 -33.590  1.00  0.00     0.157 HD
HETATM   27  H   UNL     1      -3.039   3.313 -34.384  1.00  0.00     0.157 HD
ENDBRANCH  13  25
BRANCH  12  28
HETATM   28  C   UNL     1      -1.691   5.011 -31.758  1.00  0.00     0.258 C 
HETATM   29  N   UNL     1      -1.104   5.146 -30.522  1.00  0.00    -0.352 N 
HETATM   30  H   UNL     1      -1.723   5.121 -29.717  1.00  0.00     0.163 HD
HETATM   31  O   UNL     1      -1.098   5.177 -32.819  1.00  0.00    -0.267 OA
BRANCH  29  32
HETATM   32  C   UNL     1       0.269   5.575 -30.325  1.00  0.00     0.084 C 
HETATM   33  C   UNL     1       0.383   7.088 -30.529  1.00  0.00     0.025 C 
HETATM   34  C   UNL     1      -0.316   7.871 -29.418  1.00  0.00     0.002 C 
HETATM   35  C   UNL     1       0.185   7.462 -28.036  1.00  0.00     0.000 C 
HETATM   36  C   UNL     1       0.085   5.956 -27.808  1.00  0.00     0.002 C 
HETATM   37  C   UNL     1       0.759   5.164 -28.929  1.00  0.00     0.025 C 
ENDBRANCH  29  32
ENDBRANCH  12  28
TORSDOF 7
ENDMDL
MODEL 6
REMARK VINA RESULT:      -8.6      2.475      8.689
REMARK  7 active torsions:
REMARK  status: ('A' for Active; 'I' for Inactive)
REMARK    1  A    between atoms: C_2  and  O_3 
REMARK    2  A    between atoms: O_3  and  C_4 
REMARK    3  A    between atoms: C_7  and  C_8 
REMARK    4  A    between atoms: N_9  and  N_10 
REMARK    5  A    between atoms: C_21  and  C_22 
REMARK       I    between atoms: C_22  and  N_23 
REMARK    6  A    between atoms: N_23  and  C_24 
REMARK    7  A    between atoms: C_31  and  N_32 
ROOT
HETATM    1  N   UNL     1      -5.562   2.053 -32.932  1.00  0.00    -0.197 N 
HETATM    2  C   UNL     1      -5.838   0.764 -33.374  1.00  0.00     0.183 A 
HETATM    3  C   UNL     1      -7.205   0.572 -33.223  1.00  0.00     0.125 A 
HETATM    4  N   UNL     1      -7.788  -0.639 -33.428  1.00  0.00    -0.242 NA
HETATM    5  C   UNL     1      -6.950  -1.586 -33.871  1.00  0.00     0.086 A 
HETATM    6  C   UNL     1      -5.557  -1.364 -34.054  1.00  0.00     0.088 A 
HETATM    7  N   UNL     1      -4.961  -0.189 -33.773  1.00  0.00    -0.225 NA
HETATM    8  C   UNL     1      -7.489  -2.829 -34.177  1.00  0.00     0.034 A 
HETATM    9  C   UNL     1      -6.699  -3.862 -34.679  1.00  0.00     0.002 A 
HETATM   10  C   UNL     1      -5.342  -3.647 -34.874  1.00  0.00     0.002 A 
HETATM   11  C   UNL     1      -4.785  -2.405 -34.556  1.00  0.00     0.034 A 
HETATM   12  C   UNL     1      -7.791   1.791 -32.818  1.00  0.00     0.110 C 
HETATM   13  C   UNL     1      -6.790   2.748 -32.884  1.00  0.00     0.143 C 
ENDROOT
BRANCH   1  14
HETATM   14  N   UNL     1      -4.466   2.368 -32.155  1.00  0.00    -0.176 NA
HETATM   15  C   UNL     1      -3.576   3.095 -32.744  1.00  0.00     0.150 C 
BRANCH  15  16
HETATM   16  C   UNL     1      -2.869   4.168 -32.015  1.00  0.00    -0.017 A 
HETATM   17  C   UNL     1      -3.560   4.883 -31.027  1.00  0.00     0.016 A 
HETATM   18  C   UNL     1      -3.085   6.124 -30.607  1.00  0.00     0.037 A 
HETATM   19  C   UNL     1      -1.924   6.649 -31.177  1.00  0.00     0.068 A 
HETATM   20  C   UNL     1      -1.181   5.888 -32.082  1.00  0.00     0.037 A 
HETATM   21  C   UNL     1      -1.662   4.651 -32.520  1.00  0.00     0.016 A 
BRANCH  19  22
HETATM   22  O   UNL     1      -1.461   7.911 -30.915  1.00  0.00    -0.352 OA
BRANCH  22  23
HETATM   23  C   UNL     1      -1.241   8.150 -29.518  1.00  0.00     0.171 C 
HETATM   24  C   UNL     1       0.131   7.614 -29.149  1.00  0.00     0.034 C 
ENDBRANCH  22  23
ENDBRANCH  19  22
ENDBRANCH  15  16
ENDBRANCH   1  14
BRANCH  13  25
HETATM   25  N   UNL     1      -6.906   4.094 -32.695  1.00  0.00    -0.383 N 
HETATM   26  H   UNL     1      -6.439   4.533 -31.906  1.00  0.00     0.157 HD
HETATM   27  H   UNL     1      -6.792   4.673 -33.534  1.00  0.00     0.157 HD
ENDBRANCH  13  25
BRANCH  12  28
HETATM   28  C   UNL     1      -9.155   2.034 -32.389  1.00  0.00     0.258 C 
HETATM   29  N   UNL     1     -10.079   1.794 -33.379  1.00  0.00    -0.352 N 
HETATM   30  H   UNL     1      -9.720   1.688 -34.323  1.00  0.00     0.163 HD
HETATM   31  O   UNL     1      -9.449   2.338 -31.238  1.00  0.00    -0.267 OA
BRANCH  29  32
HETATM   32  C   UNL     1     -11.511   1.944 -33.197  1.00  0.00     0.084 C 
HETATM   33  C   UNL     1     -11.891   3.427 -33.207  1.00  0.00     0.025 C 
HETATM   34  C   UNL     1     -11.719   4.055 -34.591  1.00  0.00     0.002 C 
HETATM   35  C   UNL     1     -12.484   3.282 -35.661  1.00  0.00     0.000 C 
HETATM   36  C   UNL     1     -12.124   1.799 -35.670  1.00  0.00     0.002 C 
HETATM   37  C   UNL     1     -12.269   1.169 -34.284  1.00  0.00     0.025 C 
ENDBRANCH  29  32
ENDBRANCH  12  28
TORSDOF 7
ENDMDL
MODEL 7
REMARK VINA RESULT:      -8.6      2.059      3.056
REMARK  7 active torsions:
REMARK  status: ('A' for Active; 'I' for Inactive)
REMARK    1  A    between atoms: C_2  and  O_3 
REMARK    2  A    between atoms: O_3  and  C_4 
REMARK    3  A    between atoms: C_7  and  C_8 
REMARK    4  A    between atoms: N_9  and  N_10 
REMARK    5  A    between atoms: C_21  and  C_22 
REMARK       I    between atoms: C_22  and  N_23 
REMARK    6  A    between atoms: N_23  and  C_24 
REMARK    7  A    between atoms: C_31  and  N_32 
ROOT
HETATM    1  N   UNL     1      -7.835   2.932 -30.376  1.00  0.00    -0.197 N 
HETATM    2  C   UNL     1      -6.836   2.111 -30.887  1.00  0.00     0.183 A 
HETATM    3  C   UNL     1      -5.652   2.833 -30.823  1.00  0.00     0.125 A 
HETATM    4  N   UNL     1      -4.500   2.375 -31.379  1.00  0.00    -0.242 NA
HETATM    5  C   UNL     1      -4.591   1.145 -31.901  1.00  0.00     0.086 A 
HETATM    6  C   UNL     1      -5.804   0.403 -31.929  1.00  0.00     0.088 A 
HETATM    7  N   UNL     1      -6.968   0.888 -31.453  1.00  0.00    -0.225 NA
HETATM    8  C   UNL     1      -3.433   0.578 -32.418  1.00  0.00     0.034 A 
HETATM    9  C   UNL     1      -3.426  -0.712 -32.948  1.00  0.00     0.002 A 
HETATM   10  C   UNL     1      -4.603  -1.446 -32.964  1.00  0.00     0.002 A 
HETATM   11  C   UNL     1      -5.779  -0.881 -32.459  1.00  0.00     0.034 A 
HETATM   12  C   UNL     1      -5.898   4.047 -30.144  1.00  0.00     0.110 C 
HETATM   13  C   UNL     1      -7.197   3.971 -29.665  1.00  0.00     0.143 C 
ENDROOT
BRANCH   1  14
HETATM   14  N   UNL     1      -9.089   3.041 -30.943  1.00  0.00    -0.176 NA
HETATM   15  C   UNL     1      -9.102   3.540 -32.134  1.00  0.00     0.150 C 
BRANCH  15  16
HETATM   16  C   UNL     1     -10.020   3.017 -33.166  1.00  0.00    -0.017 A 
HETATM   17  C   UNL     1     -10.854   3.915 -33.846  1.00  0.00     0.016 A 
HETATM   18  C   UNL     1     -11.982   3.444 -34.518  1.00  0.00     0.037 A 
HETATM   19  C   UNL     1     -12.274   2.080 -34.504  1.00  0.00     0.068 A 
HETATM   20  C   UNL     1     -11.384   1.177 -33.918  1.00  0.00     0.037 A 
HETATM   21  C   UNL     1     -10.262   1.645 -33.228  1.00  0.00     0.016 A 
BRANCH  19  22
HETATM   22  O   UNL     1     -13.424   1.550 -35.027  1.00  0.00    -0.352 OA
BRANCH  22  23
HETATM   23  C   UNL     1     -14.105   0.675 -34.116  1.00  0.00     0.171 C 
HETATM   24  C   UNL     1     -14.977   1.518 -33.204  1.00  0.00     0.034 C 
ENDBRANCH  22  23
ENDBRANCH  19  22
ENDBRANCH  15  16
ENDBRANCH   1  14
BRANCH  13  25
HETATM   25  N   UNL     1      -7.841   4.858 -28.852  1.00  0.00    -0.383 N 
HETATM   26  H   UNL     1      -7.502   5.010 -27.906  1.00  0.00     0.157 HD
HETATM   27  H   UNL     1      -8.090   5.756 -29.281  1.00  0.00     0.157 HD
ENDBRANCH  13  25
BRANCH  12  28
HETATM   28  C   UNL     1      -5.008   5.180 -29.976  1.00  0.00     0.258 C 
HETATM   29  N   UNL     1      -3.959   5.173 -30.864  1.00  0.00    -0.352 N 
HETATM   30  H   UNL     1      -3.797   4.310 -31.373  1.00  0.00     0.163 HD
HETATM   31  O   UNL     1      -5.227   6.089 -29.182  1.00  0.00    -0.267 OA
BRANCH  29  32
HETATM   32  C   UNL     1      -2.940   6.206 -30.915  1.00  0.00     0.084 C 
HETATM   33  C   UNL     1      -1.547   5.571 -30.959  1.00  0.00     0.025 C 
HETATM   34  C   UNL     1      -1.284   4.855 -32.283  1.00  0.00     0.002 C 
HETATM   35  C   UNL     1      -1.508   5.777 -33.479  1.00  0.00     0.000 C 
HETATM   36  C   UNL     1      -2.890   6.426 -33.457  1.00  0.00     0.002 C 
HETATM   37  C   UNL     1      -3.171   7.122 -32.125  1.00  0.00     0.025 C 
ENDBRANCH  29  32
ENDBRANCH  12  28
TORSDOF 7
ENDMDL
MODEL 8
REMARK VINA RESULT:      -8.6      4.834      8.024
REMARK  7 active torsions:
REMARK  status: ('A' for Active; 'I' for Inactive)
REMARK    1  A    between atoms: C_2  and  O_3 
REMARK    2  A    between atoms: O_3  and  C_4 
REMARK    3  A    between atoms: C_7  and  C_8 
REMARK    4  A    between atoms: N_9  and  N_10 
REMARK    5  A    between atoms: C_21  and  C_22 
REMARK       I    between atoms: C_22  and  N_23 
REMARK    6  A    between atoms: N_23  and  C_24 
REMARK    7  A    between atoms: C_31  and  N_32 
ROOT
HETATM    1  N   UNL     1      -6.639   3.548 -32.423  1.00  0.00    -0.197 N 
HETATM    2  C   UNL     1      -6.878   4.601 -31.547  1.00  0.00     0.183 A 
HETATM    3  C   UNL     1      -5.971   5.602 -31.866  1.00  0.00     0.125 A 
HETATM    4  N   UNL     1      -5.836   6.720 -31.104  1.00  0.00    -0.242 NA
HETATM    5  C   UNL     1      -6.710   6.805 -30.092  1.00  0.00     0.086 A 
HETATM    6  C   UNL     1      -7.657   5.786 -29.798  1.00  0.00     0.088 A 
HETATM    7  N   UNL     1      -7.738   4.638 -30.501  1.00  0.00    -0.225 NA
HETATM    8  C   UNL     1      -6.685   7.957 -29.316  1.00  0.00     0.034 A 
HETATM    9  C   UNL     1      -7.581   8.148 -28.265  1.00  0.00     0.002 A 
HETATM   10  C   UNL     1      -8.518   7.163 -27.984  1.00  0.00     0.002 A 
HETATM   11  C   UNL     1      -8.543   5.993 -28.748  1.00  0.00     0.034 A 
HETATM   12  C   UNL     1      -5.265   5.220 -33.028  1.00  0.00     0.110 C 
HETATM   13  C   UNL     1      -5.869   4.061 -33.489  1.00  0.00     0.143 C 
ENDROOT
BRANCH   1  14
HETATM   14  N   UNL     1      -6.630   2.225 -32.031  1.00  0.00    -0.176 NA
HETATM   15  C   UNL     1      -7.280   1.425 -32.808  1.00  0.00     0.150 C 
BRANCH  15  16
HETATM   16  C   UNL     1      -6.768   0.072 -33.106  1.00  0.00    -0.017 A 
HETATM   17  C   UNL     1      -5.410  -0.200 -32.891  1.00  0.00     0.016 A 
HETATM   18  C   UNL     1      -4.814  -1.297 -33.512  1.00  0.00     0.037 A 
HETATM   19  C   UNL     1      -5.574  -2.116 -34.347  1.00  0.00     0.068 A 
HETATM   20  C   UNL     1      -6.949  -1.905 -34.474  1.00  0.00     0.037 A 
HETATM   21  C   UNL     1      -7.549  -0.797 -33.869  1.00  0.00     0.016 A 
BRANCH  19  22
HETATM   22  O   UNL     1      -5.041  -3.134 -35.092  1.00  0.00    -0.352 OA
BRANCH  22  23
HETATM   23  C   UNL     1      -5.440  -4.434 -34.634  1.00  0.00     0.171 C 
HETATM   24  C   UNL     1      -4.257  -5.082 -33.940  1.00  0.00     0.034 C 
ENDBRANCH  22  23
ENDBRANCH  19  22
ENDBRANCH  15  16
ENDBRANCH   1  14
BRANCH  13  25
HETATM   25  N   UNL     1      -5.608   3.385 -34.646  1.00  0.00    -0.383 N 
HETATM   26  H   UNL     1      -6.299   2.741 -35.019  1.00  0.00     0.157 HD
HETATM   27  H   UNL     1      -5.207   3.944 -35.407  1.00  0.00     0.157 HD
ENDBRANCH  13  25
BRANCH  12  28
HETATM   28  C   UNL     1      -4.120   5.868 -33.639  1.00  0.00     0.258 C 
HETATM   29  N   UNL     1      -3.323   6.519 -32.727  1.00  0.00    -0.352 N 
HETATM   30  H   UNL     1      -3.711   6.659 -31.799  1.00  0.00     0.163 HD
HETATM   31  O   UNL     1      -3.853   5.766 -34.832  1.00  0.00    -0.267 OA
BRANCH  29  32
HETATM   32  C   UNL     1      -2.107   7.228 -33.081  1.00  0.00     0.084 C 
HETATM   33  C   UNL     1      -1.823   8.331 -32.057  1.00  0.00     0.025 C 
HETATM   34  C   UNL     1      -1.427   7.761 -30.695  1.00  0.00     0.002 C 
HETATM   35  C   UNL     1      -0.250   6.796 -30.807  1.00  0.00     0.000 C 
HETATM   36  C   UNL     1      -0.507   5.688 -31.824  1.00  0.00     0.002 C 
HETATM   37  C   UNL     1      -0.930   6.248 -33.182  1.00  0.00     0.025 C 
ENDBRANCH  29  32
ENDBRANCH  12  28
TORSDOF 7
ENDMDL
MODEL 9
REMARK VINA RESULT:      -8.5      2.650      4.239
REMARK  7 active torsions:
REMARK  status: ('A' for Active; 'I' for Inactive)
REMARK    1  A    between atoms: C_2  and  O_3 
REMARK    2  A    between atoms: O_3  and  C_4 
REMARK    3  A    between atoms: C_7  and  C_8 
REMARK    4  A    between atoms: N_9  and  N_10 
REMARK    5  A    between atoms: C_21  and  C_22 
REMARK       I    between atoms: C_22  and  N_23 
REMARK    6  A    between atoms: N_23  and  C_24 
REMARK    7  A    between atoms: C_31  and  N_32 
ROOT
HETATM    1  N   UNL     1      -6.694   3.676 -30.212  1.00  0.00    -0.197 N 
HETATM    2  C   UNL     1      -5.879   2.669 -30.717  1.00  0.00     0.183 A 
HETATM    3  C   UNL     1      -4.713   3.280 -31.158  1.00  0.00     0.125 A 
HETATM    4  N   UNL     1      -3.758   2.597 -31.842  1.00  0.00    -0.242 NA
HETATM    5  C   UNL     1      -4.001   1.285 -31.966  1.00  0.00     0.086 A 
HETATM    6  C   UNL     1      -5.185   0.667 -31.478  1.00  0.00     0.088 A 
HETATM    7  N   UNL     1      -6.173   1.356 -30.872  1.00  0.00    -0.225 NA
HETATM    8  C   UNL     1      -3.032   0.507 -32.586  1.00  0.00     0.034 A 
HETATM    9  C   UNL     1      -3.183  -0.872 -32.726  1.00  0.00     0.002 A 
HETATM   10  C   UNL     1      -4.330  -1.483 -32.238  1.00  0.00     0.002 A 
HETATM   11  C   UNL     1      -5.319  -0.708 -31.625  1.00  0.00     0.034 A 
HETATM   12  C   UNL     1      -4.753   4.645 -30.798  1.00  0.00     0.110 C 
HETATM   13  C   UNL     1      -5.876   4.807 -30.001  1.00  0.00     0.143 C 
ENDROOT
BRANCH   1  14
HETATM   14  N   UNL     1      -8.052   3.740 -30.447  1.00  0.00    -0.176 NA
HETATM   15  C   UNL     1      -8.391   3.651 -31.690  1.00  0.00     0.150 C 
BRANCH  15  16
HETATM   16  C   UNL     1      -9.592   2.894 -32.098  1.00  0.00    -0.017 A 
HETATM   17  C   UNL     1      -9.451   1.548 -32.463  1.00  0.00     0.016 A 
HETATM   18  C   UNL     1     -10.446   0.923 -33.213  1.00  0.00     0.037 A 
HETATM   19  C   UNL     1     -11.576   1.645 -33.599  1.00  0.00     0.068 A 
HETATM   20  C   UNL     1     -11.764   2.952 -33.143  1.00  0.00     0.037 A 
HETATM   21  C   UNL     1     -10.762   3.589 -32.406  1.00  0.00     0.016 A 
BRANCH  19  22
HETATM   22  O   UNL     1     -12.537   1.148 -34.439  1.00  0.00    -0.352 OA
BRANCH  22  23
HETATM   23  C   UNL     1     -13.482   0.299 -33.772  1.00  0.00     0.171 C 
HETATM   24  C   UNL     1     -14.873   0.646 -34.270  1.00  0.00     0.034 C 
ENDBRANCH  22  23
ENDBRANCH  19  22
ENDBRANCH  15  16
ENDBRANCH   1  14
BRANCH  13  25
HETATM   25  N   UNL     1      -6.267   5.926 -29.325  1.00  0.00    -0.383 N 
HETATM   26  H   UNL     1      -7.159   6.360 -29.545  1.00  0.00     0.157 HD
HETATM   27  H   UNL     1      -6.132   5.902 -28.308  1.00  0.00     0.157 HD
ENDBRANCH  13  25
BRANCH  12  28
HETATM   28  C   UNL     1      -3.837   5.703 -31.180  1.00  0.00     0.258 C 
HETATM   29  N   UNL     1      -2.528   5.414 -30.878  1.00  0.00    -0.352 N 
HETATM   30  H   UNL     1      -2.365   4.630 -30.254  1.00  0.00     0.163 HD
HETATM   31  O   UNL     1      -4.195   6.707 -31.787  1.00  0.00    -0.267 OA
BRANCH  29  32
HETATM   32  C   UNL     1      -1.418   6.301 -31.177  1.00  0.00     0.084 C 
HETATM   33  C   UNL     1      -1.291   7.371 -30.090  1.00  0.00     0.025 C 
HETATM   34  C   UNL     1      -0.828   6.784 -28.757  1.00  0.00     0.002 C 
HETATM   35  C   UNL     1       0.470   5.995 -28.908  1.00  0.00     0.000 C 
HETATM   36  C   UNL     1       0.370   4.922 -29.988  1.00  0.00     0.002 C 
HETATM   37  C   UNL     1      -0.118   5.497 -31.319  1.00  0.00     0.025 C 
ENDBRANCH  29  32
ENDBRANCH  12  28
TORSDOF 7
ENDMDL
MODEL 10
REMARK VINA RESULT:      -8.4      3.343      5.039
REMARK  7 active torsions:
REMARK  status: ('A' for Active; 'I' for Inactive)
REMARK    1  A    between atoms: C_2  and  O_3 
REMARK    2  A    between atoms: O_3  and  C_4 
REMARK    3  A    between atoms: C_7  and  C_8 
REMARK    4  A    between atoms: N_9  and  N_10 
REMARK    5  A    between atoms: C_21  and  C_22 
REMARK       I    between atoms: C_22  and  N_23 
REMARK    6  A    between atoms: N_23  and  C_24 
REMARK    7  A    between atoms: C_31  and  N_32 
ROOT
HETATM    1  N   UNL     1      -5.478   4.244 -31.367  1.00  0.00    -0.197 N 
HETATM    2  C   UNL     1      -5.113   2.935 -31.660  1.00  0.00     0.183 A 
HETATM    3  C   UNL     1      -3.750   2.948 -31.925  1.00  0.00     0.125 A 
HETATM    4  N   UNL     1      -3.098   1.850 -32.389  1.00  0.00    -0.242 NA
HETATM    5  C   UNL     1      -3.860   0.751 -32.476  1.00  0.00     0.086 A 
HETATM    6  C   UNL     1      -5.248   0.746 -32.168  1.00  0.00     0.088 A 
HETATM    7  N   UNL     1      -5.917   1.852 -31.786  1.00  0.00    -0.225 NA
HETATM    8  C   UNL     1      -3.244  -0.430 -32.869  1.00  0.00     0.034 A 
HETATM    9  C   UNL     1      -3.951  -1.629 -32.950  1.00  0.00     0.002 A 
HETATM   10  C   UNL     1      -5.303  -1.643 -32.636  1.00  0.00     0.002 A 
HETATM   11  C   UNL     1      -5.937  -0.458 -32.253  1.00  0.00     0.034 A 
HETATM   12  C   UNL     1      -3.250   4.242 -31.660  1.00  0.00     0.110 C 
HETATM   13  C   UNL     1      -4.290   4.953 -31.083  1.00  0.00     0.143 C 
ENDROOT
BRANCH   1  14
HETATM   14  N   UNL     1      -6.633   4.832 -31.840  1.00  0.00    -0.176 NA
HETATM   15  C   UNL     1      -6.745   4.847 -33.126  1.00  0.00     0.150 C 
BRANCH  15  16
HETATM   16  C   UNL     1      -8.050   4.614 -33.778  1.00  0.00    -0.017 A 
HETATM   17  C   UNL     1      -8.913   5.701 -33.971  1.00  0.00     0.016 A 
HETATM   18  C   UNL     1     -10.270   5.479 -34.205  1.00  0.00     0.037 A 
HETATM   19  C   UNL     1     -10.759   4.173 -34.243  1.00  0.00     0.068 A 
HETATM   20  C   UNL     1      -9.880   3.091 -34.158  1.00  0.00     0.037 A 
HETATM   21  C   UNL     1      -8.522   3.308 -33.905  1.00  0.00     0.016 A 
BRANCH  19  22
HETATM   22  O   UNL     1     -12.091   3.870 -34.340  1.00  0.00    -0.352 OA
BRANCH  22  23
HETATM   23  C   UNL     1     -12.368   2.867 -35.329  1.00  0.00     0.171 C 
HETATM   24  C   UNL     1     -13.375   1.889 -34.750  1.00  0.00     0.034 C 
ENDBRANCH  22  23
ENDBRANCH  19  22
ENDBRANCH  15  16
ENDBRANCH   1  14
BRANCH  13  25
HETATM   25  N   UNL     1      -4.251   6.211 -30.555  1.00  0.00    -0.383 N 
HETATM   26  H   UNL     1      -4.465   6.349 -29.571  1.00  0.00     0.157 HD
HETATM   27  H   UNL     1      -3.438   6.779 -30.817  1.00  0.00     0.157 HD
ENDBRANCH  13  25
BRANCH  12  28
HETATM   28  C   UNL     1      -1.927   4.769 -31.938  1.00  0.00     0.258 C 
HETATM   29  N   UNL     1      -1.132   4.840 -30.819  1.00  0.00    -0.352 N 
HETATM   30  H   UNL     1      -1.594   4.729 -29.922  1.00  0.00     0.163 HD
HETATM   31  O   UNL     1      -1.541   5.038 -33.071  1.00  0.00    -0.267 OA
BRANCH  29  32
HETATM   32  C   UNL     1       0.240   5.314 -30.835  1.00  0.00     0.084 C 
HETATM   33  C   UNL     1       0.273   6.825 -31.079  1.00  0.00     0.025 C 
HETATM   34  C   UNL     1      -0.279   7.611 -29.890  1.00  0.00     0.002 C 
HETATM   35  C   UNL     1       0.434   7.247 -28.591  1.00  0.00     0.000 C 
HETATM   36  C   UNL     1       0.418   5.743 -28.326  1.00  0.00     0.002 C 
HETATM   37  C   UNL     1       0.944   4.948 -29.521  1.00  0.00     0.025 C 
ENDBRANCH  29  32
ENDBRANCH  12  28
TORSDOF 7
ENDMDL
