MODEL 1
REMARK VINA RESULT:      -9.3      0.000      0.000
REMARK  3 active torsions:
REMARK  status: ('A' for Active; 'I' for Inactive)
REMARK    1  A    between atoms: C_3  and  C_4 
REMARK    2  A    between atoms: C_8  and  C_9 
REMARK       I    between atoms: C_9  and  N_10 
REMARK    3  A    between atoms: N_10  and  N_11 
ROOT
HETATM    1  C   UNL     1      -9.757   1.110 -33.888  1.00  0.00     0.291 C 
HETATM    2  N   UNL     1     -10.029   2.149 -34.749  1.00  0.00    -0.251 N 
HETATM    3  O   UNL     1     -10.437   0.827 -32.904  1.00  0.00    -0.264 OA
HETATM    4  H   UNL     1      -9.411   2.331 -35.533  1.00  0.00     0.191 HD
ENDROOT
BRANCH   1   5
HETATM    5  C   UNL     1      -8.555   0.360 -34.273  1.00  0.00     0.148 A 
HETATM    6  N   UNL     1      -7.696   0.816 -35.206  1.00  0.00    -0.169 NA
HETATM    7  N   UNL     1      -6.743  -0.132 -35.259  1.00  0.00    -0.277 N 
HETATM    8  C   UNL     1      -6.968  -1.208 -34.437  1.00  0.00     0.064 A 
HETATM    9  H   UNL     1      -5.956   0.006 -35.884  1.00  0.00     0.189 HD
HETATM   10  C   UNL     1      -8.139  -0.900 -33.775  1.00  0.00     0.071 A 
BRANCH   8  11
HETATM   11  C   UNL     1      -6.115  -2.399 -34.392  1.00  0.00     0.014 A 
HETATM   12  C   UNL     1      -6.659  -3.618 -34.832  1.00  0.00     0.015 A 
HETATM   13  C   UNL     1      -5.901  -4.792 -34.835  1.00  0.00     0.001 A 
HETATM   14  C   UNL     1      -4.584  -4.770 -34.389  1.00  0.00     0.002 A 
HETATM   15  C   UNL     1      -4.025  -3.575 -33.941  1.00  0.00     0.025 A 
HETATM   16  C   UNL     1      -4.781  -2.394 -33.942  1.00  0.00     0.046 A 
HETATM   17 CL   UNL     1      -4.000  -0.967 -33.349  1.00  0.00    -0.083 Cl
ENDBRANCH   8  11
ENDBRANCH   1   5
BRANCH   2  18
HETATM   18  N   UNL     1     -11.157   2.916 -34.565  1.00  0.00    -0.167 N 
HETATM   19  C   UNL     1     -12.361   2.657 -35.167  1.00  0.00     0.345 A 
HETATM   20  O   UNL     1     -12.625   1.828 -36.022  1.00  0.00    -0.245 OA
HETATM   21  N   UNL     1     -13.284   3.545 -34.644  1.00  0.00    -0.323 N 
HETATM   22  C   UNL     1     -12.705   4.423 -33.642  1.00  0.00     0.117 A 
HETATM   23  H   UNL     1     -14.254   3.512 -34.931  1.00  0.00     0.165 HD
HETATM   24  C   UNL     1     -13.335   4.203 -32.263  1.00  0.00     0.041 C 
HETATM   25  C   UNL     1     -12.769   5.887 -34.086  1.00  0.00     0.041 C 
HETATM   26  C   UNL     1     -11.244   3.924 -33.640  1.00  0.00     0.275 A 
HETATM   27  C   UNL     1     -14.743   4.789 -32.171  1.00  0.00     0.003 C 
HETATM   28  C   UNL     1     -14.775   6.255 -32.594  1.00  0.00     0.000 C 
HETATM   29  C   UNL     1     -14.185   6.454 -33.987  1.00  0.00     0.003 C 
HETATM   30  O   UNL     1     -10.342   4.370 -32.942  1.00  0.00    -0.268 OA
ENDBRANCH   2  18
TORSDOF 3
ENDMDL
MODEL 2
REMARK VINA RESULT:      -9.0      6.686      7.797
REMARK  3 active torsions:
REMARK  status: ('A' for Active; 'I' for Inactive)
REMARK    1  A    between atoms: C_3  and  C_4 
REMARK    2  A    between atoms: C_8  and  C_9 
REMARK       I    between atoms: C_9  and  N_10 
REMARK    3  A    between atoms: N_10  and  N_11 
ROOT
HETATM    1  C   UNL     1      -3.749   2.015 -31.571  1.00  0.00     0.291 C 
HETATM    2  N   UNL     1      -3.035   2.827 -32.424  1.00  0.00    -0.251 N 
HETATM    3  O   UNL     1      -4.393   2.419 -30.605  1.00  0.00    -0.264 OA
HETATM    4  H   UNL     1      -2.514   2.417 -33.192  1.00  0.00     0.191 HD
ENDROOT
BRANCH   1   5
HETATM    5  C   UNL     1      -3.666   0.597 -31.942  1.00  0.00     0.148 A 
HETATM    6  N   UNL     1      -2.646  -0.188 -31.541  1.00  0.00    -0.169 NA
HETATM    7  N   UNL     1      -2.940  -1.392 -32.066  1.00  0.00    -0.277 N 
HETATM    8  C   UNL     1      -4.079  -1.415 -32.830  1.00  0.00     0.064 A 
HETATM    9  H   UNL     1      -2.317  -2.170 -31.872  1.00  0.00     0.189 HD
HETATM   10  C   UNL     1      -4.575  -0.129 -32.750  1.00  0.00     0.071 A 
BRANCH   8  11
HETATM   11  C   UNL     1      -4.548  -2.588 -33.572  1.00  0.00     0.014 A 
HETATM   12  C   UNL     1      -3.834  -3.791 -33.423  1.00  0.00     0.015 A 
HETATM   13  C   UNL     1      -4.231  -4.956 -34.084  1.00  0.00     0.001 A 
HETATM   14  C   UNL     1      -5.347  -4.938 -34.915  1.00  0.00     0.002 A 
HETATM   15  C   UNL     1      -6.065  -3.756 -35.084  1.00  0.00     0.025 A 
HETATM   16  C   UNL     1      -5.673  -2.587 -34.417  1.00  0.00     0.046 A 
HETATM   17 CL   UNL     1      -6.621  -1.167 -34.708  1.00  0.00    -0.083 Cl
ENDBRANCH   8  11
ENDBRANCH   1   5
BRANCH   2  18
HETATM   18  N   UNL     1      -3.058   4.192 -32.252  1.00  0.00    -0.167 N 
HETATM   19  C   UNL     1      -4.073   4.998 -32.697  1.00  0.00     0.345 A 
HETATM   20  O   UNL     1      -5.032   4.706 -33.392  1.00  0.00    -0.245 OA
HETATM   21  N   UNL     1      -3.821   6.276 -32.229  1.00  0.00    -0.323 N 
HETATM   22  C   UNL     1      -2.614   6.345 -31.424  1.00  0.00     0.117 A 
HETATM   23  H   UNL     1      -4.466   7.033 -32.417  1.00  0.00     0.165 HD
HETATM   24  C   UNL     1      -2.919   6.740 -29.976  1.00  0.00     0.041 C 
HETATM   25  C   UNL     1      -1.569   7.259 -32.072  1.00  0.00     0.041 C 
HETATM   26  C   UNL     1      -2.152   4.873 -31.482  1.00  0.00     0.275 A 
HETATM   27  C   UNL     1      -3.265   8.223 -29.843  1.00  0.00     0.003 C 
HETATM   28  C   UNL     1      -2.198   9.113 -30.473  1.00  0.00     0.000 C 
HETATM   29  C   UNL     1      -1.934   8.737 -31.928  1.00  0.00     0.003 C 
HETATM   30  O   UNL     1      -1.149   4.422 -30.943  1.00  0.00    -0.268 OA
ENDBRANCH   2  18
TORSDOF 3
ENDMDL
MODEL 3
REMARK VINA RESULT:      -8.9      5.865      7.461
REMARK  3 active torsions:
REMARK  status: ('A' for Active; 'I' for Inactive)
REMARK    1  A    between atoms: C_3  and  C_4 
REMARK    2  A    between atoms: C_8  and  C_9 
REMARK       I    between atoms: C_9  and  N_10 
REMARK    3  A    between atoms: N_10  and  N_11 
ROOT
HETATM    1  C   UNL     1      -5.726   2.395 -32.907  1.00  0.00     0.291 C 
HETATM    2  N   UNL     1      -4.633   2.463 -32.072  1.00  0.00    -0.251 N 
HETATM    3  O   UNL     1      -6.317   3.374 -33.359  1.00  0.00    -0.264 OA
HETATM    4  H   UNL     1      -4.208   1.609 -31.727  1.00  0.00     0.191 HD
ENDROOT
BRANCH   1   5
HETATM    5  C   UNL     1      -6.117   1.013 -33.211  1.00  0.00     0.148 A 
HETATM    6  N   UNL     1      -7.391   0.587 -33.093  1.00  0.00    -0.169 NA
HETATM    7  N   UNL     1      -7.337  -0.704 -33.469  1.00  0.00    -0.277 N 
HETATM    8  C   UNL     1      -6.077  -1.151 -33.780  1.00  0.00     0.064 A 
HETATM    9  H   UNL     1      -8.198  -1.239 -33.488  1.00  0.00     0.189 HD
HETATM   10  C   UNL     1      -5.269  -0.041 -33.632  1.00  0.00     0.071 A 
BRANCH   8  11
HETATM   11  C   UNL     1      -5.762  -2.538 -34.129  1.00  0.00     0.014 A 
HETATM   12  C   UNL     1      -6.653  -3.227 -34.970  1.00  0.00     0.015 A 
HETATM   13  C   UNL     1      -6.410  -4.546 -35.361  1.00  0.00     0.001 A 
HETATM   14  C   UNL     1      -5.272  -5.206 -34.909  1.00  0.00     0.002 A 
HETATM   15  C   UNL     1      -4.377  -4.547 -34.069  1.00  0.00     0.025 A 
HETATM   16  C   UNL     1      -4.615  -3.221 -33.680  1.00  0.00     0.046 A 
HETATM   17 CL   UNL     1      -3.453  -2.498 -32.619  1.00  0.00    -0.083 Cl
ENDBRANCH   8  11
ENDBRANCH   1   5
BRANCH   2  18
HETATM   18  N   UNL     1      -4.100   3.687 -31.738  1.00  0.00    -0.167 N 
HETATM   19  C   UNL     1      -4.492   4.415 -30.645  1.00  0.00     0.345 A 
HETATM   20  O   UNL     1      -5.411   4.199 -29.873  1.00  0.00    -0.245 OA
HETATM   21  N   UNL     1      -3.651   5.510 -30.555  1.00  0.00    -0.323 N 
HETATM   22  C   UNL     1      -2.642   5.523 -31.600  1.00  0.00     0.117 A 
HETATM   23  H   UNL     1      -3.744   6.174 -29.797  1.00  0.00     0.165 HD
HETATM   24  C   UNL     1      -1.228   5.400 -31.025  1.00  0.00     0.041 C 
HETATM   25  C   UNL     1      -2.800   6.749 -32.506  1.00  0.00     0.041 C 
HETATM   26  C   UNL     1      -3.014   4.236 -32.367  1.00  0.00     0.275 A 
HETATM   27  C   UNL     1      -0.761   6.694 -30.358  1.00  0.00     0.003 C 
HETATM   28  C   UNL     1      -0.905   7.895 -31.289  1.00  0.00     0.000 C 
HETATM   29  C   UNL     1      -2.328   8.031 -31.820  1.00  0.00     0.003 C 
HETATM   30  O   UNL     1      -2.438   3.810 -33.360  1.00  0.00    -0.268 OA
ENDBRANCH   2  18
TORSDOF 3
ENDMDL
MODEL 4
REMARK VINA RESULT:      -8.6      8.767     10.632
REMARK  3 active torsions:
REMARK  status: ('A' for Active; 'I' for Inactive)
REMARK    1  A    between atoms: C_3  and  C_4 
REMARK    2  A    between atoms: C_8  and  C_9 
REMARK       I    between atoms: C_9  and  N_10 
REMARK    3  A    between atoms: N_10  and  N_11 
ROOT
HETATM    1  C   UNL     1      -2.228   4.351 -32.079  1.00  0.00     0.291 C 
HETATM    2  N   UNL     1      -3.019   3.710 -31.152  1.00  0.00    -0.251 N 
HETATM    3  O   UNL     1      -2.223   4.097 -33.282  1.00  0.00    -0.264 OA
HETATM    4  H   UNL     1      -2.956   3.965 -30.172  1.00  0.00     0.191 HD
ENDROOT
BRANCH   1   5
HETATM    5  C   UNL     1      -1.381   5.387 -31.476  1.00  0.00     0.148 A 
HETATM    6  N   UNL     1      -0.195   5.743 -32.011  1.00  0.00    -0.169 NA
HETATM    7  N   UNL     1       0.253   6.710 -31.190  1.00  0.00    -0.277 N 
HETATM    8  C   UNL     1      -0.564   6.966 -30.118  1.00  0.00     0.064 A 
HETATM    9  H   UNL     1       1.135   7.161 -31.409  1.00  0.00     0.189 HD
HETATM   10  C   UNL     1      -1.643   6.123 -30.294  1.00  0.00     0.071 A 
BRANCH   8  11
HETATM   11  C   UNL     1      -0.240   7.912 -29.046  1.00  0.00     0.014 A 
HETATM   12  C   UNL     1       1.037   7.836 -28.463  1.00  0.00     0.015 A 
HETATM   13  C   UNL     1       1.424   8.715 -27.449  1.00  0.00     0.001 A 
HETATM   14  C   UNL     1       0.537   9.684 -26.992  1.00  0.00     0.002 A 
HETATM   15  C   UNL     1      -0.737   9.774 -27.550  1.00  0.00     0.025 A 
HETATM   16  C   UNL     1      -1.127   8.897 -28.572  1.00  0.00     0.046 A 
HETATM   17 CL   UNL     1      -2.736   9.079 -29.186  1.00  0.00    -0.083 Cl
ENDBRANCH   8  11
ENDBRANCH   1   5
BRANCH   2  18
HETATM   18  N   UNL     1      -3.918   2.752 -31.562  1.00  0.00    -0.167 N 
HETATM   19  C   UNL     1      -3.716   1.405 -31.414  1.00  0.00     0.345 A 
HETATM   20  O   UNL     1      -2.717   0.820 -31.029  1.00  0.00    -0.245 OA
HETATM   21  N   UNL     1      -4.877   0.766 -31.811  1.00  0.00    -0.323 N 
HETATM   22  C   UNL     1      -5.912   1.699 -32.221  1.00  0.00     0.117 A 
HETATM   23  H   UNL     1      -4.959  -0.241 -31.756  1.00  0.00     0.165 HD
HETATM   24  C   UNL     1      -7.137   1.627 -31.305  1.00  0.00     0.041 C 
HETATM   25  C   UNL     1      -6.274   1.509 -33.697  1.00  0.00     0.041 C 
HETATM   26  C   UNL     1      -5.178   3.042 -32.016  1.00  0.00     0.275 A 
HETATM   27  C   UNL     1      -7.971   0.370 -31.554  1.00  0.00     0.003 C 
HETATM   28  C   UNL     1      -8.339   0.217 -33.026  1.00  0.00     0.000 C 
HETATM   29  C   UNL     1      -7.106   0.247 -33.924  1.00  0.00     0.003 C 
HETATM   30  O   UNL     1      -5.651   4.150 -32.236  1.00  0.00    -0.268 OA
ENDBRANCH   2  18
TORSDOF 3
ENDMDL
MODEL 5
REMARK VINA RESULT:      -8.5      6.060      7.208
REMARK  3 active torsions:
REMARK  status: ('A' for Active; 'I' for Inactive)
REMARK    1  A    between atoms: C_3  and  C_4 
REMARK    2  A    between atoms: C_8  and  C_9 
REMARK       I    between atoms: C_9  and  N_10 
REMARK    3  A    between atoms: N_10  and  N_11 
ROOT
HETATM    1  C   UNL     1      -5.934   3.564 -33.346  1.00  0.00     0.291 C 
HETATM    2  N   UNL     1      -6.606   2.416 -32.987  1.00  0.00    -0.251 N 
HETATM    3  O   UNL     1      -6.310   4.344 -34.218  1.00  0.00    -0.264 OA
HETATM    4  H   UNL     1      -6.225   1.813 -32.267  1.00  0.00     0.191 HD
ENDROOT
BRANCH   1   5
HETATM    5  C   UNL     1      -4.707   3.765 -32.565  1.00  0.00     0.148 A 
HETATM    6  N   UNL     1      -4.201   2.803 -31.768  1.00  0.00    -0.169 NA
HETATM    7  N   UNL     1      -3.092   3.362 -31.251  1.00  0.00    -0.277 N 
HETATM    8  C   UNL     1      -2.879   4.661 -31.638  1.00  0.00     0.064 A 
HETATM    9  H   UNL     1      -2.514   2.807 -30.628  1.00  0.00     0.189 HD
HETATM   10  C   UNL     1      -3.915   4.938 -32.507  1.00  0.00     0.071 A 
BRANCH   8  11
HETATM   11  C   UNL     1      -1.787   5.499 -31.135  1.00  0.00     0.014 A 
HETATM   12  C   UNL     1      -0.482   5.217 -31.575  1.00  0.00     0.015 A 
HETATM   13  C   UNL     1       0.607   5.984 -31.154  1.00  0.00     0.001 A 
HETATM   14  C   UNL     1       0.412   7.045 -30.275  1.00  0.00     0.002 A 
HETATM   15  C   UNL     1      -0.872   7.339 -29.819  1.00  0.00     0.025 A 
HETATM   16  C   UNL     1      -1.967   6.575 -30.245  1.00  0.00     0.046 A 
HETATM   17 CL   UNL     1      -3.517   7.010 -29.608  1.00  0.00    -0.083 Cl
ENDBRANCH   8  11
ENDBRANCH   1   5
BRANCH   2  18
HETATM   18  N   UNL     1      -7.809   2.112 -33.581  1.00  0.00    -0.167 N 
HETATM   19  C   UNL     1      -7.941   1.244 -34.634  1.00  0.00     0.345 A 
HETATM   20  O   UNL     1      -7.068   0.700 -35.289  1.00  0.00    -0.245 OA
HETATM   21  N   UNL     1      -9.295   1.083 -34.870  1.00  0.00    -0.323 N 
HETATM   22  C   UNL     1     -10.115   1.843 -33.943  1.00  0.00     0.117 A 
HETATM   23  H   UNL     1      -9.623   0.457 -35.594  1.00  0.00     0.165 HD
HETATM   24  C   UNL     1     -10.977   0.929 -33.067  1.00  0.00     0.041 C 
HETATM   25  C   UNL     1     -10.945   2.901 -34.677  1.00  0.00     0.041 C 
HETATM   26  C   UNL     1      -9.021   2.516 -33.086  1.00  0.00     0.275 A 
HETATM   27  C   UNL     1     -12.151   0.329 -33.839  1.00  0.00     0.003 C 
HETATM   28  C   UNL     1     -12.976   1.404 -34.541  1.00  0.00     0.000 C 
HETATM   29  C   UNL     1     -12.114   2.280 -35.443  1.00  0.00     0.003 C 
HETATM   30  O   UNL     1      -9.223   3.279 -32.150  1.00  0.00    -0.268 OA
ENDBRANCH   2  18
TORSDOF 3
ENDMDL
MODEL 6
REMARK VINA RESULT:      -8.5      8.439     10.255
REMARK  3 active torsions:
REMARK  status: ('A' for Active; 'I' for Inactive)
REMARK    1  A    between atoms: C_3  and  C_4 
REMARK    2  A    between atoms: C_8  and  C_9 
REMARK       I    between atoms: C_9  and  N_10 
REMARK    3  A    between atoms: N_10  and  N_11 
ROOT
HETATM    1  C   UNL     1      -2.834   4.604 -32.532  1.00  0.00     0.291 C 
HETATM    2  N   UNL     1      -4.143   4.600 -32.104  1.00  0.00    -0.251 N 
HETATM    3  O   UNL     1      -2.357   3.785 -33.314  1.00  0.00    -0.264 OA
HETATM    4  H   UNL     1      -4.461   5.302 -31.444  1.00  0.00     0.191 HD
ENDROOT
BRANCH   1   5
HETATM    5  C   UNL     1      -2.058   5.709 -31.956  1.00  0.00     0.148 A 
HETATM    6  N   UNL     1      -1.321   6.541 -32.720  1.00  0.00    -0.169 NA
HETATM    7  N   UNL     1      -0.787   7.403 -31.835  1.00  0.00    -0.277 N 
HETATM    8  C   UNL     1      -1.103   7.141 -30.526  1.00  0.00     0.064 A 
HETATM    9  H   UNL     1      -0.203   8.156 -32.185  1.00  0.00     0.189 HD
HETATM   10  C   UNL     1      -1.943   6.047 -30.585  1.00  0.00     0.071 A 
BRANCH   8  11
HETATM   11  C   UNL     1      -0.566   7.890 -29.387  1.00  0.00     0.014 A 
HETATM   12  C   UNL     1       0.752   7.618 -28.980  1.00  0.00     0.015 A 
HETATM   13  C   UNL     1       1.338   8.304 -27.913  1.00  0.00     0.001 A 
HETATM   14  C   UNL     1       0.612   9.271 -27.226  1.00  0.00     0.002 A 
HETATM   15  C   UNL     1      -0.699   9.553 -27.606  1.00  0.00     0.025 A 
HETATM   16  C   UNL     1      -1.287   8.870 -28.679  1.00  0.00     0.046 A 
HETATM   17 CL   UNL     1      -2.926   9.280 -29.061  1.00  0.00    -0.083 Cl
ENDBRANCH   8  11
ENDBRANCH   1   5
BRANCH   2  18
HETATM   18  N   UNL     1      -5.023   3.665 -32.598  1.00  0.00    -0.167 N 
HETATM   19  C   UNL     1      -5.715   3.815 -33.772  1.00  0.00     0.345 A 
HETATM   20  O   UNL     1      -5.780   4.791 -34.501  1.00  0.00    -0.245 OA
HETATM   21  N   UNL     1      -6.388   2.630 -34.010  1.00  0.00    -0.323 N 
HETATM   22  C   UNL     1      -6.135   1.632 -32.986  1.00  0.00     0.117 A 
HETATM   23  H   UNL     1      -6.945   2.510 -34.846  1.00  0.00     0.165 HD
HETATM   24  C   UNL     1      -5.417   0.405 -33.554  1.00  0.00     0.041 C 
HETATM   25  C   UNL     1      -7.423   1.263 -32.243  1.00  0.00     0.041 C 
HETATM   26  C   UNL     1      -5.185   2.416 -32.056  1.00  0.00     0.275 A 
HETATM   27  C   UNL     1      -6.348  -0.476 -34.386  1.00  0.00     0.003 C 
HETATM   28  C   UNL     1      -7.611  -0.851 -33.616  1.00  0.00     0.000 C 
HETATM   29  C   UNL     1      -8.341   0.382 -33.093  1.00  0.00     0.003 C 
HETATM   30  O   UNL     1      -4.688   1.987 -31.022  1.00  0.00    -0.268 OA
ENDBRANCH   2  18
TORSDOF 3
ENDMDL
MODEL 7
REMARK VINA RESULT:      -8.5      1.345      2.134
REMARK  3 active torsions:
REMARK  status: ('A' for Active; 'I' for Inactive)
REMARK    1  A    between atoms: C_3  and  C_4 
REMARK    2  A    between atoms: C_8  and  C_9 
REMARK       I    between atoms: C_9  and  N_10 
REMARK    3  A    between atoms: N_10  and  N_11 
ROOT
HETATM    1  C   UNL     1      -9.189   1.539 -32.743  1.00  0.00     0.291 C 
HETATM    2  N   UNL     1      -9.904   2.419 -33.526  1.00  0.00    -0.251 N 
HETATM    3  O   UNL     1      -9.220   1.521 -31.515  1.00  0.00    -0.264 OA
HETATM    4  H   UNL     1      -9.815   2.382 -34.535  1.00  0.00     0.191 HD
ENDROOT
BRANCH   1   5
HETATM    5  C   UNL     1      -8.380   0.608 -33.538  1.00  0.00     0.148 A 
HETATM    6  N   UNL     1      -8.243   0.739 -34.873  1.00  0.00    -0.169 NA
HETATM    7  N   UNL     1      -7.432  -0.278 -35.217  1.00  0.00    -0.277 N 
HETATM    8  C   UNL     1      -7.073  -1.094 -34.173  1.00  0.00     0.064 A 
HETATM    9  H   UNL     1      -7.158  -0.372 -36.189  1.00  0.00     0.189 HD
HETATM   10  C   UNL     1      -7.670  -0.524 -33.067  1.00  0.00     0.071 A 
BRANCH   8  11
HETATM   11  C   UNL     1      -6.272  -2.312 -34.321  1.00  0.00     0.014 A 
HETATM   12  C   UNL     1      -6.921  -3.481 -34.756  1.00  0.00     0.015 A 
HETATM   13  C   UNL     1      -6.219  -4.675 -34.937  1.00  0.00     0.001 A 
HETATM   14  C   UNL     1      -4.853  -4.725 -34.679  1.00  0.00     0.002 A 
HETATM   15  C   UNL     1      -4.189  -3.581 -34.241  1.00  0.00     0.025 A 
HETATM   16  C   UNL     1      -4.889  -2.380 -34.063  1.00  0.00     0.046 A 
HETATM   17 CL   UNL     1      -3.977  -1.021 -33.498  1.00  0.00    -0.083 Cl
ENDBRANCH   8  11
ENDBRANCH   1   5
BRANCH   2  18
HETATM   18  N   UNL     1     -10.762   3.319 -32.938  1.00  0.00    -0.167 N 
HETATM   19  C   UNL     1     -10.388   4.575 -32.534  1.00  0.00     0.345 A 
HETATM   20  O   UNL     1      -9.273   5.068 -32.504  1.00  0.00    -0.245 OA
HETATM   21  N   UNL     1     -11.533   5.233 -32.120  1.00  0.00    -0.323 N 
HETATM   22  C   UNL     1     -12.726   4.417 -32.263  1.00  0.00     0.117 A 
HETATM   23  H   UNL     1     -11.492   6.194 -31.805  1.00  0.00     0.165 HD
HETATM   24  C   UNL     1     -13.709   5.021 -33.270  1.00  0.00     0.041 C 
HETATM   25  C   UNL     1     -13.376   4.145 -30.903  1.00  0.00     0.041 C 
HETATM   26  C   UNL     1     -12.114   3.121 -32.836  1.00  0.00     0.275 A 
HETATM   27  C   UNL     1     -14.437   6.242 -32.707  1.00  0.00     0.003 C 
HETATM   28  C   UNL     1     -15.096   5.938 -31.365  1.00  0.00     0.000 C 
HETATM   29  C   UNL     1     -14.097   5.378 -30.357  1.00  0.00     0.003 C 
HETATM   30  O   UNL     1     -12.739   2.109 -33.127  1.00  0.00    -0.268 OA
ENDBRANCH   2  18
TORSDOF 3
ENDMDL
MODEL 8
REMARK VINA RESULT:      -8.4      5.576      6.761
REMARK  3 active torsions:
REMARK  status: ('A' for Active; 'I' for Inactive)
REMARK    1  A    between atoms: C_3  and  C_4 
REMARK    2  A    between atoms: C_8  and  C_9 
REMARK       I    between atoms: C_9  and  N_10 
REMARK    3  A    between atoms: N_10  and  N_11 
ROOT
HETATM    1  C   UNL     1      -6.580   2.268 -31.603  1.00  0.00     0.291 C 
HETATM    2  N   UNL     1      -7.409   3.046 -32.381  1.00  0.00    -0.251 N 
HETATM    3  O   UNL     1      -6.939   1.258 -31.002  1.00  0.00    -0.264 OA
HETATM    4  H   UNL     1      -7.043   3.876 -32.834  1.00  0.00     0.191 HD
ENDROOT
BRANCH   1   5
HETATM    5  C   UNL     1      -5.203   2.775 -31.568  1.00  0.00     0.148 A 
HETATM    6  N   UNL     1      -4.196   2.072 -31.010  1.00  0.00    -0.169 NA
HETATM    7  N   UNL     1      -3.117   2.855 -31.190  1.00  0.00    -0.277 N 
HETATM    8  C   UNL     1      -3.383   4.057 -31.797  1.00  0.00     0.064 A 
HETATM    9  H   UNL     1      -2.215   2.518 -30.870  1.00  0.00     0.189 HD
HETATM   10  C   UNL     1      -4.737   4.017 -32.064  1.00  0.00     0.071 A 
BRANCH   8  11
HETATM   11  C   UNL     1      -2.384   5.105 -32.016  1.00  0.00     0.014 A 
HETATM   12  C   UNL     1      -1.690   5.600 -30.897  1.00  0.00     0.015 A 
HETATM   13  C   UNL     1      -0.710   6.587 -31.029  1.00  0.00     0.001 A 
HETATM   14  C   UNL     1      -0.410   7.105 -32.285  1.00  0.00     0.002 A 
HETATM   15  C   UNL     1      -1.089   6.635 -33.408  1.00  0.00     0.025 A 
HETATM   16  C   UNL     1      -2.069   5.641 -33.279  1.00  0.00     0.046 A 
HETATM   17 CL   UNL     1      -2.868   5.139 -34.731  1.00  0.00    -0.083 Cl
ENDBRANCH   8  11
ENDBRANCH   1   5
BRANCH   2  18
HETATM   18  N   UNL     1      -8.721   2.675 -32.569  1.00  0.00    -0.167 N 
HETATM   19  C   UNL     1      -9.746   3.055 -31.742  1.00  0.00     0.345 A 
HETATM   20  O   UNL     1      -9.689   3.652 -30.680  1.00  0.00    -0.245 OA
HETATM   21  N   UNL     1     -10.925   2.613 -32.315  1.00  0.00    -0.323 N 
HETATM   22  C   UNL     1     -10.707   1.932 -33.579  1.00  0.00     0.117 A 
HETATM   23  H   UNL     1     -11.817   2.811 -31.882  1.00  0.00     0.165 HD
HETATM   24  C   UNL     1     -11.357   2.680 -34.747  1.00  0.00     0.041 C 
HETATM   25  C   UNL     1     -11.152   0.468 -33.503  1.00  0.00     0.041 C 
HETATM   26  C   UNL     1      -9.169   2.022 -33.686  1.00  0.00     0.275 A 
HETATM   27  C   UNL     1     -12.877   2.522 -34.759  1.00  0.00     0.003 C 
HETATM   28  C   UNL     1     -13.294   1.055 -34.708  1.00  0.00     0.000 C 
HETATM   29  C   UNL     1     -12.675   0.332 -33.516  1.00  0.00     0.003 C 
HETATM   30  O   UNL     1      -8.494   1.573 -34.604  1.00  0.00    -0.268 OA
ENDBRANCH   2  18
TORSDOF 3
ENDMDL
MODEL 9
REMARK VINA RESULT:      -8.4      7.015      8.260
REMARK  3 active torsions:
REMARK  status: ('A' for Active; 'I' for Inactive)
REMARK    1  A    between atoms: C_3  and  C_4 
REMARK    2  A    between atoms: C_8  and  C_9 
REMARK       I    between atoms: C_9  and  N_10 
REMARK    3  A    between atoms: N_10  and  N_11 
ROOT
HETATM    1  C   UNL     1      -3.412   2.931 -31.806  1.00  0.00     0.291 C 
HETATM    2  N   UNL     1      -3.796   4.186 -32.224  1.00  0.00    -0.251 N 
HETATM    3  O   UNL     1      -2.468   2.710 -31.050  1.00  0.00    -0.264 OA
HETATM    4  H   UNL     1      -4.578   4.288 -32.862  1.00  0.00     0.191 HD
ENDROOT
BRANCH   1   5
HETATM    5  C   UNL     1      -4.260   1.869 -32.360  1.00  0.00     0.148 A 
HETATM    6  N   UNL     1      -5.602   1.984 -32.418  1.00  0.00    -0.169 NA
HETATM    7  N   UNL     1      -6.000   0.832 -32.991  1.00  0.00    -0.277 N 
HETATM    8  C   UNL     1      -4.982  -0.047 -33.263  1.00  0.00     0.064 A 
HETATM    9  H   UNL     1      -6.990   0.697 -33.169  1.00  0.00     0.189 HD
HETATM   10  C   UNL     1      -3.837   0.618 -32.871  1.00  0.00     0.071 A 
BRANCH   8  11
HETATM   11  C   UNL     1      -5.183  -1.394 -33.803  1.00  0.00     0.014 A 
HETATM   12  C   UNL     1      -4.191  -2.359 -33.555  1.00  0.00     0.015 A 
HETATM   13  C   UNL     1      -4.321  -3.669 -34.022  1.00  0.00     0.001 A 
HETATM   14  C   UNL     1      -5.444  -4.038 -34.754  1.00  0.00     0.002 A 
HETATM   15  C   UNL     1      -6.438  -3.097 -35.018  1.00  0.00     0.025 A 
HETATM   16  C   UNL     1      -6.313  -1.784 -34.546  1.00  0.00     0.046 A 
HETATM   17 CL   UNL     1      -7.593  -0.686 -34.943  1.00  0.00    -0.083 Cl
ENDBRANCH   8  11
ENDBRANCH   1   5
BRANCH   2  18
HETATM   18  N   UNL     1      -3.142   5.298 -31.747  1.00  0.00    -0.167 N 
HETATM   19  C   UNL     1      -2.005   5.815 -32.313  1.00  0.00     0.345 A 
HETATM   20  O   UNL     1      -1.324   5.355 -33.214  1.00  0.00    -0.245 OA
HETATM   21  N   UNL     1      -1.717   6.997 -31.655  1.00  0.00    -0.323 N 
HETATM   22  C   UNL     1      -2.691   7.313 -30.625  1.00  0.00     0.117 A 
HETATM   23  H   UNL     1      -0.926   7.565 -31.933  1.00  0.00     0.165 HD
HETATM   24  C   UNL     1      -3.448   8.607 -30.937  1.00  0.00     0.041 C 
HETATM   25  C   UNL     1      -2.042   7.336 -29.238  1.00  0.00     0.041 C 
HETATM   26  C   UNL     1      -3.640   6.102 -30.755  1.00  0.00     0.275 A 
HETATM   27  C   UNL     1      -2.588   9.849 -30.707  1.00  0.00     0.003 C 
HETATM   28  C   UNL     1      -1.974   9.861 -29.310  1.00  0.00     0.000 C 
HETATM   29  C   UNL     1      -1.186   8.585 -29.028  1.00  0.00     0.003 C 
HETATM   30  O   UNL     1      -4.641   5.909 -30.077  1.00  0.00    -0.268 OA
ENDBRANCH   2  18
TORSDOF 3
ENDMDL
MODEL 10
REMARK VINA RESULT:      -8.3      5.376      6.115
REMARK  3 active torsions:
REMARK  status: ('A' for Active; 'I' for Inactive)
REMARK    1  A    between atoms: C_3  and  C_4 
REMARK    2  A    between atoms: C_8  and  C_9 
REMARK       I    between atoms: C_9  and  N_10 
REMARK    3  A    between atoms: N_10  and  N_11 
ROOT
HETATM    1  C   UNL     1      -3.691   2.310 -32.152  1.00  0.00     0.291 C 
HETATM    2  N   UNL     1      -4.939   2.808 -32.451  1.00  0.00    -0.251 N 
HETATM    3  O   UNL     1      -2.724   3.001 -31.841  1.00  0.00    -0.264 OA
HETATM    4  H   UNL     1      -5.686   2.174 -32.715  1.00  0.00     0.191 HD
ENDROOT
BRANCH   1   5
HETATM    5  C   UNL     1      -3.633   0.846 -32.241  1.00  0.00     0.148 A 
HETATM    6  N   UNL     1      -2.806   0.115 -31.467  1.00  0.00    -0.169 NA
HETATM    7  N   UNL     1      -3.058  -1.155 -31.834  1.00  0.00    -0.277 N 
HETATM    8  C   UNL     1      -3.977  -1.281 -32.845  1.00  0.00     0.064 A 
HETATM    9  H   UNL     1      -2.564  -1.904 -31.359  1.00  0.00     0.189 HD
HETATM   10  C   UNL     1      -4.374   0.013 -33.115  1.00  0.00     0.071 A 
BRANCH   8  11
HETATM   11  C   UNL     1      -4.344  -2.556 -33.468  1.00  0.00     0.014 A 
HETATM   12  C   UNL     1      -3.574  -3.690 -33.153  1.00  0.00     0.015 A 
HETATM   13  C   UNL     1      -3.874  -4.943 -33.693  1.00  0.00     0.001 A 
HETATM   14  C   UNL     1      -4.947  -5.084 -34.568  1.00  0.00     0.002 A 
HETATM   15  C   UNL     1      -5.720  -3.973 -34.900  1.00  0.00     0.025 A 
HETATM   16  C   UNL     1      -5.425  -2.716 -34.355  1.00  0.00     0.046 A 
HETATM   17 CL   UNL     1      -6.433  -1.396 -34.845  1.00  0.00    -0.083 Cl
ENDBRANCH   8  11
ENDBRANCH   1   5
BRANCH   2  18
HETATM   18  N   UNL     1      -5.180   4.159 -32.355  1.00  0.00    -0.167 N 
HETATM   19  C   UNL     1      -5.332   4.985 -33.439  1.00  0.00     0.345 A 
HETATM   20  O   UNL     1      -5.174   4.730 -34.621  1.00  0.00    -0.245 OA
HETATM   21  N   UNL     1      -5.692   6.232 -32.961  1.00  0.00    -0.323 N 
HETATM   22  C   UNL     1      -5.812   6.260 -31.514  1.00  0.00     0.117 A 
HETATM   23  H   UNL     1      -5.885   6.995 -33.598  1.00  0.00     0.165 HD
HETATM   24  C   UNL     1      -7.247   6.562 -31.069  1.00  0.00     0.041 C 
HETATM   25  C   UNL     1      -4.794   7.220 -30.892  1.00  0.00     0.041 C 
HETATM   26  C   UNL     1      -5.451   4.798 -31.173  1.00  0.00     0.275 A 
HETATM   27  C   UNL     1      -7.617   8.030 -31.271  1.00  0.00     0.003 C 
HETATM   28  C   UNL     1      -6.601   8.965 -30.622  1.00  0.00     0.000 C 
HETATM   29  C   UNL     1      -5.182   8.683 -31.107  1.00  0.00     0.003 C 
HETATM   30  O   UNL     1      -5.408   4.321 -30.046  1.00  0.00    -0.268 OA
ENDBRANCH   2  18
TORSDOF 3
ENDMDL
