MODEL 1
REMARK VINA RESULT:      -9.0      0.000      0.000
REMARK  10 active torsions:
REMARK  status: ('A' for Active; 'I' for Inactive)
REMARK    1  A    between atoms: C_6  and  C_7 
REMARK    2  A    between atoms: C_7  and  O_8 
REMARK    3  A    between atoms: O_8  and  C_9 
REMARK    4  A    between atoms: C_12  and  C_13 
REMARK    5  A    between atoms: N_14  and  N_15 
REMARK       I    between atoms: N_15  and  C_16 
REMARK    6  A    between atoms: C_16  and  C_17 
REMARK    7  A    between atoms: N_20  and  C_21 
REMARK    8  A    between atoms: C_25  and  N_26 
REMARK    9  A    between atoms: C_27  and  C_28 
REMARK   10  A    between atoms: C_28  and  N_29 
ROOT
HETATM    1  C   UNL     1      -2.231   6.473 -33.595  1.00  0.00     0.170 C 
HETATM    2  N   UNL     1      -1.859   7.759 -33.845  1.00  0.00    -0.152 NA
HETATM    3  N   UNL     1      -1.402   8.280 -32.718  1.00  0.00     0.012 NA
HETATM    4  N   UNL     1      -1.489   7.355 -31.727  1.00  0.00    -0.215 N 
HETATM    5  C   UNL     1      -1.890   6.143 -32.287  1.00  0.00     0.096 C 
ENDROOT
BRANCH   1   6
HETATM    6  C   UNL     1      -2.755   5.578 -34.618  1.00  0.00     0.293 C 
HETATM    7  N   UNL     1      -4.114   5.316 -34.581  1.00  0.00    -0.242 N 
HETATM    8  H   UNL     1      -4.459   4.660 -35.273  1.00  0.00     0.192 HD
HETATM    9  O   UNL     1      -2.016   4.968 -35.385  1.00  0.00    -0.264 OA
BRANCH   7  10
HETATM   10  N   UNL     1      -4.971   6.029 -33.801  1.00  0.00    -0.184 NA
HETATM   11  C   UNL     1      -6.103   5.504 -33.427  1.00  0.00     0.150 C 
BRANCH  11  12
HETATM   12  C   UNL     1      -6.639   4.155 -33.671  1.00  0.00    -0.017 A 
HETATM   13  C   UNL     1      -7.904   3.878 -33.146  1.00  0.00     0.016 A 
HETATM   14  C   UNL     1      -8.478   2.626 -33.363  1.00  0.00     0.037 A 
HETATM   15  C   UNL     1      -7.812   1.662 -34.121  1.00  0.00     0.069 A 
HETATM   16  C   UNL     1      -6.548   1.943 -34.643  1.00  0.00     0.037 A 
HETATM   17  C   UNL     1      -5.964   3.199 -34.433  1.00  0.00     0.016 A 
BRANCH  15  18
HETATM   18  O   UNL     1      -8.489   0.486 -34.265  1.00  0.00    -0.347 OA
BRANCH  18  19
HETATM   19  C   UNL     1      -8.285  -0.508 -33.259  1.00  0.00     0.214 C 
BRANCH  19  20
HETATM   20  C   UNL     1      -6.945  -1.154 -33.508  1.00  0.00    -0.033 A 
HETATM   21  C   UNL     1      -5.884  -0.925 -32.616  1.00  0.00     0.033 A 
HETATM   22  C   UNL     1      -4.645  -1.532 -32.822  1.00  0.00     0.034 A 
HETATM   23  C   UNL     1      -4.447  -2.376 -33.911  1.00  0.00     0.024 A 
HETATM   24 CL   UNL     1      -3.359  -1.239 -31.718  1.00  0.00    -0.084 Cl
HETATM   25  C   UNL     1      -5.494  -2.610 -34.804  1.00  0.00     0.002 A 
HETATM   26  C   UNL     1      -6.738  -2.002 -34.604  1.00  0.00     0.009 A 
ENDBRANCH  19  20
ENDBRANCH  18  19
ENDBRANCH  15  18
ENDBRANCH  11  12
ENDBRANCH   7  10
ENDBRANCH   1   6
BRANCH   5  27
HETATM   27  C   UNL     1      -1.954   4.828 -31.618  1.00  0.00     0.296 C 
BRANCH  27  28
HETATM   28  N   UNL     1      -3.356   4.294 -31.346  1.00  0.00    -0.066 N 
HETATM   29  H   UNL     1      -3.872   4.498 -32.212  1.00  0.00     0.280 HD
HETATM   30  C   UNL     1      -3.427   2.791 -31.166  1.00  0.00     0.235 C 
HETATM   31  C   UNL     1      -4.882   2.347 -31.129  1.00  0.00     0.028 C 
HETATM   32  C   UNL     1      -5.670   3.088 -30.056  1.00  0.00     0.003 C 
HETATM   33  C   UNL     1      -5.545   4.596 -30.228  1.00  0.00     0.028 C 
HETATM   34  C   UNL     1      -4.089   5.041 -30.258  1.00  0.00     0.235 C 
ENDBRANCH  27  28
ENDBRANCH   5  27
BRANCH   4  35
HETATM   35  C   UNL     1      -1.158   7.663 -30.386  1.00  0.00     0.225 A 
HETATM   36  N   UNL     1       0.076   7.448 -29.927  1.00  0.00    -0.081 NA
HETATM   37  O   UNL     1       0.013   7.848 -28.591  1.00  0.00    -0.103 OA
HETATM   38  N   UNL     1      -1.245   8.338 -28.275  1.00  0.00    -0.083 NA
HETATM   39  C   UNL     1      -1.974   8.215 -29.384  1.00  0.00     0.201 A 
BRANCH  39  40
HETATM   40  N   UNL     1      -3.256   8.599 -29.495  1.00  0.00    -0.379 N 
HETATM   41  H   UNL     1      -3.844   8.644 -28.667  1.00  0.00     0.158 HD
HETATM   42  H   UNL     1      -3.775   8.544 -30.371  1.00  0.00     0.158 HD
ENDBRANCH  39  40
ENDBRANCH   4  35
TORSDOF 10
ENDMDL
MODEL 2
REMARK VINA RESULT:      -8.8      4.545      9.427
REMARK  10 active torsions:
REMARK  status: ('A' for Active; 'I' for Inactive)
REMARK    1  A    between atoms: C_6  and  C_7 
REMARK    2  A    between atoms: C_7  and  O_8 
REMARK    3  A    between atoms: O_8  and  C_9 
REMARK    4  A    between atoms: C_12  and  C_13 
REMARK    5  A    between atoms: N_14  and  N_15 
REMARK       I    between atoms: N_15  and  C_16 
REMARK    6  A    between atoms: C_16  and  C_17 
REMARK    7  A    between atoms: N_20  and  C_21 
REMARK    8  A    between atoms: C_25  and  N_26 
REMARK    9  A    between atoms: C_27  and  C_28 
REMARK   10  A    between atoms: C_28  and  N_29 
ROOT
HETATM    1  C   UNL     1      -9.657   3.863 -31.894  1.00  0.00     0.170 C 
HETATM    2  N   UNL     1     -10.544   4.884 -32.056  1.00  0.00    -0.152 NA
HETATM    3  N   UNL     1     -11.580   4.422 -32.736  1.00  0.00     0.012 NA
HETATM    4  N   UNL     1     -11.373   3.114 -33.038  1.00  0.00    -0.215 N 
HETATM    5  C   UNL     1     -10.211   2.690 -32.396  1.00  0.00     0.096 C 
ENDROOT
BRANCH   1   6
HETATM    6  C   UNL     1      -8.405   4.000 -31.163  1.00  0.00     0.293 C 
HETATM    7  N   UNL     1      -7.237   3.894 -31.898  1.00  0.00    -0.242 N 
HETATM    8  H   UNL     1      -6.373   3.950 -31.371  1.00  0.00     0.192 HD
HETATM    9  O   UNL     1      -8.374   4.058 -29.937  1.00  0.00    -0.264 OA
BRANCH   7  10
HETATM   10  N   UNL     1      -7.231   3.908 -33.260  1.00  0.00    -0.184 NA
HETATM   11  C   UNL     1      -6.126   4.144 -33.905  1.00  0.00     0.150 C 
BRANCH  11  12
HETATM   12  C   UNL     1      -4.764   4.363 -33.389  1.00  0.00    -0.017 A 
HETATM   13  C   UNL     1      -4.206   3.330 -32.632  1.00  0.00     0.016 A 
HETATM   14  C   UNL     1      -2.911   3.466 -32.134  1.00  0.00     0.037 A 
HETATM   15  C   UNL     1      -2.162   4.611 -32.409  1.00  0.00     0.069 A 
HETATM   16  C   UNL     1      -2.724   5.641 -33.167  1.00  0.00     0.037 A 
HETATM   17  C   UNL     1      -4.024   5.512 -33.672  1.00  0.00     0.016 A 
BRANCH  15  18
HETATM   18  O   UNL     1      -0.908   4.611 -31.872  1.00  0.00    -0.347 OA
BRANCH  18  19
HETATM   19  C   UNL     1      -0.205   5.854 -31.866  1.00  0.00     0.214 C 
BRANCH  19  20
HETATM   20  C   UNL     1      -0.111   6.328 -30.436  1.00  0.00    -0.033 A 
HETATM   21  C   UNL     1      -0.678   7.560 -30.070  1.00  0.00     0.033 A 
HETATM   22  C   UNL     1      -0.616   8.000 -28.748  1.00  0.00     0.034 A 
HETATM   23  C   UNL     1       0.004   7.222 -27.775  1.00  0.00     0.024 A 
HETATM   24 CL   UNL     1      -1.316   9.513 -28.321  1.00  0.00    -0.084 Cl
HETATM   25  C   UNL     1       0.570   5.997 -28.127  1.00  0.00     0.002 A 
HETATM   26  C   UNL     1       0.514   5.550 -29.451  1.00  0.00     0.009 A 
ENDBRANCH  19  20
ENDBRANCH  18  19
ENDBRANCH  15  18
ENDBRANCH  11  12
ENDBRANCH   7  10
ENDBRANCH   1   6
BRANCH   5  27
HETATM   27  C   UNL     1      -9.694   1.310 -32.304  1.00  0.00     0.296 C 
BRANCH  27  28
HETATM   28  N   UNL     1      -8.410   1.035 -33.078  1.00  0.00    -0.066 N 
HETATM   29  H   UNL     1      -7.976   1.962 -33.179  1.00  0.00     0.280 HD
HETATM   30  C   UNL     1      -7.401   0.185 -32.331  1.00  0.00     0.235 C 
HETATM   31  C   UNL     1      -6.084   0.164 -33.093  1.00  0.00     0.028 C 
HETATM   32  C   UNL     1      -6.271  -0.305 -34.530  1.00  0.00     0.003 C 
HETATM   33  C   UNL     1      -7.322   0.533 -35.246  1.00  0.00     0.028 C 
HETATM   34  C   UNL     1      -8.643   0.548 -34.488  1.00  0.00     0.235 C 
ENDBRANCH  27  28
ENDBRANCH   5  27
BRANCH   4  35
HETATM   35  C   UNL     1     -12.277   2.381 -33.844  1.00  0.00     0.225 A 
HETATM   36  N   UNL     1     -11.949   2.041 -35.091  1.00  0.00    -0.081 NA
HETATM   37  O   UNL     1     -13.072   1.359 -35.562  1.00  0.00    -0.103 OA
HETATM   38  N   UNL     1     -14.044   1.260 -34.577  1.00  0.00    -0.083 NA
HETATM   39  C   UNL     1     -13.556   1.901 -33.516  1.00  0.00     0.201 A 
BRANCH  39  40
HETATM   40  N   UNL     1     -14.193   2.014 -32.339  1.00  0.00    -0.379 N 
HETATM   41  H   UNL     1     -13.969   2.784 -31.715  1.00  0.00     0.158 HD
HETATM   42  H   UNL     1     -14.649   1.226 -31.880  1.00  0.00     0.158 HD
ENDBRANCH  39  40
ENDBRANCH   4  35
TORSDOF 10
ENDMDL
MODEL 3
REMARK VINA RESULT:      -8.8      4.710      8.267
REMARK  10 active torsions:
REMARK  status: ('A' for Active; 'I' for Inactive)
REMARK    1  A    between atoms: C_6  and  C_7 
REMARK    2  A    between atoms: C_7  and  O_8 
REMARK    3  A    between atoms: O_8  and  C_9 
REMARK    4  A    between atoms: C_12  and  C_13 
REMARK    5  A    between atoms: N_14  and  N_15 
REMARK       I    between atoms: N_15  and  C_16 
REMARK    6  A    between atoms: C_16  and  C_17 
REMARK    7  A    between atoms: N_20  and  C_21 
REMARK    8  A    between atoms: C_25  and  N_26 
REMARK    9  A    between atoms: C_27  and  C_28 
REMARK   10  A    between atoms: C_28  and  N_29 
ROOT
HETATM    1  C   UNL     1     -10.389   4.468 -33.118  1.00  0.00     0.170 C 
HETATM    2  N   UNL     1     -11.287   4.946 -32.213  1.00  0.00    -0.152 NA
HETATM    3  N   UNL     1     -12.393   4.228 -32.313  1.00  0.00     0.012 NA
HETATM    4  N   UNL     1     -12.235   3.295 -33.289  1.00  0.00    -0.215 N 
HETATM    5  C   UNL     1     -10.914   3.335 -33.730  1.00  0.00     0.096 C 
ENDROOT
BRANCH   1   6
HETATM    6  C   UNL     1      -9.042   5.002 -33.268  1.00  0.00     0.293 C 
HETATM    7  N   UNL     1      -8.279   5.104 -32.117  1.00  0.00    -0.242 N 
HETATM    8  H   UNL     1      -7.359   5.515 -32.228  1.00  0.00     0.192 HD
HETATM    9  O   UNL     1      -8.647   5.477 -34.329  1.00  0.00    -0.264 OA
BRANCH   7  10
HETATM   10  N   UNL     1      -8.650   4.520 -30.944  1.00  0.00    -0.184 NA
HETATM   11  C   UNL     1      -8.006   3.479 -30.502  1.00  0.00     0.150 C 
BRANCH  11  12
HETATM   12  C   UNL     1      -6.824   2.799 -31.056  1.00  0.00    -0.017 A 
HETATM   13  C   UNL     1      -6.200   1.857 -30.236  1.00  0.00     0.016 A 
HETATM   14  C   UNL     1      -5.089   1.161 -30.711  1.00  0.00     0.037 A 
HETATM   15  C   UNL     1      -4.616   1.380 -32.006  1.00  0.00     0.069 A 
HETATM   16  C   UNL     1      -5.243   2.323 -32.822  1.00  0.00     0.037 A 
HETATM   17  C   UNL     1      -6.361   3.025 -32.354  1.00  0.00     0.016 A 
BRANCH  15  18
HETATM   18  O   UNL     1      -3.531   0.626 -32.348  1.00  0.00    -0.347 OA
BRANCH  18  19
HETATM   19  C   UNL     1      -3.191  -0.454 -31.478  1.00  0.00     0.214 C 
BRANCH  19  20
HETATM   20  C   UNL     1      -3.448  -1.745 -32.217  1.00  0.00    -0.033 A 
HETATM   21  C   UNL     1      -4.213  -1.734 -33.395  1.00  0.00     0.033 A 
HETATM   22  C   UNL     1      -4.441  -2.916 -34.100  1.00  0.00     0.034 A 
HETATM   23  C   UNL     1      -3.909  -4.119 -33.647  1.00  0.00     0.024 A 
HETATM   24 CL   UNL     1      -5.380  -2.880 -35.540  1.00  0.00    -0.084 Cl
HETATM   25  C   UNL     1      -3.148  -4.142 -32.477  1.00  0.00     0.002 A 
HETATM   26  C   UNL     1      -2.917  -2.961 -31.765  1.00  0.00     0.009 A 
ENDBRANCH  19  20
ENDBRANCH  18  19
ENDBRANCH  15  18
ENDBRANCH  11  12
ENDBRANCH   7  10
ENDBRANCH   1   6
BRANCH   5  27
HETATM   27  C   UNL     1     -10.253   2.393 -34.656  1.00  0.00     0.296 C 
BRANCH  27  28
HETATM   28  N   UNL     1      -9.209   1.476 -34.030  1.00  0.00    -0.066 N 
HETATM   29  H   UNL     1      -8.510   2.123 -33.641  1.00  0.00     0.280 HD
HETATM   30  C   UNL     1      -9.717   0.662 -32.857  1.00  0.00     0.235 C 
HETATM   31  C   UNL     1      -8.550  -0.036 -32.173  1.00  0.00     0.028 C 
HETATM   32  C   UNL     1      -7.750  -0.886 -33.153  1.00  0.00     0.003 C 
HETATM   33  C   UNL     1      -7.291  -0.058 -34.346  1.00  0.00     0.028 C 
HETATM   34  C   UNL     1      -8.459   0.635 -35.034  1.00  0.00     0.235 C 
ENDBRANCH  27  28
ENDBRANCH   5  27
BRANCH   4  35
HETATM   35  C   UNL     1     -13.293   2.441 -33.684  1.00  0.00     0.225 A 
HETATM   36  N   UNL     1     -13.345   1.958 -34.926  1.00  0.00    -0.081 NA
HETATM   37  O   UNL     1     -14.510   1.190 -34.941  1.00  0.00    -0.103 OA
HETATM   38  N   UNL     1     -15.122   1.186 -33.696  1.00  0.00    -0.083 NA
HETATM   39  C   UNL     1     -14.373   1.968 -32.919  1.00  0.00     0.201 A 
BRANCH  39  40
HETATM   40  N   UNL     1     -14.622   2.209 -31.621  1.00  0.00    -0.379 N 
HETATM   41  H   UNL     1     -13.859   2.467 -31.000  1.00  0.00     0.158 HD
HETATM   42  H   UNL     1     -15.445   1.848 -31.141  1.00  0.00     0.158 HD
ENDBRANCH  39  40
ENDBRANCH   4  35
TORSDOF 10
ENDMDL
MODEL 4
REMARK VINA RESULT:      -8.6      2.453      4.105
REMARK  10 active torsions:
REMARK  status: ('A' for Active; 'I' for Inactive)
REMARK    1  A    between atoms: C_6  and  C_7 
REMARK    2  A    between atoms: C_7  and  O_8 
REMARK    3  A    between atoms: O_8  and  C_9 
REMARK    4  A    between atoms: C_12  and  C_13 
REMARK    5  A    between atoms: N_14  and  N_15 
REMARK       I    between atoms: N_15  and  C_16 
REMARK    6  A    between atoms: C_16  and  C_17 
REMARK    7  A    between atoms: N_20  and  C_21 
REMARK    8  A    between atoms: C_25  and  N_26 
REMARK    9  A    between atoms: C_27  and  C_28 
REMARK   10  A    between atoms: C_28  and  N_29 
ROOT
HETATM    1  C   UNL     1      -4.520   4.504 -30.701  1.00  0.00     0.170 C 
HETATM    2  N   UNL     1      -5.549   3.843 -30.103  1.00  0.00    -0.152 NA
HETATM    3  N   UNL     1      -5.966   4.571 -29.081  1.00  0.00     0.012 NA
HETATM    4  N   UNL     1      -5.207   5.694 -28.990  1.00  0.00    -0.215 N 
HETATM    5  C   UNL     1      -4.360   5.746 -30.096  1.00  0.00     0.096 C 
ENDROOT
BRANCH   1   6
HETATM    6  C   UNL     1      -3.832   4.010 -31.886  1.00  0.00     0.293 C 
HETATM    7  N   UNL     1      -4.549   4.012 -33.071  1.00  0.00    -0.242 N 
HETATM    8  H   UNL     1      -4.073   3.628 -33.879  1.00  0.00     0.192 HD
HETATM    9  O   UNL     1      -2.727   3.480 -31.820  1.00  0.00    -0.264 OA
BRANCH   7  10
HETATM   10  N   UNL     1      -5.740   4.659 -33.199  1.00  0.00    -0.184 NA
HETATM   11  C   UNL     1      -6.835   3.979 -33.380  1.00  0.00     0.150 C 
BRANCH  11  12
HETATM   12  C   UNL     1      -7.041   2.522 -33.421  1.00  0.00    -0.017 A 
HETATM   13  C   UNL     1      -6.741   1.880 -34.624  1.00  0.00     0.016 A 
HETATM   14  C   UNL     1      -6.892   0.497 -34.721  1.00  0.00     0.037 A 
HETATM   15  C   UNL     1      -7.312  -0.249 -33.619  1.00  0.00     0.069 A 
HETATM   16  C   UNL     1      -7.611   0.397 -32.418  1.00  0.00     0.037 A 
HETATM   17  C   UNL     1      -7.460   1.786 -32.311  1.00  0.00     0.016 A 
BRANCH  15  18
HETATM   18  O   UNL     1      -7.407  -1.591 -33.846  1.00  0.00    -0.347 OA
BRANCH  18  19
HETATM   19  C   UNL     1      -6.722  -2.106 -34.989  1.00  0.00     0.214 C 
BRANCH  19  20
HETATM   20  C   UNL     1      -5.676  -3.080 -34.504  1.00  0.00    -0.033 A 
HETATM   21  C   UNL     1      -4.728  -2.669 -33.553  1.00  0.00     0.033 A 
HETATM   22  C   UNL     1      -3.768  -3.563 -33.081  1.00  0.00     0.034 A 
HETATM   23  C   UNL     1      -3.741  -4.876 -33.543  1.00  0.00     0.024 A 
HETATM   24 CL   UNL     1      -2.616  -3.039 -31.915  1.00  0.00    -0.084 Cl
HETATM   25  C   UNL     1      -4.678  -5.295 -34.488  1.00  0.00     0.002 A 
HETATM   26  C   UNL     1      -5.642  -4.402 -34.967  1.00  0.00     0.009 A 
ENDBRANCH  19  20
ENDBRANCH  18  19
ENDBRANCH  15  18
ENDBRANCH  11  12
ENDBRANCH   7  10
ENDBRANCH   1   6
BRANCH   5  27
HETATM   27  C   UNL     1      -3.484   6.865 -30.498  1.00  0.00     0.296 C 
BRANCH  27  28
HETATM   28  N   UNL     1      -2.043   6.784 -30.005  1.00  0.00    -0.066 N 
HETATM   29  H   UNL     1      -1.963   5.831 -29.627  1.00  0.00     0.280 HD
HETATM   30  C   UNL     1      -1.002   6.882 -31.103  1.00  0.00     0.235 C 
HETATM   31  C   UNL     1       0.374   6.564 -30.535  1.00  0.00     0.028 C 
HETATM   32  C   UNL     1       0.712   7.455 -29.346  1.00  0.00     0.003 C 
HETATM   33  C   UNL     1      -0.371   7.376 -28.278  1.00  0.00     0.028 C 
HETATM   34  C   UNL     1      -1.746   7.702 -28.844  1.00  0.00     0.235 C 
ENDBRANCH  27  28
ENDBRANCH   5  27
BRANCH   4  35
HETATM   35  C   UNL     1      -5.363   6.619 -27.930  1.00  0.00     0.225 A 
HETATM   36  N   UNL     1      -6.333   7.534 -27.968  1.00  0.00    -0.081 NA
HETATM   37  O   UNL     1      -6.162   8.256 -26.786  1.00  0.00    -0.103 OA
HETATM   38  N   UNL     1      -5.118   7.740 -26.032  1.00  0.00    -0.083 NA
HETATM   39  C   UNL     1      -4.617   6.731 -26.745  1.00  0.00     0.201 A 
BRANCH  39  40
HETATM   40  N   UNL     1      -3.597   5.955 -26.346  1.00  0.00    -0.379 N 
HETATM   41  H   UNL     1      -3.551   5.637 -25.381  1.00  0.00     0.158 HD
HETATM   42  H   UNL     1      -2.705   5.919 -26.838  1.00  0.00     0.158 HD
ENDBRANCH  39  40
ENDBRANCH   4  35
TORSDOF 10
ENDMDL
MODEL 5
REMARK VINA RESULT:      -8.6      3.603      8.773
REMARK  10 active torsions:
REMARK  status: ('A' for Active; 'I' for Inactive)
REMARK    1  A    between atoms: C_6  and  C_7 
REMARK    2  A    between atoms: C_7  and  O_8 
REMARK    3  A    between atoms: O_8  and  C_9 
REMARK    4  A    between atoms: C_12  and  C_13 
REMARK    5  A    between atoms: N_14  and  N_15 
REMARK       I    between atoms: N_15  and  C_16 
REMARK    6  A    between atoms: C_16  and  C_17 
REMARK    7  A    between atoms: N_20  and  C_21 
REMARK    8  A    between atoms: C_25  and  N_26 
REMARK    9  A    between atoms: C_27  and  C_28 
REMARK   10  A    between atoms: C_28  and  N_29 
ROOT
HETATM    1  C   UNL     1      -7.545   5.190 -33.098  1.00  0.00     0.170 C 
HETATM    2  N   UNL     1      -8.395   5.283 -34.158  1.00  0.00    -0.152 NA
HETATM    3  N   UNL     1      -9.026   4.127 -34.281  1.00  0.00     0.012 NA
HETATM    4  N   UNL     1      -8.585   3.271 -33.323  1.00  0.00    -0.215 N 
HETATM    5  C   UNL     1      -7.735   3.966 -32.465  1.00  0.00     0.096 C 
ENDROOT
BRANCH   1   6
HETATM    6  C   UNL     1      -6.705   6.290 -32.647  1.00  0.00     0.293 C 
HETATM    7  N   UNL     1      -5.393   6.298 -33.092  1.00  0.00    -0.242 N 
HETATM    8  H   UNL     1      -4.808   7.046 -32.738  1.00  0.00     0.192 HD
HETATM    9  O   UNL     1      -7.087   7.093 -31.800  1.00  0.00    -0.264 OA
BRANCH   7  10
HETATM   10  N   UNL     1      -4.958   5.475 -34.086  1.00  0.00    -0.184 NA
HETATM   11  C   UNL     1      -3.690   5.203 -34.199  1.00  0.00     0.150 C 
BRANCH  11  12
HETATM   12  C   UNL     1      -2.561   5.614 -33.347  1.00  0.00    -0.017 A 
HETATM   13  C   UNL     1      -2.167   4.716 -32.353  1.00  0.00     0.016 A 
HETATM   14  C   UNL     1      -1.089   5.034 -31.528  1.00  0.00     0.037 A 
HETATM   15  C   UNL     1      -0.387   6.228 -31.707  1.00  0.00     0.069 A 
HETATM   16  C   UNL     1      -0.785   7.122 -32.703  1.00  0.00     0.037 A 
HETATM   17  C   UNL     1      -1.866   6.809 -33.538  1.00  0.00     0.016 A 
BRANCH  15  18
HETATM   18  O   UNL     1       0.651   6.411 -30.842  1.00  0.00    -0.347 OA
BRANCH  18  19
HETATM   19  C   UNL     1       0.562   5.758 -29.574  1.00  0.00     0.214 C 
BRANCH  19  20
HETATM   20  C   UNL     1       0.308   6.812 -28.525  1.00  0.00    -0.033 A 
HETATM   21  C   UNL     1      -0.720   6.626 -27.585  1.00  0.00     0.033 A 
HETATM   22  C   UNL     1      -0.953   7.582 -26.597  1.00  0.00     0.034 A 
HETATM   23  C   UNL     1      -0.168   8.729 -26.527  1.00  0.00     0.024 A 
HETATM   24 CL   UNL     1      -2.217   7.336 -25.455  1.00  0.00    -0.084 Cl
HETATM   25  C   UNL     1       0.855   8.924 -27.456  1.00  0.00     0.002 A 
HETATM   26  C   UNL     1       1.093   7.970 -28.450  1.00  0.00     0.009 A 
ENDBRANCH  19  20
ENDBRANCH  18  19
ENDBRANCH  15  18
ENDBRANCH  11  12
ENDBRANCH   7  10
ENDBRANCH   1   6
BRANCH   5  27
HETATM   27  C   UNL     1      -7.159   3.483 -31.193  1.00  0.00     0.296 C 
BRANCH  27  28
HETATM   28  N   UNL     1      -6.279   2.243 -31.297  1.00  0.00    -0.066 N 
HETATM   29  H   UNL     1      -6.857   1.569 -31.815  1.00  0.00     0.280 HD
HETATM   30  C   UNL     1      -5.026   2.436 -32.129  1.00  0.00     0.235 C 
HETATM   31  C   UNL     1      -4.347   1.093 -32.353  1.00  0.00     0.028 C 
HETATM   32  C   UNL     1      -4.054   0.383 -31.038  1.00  0.00     0.003 C 
HETATM   33  C   UNL     1      -5.318   0.243 -30.199  1.00  0.00     0.028 C 
HETATM   34  C   UNL     1      -5.993   1.588 -29.968  1.00  0.00     0.235 C 
ENDBRANCH  27  28
ENDBRANCH   5  27
BRANCH   4  35
HETATM   35  C   UNL     1      -9.019   1.924 -33.267  1.00  0.00     0.225 A 
HETATM   36  N   UNL     1      -8.144   0.926 -33.399  1.00  0.00    -0.081 NA
HETATM   37  O   UNL     1      -8.929  -0.225 -33.309  1.00  0.00    -0.103 OA
HETATM   38  N   UNL     1     -10.259   0.095 -33.082  1.00  0.00    -0.083 NA
HETATM   39  C   UNL     1     -10.317   1.426 -33.065  1.00  0.00     0.201 A 
BRANCH  39  40
HETATM   40  N   UNL     1     -11.438   2.134 -32.849  1.00  0.00    -0.379 N 
HETATM   41  H   UNL     1     -11.441   2.877 -32.155  1.00  0.00     0.158 HD
HETATM   42  H   UNL     1     -12.365   1.785 -33.090  1.00  0.00     0.158 HD
ENDBRANCH  39  40
ENDBRANCH   4  35
TORSDOF 10
ENDMDL
MODEL 6
REMARK VINA RESULT:      -8.5      3.968      9.511
REMARK  10 active torsions:
REMARK  status: ('A' for Active; 'I' for Inactive)
REMARK    1  A    between atoms: C_6  and  C_7 
REMARK    2  A    between atoms: C_7  and  O_8 
REMARK    3  A    between atoms: O_8  and  C_9 
REMARK    4  A    between atoms: C_12  and  C_13 
REMARK    5  A    between atoms: N_14  and  N_15 
REMARK       I    between atoms: N_15  and  C_16 
REMARK    6  A    between atoms: C_16  and  C_17 
REMARK    7  A    between atoms: N_20  and  C_21 
REMARK    8  A    between atoms: C_25  and  N_26 
REMARK    9  A    between atoms: C_27  and  C_28 
REMARK   10  A    between atoms: C_28  and  N_29 
ROOT
HETATM    1  C   UNL     1      -4.874   2.987 -31.405  1.00  0.00     0.170 C 
HETATM    2  N   UNL     1      -5.402   3.388 -30.216  1.00  0.00    -0.152 NA
HETATM    3  N   UNL     1      -6.719   3.412 -30.339  1.00  0.00     0.012 NA
HETATM    4  N   UNL     1      -7.058   3.048 -31.603  1.00  0.00    -0.215 N 
HETATM    5  C   UNL     1      -5.906   2.638 -32.270  1.00  0.00     0.096 C 
ENDROOT
BRANCH   1   6
HETATM    6  C   UNL     1      -3.445   2.816 -31.629  1.00  0.00     0.293 C 
HETATM    7  N   UNL     1      -2.848   3.675 -32.536  1.00  0.00    -0.242 N 
HETATM    8  H   UNL     1      -1.862   3.520 -32.714  1.00  0.00     0.192 HD
HETATM    9  O   UNL     1      -2.823   1.869 -31.155  1.00  0.00    -0.264 OA
BRANCH   7  10
HETATM   10  N   UNL     1      -3.483   4.778 -33.019  1.00  0.00    -0.184 NA
HETATM   11  C   UNL     1      -3.112   5.965 -32.633  1.00  0.00     0.150 C 
BRANCH  11  12
HETATM   12  C   UNL     1      -2.009   6.362 -31.743  1.00  0.00    -0.017 A 
HETATM   13  C   UNL     1      -2.336   6.596 -30.405  1.00  0.00     0.016 A 
HETATM   14  C   UNL     1      -1.333   6.952 -29.505  1.00  0.00     0.037 A 
HETATM   15  C   UNL     1      -0.005   7.048 -29.924  1.00  0.00     0.069 A 
HETATM   16  C   UNL     1       0.317   6.813 -31.262  1.00  0.00     0.037 A 
HETATM   17  C   UNL     1      -0.684   6.453 -32.173  1.00  0.00     0.016 A 
BRANCH  15  18
HETATM   18  O   UNL     1       0.877   7.394 -28.942  1.00  0.00    -0.347 OA
BRANCH  18  19
HETATM   19  C   UNL     1       0.727   6.744 -27.678  1.00  0.00     0.214 C 
BRANCH  19  20
HETATM   20  C   UNL     1       0.859   7.790 -26.599  1.00  0.00    -0.033 A 
HETATM   21  C   UNL     1      -0.295   8.361 -26.037  1.00  0.00     0.033 A 
HETATM   22  C   UNL     1      -0.189   9.314 -25.024  1.00  0.00     0.034 A 
HETATM   23  C   UNL     1       1.061   9.706 -24.554  1.00  0.00     0.024 A 
HETATM   24 CL   UNL     1      -1.614  10.002 -24.350  1.00  0.00    -0.084 Cl
HETATM   25  C   UNL     1       2.214   9.145 -25.105  1.00  0.00     0.002 A 
HETATM   26  C   UNL     1       2.114   8.191 -26.123  1.00  0.00     0.009 A 
ENDBRANCH  19  20
ENDBRANCH  18  19
ENDBRANCH  15  18
ENDBRANCH  11  12
ENDBRANCH   7  10
ENDBRANCH   1   6
BRANCH   5  27
HETATM   27  C   UNL     1      -5.822   2.005 -33.602  1.00  0.00     0.296 C 
BRANCH  27  28
HETATM   28  N   UNL     1      -5.933   0.485 -33.618  1.00  0.00    -0.066 N 
HETATM   29  H   UNL     1      -6.506   0.268 -32.792  1.00  0.00     0.280 HD
HETATM   30  C   UNL     1      -6.693  -0.073 -34.805  1.00  0.00     0.235 C 
HETATM   31  C   UNL     1      -6.939  -1.561 -34.604  1.00  0.00     0.028 C 
HETATM   32  C   UNL     1      -5.640  -2.318 -34.352  1.00  0.00     0.003 C 
HETATM   33  C   UNL     1      -4.872  -1.710 -33.185  1.00  0.00     0.028 C 
HETATM   34  C   UNL     1      -4.620  -0.223 -33.390  1.00  0.00     0.235 C 
ENDBRANCH  27  28
ENDBRANCH   5  27
BRANCH   4  35
HETATM   35  C   UNL     1      -8.401   3.072 -32.053  1.00  0.00     0.225 A 
HETATM   36  N   UNL     1      -8.860   4.108 -32.756  1.00  0.00    -0.081 NA
HETATM   37  O   UNL     1     -10.196   3.785 -32.998  1.00  0.00    -0.103 OA
HETATM   38  N   UNL     1     -10.512   2.541 -32.474  1.00  0.00    -0.083 NA
HETATM   39  C   UNL     1      -9.403   2.102 -31.880  1.00  0.00     0.201 A 
BRANCH  39  40
HETATM   40  N   UNL     1      -9.291   0.914 -31.264  1.00  0.00    -0.379 N 
HETATM   41  H   UNL     1      -9.222   0.063 -31.817  1.00  0.00     0.158 HD
HETATM   42  H   UNL     1      -9.589   0.761 -30.301  1.00  0.00     0.158 HD
ENDBRANCH  39  40
ENDBRANCH   4  35
TORSDOF 10
ENDMDL
MODEL 7
REMARK VINA RESULT:      -8.4      2.292      3.761
REMARK  10 active torsions:
REMARK  status: ('A' for Active; 'I' for Inactive)
REMARK    1  A    between atoms: C_6  and  C_7 
REMARK    2  A    between atoms: C_7  and  O_8 
REMARK    3  A    between atoms: O_8  and  C_9 
REMARK    4  A    between atoms: C_12  and  C_13 
REMARK    5  A    between atoms: N_14  and  N_15 
REMARK       I    between atoms: N_15  and  C_16 
REMARK    6  A    between atoms: C_16  and  C_17 
REMARK    7  A    between atoms: N_20  and  C_21 
REMARK    8  A    between atoms: C_25  and  N_26 
REMARK    9  A    between atoms: C_27  and  C_28 
REMARK   10  A    between atoms: C_28  and  N_29 
ROOT
HETATM    1  C   UNL     1      -5.533   6.992 -30.591  1.00  0.00     0.170 C 
HETATM    2  N   UNL     1      -5.837   8.112 -29.878  1.00  0.00    -0.152 NA
HETATM    3  N   UNL     1      -4.898   8.283 -28.962  1.00  0.00     0.012 NA
HETATM    4  N   UNL     1      -3.992   7.275 -29.055  1.00  0.00    -0.215 N 
HETATM    5  C   UNL     1      -4.297   6.507 -30.177  1.00  0.00     0.096 C 
ENDROOT
BRANCH   1   6
HETATM    6  C   UNL     1      -6.335   6.512 -31.708  1.00  0.00     0.293 C 
HETATM    7  N   UNL     1      -7.369   5.643 -31.406  1.00  0.00    -0.242 N 
HETATM    8  H   UNL     1      -7.894   5.284 -32.196  1.00  0.00     0.192 HD
HETATM    9  O   UNL     1      -6.027   6.743 -32.874  1.00  0.00    -0.264 OA
BRANCH   7  10
HETATM   10  N   UNL     1      -7.788   5.427 -30.129  1.00  0.00    -0.184 NA
HETATM   11  C   UNL     1      -7.895   4.211 -29.675  1.00  0.00     0.150 C 
BRANCH  11  12
HETATM   12  C   UNL     1      -7.569   2.932 -30.327  1.00  0.00    -0.017 A 
HETATM   13  C   UNL     1      -8.563   2.365 -31.128  1.00  0.00     0.016 A 
HETATM   14  C   UNL     1      -8.308   1.166 -31.793  1.00  0.00     0.037 A 
HETATM   15  C   UNL     1      -7.063   0.546 -31.684  1.00  0.00     0.069 A 
HETATM   16  C   UNL     1      -6.073   1.116 -30.882  1.00  0.00     0.037 A 
HETATM   17  C   UNL     1      -6.319   2.322 -30.212  1.00  0.00     0.016 A 
BRANCH  15  18
HETATM   18  O   UNL     1      -6.943  -0.614 -32.392  1.00  0.00    -0.347 OA
BRANCH  18  19
HETATM   19  C   UNL     1      -6.017  -0.617 -33.480  1.00  0.00     0.214 C 
BRANCH  19  20
HETATM   20  C   UNL     1      -5.883  -2.037 -33.973  1.00  0.00    -0.033 A 
HETATM   21  C   UNL     1      -4.688  -2.742 -33.753  1.00  0.00     0.033 A 
HETATM   22  C   UNL     1      -4.558  -4.062 -34.185  1.00  0.00     0.034 A 
HETATM   23  C   UNL     1      -5.612  -4.697 -34.835  1.00  0.00     0.024 A 
HETATM   24 CL   UNL     1      -3.086  -4.908 -33.905  1.00  0.00    -0.084 Cl
HETATM   25  C   UNL     1      -6.803  -4.006 -35.059  1.00  0.00     0.002 A 
HETATM   26  C   UNL     1      -6.939  -2.682 -34.630  1.00  0.00     0.009 A 
ENDBRANCH  19  20
ENDBRANCH  18  19
ENDBRANCH  15  18
ENDBRANCH  11  12
ENDBRANCH   7  10
ENDBRANCH   1   6
BRANCH   5  27
HETATM   27  C   UNL     1      -3.489   5.416 -30.758  1.00  0.00     0.296 C 
BRANCH  27  28
HETATM   28  N   UNL     1      -2.962   5.664 -32.167  1.00  0.00    -0.066 N 
HETATM   29  H   UNL     1      -3.812   5.750 -32.739  1.00  0.00     0.280 HD
HETATM   30  C   UNL     1      -2.218   6.974 -32.333  1.00  0.00     0.235 C 
HETATM   31  C   UNL     1      -1.940   7.223 -33.808  1.00  0.00     0.028 C 
HETATM   32  C   UNL     1      -1.191   6.058 -34.444  1.00  0.00     0.003 C 
HETATM   33  C   UNL     1      -1.934   4.746 -34.224  1.00  0.00     0.028 C 
HETATM   34  C   UNL     1      -2.206   4.494 -32.748  1.00  0.00     0.235 C 
ENDBRANCH  27  28
ENDBRANCH   5  27
BRANCH   4  35
HETATM   35  C   UNL     1      -2.922   7.145 -28.136  1.00  0.00     0.225 A 
HETATM   36  N   UNL     1      -1.658   7.158 -28.563  1.00  0.00    -0.081 NA
HETATM   37  O   UNL     1      -0.907   6.992 -27.398  1.00  0.00    -0.103 OA
HETATM   38  N   UNL     1      -1.727   6.926 -26.281  1.00  0.00    -0.083 NA
HETATM   39  C   UNL     1      -2.976   7.011 -26.738  1.00  0.00     0.201 A 
BRANCH  39  40
HETATM   40  N   UNL     1      -4.070   7.005 -25.960  1.00  0.00    -0.379 N 
HETATM   41  H   UNL     1      -4.043   6.547 -25.053  1.00  0.00     0.158 HD
HETATM   42  H   UNL     1      -5.011   7.140 -26.330  1.00  0.00     0.158 HD
ENDBRANCH  39  40
ENDBRANCH   4  35
TORSDOF 10
ENDMDL
MODEL 8
REMARK VINA RESULT:      -8.4      2.993      4.506
REMARK  10 active torsions:
REMARK  status: ('A' for Active; 'I' for Inactive)
REMARK    1  A    between atoms: C_6  and  C_7 
REMARK    2  A    between atoms: C_7  and  O_8 
REMARK    3  A    between atoms: O_8  and  C_9 
REMARK    4  A    between atoms: C_12  and  C_13 
REMARK    5  A    between atoms: N_14  and  N_15 
REMARK       I    between atoms: N_15  and  C_16 
REMARK    6  A    between atoms: C_16  and  C_17 
REMARK    7  A    between atoms: N_20  and  C_21 
REMARK    8  A    between atoms: C_25  and  N_26 
REMARK    9  A    between atoms: C_27  and  C_28 
REMARK   10  A    between atoms: C_28  and  N_29 
ROOT
HETATM    1  C   UNL     1      -1.587   4.951 -31.694  1.00  0.00     0.170 C 
HETATM    2  N   UNL     1      -0.353   4.569 -31.264  1.00  0.00    -0.152 NA
HETATM    3  N   UNL     1      -0.034   5.314 -30.218  1.00  0.00     0.012 NA
HETATM    4  N   UNL     1      -1.039   6.194 -29.970  1.00  0.00    -0.215 N 
HETATM    5  C   UNL     1      -2.107   5.895 -30.815  1.00  0.00     0.096 C 
ENDROOT
BRANCH   1   6
HETATM    6  C   UNL     1      -2.273   4.323 -32.815  1.00  0.00     0.293 C 
HETATM    7  N   UNL     1      -2.864   3.094 -32.576  1.00  0.00    -0.242 N 
HETATM    8  H   UNL     1      -3.303   2.649 -33.374  1.00  0.00     0.192 HD
HETATM    9  O   UNL     1      -2.212   4.781 -33.952  1.00  0.00    -0.264 OA
BRANCH   7  10
HETATM   10  N   UNL     1      -3.019   2.594 -31.319  1.00  0.00    -0.184 NA
HETATM   11  C   UNL     1      -4.116   1.971 -30.996  1.00  0.00     0.150 C 
BRANCH  11  12
HETATM   12  C   UNL     1      -5.286   1.637 -31.825  1.00  0.00    -0.017 A 
HETATM   13  C   UNL     1      -5.986   0.478 -31.484  1.00  0.00     0.016 A 
HETATM   14  C   UNL     1      -7.118   0.118 -32.214  1.00  0.00     0.037 A 
HETATM   15  C   UNL     1      -7.569   0.921 -33.263  1.00  0.00     0.069 A 
HETATM   16  C   UNL     1      -6.866   2.080 -33.600  1.00  0.00     0.037 A 
HETATM   17  C   UNL     1      -5.730   2.450 -32.870  1.00  0.00     0.016 A 
BRANCH  15  18
HETATM   18  O   UNL     1      -8.692   0.461 -33.887  1.00  0.00    -0.347 OA
BRANCH  18  19
HETATM   19  C   UNL     1      -9.870   0.330 -33.090  1.00  0.00     0.214 C 
BRANCH  19  20
HETATM   20  C   UNL     1     -10.981   1.088 -33.773  1.00  0.00    -0.033 A 
HETATM   21  C   UNL     1     -12.287   0.570 -33.765  1.00  0.00     0.033 A 
HETATM   22  C   UNL     1     -13.327   1.270 -34.374  1.00  0.00     0.034 A 
HETATM   23  C   UNL     1     -13.086   2.493 -34.993  1.00  0.00     0.024 A 
HETATM   24 CL   UNL     1     -14.919   0.618 -34.353  1.00  0.00    -0.084 Cl
HETATM   25  C   UNL     1     -11.793   3.017 -35.007  1.00  0.00     0.002 A 
HETATM   26  C   UNL     1     -10.745   2.319 -34.400  1.00  0.00     0.009 A 
ENDBRANCH  19  20
ENDBRANCH  18  19
ENDBRANCH  15  18
ENDBRANCH  11  12
ENDBRANCH   7  10
ENDBRANCH   1   6
BRANCH   5  27
HETATM   27  C   UNL     1      -3.463   6.479 -30.781  1.00  0.00     0.296 C 
BRANCH  27  28
HETATM   28  N   UNL     1      -4.438   5.826 -29.808  1.00  0.00    -0.066 N 
HETATM   29  H   UNL     1      -3.950   4.975 -29.499  1.00  0.00     0.280 HD
HETATM   30  C   UNL     1      -4.700   6.632 -28.551  1.00  0.00     0.235 C 
HETATM   31  C   UNL     1      -5.496   5.794 -27.561  1.00  0.00     0.028 C 
HETATM   32  C   UNL     1      -6.786   5.267 -28.179  1.00  0.00     0.003 C 
HETATM   33  C   UNL     1      -6.502   4.501 -29.465  1.00  0.00     0.028 C 
HETATM   34  C   UNL     1      -5.712   5.342 -30.458  1.00  0.00     0.235 C 
ENDBRANCH  27  28
ENDBRANCH   5  27
BRANCH   4  35
HETATM   35  C   UNL     1      -0.935   7.184 -28.963  1.00  0.00     0.225 A 
HETATM   36  N   UNL     1      -1.083   8.474 -29.266  1.00  0.00    -0.081 NA
HETATM   37  O   UNL     1      -0.899   9.129 -28.047  1.00  0.00    -0.103 OA
HETATM   38  N   UNL     1      -0.686   8.222 -27.020  1.00  0.00    -0.083 NA
HETATM   39  C   UNL     1      -0.699   7.017 -27.589  1.00  0.00     0.201 A 
BRANCH  39  40
HETATM   40  N   UNL     1      -0.547   5.862 -26.921  1.00  0.00    -0.379 N 
HETATM   41  H   UNL     1      -1.157   5.647 -26.136  1.00  0.00     0.158 HD
HETATM   42  H   UNL     1       0.323   5.331 -26.928  1.00  0.00     0.158 HD
ENDBRANCH  39  40
ENDBRANCH   4  35
TORSDOF 10
ENDMDL
MODEL 9
REMARK VINA RESULT:      -8.4      4.108      9.492
REMARK  10 active torsions:
REMARK  status: ('A' for Active; 'I' for Inactive)
REMARK    1  A    between atoms: C_6  and  C_7 
REMARK    2  A    between atoms: C_7  and  O_8 
REMARK    3  A    between atoms: O_8  and  C_9 
REMARK    4  A    between atoms: C_12  and  C_13 
REMARK    5  A    between atoms: N_14  and  N_15 
REMARK       I    between atoms: N_15  and  C_16 
REMARK    6  A    between atoms: C_16  and  C_17 
REMARK    7  A    between atoms: N_20  and  C_21 
REMARK    8  A    between atoms: C_25  and  N_26 
REMARK    9  A    between atoms: C_27  and  C_28 
REMARK   10  A    between atoms: C_28  and  N_29 
ROOT
HETATM    1  C   UNL     1      -8.369   3.407 -31.844  1.00  0.00     0.170 C 
HETATM    2  N   UNL     1      -9.088   4.534 -32.102  1.00  0.00    -0.152 NA
HETATM    3  N   UNL     1     -10.155   4.189 -32.802  1.00  0.00     0.012 NA
HETATM    4  N   UNL     1     -10.134   2.849 -33.022  1.00  0.00    -0.215 N 
HETATM    5  C   UNL     1      -9.073   2.299 -32.305  1.00  0.00     0.096 C 
ENDROOT
BRANCH   1   6
HETATM    6  C   UNL     1      -7.139   3.402 -31.064  1.00  0.00     0.293 C 
HETATM    7  N   UNL     1      -5.968   3.124 -31.747  1.00  0.00    -0.242 N 
HETATM    8  H   UNL     1      -5.124   3.084 -31.186  1.00  0.00     0.192 HD
HETATM    9  O   UNL     1      -7.147   3.494 -29.839  1.00  0.00    -0.264 OA
BRANCH   7  10
HETATM   10  N   UNL     1      -5.908   3.095 -33.107  1.00  0.00    -0.184 NA
HETATM   11  C   UNL     1      -5.023   3.812 -33.736  1.00  0.00     0.150 C 
BRANCH  11  12
HETATM   12  C   UNL     1      -3.957   4.675 -33.199  1.00  0.00    -0.017 A 
HETATM   13  C   UNL     1      -2.735   4.060 -32.919  1.00  0.00     0.016 A 
HETATM   14  C   UNL     1      -1.677   4.826 -32.430  1.00  0.00     0.037 A 
HETATM   15  C   UNL     1      -1.824   6.202 -32.246  1.00  0.00     0.069 A 
HETATM   16  C   UNL     1      -3.048   6.812 -32.529  1.00  0.00     0.037 A 
HETATM   17  C   UNL     1      -4.115   6.050 -33.022  1.00  0.00     0.016 A 
BRANCH  15  18
HETATM   18  O   UNL     1      -0.710   6.833 -31.774  1.00  0.00    -0.347 OA
BRANCH  18  19
HETATM   19  C   UNL     1      -0.125   6.309 -30.581  1.00  0.00     0.214 C 
BRANCH  19  20
HETATM   20  C   UNL     1      -0.220   7.370 -29.512  1.00  0.00    -0.033 A 
HETATM   21  C   UNL     1       0.847   7.556 -28.617  1.00  0.00     0.033 A 
HETATM   22  C   UNL     1       0.781   8.547 -27.637  1.00  0.00     0.034 A 
HETATM   23  C   UNL     1      -0.340   9.365 -27.537  1.00  0.00     0.024 A 
HETATM   24 CL   UNL     1       2.099   8.759 -26.552  1.00  0.00    -0.084 Cl
HETATM   25  C   UNL     1      -1.405   9.189 -28.421  1.00  0.00     0.002 A 
HETATM   26  C   UNL     1      -1.347   8.196 -29.404  1.00  0.00     0.009 A 
ENDBRANCH  19  20
ENDBRANCH  18  19
ENDBRANCH  15  18
ENDBRANCH  11  12
ENDBRANCH   7  10
ENDBRANCH   1   6
BRANCH   5  27
HETATM   27  C   UNL     1      -8.772   0.866 -32.114  1.00  0.00     0.296 C 
BRANCH  27  28
HETATM   28  N   UNL     1      -7.583   0.332 -32.905  1.00  0.00    -0.066 N 
HETATM   29  H   UNL     1      -7.101   1.179 -33.233  1.00  0.00     0.280 HD
HETATM   30  C   UNL     1      -6.567  -0.424 -32.070  1.00  0.00     0.235 C 
HETATM   31  C   UNL     1      -5.328  -0.710 -32.906  1.00  0.00     0.028 C 
HETATM   32  C   UNL     1      -5.673  -1.450 -34.192  1.00  0.00     0.003 C 
HETATM   33  C   UNL     1      -6.729  -0.696 -34.990  1.00  0.00     0.028 C 
HETATM   34  C   UNL     1      -7.972  -0.416 -34.157  1.00  0.00     0.235 C 
ENDBRANCH  27  28
ENDBRANCH   5  27
BRANCH   4  35
HETATM   35  C   UNL     1     -11.107   2.208 -33.827  1.00  0.00     0.225 A 
HETATM   36  N   UNL     1     -11.759   1.136 -33.376  1.00  0.00    -0.081 NA
HETATM   37  O   UNL     1     -12.601   0.784 -34.432  1.00  0.00    -0.103 OA
HETATM   38  N   UNL     1     -12.476   1.675 -35.488  1.00  0.00    -0.083 NA
HETATM   39  C   UNL     1     -11.544   2.552 -35.118  1.00  0.00     0.201 A 
BRANCH  39  40
HETATM   40  N   UNL     1     -11.144   3.594 -35.864  1.00  0.00    -0.379 N 
HETATM   41  H   UNL     1     -10.988   3.472 -36.861  1.00  0.00     0.158 HD
HETATM   42  H   UNL     1     -10.681   4.411 -35.468  1.00  0.00     0.158 HD
ENDBRANCH  39  40
ENDBRANCH   4  35
TORSDOF 10
ENDMDL
MODEL 10
REMARK VINA RESULT:      -8.3      3.985      6.111
REMARK  10 active torsions:
REMARK  status: ('A' for Active; 'I' for Inactive)
REMARK    1  A    between atoms: C_6  and  C_7 
REMARK    2  A    between atoms: C_7  and  O_8 
REMARK    3  A    between atoms: O_8  and  C_9 
REMARK    4  A    between atoms: C_12  and  C_13 
REMARK    5  A    between atoms: N_14  and  N_15 
REMARK       I    between atoms: N_15  and  C_16 
REMARK    6  A    between atoms: C_16  and  C_17 
REMARK    7  A    between atoms: N_20  and  C_21 
REMARK    8  A    between atoms: C_25  and  N_26 
REMARK    9  A    between atoms: C_27  and  C_28 
REMARK   10  A    between atoms: C_28  and  N_29 
ROOT
HETATM    1  C   UNL     1      -4.176   3.412 -31.190  1.00  0.00     0.170 C 
HETATM    2  N   UNL     1      -2.890   2.967 -31.248  1.00  0.00    -0.152 NA
HETATM    3  N   UNL     1      -2.143   3.936 -31.752  1.00  0.00     0.012 NA
HETATM    4  N   UNL     1      -2.930   5.004 -32.043  1.00  0.00    -0.215 N 
HETATM    5  C   UNL     1      -4.216   4.750 -31.568  1.00  0.00     0.096 C 
ENDROOT
BRANCH   1   6
HETATM    6  C   UNL     1      -5.274   2.617 -30.657  1.00  0.00     0.293 C 
HETATM    7  N   UNL     1      -5.939   1.793 -31.550  1.00  0.00    -0.242 N 
HETATM    8  H   UNL     1      -6.727   1.276 -31.176  1.00  0.00     0.192 HD
HETATM    9  O   UNL     1      -5.691   2.772 -29.513  1.00  0.00    -0.264 OA
BRANCH   7  10
HETATM   10  N   UNL     1      -5.460   1.537 -32.798  1.00  0.00    -0.184 NA
HETATM   11  C   UNL     1      -6.271   1.153 -33.741  1.00  0.00     0.150 C 
BRANCH  11  12
HETATM   12  C   UNL     1      -7.733   0.983 -33.712  1.00  0.00    -0.017 A 
HETATM   13  C   UNL     1      -8.238   0.046 -32.808  1.00  0.00     0.016 A 
HETATM   14  C   UNL     1      -9.616  -0.145 -32.715  1.00  0.00     0.037 A 
HETATM   15  C   UNL     1     -10.491   0.610 -33.497  1.00  0.00     0.069 A 
HETATM   16  C   UNL     1      -9.982   1.546 -34.399  1.00  0.00     0.037 A 
HETATM   17  C   UNL     1      -8.599   1.746 -34.498  1.00  0.00     0.016 A 
BRANCH  15  18
HETATM   18  O   UNL     1     -11.813   0.332 -33.300  1.00  0.00    -0.347 OA
BRANCH  18  19
HETATM   19  C   UNL     1     -12.751   1.019 -34.130  1.00  0.00     0.214 C 
BRANCH  19  20
HETATM   20  C   UNL     1     -13.471   2.033 -33.276  1.00  0.00    -0.033 A 
HETATM   21  C   UNL     1     -14.829   1.847 -32.968  1.00  0.00     0.033 A 
HETATM   22  C   UNL     1     -15.502   2.766 -32.163  1.00  0.00     0.034 A 
HETATM   23  C   UNL     1     -14.835   3.875 -31.651  1.00  0.00     0.024 A 
HETATM   24 CL   UNL     1     -17.165   2.520 -31.797  1.00  0.00    -0.084 Cl
HETATM   25  C   UNL     1     -13.486   4.070 -31.951  1.00  0.00     0.002 A 
HETATM   26  C   UNL     1     -12.806   3.154 -32.759  1.00  0.00     0.009 A 
ENDBRANCH  19  20
ENDBRANCH  18  19
ENDBRANCH  15  18
ENDBRANCH  11  12
ENDBRANCH   7  10
ENDBRANCH   1   6
BRANCH   5  27
HETATM   27  C   UNL     1      -5.351   5.693 -31.515  1.00  0.00     0.296 C 
BRANCH  27  28
HETATM   28  N   UNL     1      -6.687   5.092 -31.091  1.00  0.00    -0.066 N 
HETATM   29  H   UNL     1      -6.440   4.160 -30.734  1.00  0.00     0.280 HD
HETATM   30  C   UNL     1      -7.357   5.812 -29.938  1.00  0.00     0.235 C 
HETATM   31  C   UNL     1      -8.553   5.005 -29.454  1.00  0.00     0.028 C 
HETATM   32  C   UNL     1      -9.529   4.711 -30.587  1.00  0.00     0.003 C 
HETATM   33  C   UNL     1      -8.824   4.031 -31.753  1.00  0.00     0.028 C 
HETATM   34  C   UNL     1      -7.632   4.842 -32.241  1.00  0.00     0.235 C 
ENDBRANCH  27  28
ENDBRANCH   5  27
BRANCH   4  35
HETATM   35  C   UNL     1      -2.417   6.158 -32.683  1.00  0.00     0.225 A 
HETATM   36  N   UNL     1      -2.402   7.333 -32.051  1.00  0.00    -0.081 NA
HETATM   37  O   UNL     1      -1.853   8.212 -32.986  1.00  0.00    -0.103 OA
HETATM   38  N   UNL     1      -1.507   7.547 -34.153  1.00  0.00    -0.083 NA
HETATM   39  C   UNL     1      -1.864   6.277 -33.969  1.00  0.00     0.201 A 
BRANCH  39  40
HETATM   40  N   UNL     1      -1.677   5.299 -34.870  1.00  0.00    -0.379 N 
HETATM   41  H   UNL     1      -0.822   4.748 -34.847  1.00  0.00     0.158 HD
HETATM   42  H   UNL     1      -2.166   5.270 -35.764  1.00  0.00     0.158 HD
ENDBRANCH  39  40
ENDBRANCH   4  35
TORSDOF 10
ENDMDL
