MODEL 1
REMARK VINA RESULT:      -7.7      0.000      0.000
REMARK  3 active torsions:
REMARK  status: ('A' for Active; 'I' for Inactive)
REMARK    1  A    between atoms: C_3  and  N_4 
REMARK       I    between atoms: N_4  and  C_5 
REMARK       I    between atoms: C_5  and  N_6 
REMARK    2  A    between atoms: N_6  and  C_7 
REMARK    3  A    between atoms: C_15  and  C_16 
ROOT
HETATM    1  N   UNL     1      -8.646   0.411 -33.595  1.00  0.00    -0.309 N 
HETATM    2  C   UNL     1      -9.392   0.604 -32.468  1.00  0.00     0.326 C 
HETATM    3  N   UNL     1     -10.540   1.333 -32.616  1.00  0.00    -0.292 N 
HETATM    4  O   UNL     1      -9.131   0.186 -31.342  1.00  0.00    -0.247 OA
HETATM    5  H   UNL     1      -9.043   0.841 -34.428  1.00  0.00     0.170 HD
HETATM    6  H   UNL     1     -11.041   1.435 -31.744  1.00  0.00     0.172 HD
ENDROOT
BRANCH   1   7
HETATM    7  C   UNL     1      -7.435  -0.285 -33.743  1.00  0.00     0.037 A 
HETATM    8  C   UNL     1      -6.177   0.282 -33.540  1.00  0.00     0.029 A 
HETATM    9  C   UNL     1      -5.019  -0.481 -33.712  1.00  0.00     0.003 A 
HETATM   10  C   UNL     1      -5.108  -1.821 -34.085  1.00  0.00     0.016 A 
HETATM   11  C   UNL     1      -6.362  -2.414 -34.287  1.00  0.00     0.050 A 
HETATM   12  C   UNL     1      -7.518  -1.632 -34.119  1.00  0.00     0.045 A 
BRANCH  11  13
HETATM   13  C   UNL     1      -6.459  -3.858 -34.707  1.00  0.00     0.417 C 
HETATM   14  F   UNL     1      -6.540  -4.027 -36.058  1.00  0.00    -0.166 F 
HETATM   15  F   UNL     1      -5.383  -4.589 -34.305  1.00  0.00    -0.166 F 
HETATM   16  F   UNL     1      -7.552  -4.486 -34.190  1.00  0.00    -0.166 F 
ENDBRANCH  11  13
ENDBRANCH   1   7
BRANCH   3  17
HETATM   17  C   UNL     1     -11.077   1.925 -33.764  1.00  0.00     0.148 A 
HETATM   18  N   UNL     1     -10.542   3.067 -34.259  1.00  0.00    -0.240 NA
HETATM   19  C   UNL     1     -11.132   3.563 -35.375  1.00  0.00     0.138 A 
HETATM   20  C   UNL     1     -12.214   2.950 -35.983  1.00  0.00     0.135 A 
HETATM   21  N   UNL     1     -12.758   1.812 -35.502  1.00  0.00    -0.268 NA
HETATM   22  C   UNL     1     -12.167   1.318 -34.386  1.00  0.00     0.166 A 
ENDBRANCH   3  17
TORSDOF 3
ENDMDL
MODEL 2
REMARK VINA RESULT:      -7.7      4.325      5.483
REMARK  3 active torsions:
REMARK  status: ('A' for Active; 'I' for Inactive)
REMARK    1  A    between atoms: C_3  and  N_4 
REMARK       I    between atoms: N_4  and  C_5 
REMARK       I    between atoms: C_5  and  N_6 
REMARK    2  A    between atoms: N_6  and  C_7 
REMARK    3  A    between atoms: C_15  and  C_16 
ROOT
HETATM    1  N   UNL     1      -5.228   0.151 -32.889  1.00  0.00    -0.309 N 
HETATM    2  C   UNL     1      -5.806   0.590 -31.733  1.00  0.00     0.326 C 
HETATM    3  N   UNL     1      -5.433   1.832 -31.299  1.00  0.00    -0.292 N 
HETATM    4  O   UNL     1      -6.627  -0.021 -31.052  1.00  0.00    -0.247 OA
HETATM    5  H   UNL     1      -4.575   0.815 -33.299  1.00  0.00     0.170 HD
HETATM    6  H   UNL     1      -5.899   2.092 -30.442  1.00  0.00     0.172 HD
ENDROOT
BRANCH   1   7
HETATM    7  C   UNL     1      -5.416  -1.067 -33.563  1.00  0.00     0.037 A 
HETATM    8  C   UNL     1      -6.440  -1.303 -34.482  1.00  0.00     0.029 A 
HETATM    9  C   UNL     1      -6.558  -2.546 -35.108  1.00  0.00     0.003 A 
HETATM   10  C   UNL     1      -5.652  -3.567 -34.823  1.00  0.00     0.016 A 
HETATM   11  C   UNL     1      -4.613  -3.351 -33.910  1.00  0.00     0.050 A 
HETATM   12  C   UNL     1      -4.510  -2.097 -33.281  1.00  0.00     0.045 A 
BRANCH  11  13
HETATM   13  C   UNL     1      -3.643  -4.458 -33.588  1.00  0.00     0.417 C 
HETATM   14  F   UNL     1      -2.823  -4.781 -34.629  1.00  0.00    -0.166 F 
HETATM   15  F   UNL     1      -2.818  -4.142 -32.551  1.00  0.00    -0.166 F 
HETATM   16  F   UNL     1      -4.263  -5.618 -33.233  1.00  0.00    -0.166 F 
ENDBRANCH  11  13
ENDBRANCH   1   7
BRANCH   3  17
HETATM   17  C   UNL     1      -4.530   2.738 -31.866  1.00  0.00     0.148 A 
HETATM   18  N   UNL     1      -4.886   3.475 -32.946  1.00  0.00    -0.240 NA
HETATM   19  C   UNL     1      -3.942   4.324 -33.422  1.00  0.00     0.138 A 
HETATM   20  C   UNL     1      -2.686   4.441 -32.851  1.00  0.00     0.135 A 
HETATM   21  N   UNL     1      -2.317   3.715 -31.775  1.00  0.00    -0.268 NA
HETATM   22  C   UNL     1      -3.262   2.866 -31.300  1.00  0.00     0.166 A 
ENDBRANCH   3  17
TORSDOF 3
ENDMDL
MODEL 3
REMARK VINA RESULT:      -7.5      5.009      6.534
REMARK  3 active torsions:
REMARK  status: ('A' for Active; 'I' for Inactive)
REMARK    1  A    between atoms: C_3  and  N_4 
REMARK       I    between atoms: N_4  and  C_5 
REMARK       I    between atoms: C_5  and  N_6 
REMARK    2  A    between atoms: N_6  and  C_7 
REMARK    3  A    between atoms: C_15  and  C_16 
ROOT
HETATM    1  N   UNL     1      -3.669   1.800 -31.865  1.00  0.00    -0.309 N 
HETATM    2  C   UNL     1      -4.359   2.517 -30.930  1.00  0.00     0.326 C 
HETATM    3  N   UNL     1      -4.053   3.846 -30.834  1.00  0.00    -0.292 N 
HETATM    4  O   UNL     1      -5.225   2.082 -30.173  1.00  0.00    -0.247 OA
HETATM    5  H   UNL     1      -2.997   2.354 -32.391  1.00  0.00     0.170 HD
HETATM    6  H   UNL     1      -4.600   4.312 -30.124  1.00  0.00     0.172 HD
ENDROOT
BRANCH   1   7
HETATM    7  C   UNL     1      -3.770   0.435 -32.183  1.00  0.00     0.037 A 
HETATM    8  C   UNL     1      -2.951  -0.556 -31.642  1.00  0.00     0.029 A 
HETATM    9  C   UNL     1      -3.116  -1.893 -32.013  1.00  0.00     0.003 A 
HETATM   10  C   UNL     1      -4.105  -2.252 -32.927  1.00  0.00     0.016 A 
HETATM   11  C   UNL     1      -4.944  -1.275 -33.478  1.00  0.00     0.050 A 
HETATM   12  C   UNL     1      -4.761   0.067 -33.102  1.00  0.00     0.045 A 
BRANCH  11  13
HETATM   13  C   UNL     1      -6.002  -1.660 -34.479  1.00  0.00     0.417 C 
HETATM   14  F   UNL     1      -6.452  -0.610 -35.225  1.00  0.00    -0.166 F 
HETATM   15  F   UNL     1      -5.558  -2.587 -35.373  1.00  0.00    -0.166 F 
HETATM   16  F   UNL     1      -7.108  -2.201 -33.898  1.00  0.00    -0.166 F 
ENDBRANCH  11  13
ENDBRANCH   1   7
BRANCH   3  17
HETATM   17  C   UNL     1      -3.122   4.599 -31.558  1.00  0.00     0.148 A 
HETATM   18  N   UNL     1      -1.801   4.302 -31.491  1.00  0.00    -0.240 NA
HETATM   19  C   UNL     1      -0.979   5.090 -32.228  1.00  0.00     0.138 A 
HETATM   20  C   UNL     1      -1.445   6.135 -33.006  1.00  0.00     0.135 A 
HETATM   21  N   UNL     1      -2.758   6.443 -33.083  1.00  0.00    -0.268 NA
HETATM   22  C   UNL     1      -3.579   5.655 -32.345  1.00  0.00     0.166 A 
ENDBRANCH   3  17
TORSDOF 3
ENDMDL
MODEL 4
REMARK VINA RESULT:      -7.5      1.265      1.966
REMARK  3 active torsions:
REMARK  status: ('A' for Active; 'I' for Inactive)
REMARK    1  A    between atoms: C_3  and  N_4 
REMARK       I    between atoms: N_4  and  C_5 
REMARK       I    between atoms: C_5  and  N_6 
REMARK    2  A    between atoms: N_6  and  C_7 
REMARK    3  A    between atoms: C_15  and  C_16 
ROOT
HETATM    1  N   UNL     1      -8.289   0.441 -34.094  1.00  0.00    -0.309 N 
HETATM    2  C   UNL     1      -8.391   1.802 -34.125  1.00  0.00     0.326 C 
HETATM    3  N   UNL     1      -9.658   2.316 -34.176  1.00  0.00    -0.292 N 
HETATM    4  O   UNL     1      -7.458   2.603 -34.109  1.00  0.00    -0.247 OA
HETATM    5  H   UNL     1      -9.187  -0.038 -34.111  1.00  0.00     0.170 HD
HETATM    6  H   UNL     1      -9.657   3.326 -34.196  1.00  0.00     0.172 HD
ENDROOT
BRANCH   1   7
HETATM    7  C   UNL     1      -7.134  -0.357 -34.042  1.00  0.00     0.037 A 
HETATM    8  C   UNL     1      -5.875   0.114 -33.668  1.00  0.00     0.029 A 
HETATM    9  C   UNL     1      -4.774  -0.747 -33.644  1.00  0.00     0.003 A 
HETATM   10  C   UNL     1      -4.923  -2.088 -33.992  1.00  0.00     0.016 A 
HETATM   11  C   UNL     1      -6.179  -2.585 -34.364  1.00  0.00     0.050 A 
HETATM   12  C   UNL     1      -7.276  -1.706 -34.391  1.00  0.00     0.045 A 
BRANCH  11  13
HETATM   13  C   UNL     1      -6.337  -4.031 -34.756  1.00  0.00     0.417 C 
HETATM   14  F   UNL     1      -7.479  -4.602 -34.277  1.00  0.00    -0.166 F 
HETATM   15  F   UNL     1      -6.376  -4.201 -36.107  1.00  0.00    -0.166 F 
HETATM   16  F   UNL     1      -5.316  -4.815 -34.310  1.00  0.00    -0.166 F 
ENDBRANCH  11  13
ENDBRANCH   1   7
BRANCH   3  17
HETATM   17  C   UNL     1     -10.888   1.650 -34.206  1.00  0.00     0.148 A 
HETATM   18  N   UNL     1     -11.111   0.589 -33.393  1.00  0.00    -0.240 NA
HETATM   19  C   UNL     1     -12.334   0.011 -33.496  1.00  0.00     0.138 A 
HETATM   20  C   UNL     1     -13.304   0.466 -34.372  1.00  0.00     0.135 A 
HETATM   21  N   UNL     1     -13.097   1.522 -35.187  1.00  0.00    -0.268 NA
HETATM   22  C   UNL     1     -11.874   2.099 -35.083  1.00  0.00     0.166 A 
ENDBRANCH   3  17
TORSDOF 3
ENDMDL
MODEL 5
REMARK VINA RESULT:      -7.1      2.387      3.164
REMARK  3 active torsions:
REMARK  status: ('A' for Active; 'I' for Inactive)
REMARK    1  A    between atoms: C_3  and  N_4 
REMARK       I    between atoms: N_4  and  C_5 
REMARK       I    between atoms: C_5  and  N_6 
REMARK    2  A    between atoms: N_6  and  C_7 
REMARK    3  A    between atoms: C_15  and  C_16 
ROOT
HETATM    1  N   UNL     1      -6.764   0.340 -33.512  1.00  0.00    -0.309 N 
HETATM    2  C   UNL     1      -7.339   1.044 -34.531  1.00  0.00     0.326 C 
HETATM    3  N   UNL     1      -8.188   2.054 -34.171  1.00  0.00    -0.292 N 
HETATM    4  O   UNL     1      -7.164   0.858 -35.734  1.00  0.00    -0.247 OA
HETATM    5  H   UNL     1      -7.042   0.659 -32.587  1.00  0.00     0.170 HD
HETATM    6  H   UNL     1      -8.574   2.531 -34.973  1.00  0.00     0.172 HD
ENDROOT
BRANCH   1   7
HETATM    7  C   UNL     1      -5.865  -0.737 -33.580  1.00  0.00     0.037 A 
HETATM    8  C   UNL     1      -4.544  -0.682 -33.136  1.00  0.00     0.029 A 
HETATM    9  C   UNL     1      -3.713  -1.800 -33.242  1.00  0.00     0.003 A 
HETATM   10  C   UNL     1      -4.196  -2.986 -33.793  1.00  0.00     0.016 A 
HETATM   11  C   UNL     1      -5.521  -3.066 -34.239  1.00  0.00     0.050 A 
HETATM   12  C   UNL     1      -6.344  -1.932 -34.133  1.00  0.00     0.045 A 
BRANCH  11  13
HETATM   13  C   UNL     1      -6.040  -4.343 -34.850  1.00  0.00     0.417 C 
HETATM   14  F   UNL     1      -5.261  -5.430 -34.581  1.00  0.00    -0.166 F 
HETATM   15  F   UNL     1      -7.288  -4.661 -34.406  1.00  0.00    -0.166 F 
HETATM   16  F   UNL     1      -6.131  -4.281 -36.208  1.00  0.00    -0.166 F 
ENDBRANCH  11  13
ENDBRANCH   1   7
BRANCH   3  17
HETATM   17  C   UNL     1      -8.568   2.483 -32.895  1.00  0.00     0.148 A 
HETATM   18  N   UNL     1      -7.648   2.588 -31.905  1.00  0.00    -0.240 NA
HETATM   19  C   UNL     1      -8.116   3.011 -30.704  1.00  0.00     0.138 A 
HETATM   20  C   UNL     1      -9.447   3.321 -30.488  1.00  0.00     0.135 A 
HETATM   21  N   UNL     1     -10.375   3.223 -31.463  1.00  0.00    -0.268 NA
HETATM   22  C   UNL     1      -9.907   2.798 -32.663  1.00  0.00     0.166 A 
ENDBRANCH   3  17
TORSDOF 3
ENDMDL
MODEL 6
REMARK VINA RESULT:      -7.0     13.735     14.841
REMARK  3 active torsions:
REMARK  status: ('A' for Active; 'I' for Inactive)
REMARK    1  A    between atoms: C_3  and  N_4 
REMARK       I    between atoms: N_4  and  C_5 
REMARK       I    between atoms: C_5  and  N_6 
REMARK    2  A    between atoms: N_6  and  C_7 
REMARK    3  A    between atoms: C_15  and  C_16 
ROOT
HETATM    1  N   UNL     1      -5.738 -13.202 -37.073  1.00  0.00    -0.309 N 
HETATM    2  C   UNL     1      -4.523 -12.913 -36.522  1.00  0.00     0.326 C 
HETATM    3  N   UNL     1      -4.290 -13.407 -35.268  1.00  0.00    -0.292 N 
HETATM    4  O   UNL     1      -3.624 -12.257 -37.045  1.00  0.00    -0.247 OA
HETATM    5  H   UNL     1      -6.338 -13.763 -36.472  1.00  0.00     0.170 HD
HETATM    6  H   UNL     1      -3.374 -13.156 -34.925  1.00  0.00     0.172 HD
ENDROOT
BRANCH   1   7
HETATM    7  C   UNL     1      -6.249 -12.831 -38.328  1.00  0.00     0.037 A 
HETATM    8  C   UNL     1      -5.460 -12.421 -39.403  1.00  0.00     0.029 A 
HETATM    9  C   UNL     1      -6.049 -12.067 -40.620  1.00  0.00     0.003 A 
HETATM   10  C   UNL     1      -7.433 -12.122 -40.775  1.00  0.00     0.016 A 
HETATM   11  C   UNL     1      -8.244 -12.538 -39.711  1.00  0.00     0.050 A 
HETATM   12  C   UNL     1      -7.640 -12.884 -38.490  1.00  0.00     0.045 A 
BRANCH  11  13
HETATM   13  C   UNL     1      -9.742 -12.583 -39.872  1.00  0.00     0.417 C 
HETATM   14  F   UNL     1     -10.289 -11.377 -40.198  1.00  0.00    -0.166 F 
HETATM   15  F   UNL     1     -10.134 -13.445 -40.851  1.00  0.00    -0.166 F 
HETATM   16  F   UNL     1     -10.383 -12.985 -38.740  1.00  0.00    -0.166 F 
ENDBRANCH  11  13
ENDBRANCH   1   7
BRANCH   3  17
HETATM   17  C   UNL     1      -5.122 -14.174 -34.446  1.00  0.00     0.148 A 
HETATM   18  N   UNL     1      -6.373 -13.746 -34.148  1.00  0.00    -0.240 NA
HETATM   19  C   UNL     1      -7.101 -14.559 -33.343  1.00  0.00     0.138 A 
HETATM   20  C   UNL     1      -6.611 -15.756 -32.850  1.00  0.00     0.135 A 
HETATM   21  N   UNL     1      -5.368 -16.196 -33.138  1.00  0.00    -0.268 NA
HETATM   22  C   UNL     1      -4.641 -15.382 -33.943  1.00  0.00     0.166 A 
ENDBRANCH   3  17
TORSDOF 3
ENDMDL
MODEL 7
REMARK VINA RESULT:      -6.9      1.990      2.770
REMARK  3 active torsions:
REMARK  status: ('A' for Active; 'I' for Inactive)
REMARK    1  A    between atoms: C_3  and  N_4 
REMARK       I    between atoms: N_4  and  C_5 
REMARK       I    between atoms: C_5  and  N_6 
REMARK    2  A    between atoms: N_6  and  C_7 
REMARK    3  A    between atoms: C_15  and  C_16 
ROOT
HETATM    1  N   UNL     1      -9.734   1.350 -33.103  1.00  0.00    -0.309 N 
HETATM    2  C   UNL     1      -9.893   2.587 -33.658  1.00  0.00     0.326 C 
HETATM    3  N   UNL     1     -11.175   2.964 -33.948  1.00  0.00    -0.292 N 
HETATM    4  O   UNL     1      -8.998   3.389 -33.918  1.00  0.00    -0.247 OA
HETATM    5  H   UNL     1     -10.607   0.846 -32.968  1.00  0.00     0.170 HD
HETATM    6  H   UNL     1     -11.217   3.888 -34.354  1.00  0.00     0.172 HD
ENDROOT
BRANCH   1   7
HETATM    7  C   UNL     1      -8.550   0.705 -32.708  1.00  0.00     0.037 A 
HETATM    8  C   UNL     1      -7.862   0.988 -31.528  1.00  0.00     0.029 A 
HETATM    9  C   UNL     1      -6.687   0.301 -31.209  1.00  0.00     0.003 A 
HETATM   10  C   UNL     1      -6.191  -0.678 -32.068  1.00  0.00     0.016 A 
HETATM   11  C   UNL     1      -6.869  -0.984 -33.255  1.00  0.00     0.050 A 
HETATM   12  C   UNL     1      -8.044  -0.280 -33.567  1.00  0.00     0.045 A 
BRANCH  11  13
HETATM   13  C   UNL     1      -6.324  -2.031 -34.191  1.00  0.00     0.417 C 
HETATM   14  F   UNL     1      -7.114  -3.138 -34.289  1.00  0.00    -0.166 F 
HETATM   15  F   UNL     1      -6.179  -1.565 -35.463  1.00  0.00    -0.166 F 
HETATM   16  F   UNL     1      -5.095  -2.487 -33.818  1.00  0.00    -0.166 F 
ENDBRANCH  11  13
ENDBRANCH   1   7
BRANCH   3  17
HETATM   17  C   UNL     1     -12.371   2.263 -33.763  1.00  0.00     0.148 A 
HETATM   18  N   UNL     1     -12.548   1.048 -34.338  1.00  0.00    -0.240 NA
HETATM   19  C   UNL     1     -13.742   0.448 -34.100  1.00  0.00     0.138 A 
HETATM   20  C   UNL     1     -14.727   1.029 -33.321  1.00  0.00     0.135 A 
HETATM   21  N   UNL     1     -14.566   2.238 -32.742  1.00  0.00    -0.268 NA
HETATM   22  C   UNL     1     -13.372   2.836 -32.981  1.00  0.00     0.166 A 
ENDBRANCH   3  17
TORSDOF 3
ENDMDL
MODEL 8
REMARK VINA RESULT:      -6.9      2.843      3.546
REMARK  3 active torsions:
REMARK  status: ('A' for Active; 'I' for Inactive)
REMARK    1  A    between atoms: C_3  and  N_4 
REMARK       I    between atoms: N_4  and  C_5 
REMARK       I    between atoms: C_5  and  N_6 
REMARK    2  A    between atoms: N_6  and  C_7 
REMARK    3  A    between atoms: C_15  and  C_16 
ROOT
HETATM    1  N   UNL     1      -9.715   1.389 -33.976  1.00  0.00    -0.309 N 
HETATM    2  C   UNL     1      -9.920   2.733 -34.097  1.00  0.00     0.326 C 
HETATM    3  N   UNL     1     -11.217   3.160 -34.027  1.00  0.00    -0.292 N 
HETATM    4  O   UNL     1      -9.053   3.591 -34.260  1.00  0.00    -0.247 OA
HETATM    5  H   UNL     1     -10.570   0.855 -33.844  1.00  0.00     0.170 HD
HETATM    6  H   UNL     1     -11.294   4.163 -34.124  1.00  0.00     0.172 HD
ENDROOT
BRANCH   1   7
HETATM    7  C   UNL     1      -8.506   0.674 -34.010  1.00  0.00     0.037 A 
HETATM    8  C   UNL     1      -7.981   0.079 -35.158  1.00  0.00     0.029 A 
HETATM    9  C   UNL     1      -6.771  -0.617 -35.105  1.00  0.00     0.003 A 
HETATM   10  C   UNL     1      -6.072  -0.724 -33.903  1.00  0.00     0.016 A 
HETATM   11  C   UNL     1      -6.576  -0.129 -32.740  1.00  0.00     0.050 A 
HETATM   12  C   UNL     1      -7.799   0.563 -32.805  1.00  0.00     0.045 A 
BRANCH  11  13
HETATM   13  C   UNL     1      -5.830  -0.257 -31.437  1.00  0.00     0.417 C 
HETATM   14  F   UNL     1      -4.840  -1.194 -31.468  1.00  0.00    -0.166 F 
HETATM   15  F   UNL     1      -5.229   0.907 -31.066  1.00  0.00    -0.166 F 
HETATM   16  F   UNL     1      -6.638  -0.609 -30.398  1.00  0.00    -0.166 F 
ENDBRANCH  11  13
ENDBRANCH   1   7
BRANCH   3  17
HETATM   17  C   UNL     1     -12.389   2.417 -33.851  1.00  0.00     0.148 A 
HETATM   18  N   UNL     1     -12.628   1.324 -34.616  1.00  0.00    -0.240 NA
HETATM   19  C   UNL     1     -13.792   0.671 -34.370  1.00  0.00     0.138 A 
HETATM   20  C   UNL     1     -14.689   1.084 -33.400  1.00  0.00     0.135 A 
HETATM   21  N   UNL     1     -14.464   2.170 -32.629  1.00  0.00    -0.268 NA
HETATM   22  C   UNL     1     -13.301   2.822 -32.877  1.00  0.00     0.166 A 
ENDBRANCH   3  17
TORSDOF 3
ENDMDL
MODEL 9
REMARK VINA RESULT:      -6.9      4.319      5.102
REMARK  3 active torsions:
REMARK  status: ('A' for Active; 'I' for Inactive)
REMARK    1  A    between atoms: C_3  and  N_4 
REMARK       I    between atoms: N_4  and  C_5 
REMARK       I    between atoms: C_5  and  N_6 
REMARK    2  A    between atoms: N_6  and  C_7 
REMARK    3  A    between atoms: C_15  and  C_16 
ROOT
HETATM    1  N   UNL     1      -4.098  -0.273 -32.068  1.00  0.00    -0.309 N 
HETATM    2  C   UNL     1      -3.206   0.461 -31.341  1.00  0.00     0.326 C 
HETATM    3  N   UNL     1      -3.560   1.754 -31.070  1.00  0.00    -0.292 N 
HETATM    4  O   UNL     1      -2.123   0.071 -30.908  1.00  0.00    -0.247 OA
HETATM    5  H   UNL     1      -4.938   0.241 -32.326  1.00  0.00     0.170 HD
HETATM    6  H   UNL     1      -2.855   2.236 -30.530  1.00  0.00     0.172 HD
ENDROOT
BRANCH   1   7
HETATM    7  C   UNL     1      -4.004  -1.609 -32.492  1.00  0.00     0.037 A 
HETATM    8  C   UNL     1      -3.140  -2.549 -31.929  1.00  0.00     0.029 A 
HETATM    9  C   UNL     1      -3.107  -3.860 -32.412  1.00  0.00     0.003 A 
HETATM   10  C   UNL     1      -3.939  -4.244 -33.461  1.00  0.00     0.016 A 
HETATM   11  C   UNL     1      -4.820  -3.319 -34.038  1.00  0.00     0.050 A 
HETATM   12  C   UNL     1      -4.837  -2.002 -33.547  1.00  0.00     0.045 A 
BRANCH  11  13
HETATM   13  C   UNL     1      -5.708  -3.729 -35.184  1.00  0.00     0.417 C 
HETATM   14  F   UNL     1      -5.385  -3.126 -36.364  1.00  0.00    -0.166 F 
HETATM   15  F   UNL     1      -5.658  -5.069 -35.426  1.00  0.00    -0.166 F 
HETATM   16  F   UNL     1      -7.020  -3.437 -34.966  1.00  0.00    -0.166 F 
ENDBRANCH  11  13
ENDBRANCH   1   7
BRANCH   3  17
HETATM   17  C   UNL     1      -4.715   2.455 -31.433  1.00  0.00     0.148 A 
HETATM   18  N   UNL     1      -5.034   2.618 -32.740  1.00  0.00    -0.240 NA
HETATM   19  C   UNL     1      -6.172   3.312 -32.990  1.00  0.00     0.138 A 
HETATM   20  C   UNL     1      -6.969   3.828 -31.982  1.00  0.00     0.135 A 
HETATM   21  N   UNL     1      -6.664   3.674 -30.676  1.00  0.00    -0.268 NA
HETATM   22  C   UNL     1      -5.525   2.980 -30.428  1.00  0.00     0.166 A 
ENDBRANCH   3  17
TORSDOF 3
ENDMDL
MODEL 10
REMARK VINA RESULT:      -6.7      2.694      3.454
REMARK  3 active torsions:
REMARK  status: ('A' for Active; 'I' for Inactive)
REMARK    1  A    between atoms: C_3  and  N_4 
REMARK       I    between atoms: N_4  and  C_5 
REMARK       I    between atoms: C_5  and  N_6 
REMARK    2  A    between atoms: N_6  and  C_7 
REMARK    3  A    between atoms: C_15  and  C_16 
ROOT
HETATM    1  N   UNL     1      -7.479   0.802 -33.864  1.00  0.00    -0.309 N 
HETATM    2  C   UNL     1      -7.217   2.138 -33.952  1.00  0.00     0.326 C 
HETATM    3  N   UNL     1      -8.294   2.977 -33.873  1.00  0.00    -0.292 N 
HETATM    4  O   UNL     1      -6.110   2.656 -34.095  1.00  0.00    -0.247 OA
HETATM    5  H   UNL     1      -8.466   0.585 -33.745  1.00  0.00     0.170 HD
HETATM    6  H   UNL     1      -8.027   3.948 -33.946  1.00  0.00     0.172 HD
ENDROOT
BRANCH   1   7
HETATM    7  C   UNL     1      -6.582  -0.279 -33.914  1.00  0.00     0.037 A 
HETATM    8  C   UNL     1      -6.685  -1.339 -34.816  1.00  0.00     0.029 A 
HETATM    9  C   UNL     1      -5.751  -2.378 -34.798  1.00  0.00     0.003 A 
HETATM   10  C   UNL     1      -4.703  -2.366 -33.879  1.00  0.00     0.016 A 
HETATM   11  C   UNL     1      -4.576  -1.308 -32.969  1.00  0.00     0.050 A 
HETATM   12  C   UNL     1      -5.527  -0.274 -32.993  1.00  0.00     0.045 A 
BRANCH  11  13
HETATM   13  C   UNL     1      -3.453  -1.303 -31.964  1.00  0.00     0.417 C 
HETATM   14  F   UNL     1      -3.740  -0.600 -30.832  1.00  0.00    -0.166 F 
HETATM   15  F   UNL     1      -3.121  -2.557 -31.549  1.00  0.00    -0.166 F 
HETATM   16  F   UNL     1      -2.306  -0.757 -32.456  1.00  0.00    -0.166 F 
ENDBRANCH  11  13
ENDBRANCH   1   7
BRANCH   3  17
HETATM   17  C   UNL     1      -9.650   2.670 -33.715  1.00  0.00     0.148 A 
HETATM   18  N   UNL     1     -10.203   1.641 -34.402  1.00  0.00    -0.240 NA
HETATM   19  C   UNL     1     -11.524   1.423 -34.181  1.00  0.00     0.138 A 
HETATM   20  C   UNL     1     -12.273   2.196 -33.310  1.00  0.00     0.135 A 
HETATM   21  N   UNL     1     -11.736   3.223 -32.618  1.00  0.00    -0.268 NA
HETATM   22  C   UNL     1     -10.416   3.440 -32.841  1.00  0.00     0.166 A 
ENDBRANCH   3  17
TORSDOF 3
ENDMDL
