MODEL 1
REMARK VINA RESULT:      -9.1      0.000      0.000
REMARK  6 active torsions:
REMARK  status: ('A' for Active; 'I' for Inactive)
REMARK    1  A    between atoms: C_2  and  N_3 
REMARK       I    between atoms: N_3  and  C_4 
REMARK    2  A    between atoms: C_4  and  C_6 
REMARK    3  A    between atoms: C_10  and  C_11 
REMARK    4  A    between atoms: C_11  and  N_12 
REMARK       I    between atoms: N_12  and  C_13 
REMARK    5  A    between atoms: C_13  and  C_15 
REMARK    6  A    between atoms: C_18  and  C_22 
ROOT
HETATM    1  N   UNL     1      -4.979   3.503 -33.030  1.00  0.00    -0.353 N 
HETATM    2  C   UNL     1      -6.123   2.964 -33.574  1.00  0.00     0.251 C 
HETATM    3  O   UNL     1      -7.118   3.624 -33.850  1.00  0.00    -0.268 OA
HETATM    4  H   UNL     1      -4.217   2.909 -32.741  1.00  0.00     0.163 HD
ENDROOT
BRANCH   1   5
HETATM    5  C   UNL     1      -4.865   4.916 -32.740  1.00  0.00     0.161 C 
BRANCH   5   6
HETATM    6  C   UNL     1      -3.442   5.392 -32.886  1.00  0.00    -0.040 A 
HETATM    7  C   UNL     1      -3.046   6.106 -34.027  1.00  0.00     0.009 A 
HETATM    8  C   UNL     1      -1.744   6.592 -34.147  1.00  0.00     0.002 A 
HETATM    9  C   UNL     1      -0.817   6.374 -33.125  1.00  0.00     0.017 A 
HETATM   10  C   UNL     1      -1.190   5.655 -31.983  1.00  0.00     0.032 A 
HETATM   11  C   UNL     1      -2.503   5.174 -31.868  1.00  0.00     0.026 A 
BRANCH  10  12
HETATM   12  C   UNL     1      -0.252   5.417 -30.847  1.00  0.00     0.251 C 
HETATM   13  N   UNL     1      -0.603   5.958 -29.626  1.00  0.00    -0.357 N 
HETATM   14  H   UNL     1      -1.358   6.626 -29.575  1.00  0.00     0.162 HD
HETATM   15  O   UNL     1       0.783   4.785 -31.029  1.00  0.00    -0.268 OA
BRANCH  13  16
HETATM   16  C   UNL     1       0.249   5.815 -28.464  1.00  0.00     0.118 C 
HETATM   17  C   UNL     1       0.809   7.150 -28.007  1.00  0.00     0.026 C 
ENDBRANCH  13  16
ENDBRANCH  10  12
ENDBRANCH   5   6
ENDBRANCH   1   5
BRANCH   2  18
HETATM   18  C   UNL     1      -6.129   1.492 -33.797  1.00  0.00     0.032 A 
HETATM   19  C   UNL     1      -7.013   0.974 -34.747  1.00  0.00     0.018 A 
HETATM   20  C   UNL     1      -7.049  -0.398 -34.999  1.00  0.00     0.014 A 
HETATM   21  C   UNL     1      -6.198  -1.278 -34.310  1.00  0.00    -0.017 A 
HETATM   22  C   UNL     1      -5.301  -0.766 -33.349  1.00  0.00    -0.050 A 
HETATM   23  C   UNL     1      -4.354  -1.647 -32.578  1.00  0.00     0.049 C 
HETATM   24  C   UNL     1      -5.266   0.624 -33.115  1.00  0.00     0.024 A 
BRANCH  21  25
HETATM   25  C   UNL     1      -6.264  -2.692 -34.633  1.00  0.00     0.011 A 
HETATM   26  C   UNL     1      -5.372  -3.531 -35.337  1.00  0.00     0.152 A 
HETATM   27  N   UNL     1      -5.811  -4.790 -35.423  1.00  0.00    -0.187 NA
HETATM   28  N   UNL     1      -6.995  -4.755 -34.790  1.00  0.00    -0.289 N 
HETATM   29  H   UNL     1      -7.534  -5.613 -34.730  1.00  0.00     0.188 HD
HETATM   30  C   UNL     1      -7.314  -3.522 -34.301  1.00  0.00     0.123 A 
ENDBRANCH  21  25
ENDBRANCH   2  18
TORSDOF 6
ENDMDL
MODEL 2
REMARK VINA RESULT:      -8.9      1.238      1.955
REMARK  6 active torsions:
REMARK  status: ('A' for Active; 'I' for Inactive)
REMARK    1  A    between atoms: C_2  and  N_3 
REMARK       I    between atoms: N_3  and  C_4 
REMARK    2  A    between atoms: C_4  and  C_6 
REMARK    3  A    between atoms: C_10  and  C_11 
REMARK    4  A    between atoms: C_11  and  N_12 
REMARK       I    between atoms: N_12  and  C_13 
REMARK    5  A    between atoms: C_13  and  C_15 
REMARK    6  A    between atoms: C_18  and  C_22 
ROOT
HETATM    1  N   UNL     1      -4.858   3.080 -32.993  1.00  0.00    -0.353 N 
HETATM    2  C   UNL     1      -4.633   2.034 -32.127  1.00  0.00     0.251 C 
HETATM    3  O   UNL     1      -4.326   2.183 -30.950  1.00  0.00    -0.268 OA
HETATM    4  H   UNL     1      -5.027   2.910 -33.973  1.00  0.00     0.163 HD
ENDROOT
BRANCH   1   5
HETATM    5  C   UNL     1      -4.748   4.459 -32.569  1.00  0.00     0.161 C 
BRANCH   5   6
HETATM    6  C   UNL     1      -3.350   4.985 -32.773  1.00  0.00    -0.040 A 
HETATM    7  C   UNL     1      -2.997   5.612 -33.977  1.00  0.00     0.009 A 
HETATM    8  C   UNL     1      -1.720   6.145 -34.155  1.00  0.00     0.002 A 
HETATM    9  C   UNL     1      -0.776   6.061 -33.129  1.00  0.00     0.017 A 
HETATM   10  C   UNL     1      -1.105   5.429 -31.924  1.00  0.00     0.032 A 
HETATM   11  C   UNL     1      -2.394   4.901 -31.751  1.00  0.00     0.026 A 
BRANCH  10  12
HETATM   12  C   UNL     1      -0.148   5.335 -30.783  1.00  0.00     0.251 C 
HETATM   13  N   UNL     1      -0.562   5.867 -29.578  1.00  0.00    -0.357 N 
HETATM   14  H   UNL     1      -1.391   6.443 -29.545  1.00  0.00     0.162 HD
HETATM   15  O   UNL     1       0.954   4.824 -30.948  1.00  0.00    -0.268 OA
BRANCH  13  16
HETATM   16  C   UNL     1       0.298   5.858 -28.412  1.00  0.00     0.118 C 
HETATM   17  C   UNL     1       0.844   7.240 -28.104  1.00  0.00     0.026 C 
ENDBRANCH  13  16
ENDBRANCH  10  12
ENDBRANCH   5   6
ENDBRANCH   1   5
BRANCH   2  18
HETATM   18  C   UNL     1      -4.749   0.660 -32.690  1.00  0.00     0.032 A 
HETATM   19  C   UNL     1      -3.764  -0.272 -32.357  1.00  0.00     0.018 A 
HETATM   20  C   UNL     1      -3.834  -1.575 -32.853  1.00  0.00     0.014 A 
HETATM   21  C   UNL     1      -4.893  -1.972 -33.686  1.00  0.00    -0.017 A 
HETATM   22  C   UNL     1      -5.893  -1.037 -34.029  1.00  0.00    -0.050 A 
HETATM   23  C   UNL     1      -7.062  -1.391 -34.910  1.00  0.00     0.049 C 
HETATM   24  C   UNL     1      -5.817   0.272 -33.510  1.00  0.00     0.024 A 
BRANCH  21  25
HETATM   25  C   UNL     1      -4.925  -3.346 -34.151  1.00  0.00     0.011 A 
HETATM   26  C   UNL     1      -5.902  -4.063 -34.876  1.00  0.00     0.152 A 
HETATM   27  N   UNL     1      -5.546  -5.331 -35.103  1.00  0.00    -0.187 NA
HETATM   28  N   UNL     1      -4.346  -5.433 -34.507  1.00  0.00    -0.289 N 
HETATM   29  H   UNL     1      -3.868  -6.327 -34.540  1.00  0.00     0.188 HD
HETATM   30  C   UNL     1      -3.931  -4.273 -33.920  1.00  0.00     0.123 A 
ENDBRANCH  21  25
ENDBRANCH   2  18
TORSDOF 6
ENDMDL
MODEL 3
REMARK VINA RESULT:      -8.6      4.714      8.082
REMARK  6 active torsions:
REMARK  status: ('A' for Active; 'I' for Inactive)
REMARK    1  A    between atoms: C_2  and  N_3 
REMARK       I    between atoms: N_3  and  C_4 
REMARK    2  A    between atoms: C_4  and  C_6 
REMARK    3  A    between atoms: C_10  and  C_11 
REMARK    4  A    between atoms: C_11  and  N_12 
REMARK       I    between atoms: N_12  and  C_13 
REMARK    5  A    between atoms: C_13  and  C_15 
REMARK    6  A    between atoms: C_18  and  C_22 
ROOT
HETATM    1  N   UNL     1      -8.054   3.262 -33.867  1.00  0.00    -0.353 N 
HETATM    2  C   UNL     1      -6.728   2.903 -33.951  1.00  0.00     0.251 C 
HETATM    3  O   UNL     1      -5.809   3.712 -34.003  1.00  0.00    -0.268 OA
HETATM    4  H   UNL     1      -8.781   2.564 -33.911  1.00  0.00     0.163 HD
ENDROOT
BRANCH   1   5
HETATM    5  C   UNL     1      -8.468   4.648 -33.831  1.00  0.00     0.161 C 
BRANCH   5   6
HETATM    6  C   UNL     1      -9.877   4.813 -34.342  1.00  0.00    -0.040 A 
HETATM    7  C   UNL     1     -10.353   6.080 -34.712  1.00  0.00     0.009 A 
HETATM    8  C   UNL     1     -11.639   6.233 -35.231  1.00  0.00     0.002 A 
HETATM    9  C   UNL     1     -12.468   5.121 -35.390  1.00  0.00     0.017 A 
HETATM   10  C   UNL     1     -12.015   3.850 -35.016  1.00  0.00     0.032 A 
HETATM   11  C   UNL     1     -10.718   3.703 -34.500  1.00  0.00     0.026 A 
BRANCH  10  12
HETATM   12  C   UNL     1     -12.845   2.622 -35.189  1.00  0.00     0.251 C 
HETATM   13  N   UNL     1     -13.767   2.348 -34.199  1.00  0.00    -0.357 N 
HETATM   14  H   UNL     1     -13.734   2.862 -33.330  1.00  0.00     0.162 HD
HETATM   15  O   UNL     1     -12.676   1.901 -36.166  1.00  0.00    -0.268 OA
BRANCH  13  16
HETATM   16  C   UNL     1     -14.604   1.167 -34.250  1.00  0.00     0.118 C 
HETATM   17  C   UNL     1     -13.916  -0.038 -33.635  1.00  0.00     0.026 C 
ENDBRANCH  13  16
ENDBRANCH  10  12
ENDBRANCH   5   6
ENDBRANCH   1   5
BRANCH   2  18
HETATM   18  C   UNL     1      -6.431   1.444 -34.010  1.00  0.00     0.032 A 
HETATM   19  C   UNL     1      -7.026   0.693 -35.026  1.00  0.00     0.018 A 
HETATM   20  C   UNL     1      -6.771  -0.676 -35.129  1.00  0.00     0.014 A 
HETATM   21  C   UNL     1      -5.912  -1.317 -34.221  1.00  0.00    -0.017 A 
HETATM   22  C   UNL     1      -5.306  -0.567 -33.191  1.00  0.00    -0.050 A 
HETATM   23  C   UNL     1      -4.368  -1.184 -32.188  1.00  0.00     0.049 C 
HETATM   24  C   UNL     1      -5.562   0.817 -33.108  1.00  0.00     0.024 A 
BRANCH  21  25
HETATM   25  C   UNL     1      -5.667  -2.737 -34.394  1.00  0.00     0.011 A 
HETATM   26  C   UNL     1      -4.476  -3.493 -34.321  1.00  0.00     0.152 A 
HETATM   27  N   UNL     1      -4.678  -4.794 -34.552  1.00  0.00    -0.187 NA
HETATM   28  N   UNL     1      -5.998  -4.870 -34.791  1.00  0.00    -0.289 N 
HETATM   29  H   UNL     1      -6.397  -5.779 -35.004  1.00  0.00     0.188 HD
HETATM   30  C   UNL     1      -6.635  -3.666 -34.712  1.00  0.00     0.123 A 
ENDBRANCH  21  25
ENDBRANCH   2  18
TORSDOF 6
ENDMDL
MODEL 4
REMARK VINA RESULT:      -8.4     16.579     17.752
REMARK  6 active torsions:
REMARK  status: ('A' for Active; 'I' for Inactive)
REMARK    1  A    between atoms: C_2  and  N_3 
REMARK       I    between atoms: N_3  and  C_4 
REMARK    2  A    between atoms: C_4  and  C_6 
REMARK    3  A    between atoms: C_10  and  C_11 
REMARK    4  A    between atoms: C_11  and  N_12 
REMARK       I    between atoms: N_12  and  C_13 
REMARK    5  A    between atoms: C_13  and  C_15 
REMARK    6  A    between atoms: C_18  and  C_22 
ROOT
HETATM    1  N   UNL     1      -2.700 -13.289 -39.615  1.00  0.00    -0.353 N 
HETATM    2  C   UNL     1      -3.507 -12.359 -38.999  1.00  0.00     0.251 C 
HETATM    3  O   UNL     1      -3.081 -11.461 -38.283  1.00  0.00    -0.268 OA
HETATM    4  H   UNL     1      -3.101 -14.060 -40.127  1.00  0.00     0.163 HD
ENDROOT
BRANCH   1   5
HETATM    5  C   UNL     1      -1.262 -13.273 -39.459  1.00  0.00     0.161 C 
BRANCH   5   6
HETATM    6  C   UNL     1      -0.817 -14.211 -38.366  1.00  0.00    -0.040 A 
HETATM    7  C   UNL     1       0.481 -14.743 -38.371  1.00  0.00     0.009 A 
HETATM    8  C   UNL     1       0.914 -15.573 -37.337  1.00  0.00     0.002 A 
HETATM    9  C   UNL     1       0.057 -15.882 -36.279  1.00  0.00     0.017 A 
HETATM   10  C   UNL     1      -1.246 -15.369 -36.260  1.00  0.00     0.032 A 
HETATM   11  C   UNL     1      -1.673 -14.531 -37.302  1.00  0.00     0.026 A 
BRANCH  10  12
HETATM   12  C   UNL     1      -2.196 -15.641 -35.142  1.00  0.00     0.251 C 
HETATM   13  N   UNL     1      -3.414 -14.992 -35.189  1.00  0.00    -0.357 N 
HETATM   14  H   UNL     1      -3.556 -14.244 -35.851  1.00  0.00     0.162 HD
HETATM   15  O   UNL     1      -1.870 -16.392 -34.230  1.00  0.00    -0.268 OA
BRANCH  13  16
HETATM   16  C   UNL     1      -4.399 -15.158 -34.140  1.00  0.00     0.118 C 
HETATM   17  C   UNL     1      -5.810 -14.929 -34.651  1.00  0.00     0.026 C 
ENDBRANCH  13  16
ENDBRANCH  10  12
ENDBRANCH   5   6
ENDBRANCH   1   5
BRANCH   2  18
HETATM   18  C   UNL     1      -4.974 -12.499 -39.212  1.00  0.00     0.032 A 
HETATM   19  C   UNL     1      -5.482 -12.232 -40.485  1.00  0.00     0.018 A 
HETATM   20  C   UNL     1      -6.850 -12.359 -40.737  1.00  0.00     0.014 A 
HETATM   21  C   UNL     1      -7.733 -12.761 -39.721  1.00  0.00    -0.017 A 
HETATM   22  C   UNL     1      -7.230 -13.033 -38.431  1.00  0.00    -0.050 A 
HETATM   23  C   UNL     1      -8.115 -13.475 -37.296  1.00  0.00     0.049 C 
HETATM   24  C   UNL     1      -5.845 -12.913 -38.195  1.00  0.00     0.024 A 
BRANCH  21  25
HETATM   25  C   UNL     1      -9.140 -12.898 -40.049  1.00  0.00     0.011 A 
HETATM   26  C   UNL     1      -9.943 -14.043 -40.254  1.00  0.00     0.152 A 
HETATM   27  N   UNL     1     -11.209 -13.736 -40.549  1.00  0.00    -0.187 NA
HETATM   28  N   UNL     1     -11.215 -12.392 -40.551  1.00  0.00    -0.289 N 
HETATM   29  H   UNL     1     -12.087 -11.916 -40.761  1.00  0.00     0.188 HD
HETATM   30  C   UNL     1     -10.001 -11.842 -40.261  1.00  0.00     0.123 A 
ENDBRANCH  21  25
ENDBRANCH   2  18
TORSDOF 6
ENDMDL
MODEL 5
REMARK VINA RESULT:      -8.3     16.342     18.898
REMARK  6 active torsions:
REMARK  status: ('A' for Active; 'I' for Inactive)
REMARK    1  A    between atoms: C_2  and  N_3 
REMARK       I    between atoms: N_3  and  C_4 
REMARK    2  A    between atoms: C_4  and  C_6 
REMARK    3  A    between atoms: C_10  and  C_11 
REMARK    4  A    between atoms: C_11  and  N_12 
REMARK       I    between atoms: N_12  and  C_13 
REMARK    5  A    between atoms: C_13  and  C_15 
REMARK    6  A    between atoms: C_18  and  C_22 
ROOT
HETATM    1  N   UNL     1      -2.998 -12.589 -39.329  1.00  0.00    -0.353 N 
HETATM    2  C   UNL     1      -3.933 -12.359 -38.344  1.00  0.00     0.251 C 
HETATM    3  O   UNL     1      -3.643 -12.055 -37.193  1.00  0.00    -0.268 OA
HETATM    4  H   UNL     1      -3.280 -12.918 -40.239  1.00  0.00     0.163 HD
ENDROOT
BRANCH   1   5
HETATM    5  C   UNL     1      -1.578 -12.484 -39.071  1.00  0.00     0.161 C 
BRANCH   5   6
HETATM    6  C   UNL     1      -0.875 -13.791 -39.336  1.00  0.00    -0.040 A 
HETATM    7  C   UNL     1       0.213 -14.185 -38.543  1.00  0.00     0.009 A 
HETATM    8  C   UNL     1       0.838 -15.415 -38.752  1.00  0.00     0.002 A 
HETATM    9  C   UNL     1       0.382 -16.272 -39.756  1.00  0.00     0.017 A 
HETATM   10  C   UNL     1      -0.695 -15.892 -40.566  1.00  0.00     0.032 A 
HETATM   11  C   UNL     1      -1.322 -14.656 -40.346  1.00  0.00     0.026 A 
BRANCH  10  12
HETATM   12  C   UNL     1      -1.243 -16.778 -41.633  1.00  0.00     0.251 C 
HETATM   13  N   UNL     1      -2.224 -16.242 -42.444  1.00  0.00    -0.357 N 
HETATM   14  H   UNL     1      -2.657 -15.366 -42.192  1.00  0.00     0.162 HD
HETATM   15  O   UNL     1      -0.836 -17.929 -41.744  1.00  0.00    -0.268 OA
BRANCH  13  16
HETATM   16  C   UNL     1      -2.848 -17.023 -43.493  1.00  0.00     0.118 C 
HETATM   17  C   UNL     1      -3.053 -16.208 -44.756  1.00  0.00     0.026 C 
ENDBRANCH  13  16
ENDBRANCH  10  12
ENDBRANCH   5   6
ENDBRANCH   1   5
BRANCH   2  18
HETATM   18  C   UNL     1      -5.363 -12.528 -38.726  1.00  0.00     0.032 A 
HETATM   19  C   UNL     1      -5.749 -12.149 -40.013  1.00  0.00     0.018 A 
HETATM   20  C   UNL     1      -7.076 -12.296 -40.420  1.00  0.00     0.014 A 
HETATM   21  C   UNL     1      -8.040 -12.831 -39.549  1.00  0.00    -0.017 A 
HETATM   22  C   UNL     1      -7.660 -13.218 -38.247  1.00  0.00    -0.050 A 
HETATM   23  C   UNL     1      -8.635 -13.805 -37.262  1.00  0.00     0.049 C 
HETATM   24  C   UNL     1      -6.313 -13.075 -37.854  1.00  0.00     0.024 A 
BRANCH  21  25
HETATM   25  C   UNL     1      -9.399 -12.983 -40.037  1.00  0.00     0.011 A 
HETATM   26  C   UNL     1     -10.128 -14.129 -40.426  1.00  0.00     0.152 A 
HETATM   27  N   UNL     1     -11.368 -13.837 -40.828  1.00  0.00    -0.187 NA
HETATM   28  N   UNL     1     -11.429 -12.499 -40.715  1.00  0.00    -0.289 N 
HETATM   29  H   UNL     1     -12.293 -12.034 -40.976  1.00  0.00     0.188 HD
HETATM   30  C   UNL     1     -10.275 -11.940 -40.249  1.00  0.00     0.123 A 
ENDBRANCH  21  25
ENDBRANCH   2  18
TORSDOF 6
ENDMDL
MODEL 6
REMARK VINA RESULT:      -8.1      2.320     10.419
REMARK  6 active torsions:
REMARK  status: ('A' for Active; 'I' for Inactive)
REMARK    1  A    between atoms: C_2  and  N_3 
REMARK       I    between atoms: N_3  and  C_4 
REMARK    2  A    between atoms: C_4  and  C_6 
REMARK    3  A    between atoms: C_10  and  C_11 
REMARK    4  A    between atoms: C_11  and  N_12 
REMARK       I    between atoms: N_12  and  C_13 
REMARK    5  A    between atoms: C_13  and  C_15 
REMARK    6  A    between atoms: C_18  and  C_22 
ROOT
HETATM    1  N   UNL     1      -3.705   4.109 -31.436  1.00  0.00    -0.353 N 
HETATM    2  C   UNL     1      -2.612   4.824 -31.871  1.00  0.00     0.251 C 
HETATM    3  O   UNL     1      -2.268   4.886 -33.046  1.00  0.00    -0.268 OA
HETATM    4  H   UNL     1      -3.901   4.018 -30.450  1.00  0.00     0.163 HD
ENDROOT
BRANCH   1   5
HETATM    5  C   UNL     1      -4.544   3.366 -32.350  1.00  0.00     0.161 C 
BRANCH   5   6
HETATM    6  C   UNL     1      -4.268   1.886 -32.270  1.00  0.00    -0.040 A 
HETATM    7  C   UNL     1      -3.429   1.375 -31.269  1.00  0.00     0.009 A 
HETATM    8  C   UNL     1      -3.208   0.001 -31.158  1.00  0.00     0.002 A 
HETATM    9  C   UNL     1      -3.825  -0.882 -32.046  1.00  0.00     0.017 A 
HETATM   10  C   UNL     1      -4.657  -0.390 -33.059  1.00  0.00     0.032 A 
HETATM   11  C   UNL     1      -4.879   0.992 -33.160  1.00  0.00     0.026 A 
BRANCH  10  12
HETATM   12  C   UNL     1      -5.366  -1.288 -34.018  1.00  0.00     0.251 C 
HETATM   13  N   UNL     1      -4.860  -2.564 -34.167  1.00  0.00    -0.357 N 
HETATM   14  H   UNL     1      -3.956  -2.790 -33.779  1.00  0.00     0.162 HD
HETATM   15  O   UNL     1      -6.335  -0.872 -34.644  1.00  0.00    -0.268 OA
BRANCH  13  16
HETATM   16  C   UNL     1      -5.452  -3.507 -35.093  1.00  0.00     0.118 C 
HETATM   17  C   UNL     1      -6.785  -4.030 -34.590  1.00  0.00     0.026 C 
ENDBRANCH  13  16
ENDBRANCH  10  12
ENDBRANCH   5   6
ENDBRANCH   1   5
BRANCH   2  18
HETATM   18  C   UNL     1      -1.809   5.522 -30.829  1.00  0.00     0.032 A 
HETATM   19  C   UNL     1      -0.501   5.089 -30.607  1.00  0.00     0.018 A 
HETATM   20  C   UNL     1       0.295   5.718 -29.648  1.00  0.00     0.014 A 
HETATM   21  C   UNL     1      -0.203   6.796 -28.897  1.00  0.00    -0.017 A 
HETATM   22  C   UNL     1      -1.524   7.242 -29.114  1.00  0.00    -0.050 A 
HETATM   23  C   UNL     1      -2.122   8.396 -28.353  1.00  0.00     0.049 C 
HETATM   24  C   UNL     1      -2.311   6.605 -30.095  1.00  0.00     0.024 A 
BRANCH  21  25
HETATM   25  C   UNL     1       0.679   7.426 -27.931  1.00  0.00     0.011 A 
HETATM   26  C   UNL     1       0.964   7.110 -26.584  1.00  0.00     0.152 A 
HETATM   27  N   UNL     1       1.841   7.954 -26.033  1.00  0.00    -0.187 NA
HETATM   28  N   UNL     1       2.105   8.824 -27.022  1.00  0.00    -0.289 N 
HETATM   29  H   UNL     1       2.756   9.580 -26.836  1.00  0.00     0.188 HD
HETATM   30  C   UNL     1       1.433   8.553 -28.178  1.00  0.00     0.123 A 
ENDBRANCH  21  25
ENDBRANCH   2  18
TORSDOF 6
ENDMDL
MODEL 7
REMARK VINA RESULT:      -8.1      6.371     10.065
REMARK  6 active torsions:
REMARK  status: ('A' for Active; 'I' for Inactive)
REMARK    1  A    between atoms: C_2  and  N_3 
REMARK       I    between atoms: N_3  and  C_4 
REMARK    2  A    between atoms: C_4  and  C_6 
REMARK    3  A    between atoms: C_10  and  C_11 
REMARK    4  A    between atoms: C_11  and  N_12 
REMARK       I    between atoms: N_12  and  C_13 
REMARK    5  A    between atoms: C_13  and  C_15 
REMARK    6  A    between atoms: C_18  and  C_22 
ROOT
HETATM    1  N   UNL     1     -10.621   1.924 -32.912  1.00  0.00    -0.353 N 
HETATM    2  C   UNL     1      -9.482   2.151 -33.651  1.00  0.00     0.251 C 
HETATM    3  O   UNL     1      -9.266   3.192 -34.261  1.00  0.00    -0.268 OA
HETATM    4  H   UNL     1     -10.793   1.021 -32.496  1.00  0.00     0.163 HD
ENDROOT
BRANCH   1   5
HETATM    5  C   UNL     1     -11.666   2.917 -32.797  1.00  0.00     0.161 C 
BRANCH   5   6
HETATM    6  C   UNL     1     -13.014   2.337 -33.141  1.00  0.00    -0.040 A 
HETATM    7  C   UNL     1     -13.114   1.238 -34.007  1.00  0.00     0.009 A 
HETATM    8  C   UNL     1     -14.354   0.665 -34.290  1.00  0.00     0.002 A 
HETATM    9  C   UNL     1     -15.515   1.181 -33.710  1.00  0.00     0.017 A 
HETATM   10  C   UNL     1     -15.437   2.285 -32.852  1.00  0.00     0.032 A 
HETATM   11  C   UNL     1     -14.185   2.852 -32.567  1.00  0.00     0.026 A 
BRANCH  10  12
HETATM   12  C   UNL     1     -16.639   2.861 -32.180  1.00  0.00     0.251 C 
HETATM   13  N   UNL     1     -16.805   4.229 -32.267  1.00  0.00    -0.357 N 
HETATM   14  H   UNL     1     -16.049   4.803 -32.611  1.00  0.00     0.162 HD
HETATM   15  O   UNL     1     -17.410   2.129 -31.569  1.00  0.00    -0.268 OA
BRANCH  13  16
HETATM   16  C   UNL     1     -17.919   4.897 -31.626  1.00  0.00     0.118 C 
HETATM   17  C   UNL     1     -17.453   5.877 -30.565  1.00  0.00     0.026 C 
ENDBRANCH  13  16
ENDBRANCH  10  12
ENDBRANCH   5   6
ENDBRANCH   1   5
BRANCH   2  18
HETATM   18  C   UNL     1      -8.492   1.039 -33.717  1.00  0.00     0.032 A 
HETATM   19  C   UNL     1      -8.380   0.329 -34.914  1.00  0.00     0.018 A 
HETATM   20  C   UNL     1      -7.460  -0.715 -35.027  1.00  0.00     0.014 A 
HETATM   21  C   UNL     1      -6.632  -1.065 -33.947  1.00  0.00    -0.017 A 
HETATM   22  C   UNL     1      -6.739  -0.353 -32.733  1.00  0.00    -0.050 A 
HETATM   23  C   UNL     1      -5.880  -0.666 -31.536  1.00  0.00     0.049 C 
HETATM   24  C   UNL     1      -7.663   0.708 -32.637  1.00  0.00     0.024 A 
BRANCH  21  25
HETATM   25  C   UNL     1      -5.679  -2.143 -34.133  1.00  0.00     0.011 A 
HETATM   26  C   UNL     1      -4.292  -2.217 -33.871  1.00  0.00     0.152 A 
HETATM   27  N   UNL     1      -3.772  -3.405 -34.194  1.00  0.00    -0.187 NA
HETATM   28  N   UNL     1      -4.823  -4.088 -34.680  1.00  0.00    -0.289 N 
HETATM   29  H   UNL     1      -4.670  -5.038 -35.004  1.00  0.00     0.188 HD
HETATM   30  C   UNL     1      -5.987  -3.376 -34.668  1.00  0.00     0.123 A 
ENDBRANCH  21  25
ENDBRANCH   2  18
TORSDOF 6
ENDMDL
MODEL 8
REMARK VINA RESULT:      -8.0     16.219     17.970
REMARK  6 active torsions:
REMARK  status: ('A' for Active; 'I' for Inactive)
REMARK    1  A    between atoms: C_2  and  N_3 
REMARK       I    between atoms: N_3  and  C_4 
REMARK    2  A    between atoms: C_4  and  C_6 
REMARK    3  A    between atoms: C_10  and  C_11 
REMARK    4  A    between atoms: C_11  and  N_12 
REMARK       I    between atoms: N_12  and  C_13 
REMARK    5  A    between atoms: C_13  and  C_15 
REMARK    6  A    between atoms: C_18  and  C_22 
ROOT
HETATM    1  N   UNL     1      -2.993 -12.347 -39.018  1.00  0.00    -0.353 N 
HETATM    2  C   UNL     1      -3.948 -12.412 -38.028  1.00  0.00     0.251 C 
HETATM    3  O   UNL     1      -3.687 -12.370 -36.831  1.00  0.00    -0.268 OA
HETATM    4  H   UNL     1      -3.247 -12.470 -39.986  1.00  0.00     0.163 HD
ENDROOT
BRANCH   1   5
HETATM    5  C   UNL     1      -1.585 -12.218 -38.712  1.00  0.00     0.161 C 
BRANCH   5   6
HETATM    6  C   UNL     1      -0.866 -13.533 -38.876  1.00  0.00    -0.040 A 
HETATM    7  C   UNL     1      -0.521 -13.998 -40.153  1.00  0.00     0.009 A 
HETATM    8  C   UNL     1       0.188 -15.190 -40.309  1.00  0.00     0.002 A 
HETATM    9  C   UNL     1       0.565 -15.934 -39.190  1.00  0.00     0.017 A 
HETATM   10  C   UNL     1       0.219 -15.493 -37.906  1.00  0.00     0.032 A 
HETATM   11  C   UNL     1      -0.488 -14.290 -37.757  1.00  0.00     0.026 A 
BRANCH  10  12
HETATM   12  C   UNL     1       0.620 -16.230 -36.673  1.00  0.00     0.251 C 
HETATM   13  N   UNL     1       1.943 -16.613 -36.577  1.00  0.00    -0.357 N 
HETATM   14  H   UNL     1       2.540 -16.548 -37.388  1.00  0.00     0.162 HD
HETATM   15  O   UNL     1      -0.217 -16.487 -35.814  1.00  0.00    -0.268 OA
BRANCH  13  16
HETATM   16  C   UNL     1       2.433 -17.360 -35.437  1.00  0.00     0.118 C 
HETATM   17  C   UNL     1       2.959 -16.444 -34.347  1.00  0.00     0.026 C 
ENDBRANCH  13  16
ENDBRANCH  10  12
ENDBRANCH   5   6
ENDBRANCH   1   5
BRANCH   2  18
HETATM   18  C   UNL     1      -5.361 -12.574 -38.469  1.00  0.00     0.032 A 
HETATM   19  C   UNL     1      -5.692 -12.188 -39.770  1.00  0.00     0.018 A 
HETATM   20  C   UNL     1      -7.002 -12.329 -40.233  1.00  0.00     0.014 A 
HETATM   21  C   UNL     1      -8.003 -12.865 -39.406  1.00  0.00    -0.017 A 
HETATM   22  C   UNL     1      -7.678 -13.258 -38.090  1.00  0.00    -0.050 A 
HETATM   23  C   UNL     1      -8.696 -13.847 -37.150  1.00  0.00     0.049 C 
HETATM   24  C   UNL     1      -6.349 -13.122 -37.640  1.00  0.00     0.024 A 
BRANCH  21  25
HETATM   25  C   UNL     1      -9.340 -13.009 -39.951  1.00  0.00     0.011 A 
HETATM   26  C   UNL     1     -10.061 -14.153 -40.361  1.00  0.00     0.152 A 
HETATM   27  N   UNL     1     -11.280 -13.854 -40.819  1.00  0.00    -0.187 NA
HETATM   28  N   UNL     1     -11.335 -12.515 -40.719  1.00  0.00    -0.289 N 
HETATM   29  H   UNL     1     -12.183 -12.045 -41.021  1.00  0.00     0.188 HD
HETATM   30  C   UNL     1     -10.198 -11.961 -40.208  1.00  0.00     0.123 A 
ENDBRANCH  21  25
ENDBRANCH   2  18
TORSDOF 6
ENDMDL
MODEL 9
REMARK VINA RESULT:      -7.9     16.540     17.986
REMARK  6 active torsions:
REMARK  status: ('A' for Active; 'I' for Inactive)
REMARK    1  A    between atoms: C_2  and  N_3 
REMARK       I    between atoms: N_3  and  C_4 
REMARK    2  A    between atoms: C_4  and  C_6 
REMARK    3  A    between atoms: C_10  and  C_11 
REMARK    4  A    between atoms: C_11  and  N_12 
REMARK       I    between atoms: N_12  and  C_13 
REMARK    5  A    between atoms: C_13  and  C_15 
REMARK    6  A    between atoms: C_18  and  C_22 
ROOT
HETATM    1  N   UNL     1      -2.880 -13.570 -38.919  1.00  0.00    -0.353 N 
HETATM    2  C   UNL     1      -3.608 -12.409 -38.790  1.00  0.00     0.251 C 
HETATM    3  O   UNL     1      -3.118 -11.336 -38.457  1.00  0.00    -0.268 OA
HETATM    4  H   UNL     1      -3.340 -14.446 -39.114  1.00  0.00     0.163 HD
ENDROOT
BRANCH   1   5
HETATM    5  C   UNL     1      -1.456 -13.610 -38.667  1.00  0.00     0.161 C 
BRANCH   5   6
HETATM    6  C   UNL     1      -1.141 -14.402 -37.424  1.00  0.00    -0.040 A 
HETATM    7  C   UNL     1      -2.113 -14.576 -36.428  1.00  0.00     0.009 A 
HETATM    8  C   UNL     1      -1.844 -15.348 -35.298  1.00  0.00     0.002 A 
HETATM    9  C   UNL     1      -0.598 -15.961 -35.147  1.00  0.00     0.017 A 
HETATM   10  C   UNL     1       0.389 -15.791 -36.125  1.00  0.00     0.032 A 
HETATM   11  C   UNL     1       0.109 -15.017 -37.262  1.00  0.00     0.026 A 
BRANCH  10  12
HETATM   12  C   UNL     1       1.727 -16.445 -36.032  1.00  0.00     0.251 C 
HETATM   13  N   UNL     1       2.159 -16.803 -34.771  1.00  0.00    -0.357 N 
HETATM   14  H   UNL     1       1.664 -16.466 -33.959  1.00  0.00     0.162 HD
HETATM   15  O   UNL     1       2.395 -16.620 -37.046  1.00  0.00    -0.268 OA
BRANCH  13  16
HETATM   16  C   UNL     1       3.455 -17.417 -34.562  1.00  0.00     0.118 C 
HETATM   17  C   UNL     1       4.490 -16.405 -34.104  1.00  0.00     0.026 C 
ENDBRANCH  13  16
ENDBRANCH  10  12
ENDBRANCH   5   6
ENDBRANCH   1   5
BRANCH   2  18
HETATM   18  C   UNL     1      -5.072 -12.502 -39.047  1.00  0.00     0.032 A 
HETATM   19  C   UNL     1      -5.542 -12.136 -40.310  1.00  0.00     0.018 A 
HETATM   20  C   UNL     1      -6.905 -12.216 -40.603  1.00  0.00     0.014 A 
HETATM   21  C   UNL     1      -7.822 -12.670 -39.639  1.00  0.00    -0.017 A 
HETATM   22  C   UNL     1      -7.356 -13.042 -38.360  1.00  0.00    -0.050 A 
HETATM   23  C   UNL     1      -8.278 -13.544 -37.281  1.00  0.00     0.049 C 
HETATM   24  C   UNL     1      -5.975 -12.968 -38.084  1.00  0.00     0.024 A 
BRANCH  21  25
HETATM   25  C   UNL     1      -9.222 -12.754 -40.010  1.00  0.00     0.011 A 
HETATM   26  C   UNL     1     -10.070 -13.867 -40.203  1.00  0.00     0.152 A 
HETATM   27  N   UNL     1     -11.311 -13.513 -40.551  1.00  0.00    -0.187 NA
HETATM   28  N   UNL     1     -11.254 -12.171 -40.598  1.00  0.00    -0.289 N 
HETATM   29  H   UNL     1     -12.095 -11.663 -40.854  1.00  0.00     0.188 HD
HETATM   30  C   UNL     1     -10.025 -11.667 -40.286  1.00  0.00     0.123 A 
ENDBRANCH  21  25
ENDBRANCH   2  18
TORSDOF 6
ENDMDL
MODEL 10
REMARK VINA RESULT:      -7.9     16.442     18.711
REMARK  6 active torsions:
REMARK  status: ('A' for Active; 'I' for Inactive)
REMARK    1  A    between atoms: C_2  and  N_3 
REMARK       I    between atoms: N_3  and  C_4 
REMARK    2  A    between atoms: C_4  and  C_6 
REMARK    3  A    between atoms: C_10  and  C_11 
REMARK    4  A    between atoms: C_11  and  N_12 
REMARK       I    between atoms: N_12  and  C_13 
REMARK    5  A    between atoms: C_13  and  C_15 
REMARK    6  A    between atoms: C_18  and  C_22 
ROOT
HETATM    1  N   UNL     1      -4.780 -12.683 -40.506  1.00  0.00    -0.353 N 
HETATM    2  C   UNL     1      -4.194 -13.650 -41.291  1.00  0.00     0.251 C 
HETATM    3  O   UNL     1      -4.670 -14.042 -42.351  1.00  0.00    -0.268 OA
HETATM    4  H   UNL     1      -4.397 -12.453 -39.602  1.00  0.00     0.163 HD
ENDROOT
BRANCH   1   5
HETATM    5  C   UNL     1      -6.023 -12.046 -40.881  1.00  0.00     0.161 C 
BRANCH   5   6
HETATM    6  C   UNL     1      -7.145 -12.444 -39.955  1.00  0.00    -0.040 A 
HETATM    7  C   UNL     1      -8.479 -12.360 -40.381  1.00  0.00     0.009 A 
HETATM    8  C   UNL     1      -9.519 -12.773 -39.547  1.00  0.00     0.002 A 
HETATM    9  C   UNL     1      -9.241 -13.278 -38.276  1.00  0.00     0.017 A 
HETATM   10  C   UNL     1      -7.917 -13.359 -37.828  1.00  0.00     0.032 A 
HETATM   11  C   UNL     1      -6.875 -12.947 -38.675  1.00  0.00     0.026 A 
BRANCH  10  12
HETATM   12  C   UNL     1      -7.557 -13.917 -36.492  1.00  0.00     0.251 C 
HETATM   13  N   UNL     1      -7.362 -13.009 -35.470  1.00  0.00    -0.357 N 
HETATM   14  H   UNL     1      -7.292 -12.025 -35.683  1.00  0.00     0.162 HD
HETATM   15  O   UNL     1      -7.426 -15.127 -36.348  1.00  0.00    -0.268 OA
BRANCH  13  16
HETATM   16  C   UNL     1      -6.980 -13.438 -34.141  1.00  0.00     0.118 C 
HETATM   17  C   UNL     1      -5.545 -13.063 -33.818  1.00  0.00     0.026 C 
ENDBRANCH  13  16
ENDBRANCH  10  12
ENDBRANCH   5   6
ENDBRANCH   1   5
BRANCH   2  18
HETATM   18  C   UNL     1      -2.931 -14.252 -40.782  1.00  0.00     0.032 A 
HETATM   19  C   UNL     1      -2.275 -15.185 -41.589  1.00  0.00     0.018 A 
HETATM   20  C   UNL     1      -1.083 -15.770 -41.160  1.00  0.00     0.014 A 
HETATM   21  C   UNL     1      -0.521 -15.429 -39.918  1.00  0.00    -0.017 A 
HETATM   22  C   UNL     1      -1.176 -14.489 -39.095  1.00  0.00    -0.050 A 
HETATM   23  C   UNL     1      -0.630 -14.069 -37.756  1.00  0.00     0.049 C 
HETATM   24  C   UNL     1      -2.372 -13.896 -39.548  1.00  0.00     0.024 A 
BRANCH  21  25
HETATM   25  C   UNL     1       0.733 -16.053 -39.537  1.00  0.00     0.011 A 
HETATM   26  C   UNL     1       2.069 -15.607 -39.650  1.00  0.00     0.152 A 
HETATM   27  N   UNL     1       2.948 -16.496 -39.179  1.00  0.00    -0.187 NA
HETATM   28  N   UNL     1       2.177 -17.521 -38.779  1.00  0.00    -0.289 N 
HETATM   29  H   UNL     1       2.631 -18.338 -38.382  1.00  0.00     0.188 HD
HETATM   30  C   UNL     1       0.844 -17.307 -38.974  1.00  0.00     0.123 A 
ENDBRANCH  21  25
ENDBRANCH   2  18
TORSDOF 6
ENDMDL
