MODEL 1
REMARK VINA RESULT:      -8.9      0.000      0.000
REMARK  8 active torsions:
REMARK  status: ('A' for Active; 'I' for Inactive)
REMARK    1  A    between atoms: C_2  and  O_3 
REMARK    2  A    between atoms: O_3  and  C_4 
REMARK    3  A    between atoms: C_4  and  C_5 
REMARK    4  A    between atoms: C_6  and  C_8 
REMARK    5  A    between atoms: C_6  and  O_7 
REMARK    6  A    between atoms: C_16  and  C_17 
REMARK    7  A    between atoms: C_18  and  C_19 
REMARK    8  A    between atoms: N_26  and  C_27 
ROOT
HETATM    1  C   UNL     1      -3.186   6.200 -32.279  1.00  0.00     0.177 C 
HETATM    2  C   UNL     1      -1.975   6.302 -33.220  1.00  0.00     0.250 C 
HETATM    3  N   UNL     1      -0.776   6.236 -32.392  1.00  0.00    -0.303 N 
HETATM    4  C   UNL     1      -0.594   5.187 -31.552  1.00  0.00     0.319 C 
HETATM    5  O   UNL     1       0.519   4.862 -31.164  1.00  0.00    -0.247 OA
HETATM    6  N   UNL     1      -1.711   4.514 -31.195  1.00  0.00    -0.333 N 
HETATM    7  C   UNL     1      -3.074   4.997 -31.334  1.00  0.00     0.142 C 
HETATM    8  H   UNL     1       0.097   6.552 -32.802  1.00  0.00     0.167 HD
HETATM    9  H   UNL     1      -1.533   3.738 -30.567  1.00  0.00     0.165 HD
ENDROOT
BRANCH   7  10
HETATM   10  C   UNL     1      -3.947   3.795 -31.567  1.00  0.00     0.015 A 
HETATM   11  C   UNL     1      -5.265   3.553 -31.054  1.00  0.00     0.097 A 
HETATM   12  N   UNL     1      -5.753   2.388 -31.498  1.00  0.00    -0.167 NA
HETATM   13  N   UNL     1      -4.795   1.856 -32.284  1.00  0.00    -0.244 N 
HETATM   14  C   UNL     1      -3.692   2.677 -32.339  1.00  0.00     0.130 A 
BRANCH  11  15
HETATM   15  C   UNL     1      -6.093   4.381 -30.171  1.00  0.00    -0.005 A 
HETATM   16  C   UNL     1      -7.417   4.670 -30.537  1.00  0.00     0.014 A 
HETATM   17  C   UNL     1      -8.235   5.443 -29.710  1.00  0.00     0.001 A 
HETATM   18  C   UNL     1      -7.737   5.936 -28.507  1.00  0.00     0.000 A 
HETATM   19  C   UNL     1      -6.429   5.646 -28.124  1.00  0.00     0.001 A 
HETATM   20  C   UNL     1      -5.613   4.864 -28.947  1.00  0.00     0.014 A 
ENDBRANCH  11  15
BRANCH  13  21
HETATM   21  C   UNL     1      -4.993   0.606 -32.935  1.00  0.00     0.058 A 
HETATM   22  C   UNL     1      -6.165   0.396 -33.680  1.00  0.00     0.031 A 
HETATM   23  C   UNL     1      -6.379  -0.821 -34.331  1.00  0.00     0.002 A 
HETATM   24  C   UNL     1      -5.429  -1.835 -34.245  1.00  0.00     0.000 A 
HETATM   25  C   UNL     1      -4.263  -1.637 -33.506  1.00  0.00     0.002 A 
HETATM   26  C   UNL     1      -4.042  -0.421 -32.852  1.00  0.00     0.031 A 
ENDBRANCH  13  21
ENDBRANCH   7  10
BRANCH   1  27
HETATM   27  C   UNL     1      -4.570   6.382 -32.861  1.00  0.00     0.270 C 
HETATM   28  O   UNL     1      -4.938   5.818 -33.884  1.00  0.00    -0.265 OA
BRANCH  27  29
HETATM   29  O   UNL     1      -5.378   7.127 -32.072  1.00  0.00    -0.321 OA
BRANCH  29  30
HETATM   30  C   UNL     1      -4.735   8.093 -31.227  1.00  0.00     0.174 C 
HETATM   31  C   UNL     1      -5.717   8.646 -30.211  1.00  0.00     0.034 C 
ENDBRANCH  29  30
ENDBRANCH  27  29
ENDBRANCH   1  27
BRANCH   2  32
HETATM   32  C   UNL     1      -1.922   5.242 -34.385  1.00  0.00     0.439 C 
HETATM   33  F   UNL     1      -2.104   3.969 -33.977  1.00  0.00    -0.166 F 
HETATM   34  F   UNL     1      -2.882   5.507 -35.310  1.00  0.00    -0.166 F 
HETATM   35  F   UNL     1      -0.747   5.270 -35.055  1.00  0.00    -0.166 F 
ENDBRANCH   2  32
BRANCH   2  36
HETATM   36  O   UNL     1      -1.897   7.639 -33.733  1.00  0.00    -0.363 OA
HETATM   37  H   UNL     1      -1.924   7.554 -34.701  1.00  0.00     0.213 HD
ENDBRANCH   2  36
TORSDOF 8
ENDMDL
MODEL 2
REMARK VINA RESULT:      -8.5      3.936      6.907
REMARK  8 active torsions:
REMARK  status: ('A' for Active; 'I' for Inactive)
REMARK    1  A    between atoms: C_2  and  O_3 
REMARK    2  A    between atoms: O_3  and  C_4 
REMARK    3  A    between atoms: C_4  and  C_5 
REMARK    4  A    between atoms: C_6  and  C_8 
REMARK    5  A    between atoms: C_6  and  O_7 
REMARK    6  A    between atoms: C_16  and  C_17 
REMARK    7  A    between atoms: C_18  and  C_19 
REMARK    8  A    between atoms: N_26  and  C_27 
ROOT
HETATM    1  C   UNL     1      -5.270   2.228 -32.045  1.00  0.00     0.177 C 
HETATM    2  C   UNL     1      -5.216   3.687 -31.569  1.00  0.00     0.250 C 
HETATM    3  N   UNL     1      -4.608   4.472 -32.638  1.00  0.00    -0.303 N 
HETATM    4  C   UNL     1      -5.141   4.435 -33.886  1.00  0.00     0.319 C 
HETATM    5  O   UNL     1      -4.959   5.340 -34.687  1.00  0.00    -0.247 OA
HETATM    6  N   UNL     1      -5.900   3.354 -34.174  1.00  0.00    -0.333 N 
HETATM    7  C   UNL     1      -5.914   2.105 -33.432  1.00  0.00     0.142 C 
HETATM    8  H   UNL     1      -4.251   5.391 -32.404  1.00  0.00     0.167 HD
HETATM    9  H   UNL     1      -6.279   3.364 -35.115  1.00  0.00     0.165 HD
ENDROOT
BRANCH   7  10
HETATM   10  C   UNL     1      -7.302   1.537 -33.550  1.00  0.00     0.015 A 
HETATM   11  C   UNL     1      -7.676   0.181 -33.832  1.00  0.00     0.097 A 
HETATM   12  N   UNL     1      -9.007   0.033 -33.828  1.00  0.00    -0.167 NA
HETATM   13  N   UNL     1      -9.518   1.251 -33.557  1.00  0.00    -0.244 N 
HETATM   14  C   UNL     1      -8.516   2.180 -33.392  1.00  0.00     0.130 A 
BRANCH  11  15
HETATM   15  C   UNL     1      -6.832  -0.989 -34.091  1.00  0.00    -0.005 A 
HETATM   16  C   UNL     1      -7.432  -2.221 -34.394  1.00  0.00     0.014 A 
HETATM   17  C   UNL     1      -6.654  -3.349 -34.660  1.00  0.00     0.001 A 
HETATM   18  C   UNL     1      -5.264  -3.258 -34.627  1.00  0.00     0.000 A 
HETATM   19  C   UNL     1      -4.654  -2.039 -34.341  1.00  0.00     0.001 A 
HETATM   20  C   UNL     1      -5.433  -0.906 -34.084  1.00  0.00     0.014 A 
ENDBRANCH  11  15
BRANCH  13  21
HETATM   21  C   UNL     1     -10.925   1.451 -33.465  1.00  0.00     0.058 A 
HETATM   22  C   UNL     1     -11.420   2.732 -33.174  1.00  0.00     0.031 A 
HETATM   23  C   UNL     1     -12.796   2.953 -33.084  1.00  0.00     0.002 A 
HETATM   24  C   UNL     1     -13.686   1.901 -33.282  1.00  0.00     0.000 A 
HETATM   25  C   UNL     1     -13.204   0.625 -33.569  1.00  0.00     0.002 A 
HETATM   26  C   UNL     1     -11.827   0.396 -33.662  1.00  0.00     0.031 A 
ENDBRANCH  13  21
ENDBRANCH   7  10
BRANCH   1  27
HETATM   27  C   UNL     1      -5.730   1.167 -31.072  1.00  0.00     0.270 C 
HETATM   28  O   UNL     1      -6.833   1.189 -30.539  1.00  0.00    -0.265 OA
BRANCH  27  29
HETATM   29  O   UNL     1      -4.851   0.146 -30.952  1.00  0.00    -0.321 OA
BRANCH  29  30
HETATM   30  C   UNL     1      -3.465   0.468 -31.150  1.00  0.00     0.174 C 
HETATM   31  C   UNL     1      -2.696  -0.759 -31.605  1.00  0.00     0.034 C 
ENDBRANCH  29  30
ENDBRANCH  27  29
ENDBRANCH   1  27
BRANCH   2  32
HETATM   32  C   UNL     1      -6.590   4.312 -31.115  1.00  0.00     0.439 C 
HETATM   33  F   UNL     1      -7.662   3.798 -31.753  1.00  0.00    -0.166 F 
HETATM   34  F   UNL     1      -6.784   4.114 -29.784  1.00  0.00    -0.166 F 
HETATM   35  F   UNL     1      -6.635   5.652 -31.299  1.00  0.00    -0.166 F 
ENDBRANCH   2  32
BRANCH   2  36
HETATM   36  O   UNL     1      -4.229   3.801 -30.534  1.00  0.00    -0.363 OA
HETATM   37  H   UNL     1      -4.399   4.653 -30.097  1.00  0.00     0.213 HD
ENDBRANCH   2  36
TORSDOF 8
ENDMDL
MODEL 3
REMARK VINA RESULT:      -8.2      3.910      6.492
REMARK  8 active torsions:
REMARK  status: ('A' for Active; 'I' for Inactive)
REMARK    1  A    between atoms: C_2  and  O_3 
REMARK    2  A    between atoms: O_3  and  C_4 
REMARK    3  A    between atoms: C_4  and  C_5 
REMARK    4  A    between atoms: C_6  and  C_8 
REMARK    5  A    between atoms: C_6  and  O_7 
REMARK    6  A    between atoms: C_16  and  C_17 
REMARK    7  A    between atoms: C_18  and  C_19 
REMARK    8  A    between atoms: N_26  and  C_27 
ROOT
HETATM    1  C   UNL     1      -5.959   3.757 -31.956  1.00  0.00     0.177 C 
HETATM    2  C   UNL     1      -5.963   5.265 -32.248  1.00  0.00     0.250 C 
HETATM    3  N   UNL     1      -4.914   5.521 -33.229  1.00  0.00    -0.303 N 
HETATM    4  C   UNL     1      -4.913   4.844 -34.405  1.00  0.00     0.319 C 
HETATM    5  O   UNL     1      -4.348   5.283 -35.396  1.00  0.00    -0.247 OA
HETATM    6  N   UNL     1      -5.593   3.675 -34.416  1.00  0.00    -0.333 N 
HETATM    7  C   UNL     1      -6.013   2.927 -33.244  1.00  0.00     0.142 C 
HETATM    8  H   UNL     1      -4.595   6.477 -33.339  1.00  0.00     0.167 HD
HETATM    9  H   UNL     1      -5.568   3.201 -35.312  1.00  0.00     0.165 HD
ENDROOT
BRANCH   7  10
HETATM   10  C   UNL     1      -7.288   2.216 -33.608  1.00  0.00     0.015 A 
HETATM   11  C   UNL     1      -7.462   0.826 -33.918  1.00  0.00     0.097 A 
HETATM   12  N   UNL     1      -8.747   0.540 -34.163  1.00  0.00    -0.167 NA
HETATM   13  N   UNL     1      -9.422   1.700 -34.028  1.00  0.00    -0.244 N 
HETATM   14  C   UNL     1      -8.569   2.730 -33.702  1.00  0.00     0.130 A 
BRANCH  11  15
HETATM   15  C   UNL     1      -6.470  -0.251 -33.980  1.00  0.00    -0.005 A 
HETATM   16  C   UNL     1      -6.778  -1.435 -34.669  1.00  0.00     0.014 A 
HETATM   17  C   UNL     1      -5.847  -2.472 -34.758  1.00  0.00     0.001 A 
HETATM   18  C   UNL     1      -4.597  -2.338 -34.159  1.00  0.00     0.000 A 
HETATM   19  C   UNL     1      -4.273  -1.163 -33.483  1.00  0.00     0.001 A 
HETATM   20  C   UNL     1      -5.200  -0.120 -33.402  1.00  0.00     0.014 A 
ENDBRANCH  11  15
BRANCH  13  21
HETATM   21  C   UNL     1     -10.833   1.753 -34.211  1.00  0.00     0.058 A 
HETATM   22  C   UNL     1     -11.638   0.753 -33.642  1.00  0.00     0.031 A 
HETATM   23  C   UNL     1     -13.025   0.787 -33.805  1.00  0.00     0.002 A 
HETATM   24  C   UNL     1     -13.617   1.814 -34.535  1.00  0.00     0.000 A 
HETATM   25  C   UNL     1     -12.825   2.809 -35.106  1.00  0.00     0.002 A 
HETATM   26  C   UNL     1     -11.436   2.783 -34.946  1.00  0.00     0.031 A 
ENDBRANCH  13  21
ENDBRANCH   7  10
BRANCH   1  27
HETATM   27  C   UNL     1      -6.861   3.231 -30.862  1.00  0.00     0.270 C 
HETATM   28  O   UNL     1      -7.541   3.963 -30.154  1.00  0.00    -0.265 OA
BRANCH  27  29
HETATM   29  O   UNL     1      -6.924   1.879 -30.836  1.00  0.00    -0.321 OA
BRANCH  29  30
HETATM   30  C   UNL     1      -6.026   1.214 -29.935  1.00  0.00     0.174 C 
HETATM   31  C   UNL     1      -6.210  -0.290 -30.017  1.00  0.00     0.034 C 
ENDBRANCH  29  30
ENDBRANCH  27  29
ENDBRANCH   1  27
BRANCH   2  32
HETATM   32  C   UNL     1      -7.342   5.868 -32.718  1.00  0.00     0.439 C 
HETATM   33  F   UNL     1      -8.401   5.436 -32.003  1.00  0.00    -0.166 F 
HETATM   34  F   UNL     1      -7.322   7.224 -32.624  1.00  0.00    -0.166 F 
HETATM   35  F   UNL     1      -7.611   5.593 -34.015  1.00  0.00    -0.166 F 
ENDBRANCH   2  32
BRANCH   2  36
HETATM   36  O   UNL     1      -5.459   5.961 -31.100  1.00  0.00    -0.363 OA
HETATM   37  H   UNL     1      -6.176   5.949 -30.444  1.00  0.00     0.213 HD
ENDBRANCH   2  36
TORSDOF 8
ENDMDL
MODEL 4
REMARK VINA RESULT:      -8.1      4.610      6.893
REMARK  8 active torsions:
REMARK  status: ('A' for Active; 'I' for Inactive)
REMARK    1  A    between atoms: C_2  and  O_3 
REMARK    2  A    between atoms: O_3  and  C_4 
REMARK    3  A    between atoms: C_4  and  C_5 
REMARK    4  A    between atoms: C_6  and  C_8 
REMARK    5  A    between atoms: C_6  and  O_7 
REMARK    6  A    between atoms: C_16  and  C_17 
REMARK    7  A    between atoms: C_18  and  C_19 
REMARK    8  A    between atoms: N_26  and  C_27 
ROOT
HETATM    1  C   UNL     1      -9.720   2.968 -32.393  1.00  0.00     0.177 C 
HETATM    2  C   UNL     1     -11.097   2.547 -32.931  1.00  0.00     0.250 C 
HETATM    3  N   UNL     1     -11.434   3.454 -34.022  1.00  0.00    -0.303 N 
HETATM    4  C   UNL     1     -10.578   3.599 -35.066  1.00  0.00     0.319 C 
HETATM    5  O   UNL     1     -10.962   3.990 -36.158  1.00  0.00    -0.247 OA
HETATM    6  N   UNL     1      -9.292   3.259 -34.828  1.00  0.00    -0.333 N 
HETATM    7  C   UNL     1      -8.685   3.097 -33.518  1.00  0.00     0.142 C 
HETATM    8  H   UNL     1     -12.403   3.499 -34.315  1.00  0.00     0.167 HD
HETATM    9  H   UNL     1      -8.685   3.382 -35.632  1.00  0.00     0.165 HD
ENDROOT
BRANCH   7  10
HETATM   10  C   UNL     1      -7.614   2.049 -33.654  1.00  0.00     0.015 A 
HETATM   11  C   UNL     1      -6.205   2.198 -33.424  1.00  0.00     0.097 A 
HETATM   12  N   UNL     1      -5.558   1.041 -33.611  1.00  0.00    -0.167 NA
HETATM   13  N   UNL     1      -6.497   0.139 -33.962  1.00  0.00    -0.244 N 
HETATM   14  C   UNL     1      -7.745   0.718 -34.004  1.00  0.00     0.130 A 
BRANCH  11  15
HETATM   15  C   UNL     1      -5.442   3.382 -33.020  1.00  0.00    -0.005 A 
HETATM   16  C   UNL     1      -5.552   4.564 -33.770  1.00  0.00     0.014 A 
HETATM   17  C   UNL     1      -4.849   5.713 -33.400  1.00  0.00     0.001 A 
HETATM   18  C   UNL     1      -4.027   5.693 -32.276  1.00  0.00     0.000 A 
HETATM   19  C   UNL     1      -3.918   4.531 -31.515  1.00  0.00     0.001 A 
HETATM   20  C   UNL     1      -4.629   3.383 -31.878  1.00  0.00     0.014 A 
ENDBRANCH  11  15
BRANCH  13  21
HETATM   21  C   UNL     1      -6.148  -1.216 -34.228  1.00  0.00     0.058 A 
HETATM   22  C   UNL     1      -4.808  -1.618 -34.106  1.00  0.00     0.031 A 
HETATM   23  C   UNL     1      -4.444  -2.943 -34.357  1.00  0.00     0.002 A 
HETATM   24  C   UNL     1      -5.410  -3.873 -34.732  1.00  0.00     0.000 A 
HETATM   25  C   UNL     1      -6.742  -3.482 -34.858  1.00  0.00     0.002 A 
HETATM   26  C   UNL     1      -7.115  -2.158 -34.606  1.00  0.00     0.031 A 
ENDBRANCH  13  21
ENDBRANCH   7  10
BRANCH   1  27
HETATM   27  C   UNL     1      -9.186   2.279 -31.158  1.00  0.00     0.270 C 
HETATM   28  O   UNL     1      -8.835   1.106 -31.154  1.00  0.00    -0.265 OA
BRANCH  27  29
HETATM   29  O   UNL     1      -9.027   3.123 -30.112  1.00  0.00    -0.321 OA
BRANCH  29  30
HETATM   30  C   UNL     1      -7.687   3.566 -29.845  1.00  0.00     0.174 C 
HETATM   31  C   UNL     1      -7.529   5.028 -30.219  1.00  0.00     0.034 C 
ENDBRANCH  29  30
ENDBRANCH  27  29
ENDBRANCH   1  27
BRANCH   2  32
HETATM   32  C   UNL     1     -11.225   1.041 -33.381  1.00  0.00     0.439 C 
HETATM   33  F   UNL     1     -10.527   0.179 -32.614  1.00  0.00    -0.166 F 
HETATM   34  F   UNL     1     -12.526   0.646 -33.346  1.00  0.00    -0.166 F 
HETATM   35  F   UNL     1     -10.815   0.847 -34.656  1.00  0.00    -0.166 F 
ENDBRANCH   2  32
BRANCH   2  36
HETATM   36  O   UNL     1     -12.097   2.883 -31.959  1.00  0.00    -0.363 OA
HETATM   37  H   UNL     1     -12.588   3.635 -32.332  1.00  0.00     0.213 HD
ENDBRANCH   2  36
TORSDOF 8
ENDMDL
MODEL 5
REMARK VINA RESULT:      -8.1      2.668      4.078
REMARK  8 active torsions:
REMARK  status: ('A' for Active; 'I' for Inactive)
REMARK    1  A    between atoms: C_2  and  O_3 
REMARK    2  A    between atoms: O_3  and  C_4 
REMARK    3  A    between atoms: C_4  and  C_5 
REMARK    4  A    between atoms: C_6  and  C_8 
REMARK    5  A    between atoms: C_6  and  O_7 
REMARK    6  A    between atoms: C_16  and  C_17 
REMARK    7  A    between atoms: C_18  and  C_19 
REMARK    8  A    between atoms: N_26  and  C_27 
ROOT
HETATM    1  C   UNL     1      -5.368   5.310 -32.339  1.00  0.00     0.177 C 
HETATM    2  C   UNL     1      -4.133   5.284 -31.426  1.00  0.00     0.250 C 
HETATM    3  N   UNL     1      -4.587   5.584 -30.073  1.00  0.00    -0.303 N 
HETATM    4  C   UNL     1      -5.567   4.834 -29.509  1.00  0.00     0.319 C 
HETATM    5  O   UNL     1      -5.697   4.756 -28.297  1.00  0.00    -0.247 OA
HETATM    6  N   UNL     1      -6.368   4.164 -30.368  1.00  0.00    -0.333 N 
HETATM    7  C   UNL     1      -6.501   4.434 -31.790  1.00  0.00     0.142 C 
HETATM    8  H   UNL     1      -3.890   5.871 -29.395  1.00  0.00     0.167 HD
HETATM    9  H   UNL     1      -7.087   3.616 -29.909  1.00  0.00     0.165 HD
ENDROOT
BRANCH   7  10
HETATM   10  C   UNL     1      -6.809   3.124 -32.461  1.00  0.00     0.015 A 
HETATM   11  C   UNL     1      -8.017   2.746 -33.139  1.00  0.00     0.097 A 
HETATM   12  N   UNL     1      -7.922   1.509 -33.645  1.00  0.00    -0.167 NA
HETATM   13  N   UNL     1      -6.693   1.063 -33.317  1.00  0.00    -0.244 N 
HETATM   14  C   UNL     1      -6.002   2.010 -32.596  1.00  0.00     0.130 A 
BRANCH  11  15
HETATM   15  C   UNL     1      -9.253   3.505 -33.343  1.00  0.00    -0.005 A 
HETATM   16  C   UNL     1     -10.402   3.164 -32.612  1.00  0.00     0.014 A 
HETATM   17  C   UNL     1     -11.591   3.879 -32.774  1.00  0.00     0.001 A 
HETATM   18  C   UNL     1     -11.644   4.945 -33.670  1.00  0.00     0.000 A 
HETATM   19  C   UNL     1     -10.507   5.303 -34.392  1.00  0.00     0.001 A 
HETATM   20  C   UNL     1      -9.315   4.594 -34.223  1.00  0.00     0.014 A 
ENDBRANCH  11  15
BRANCH  13  21
HETATM   21  C   UNL     1      -6.254  -0.232 -33.715  1.00  0.00     0.058 A 
HETATM   22  C   UNL     1      -7.155  -1.097 -34.355  1.00  0.00     0.031 A 
HETATM   23  C   UNL     1      -6.745  -2.370 -34.758  1.00  0.00     0.002 A 
HETATM   24  C   UNL     1      -5.438  -2.789 -34.526  1.00  0.00     0.000 A 
HETATM   25  C   UNL     1      -4.536  -1.937 -33.889  1.00  0.00     0.002 A 
HETATM   26  C   UNL     1      -4.939  -0.660 -33.483  1.00  0.00     0.031 A 
ENDBRANCH  13  21
ENDBRANCH   7  10
BRANCH   1  27
HETATM   27  C   UNL     1      -5.167   5.167 -33.831  1.00  0.00     0.270 C 
HETATM   28  O   UNL     1      -5.940   4.544 -34.548  1.00  0.00    -0.265 OA
BRANCH  27  29
HETATM   29  O   UNL     1      -4.123   5.894 -34.293  1.00  0.00    -0.321 OA
BRANCH  29  30
HETATM   30  C   UNL     1      -3.269   5.251 -35.252  1.00  0.00     0.174 C 
HETATM   31  C   UNL     1      -1.823   5.309 -34.796  1.00  0.00     0.034 C 
ENDBRANCH  29  30
ENDBRANCH  27  29
ENDBRANCH   1  27
BRANCH   2  32
HETATM   32  C   UNL     1      -3.283   3.957 -31.461  1.00  0.00     0.439 C 
HETATM   33  F   UNL     1      -3.241   3.365 -32.671  1.00  0.00    -0.166 F 
HETATM   34  F   UNL     1      -1.998   4.208 -31.093  1.00  0.00    -0.166 F 
HETATM   35  F   UNL     1      -3.740   3.028 -30.589  1.00  0.00    -0.166 F 
ENDBRANCH   2  32
BRANCH   2  36
HETATM   36  O   UNL     1      -3.318   6.428 -31.716  1.00  0.00    -0.363 OA
HETATM   37  H   UNL     1      -2.653   6.126 -32.358  1.00  0.00     0.213 HD
ENDBRANCH   2  36
TORSDOF 8
ENDMDL
MODEL 6
REMARK VINA RESULT:      -7.9      2.923      5.305
REMARK  8 active torsions:
REMARK  status: ('A' for Active; 'I' for Inactive)
REMARK    1  A    between atoms: C_2  and  O_3 
REMARK    2  A    between atoms: O_3  and  C_4 
REMARK    3  A    between atoms: C_4  and  C_5 
REMARK    4  A    between atoms: C_6  and  C_8 
REMARK    5  A    between atoms: C_6  and  O_7 
REMARK    6  A    between atoms: C_16  and  C_17 
REMARK    7  A    between atoms: C_18  and  C_19 
REMARK    8  A    between atoms: N_26  and  C_27 
ROOT
HETATM    1  C   UNL     1      -6.225   5.418 -31.292  1.00  0.00     0.177 C 
HETATM    2  C   UNL     1      -7.731   5.125 -31.211  1.00  0.00     0.250 C 
HETATM    3  N   UNL     1      -8.340   5.637 -32.434  1.00  0.00    -0.303 N 
HETATM    4  C   UNL     1      -7.875   5.225 -33.641  1.00  0.00     0.319 C 
HETATM    5  O   UNL     1      -8.569   5.275 -34.645  1.00  0.00    -0.247 OA
HETATM    6  N   UNL     1      -6.615   4.736 -33.654  1.00  0.00    -0.333 N 
HETATM    7  C   UNL     1      -5.619   4.926 -32.612  1.00  0.00     0.142 C 
HETATM    8  H   UNL     1      -9.345   5.773 -32.440  1.00  0.00     0.167 HD
HETATM    9  H   UNL     1      -6.305   4.440 -34.573  1.00  0.00     0.165 HD
ENDROOT
BRANCH   7  10
HETATM   10  C   UNL     1      -4.744   3.703 -32.609  1.00  0.00     0.015 A 
HETATM   11  C   UNL     1      -3.314   3.645 -32.514  1.00  0.00     0.097 A 
HETATM   12  N   UNL     1      -2.877   2.379 -32.509  1.00  0.00    -0.167 NA
HETATM   13  N   UNL     1      -3.976   1.604 -32.602  1.00  0.00    -0.244 N 
HETATM   14  C   UNL     1      -5.117   2.373 -32.673  1.00  0.00     0.130 A 
BRANCH  11  15
HETATM   15  C   UNL     1      -2.338   4.734 -32.414  1.00  0.00    -0.005 A 
HETATM   16  C   UNL     1      -1.540   4.842 -31.264  1.00  0.00     0.014 A 
HETATM   17  C   UNL     1      -0.590   5.860 -31.145  1.00  0.00     0.001 A 
HETATM   18  C   UNL     1      -0.429   6.782 -32.176  1.00  0.00     0.000 A 
HETATM   19  C   UNL     1      -1.204   6.679 -33.330  1.00  0.00     0.001 A 
HETATM   20  C   UNL     1      -2.148   5.655 -33.453  1.00  0.00     0.014 A 
ENDBRANCH  11  15
BRANCH  13  21
HETATM   21  C   UNL     1      -3.873   0.184 -32.612  1.00  0.00     0.058 A 
HETATM   22  C   UNL     1      -4.677  -0.558 -33.491  1.00  0.00     0.031 A 
HETATM   23  C   UNL     1      -4.589  -1.952 -33.522  1.00  0.00     0.002 A 
HETATM   24  C   UNL     1      -3.702  -2.614 -32.676  1.00  0.00     0.000 A 
HETATM   25  C   UNL     1      -2.902  -1.885 -31.798  1.00  0.00     0.002 A 
HETATM   26  C   UNL     1      -2.983  -0.489 -31.763  1.00  0.00     0.031 A 
ENDBRANCH  13  21
ENDBRANCH   7  10
BRANCH   1  27
HETATM   27  C   UNL     1      -5.365   5.116 -30.086  1.00  0.00     0.270 C 
HETATM   28  O   UNL     1      -5.466   4.078 -29.443  1.00  0.00    -0.265 OA
BRANCH  27  29
HETATM   29  O   UNL     1      -4.408   6.048 -29.875  1.00  0.00    -0.321 OA
BRANCH  29  30
HETATM   30  C   UNL     1      -4.735   7.397 -30.246  1.00  0.00     0.174 C 
HETATM   31  C   UNL     1      -3.471   8.204 -30.477  1.00  0.00     0.034 C 
ENDBRANCH  29  30
ENDBRANCH  27  29
ENDBRANCH   1  27
BRANCH   2  32
HETATM   32  C   UNL     1      -8.125   3.619 -30.966  1.00  0.00     0.439 C 
HETATM   33  F   UNL     1      -7.212   2.734 -31.418  1.00  0.00    -0.166 F 
HETATM   34  F   UNL     1      -8.289   3.382 -29.638  1.00  0.00    -0.166 F 
HETATM   35  F   UNL     1      -9.302   3.292 -31.548  1.00  0.00    -0.166 F 
ENDBRANCH   2  32
BRANCH   2  36
HETATM   36  O   UNL     1      -8.317   5.980 -30.220  1.00  0.00    -0.363 OA
HETATM   37  H   UNL     1      -8.989   6.507 -30.686  1.00  0.00     0.213 HD
ENDBRANCH   2  36
TORSDOF 8
ENDMDL
MODEL 7
REMARK VINA RESULT:      -7.6      3.053      4.403
REMARK  8 active torsions:
REMARK  status: ('A' for Active; 'I' for Inactive)
REMARK    1  A    between atoms: C_2  and  O_3 
REMARK    2  A    between atoms: O_3  and  C_4 
REMARK    3  A    between atoms: C_4  and  C_5 
REMARK    4  A    between atoms: C_6  and  C_8 
REMARK    5  A    between atoms: C_6  and  O_7 
REMARK    6  A    between atoms: C_16  and  C_17 
REMARK    7  A    between atoms: C_18  and  C_19 
REMARK    8  A    between atoms: N_26  and  C_27 
ROOT
HETATM    1  C   UNL     1      -6.524   4.995 -32.382  1.00  0.00     0.177 C 
HETATM    2  C   UNL     1      -5.131   5.329 -31.826  1.00  0.00     0.250 C 
HETATM    3  N   UNL     1      -5.279   5.560 -30.394  1.00  0.00    -0.303 N 
HETATM    4  C   UNL     1      -5.848   4.607 -29.613  1.00  0.00     0.319 C 
HETATM    5  O   UNL     1      -5.633   4.550 -28.412  1.00  0.00    -0.247 OA
HETATM    6  N   UNL     1      -6.641   3.716 -30.250  1.00  0.00    -0.333 N 
HETATM    7  C   UNL     1      -7.206   3.881 -31.579  1.00  0.00     0.142 C 
HETATM    8  H   UNL     1      -4.529   6.047 -29.915  1.00  0.00     0.167 HD
HETATM    9  H   UNL     1      -7.047   3.021 -29.633  1.00  0.00     0.165 HD
ENDROOT
BRANCH   7  10
HETATM   10  C   UNL     1      -7.325   2.507 -32.181  1.00  0.00     0.015 A 
HETATM   11  C   UNL     1      -8.510   1.861 -32.667  1.00  0.00     0.097 A 
HETATM   12  N   UNL     1      -8.232   0.650 -33.167  1.00  0.00    -0.167 NA
HETATM   13  N   UNL     1      -6.903   0.480 -33.020  1.00  0.00    -0.244 N 
HETATM   14  C   UNL     1      -6.329   1.579 -32.421  1.00  0.00     0.130 A 
BRANCH  11  15
HETATM   15  C   UNL     1      -9.895   2.341 -32.695  1.00  0.00    -0.005 A 
HETATM   16  C   UNL     1     -10.798   1.791 -33.619  1.00  0.00     0.014 A 
HETATM   17  C   UNL     1     -12.127   2.217 -33.659  1.00  0.00     0.001 A 
HETATM   18  C   UNL     1     -12.569   3.199 -32.775  1.00  0.00     0.000 A 
HETATM   19  C   UNL     1     -11.687   3.744 -31.844  1.00  0.00     0.001 A 
HETATM   20  C   UNL     1     -10.358   3.311 -31.796  1.00  0.00     0.014 A 
ENDBRANCH  11  15
BRANCH  13  21
HETATM   21  C   UNL     1      -6.263  -0.713 -33.463  1.00  0.00     0.058 A 
HETATM   22  C   UNL     1      -4.936  -0.964 -33.081  1.00  0.00     0.031 A 
HETATM   23  C   UNL     1      -4.290  -2.129 -33.500  1.00  0.00     0.002 A 
HETATM   24  C   UNL     1      -4.960  -3.049 -34.302  1.00  0.00     0.000 A 
HETATM   25  C   UNL     1      -6.277  -2.807 -34.689  1.00  0.00     0.002 A 
HETATM   26  C   UNL     1      -6.931  -1.643 -34.272  1.00  0.00     0.031 A 
ENDBRANCH  13  21
ENDBRANCH   7  10
BRANCH   1  27
HETATM   27  C   UNL     1      -6.687   4.845 -33.878  1.00  0.00     0.270 C 
HETATM   28  O   UNL     1      -5.736   4.814 -34.649  1.00  0.00    -0.265 OA
BRANCH  27  29
HETATM   29  O   UNL     1      -7.971   4.631 -34.248  1.00  0.00    -0.321 OA
BRANCH  29  30
HETATM   30  C   UNL     1      -8.874   5.737 -34.096  1.00  0.00     0.174 C 
HETATM   31  C   UNL     1     -10.141   5.501 -34.898  1.00  0.00     0.034 C 
ENDBRANCH  29  30
ENDBRANCH  27  29
ENDBRANCH   1  27
BRANCH   2  32
HETATM   32  C   UNL     1      -4.003   4.267 -32.119  1.00  0.00     0.439 C 
HETATM   33  F   UNL     1      -4.306   3.406 -33.111  1.00  0.00    -0.166 F 
HETATM   34  F   UNL     1      -2.846   4.890 -32.467  1.00  0.00    -0.166 F 
HETATM   35  F   UNL     1      -3.706   3.518 -31.032  1.00  0.00    -0.166 F 
ENDBRANCH   2  32
BRANCH   2  36
HETATM   36  O   UNL     1      -4.748   6.632 -32.289  1.00  0.00    -0.363 OA
HETATM   37  H   UNL     1      -5.261   6.788 -33.099  1.00  0.00     0.213 HD
ENDBRANCH   2  36
TORSDOF 8
ENDMDL
MODEL 8
REMARK VINA RESULT:      -7.6      3.526      6.474
REMARK  8 active torsions:
REMARK  status: ('A' for Active; 'I' for Inactive)
REMARK    1  A    between atoms: C_2  and  O_3 
REMARK    2  A    between atoms: O_3  and  C_4 
REMARK    3  A    between atoms: C_4  and  C_5 
REMARK    4  A    between atoms: C_6  and  C_8 
REMARK    5  A    between atoms: C_6  and  O_7 
REMARK    6  A    between atoms: C_16  and  C_17 
REMARK    7  A    between atoms: C_18  and  C_19 
REMARK    8  A    between atoms: N_26  and  C_27 
ROOT
HETATM    1  C   UNL     1      -7.266   1.739 -31.686  1.00  0.00     0.177 C 
HETATM    2  C   UNL     1      -6.432   0.461 -31.510  1.00  0.00     0.250 C 
HETATM    3  N   UNL     1      -6.775  -0.436 -32.608  1.00  0.00    -0.303 N 
HETATM    4  C   UNL     1      -6.659  -0.007 -33.890  1.00  0.00     0.319 C 
HETATM    5  O   UNL     1      -6.526  -0.790 -34.818  1.00  0.00    -0.247 OA
HETATM    6  N   UNL     1      -6.673   1.333 -34.069  1.00  0.00    -0.333 N 
HETATM    7  C   UNL     1      -7.136   2.314 -33.102  1.00  0.00     0.142 C 
HETATM    8  H   UNL     1      -6.530  -1.415 -32.510  1.00  0.00     0.167 HD
HETATM    9  H   UNL     1      -6.583   1.613 -35.039  1.00  0.00     0.165 HD
ENDROOT
BRANCH   7  10
HETATM   10  C   UNL     1      -6.327   3.563 -33.317  1.00  0.00     0.015 A 
HETATM   11  C   UNL     1      -6.808   4.905 -33.482  1.00  0.00     0.097 A 
HETATM   12  N   UNL     1      -5.796   5.771 -33.619  1.00  0.00    -0.167 NA
HETATM   13  N   UNL     1      -4.665   5.039 -33.554  1.00  0.00    -0.244 N 
HETATM   14  C   UNL     1      -4.953   3.704 -33.380  1.00  0.00     0.130 A 
BRANCH  11  15
HETATM   15  C   UNL     1      -8.184   5.411 -33.502  1.00  0.00    -0.005 A 
HETATM   16  C   UNL     1      -8.528   6.506 -32.695  1.00  0.00     0.014 A 
HETATM   17  C   UNL     1      -9.827   7.020 -32.704  1.00  0.00     0.001 A 
HETATM   18  C   UNL     1     -10.797   6.443 -33.521  1.00  0.00     0.000 A 
HETATM   19  C   UNL     1     -10.465   5.363 -34.337  1.00  0.00     0.001 A 
HETATM   20  C   UNL     1      -9.163   4.855 -34.336  1.00  0.00     0.014 A 
ENDBRANCH  11  15
BRANCH  13  21
HETATM   21  C   UNL     1      -3.386   5.656 -33.654  1.00  0.00     0.058 A 
HETATM   22  C   UNL     1      -3.096   6.771 -32.851  1.00  0.00     0.031 A 
HETATM   23  C   UNL     1      -1.846   7.389 -32.929  1.00  0.00     0.002 A 
HETATM   24  C   UNL     1      -0.880   6.904 -33.807  1.00  0.00     0.000 A 
HETATM   25  C   UNL     1      -1.160   5.799 -34.609  1.00  0.00     0.002 A 
HETATM   26  C   UNL     1      -2.409   5.173 -34.536  1.00  0.00     0.031 A 
ENDBRANCH  13  21
ENDBRANCH   7  10
BRANCH   1  27
HETATM   27  C   UNL     1      -7.211   2.792 -30.602  1.00  0.00     0.270 C 
HETATM   28  O   UNL     1      -6.248   2.928 -29.858  1.00  0.00    -0.265 OA
BRANCH  27  29
HETATM   29  O   UNL     1      -8.274   3.628 -30.626  1.00  0.00    -0.321 OA
BRANCH  29  30
HETATM   30  C   UNL     1      -9.572   3.015 -30.576  1.00  0.00     0.174 C 
HETATM   31  C   UNL     1     -10.659   4.074 -30.588  1.00  0.00     0.034 C 
ENDBRANCH  29  30
ENDBRANCH  27  29
ENDBRANCH   1  27
BRANCH   2  32
HETATM   32  C   UNL     1      -4.872   0.668 -31.410  1.00  0.00     0.439 C 
HETATM   33  F   UNL     1      -4.486   1.959 -31.474  1.00  0.00    -0.166 F 
HETATM   34  F   UNL     1      -4.403   0.168 -30.236  1.00  0.00    -0.166 F 
HETATM   35  F   UNL     1      -4.201   0.013 -32.385  1.00  0.00    -0.166 F 
ENDBRANCH   2  32
BRANCH   2  36
HETATM   36  O   UNL     1      -6.931  -0.266 -30.379  1.00  0.00    -0.363 OA
HETATM   37  H   UNL     1      -6.598  -1.174 -30.478  1.00  0.00     0.213 HD
ENDBRANCH   2  36
TORSDOF 8
ENDMDL
MODEL 9
REMARK VINA RESULT:      -7.5      3.937      6.246
REMARK  8 active torsions:
REMARK  status: ('A' for Active; 'I' for Inactive)
REMARK    1  A    between atoms: C_2  and  O_3 
REMARK    2  A    between atoms: O_3  and  C_4 
REMARK    3  A    between atoms: C_4  and  C_5 
REMARK    4  A    between atoms: C_6  and  C_8 
REMARK    5  A    between atoms: C_6  and  O_7 
REMARK    6  A    between atoms: C_16  and  C_17 
REMARK    7  A    between atoms: C_18  and  C_19 
REMARK    8  A    between atoms: N_26  and  C_27 
ROOT
HETATM    1  C   UNL     1      -7.480   4.571 -32.505  1.00  0.00     0.177 C 
HETATM    2  C   UNL     1      -7.430   4.814 -30.988  1.00  0.00     0.250 C 
HETATM    3  N   UNL     1      -8.764   5.231 -30.571  1.00  0.00    -0.303 N 
HETATM    4  C   UNL     1      -9.835   4.448 -30.858  1.00  0.00     0.319 C 
HETATM    5  O   UNL     1     -10.868   4.514 -30.209  1.00  0.00    -0.247 OA
HETATM    6  N   UNL     1      -9.677   3.581 -31.882  1.00  0.00    -0.333 N 
HETATM    7  C   UNL     1      -8.638   3.645 -32.896  1.00  0.00     0.142 C 
HETATM    8  H   UNL     1      -8.855   5.686 -29.669  1.00  0.00     0.167 HD
HETATM    9  H   UNL     1     -10.498   3.015 -32.065  1.00  0.00     0.165 HD
ENDROOT
BRANCH   7  10
HETATM   10  C   UNL     1      -8.339   2.231 -33.313  1.00  0.00     0.015 A 
HETATM   11  C   UNL     1      -9.248   1.267 -33.866  1.00  0.00     0.097 A 
HETATM   12  N   UNL     1      -8.623   0.117 -34.149  1.00  0.00    -0.167 NA
HETATM   13  N   UNL     1      -7.334   0.294 -33.794  1.00  0.00    -0.244 N 
HETATM   14  C   UNL     1      -7.134   1.555 -33.279  1.00  0.00     0.130 A 
BRANCH  11  15
HETATM   15  C   UNL     1     -10.680   1.388 -34.155  1.00  0.00    -0.005 A 
HETATM   16  C   UNL     1     -11.587   0.526 -33.520  1.00  0.00     0.014 A 
HETATM   17  C   UNL     1     -12.959   0.627 -33.763  1.00  0.00     0.001 A 
HETATM   18  C   UNL     1     -13.439   1.592 -34.645  1.00  0.00     0.000 A 
HETATM   19  C   UNL     1     -12.551   2.463 -35.273  1.00  0.00     0.001 A 
HETATM   20  C   UNL     1     -11.178   2.369 -35.022  1.00  0.00     0.014 A 
ENDBRANCH  11  15
BRANCH  13  21
HETATM   21  C   UNL     1      -6.376  -0.744 -33.973  1.00  0.00     0.058 A 
HETATM   22  C   UNL     1      -5.091  -0.595 -33.427  1.00  0.00     0.031 A 
HETATM   23  C   UNL     1      -4.136  -1.602 -33.586  1.00  0.00     0.002 A 
HETATM   24  C   UNL     1      -4.454  -2.760 -34.290  1.00  0.00     0.000 A 
HETATM   25  C   UNL     1      -5.726  -2.916 -34.839  1.00  0.00     0.002 A 
HETATM   26  C   UNL     1      -6.689  -1.912 -34.682  1.00  0.00     0.031 A 
ENDBRANCH  13  21
ENDBRANCH   7  10
BRANCH   1  27
HETATM   27  C   UNL     1      -6.189   4.261 -33.229  1.00  0.00     0.270 C 
HETATM   28  O   UNL     1      -6.105   4.234 -34.450  1.00  0.00    -0.265 OA
BRANCH  27  29
HETATM   29  O   UNL     1      -5.132   4.139 -32.393  1.00  0.00    -0.321 OA
BRANCH  29  30
HETATM   30  C   UNL     1      -3.993   3.428 -32.901  1.00  0.00     0.174 C 
HETATM   31  C   UNL     1      -3.435   2.495 -31.842  1.00  0.00     0.034 C 
ENDBRANCH  29  30
ENDBRANCH  27  29
ENDBRANCH   1  27
BRANCH   2  32
HETATM   32  C   UNL     1      -6.913   3.606 -30.118  1.00  0.00     0.439 C 
HETATM   33  F   UNL     1      -6.818   2.444 -30.795  1.00  0.00    -0.166 F 
HETATM   34  F   UNL     1      -5.680   3.878 -29.615  1.00  0.00    -0.166 F 
HETATM   35  F   UNL     1      -7.703   3.367 -29.046  1.00  0.00    -0.166 F 
ENDBRANCH   2  32
BRANCH   2  36
HETATM   36  O   UNL     1      -6.665   6.000 -30.733  1.00  0.00    -0.363 OA
HETATM   37  H   UNL     1      -7.204   6.539 -30.130  1.00  0.00     0.213 HD
ENDBRANCH   2  36
TORSDOF 8
ENDMDL
MODEL 10
REMARK VINA RESULT:      -7.5      3.626      6.877
REMARK  8 active torsions:
REMARK  status: ('A' for Active; 'I' for Inactive)
REMARK    1  A    between atoms: C_2  and  O_3 
REMARK    2  A    between atoms: O_3  and  C_4 
REMARK    3  A    between atoms: C_4  and  C_5 
REMARK    4  A    between atoms: C_6  and  C_8 
REMARK    5  A    between atoms: C_6  and  O_7 
REMARK    6  A    between atoms: C_16  and  C_17 
REMARK    7  A    between atoms: C_18  and  C_19 
REMARK    8  A    between atoms: N_26  and  C_27 
ROOT
HETATM    1  C   UNL     1      -9.104   4.681 -32.201  1.00  0.00     0.177 C 
HETATM    2  C   UNL     1      -9.579   6.062 -31.725  1.00  0.00     0.250 C 
HETATM    3  N   UNL     1      -9.689   6.007 -30.271  1.00  0.00    -0.303 N 
HETATM    4  C   UNL     1      -8.617   5.629 -29.529  1.00  0.00     0.319 C 
HETATM    5  O   UNL     1      -8.507   5.950 -28.355  1.00  0.00    -0.247 OA
HETATM    6  N   UNL     1      -7.677   4.904 -30.174  1.00  0.00    -0.333 N 
HETATM    7  C   UNL     1      -7.857   4.213 -31.440  1.00  0.00     0.142 C 
HETATM    8  H   UNL     1     -10.235   6.727 -29.812  1.00  0.00     0.167 HD
HETATM    9  H   UNL     1      -6.893   4.642 -29.586  1.00  0.00     0.165 HD
ENDROOT
BRANCH   7  10
HETATM   10  C   UNL     1      -6.525   4.218 -32.139  1.00  0.00     0.015 A 
HETATM   11  C   UNL     1      -5.959   3.184 -32.957  1.00  0.00     0.097 A 
HETATM   12  N   UNL     1      -4.766   3.548 -33.444  1.00  0.00    -0.167 NA
HETATM   13  N   UNL     1      -4.529   4.787 -32.967  1.00  0.00    -0.244 N 
HETATM   14  C   UNL     1      -5.568   5.215 -32.171  1.00  0.00     0.130 A 
BRANCH  11  15
HETATM   15  C   UNL     1      -6.500   1.869 -33.313  1.00  0.00    -0.005 A 
HETATM   16  C   UNL     1      -6.696   1.546 -34.665  1.00  0.00     0.014 A 
HETATM   17  C   UNL     1      -7.196   0.296 -35.036  1.00  0.00     0.001 A 
HETATM   18  C   UNL     1      -7.507  -0.646 -34.059  1.00  0.00     0.000 A 
HETATM   19  C   UNL     1      -7.305  -0.344 -32.713  1.00  0.00     0.001 A 
HETATM   20  C   UNL     1      -6.795   0.903 -32.342  1.00  0.00     0.014 A 
ENDBRANCH  11  15
BRANCH  13  21
HETATM   21  C   UNL     1      -3.336   5.486 -33.304  1.00  0.00     0.058 A 
HETATM   22  C   UNL     1      -3.078   6.732 -32.710  1.00  0.00     0.031 A 
HETATM   23  C   UNL     1      -1.911   7.434 -33.022  1.00  0.00     0.002 A 
HETATM   24  C   UNL     1      -0.996   6.901 -33.926  1.00  0.00     0.000 A 
HETATM   25  C   UNL     1      -1.245   5.666 -34.523  1.00  0.00     0.002 A 
HETATM   26  C   UNL     1      -2.411   4.956 -34.214  1.00  0.00     0.031 A 
ENDBRANCH  13  21
ENDBRANCH   7  10
BRANCH   1  27
HETATM   27  C   UNL     1      -9.038   4.412 -33.687  1.00  0.00     0.270 C 
HETATM   28  O   UNL     1      -8.521   5.191 -34.479  1.00  0.00    -0.265 OA
BRANCH  27  29
HETATM   29  O   UNL     1      -9.496   3.183 -34.021  1.00  0.00    -0.321 OA
BRANCH  29  30
HETATM   30  C   UNL     1     -10.591   2.675 -33.243  1.00  0.00     0.174 C 
HETATM   31  C   UNL     1     -10.726   1.176 -33.435  1.00  0.00     0.034 C 
ENDBRANCH  29  30
ENDBRANCH  27  29
ENDBRANCH   1  27
BRANCH   2  32
HETATM   32  C   UNL     1      -8.698   7.285 -32.184  1.00  0.00     0.439 C 
HETATM   33  F   UNL     1      -7.459   6.944 -32.594  1.00  0.00    -0.166 F 
HETATM   34  F   UNL     1      -9.295   7.939 -33.215  1.00  0.00    -0.166 F 
HETATM   35  F   UNL     1      -8.543   8.206 -31.204  1.00  0.00    -0.166 F 
ENDBRANCH   2  32
BRANCH   2  36
HETATM   36  O   UNL     1     -10.950   6.239 -32.109  1.00  0.00    -0.363 OA
HETATM   37  H   UNL     1     -10.928   6.668 -32.982  1.00  0.00     0.213 HD
ENDBRANCH   2  36
TORSDOF 8
ENDMDL
