MODEL 1
REMARK VINA RESULT:      -8.2      0.000      0.000
REMARK  5 active torsions:
REMARK  status: ('A' for Active; 'I' for Inactive)
REMARK    1  A    between atoms: C_3  and  N_4 
REMARK       I    between atoms: N_4  and  C_5 
REMARK       I    between atoms: C_5  and  N_6 
REMARK    2  A    between atoms: N_6  and  C_7 
REMARK    3  A    between atoms: C_7  and  C_8 
REMARK    4  A    between atoms: C_8  and  O_9 
REMARK    5  A    between atoms: O_9  and  C_10 
ROOT
HETATM    1  N   UNL     1      -4.137  -1.134 -33.802  1.00  0.00    -0.307 N 
HETATM    2  C   UNL     1      -4.268  -0.527 -32.571  1.00  0.00     0.320 C 
HETATM    3  N   UNL     1      -3.364   0.503 -32.440  1.00  0.00    -0.340 N 
HETATM    4  O   UNL     1      -5.088  -0.811 -31.711  1.00  0.00    -0.247 OA
HETATM    5  H   UNL     1      -3.999  -0.456 -34.540  1.00  0.00     0.170 HD
HETATM    6  H   UNL     1      -2.539   0.453 -33.020  1.00  0.00     0.164 HD
ENDROOT
BRANCH   3   7
HETATM    7  C   UNL     1      -3.317   1.342 -31.254  1.00  0.00     0.156 C 
BRANCH   7   8
HETATM    8  C   UNL     1      -3.526   2.845 -31.526  1.00  0.00     0.142 C 
HETATM    9  C   UNL     1      -5.001   3.211 -31.685  1.00  0.00     0.042 C 
BRANCH   8  10
HETATM   10  O   UNL     1      -2.904   3.179 -32.779  1.00  0.00    -0.345 OA
BRANCH  10  11
HETATM   11  C   UNL     1      -2.240   4.366 -32.898  1.00  0.00     0.070 A 
HETATM   12  C   UNL     1      -1.369   4.924 -31.965  1.00  0.00     0.060 A 
HETATM   13  C   UNL     1      -0.766   6.157 -32.230  1.00  0.00     0.036 A 
HETATM   14 CL   UNL     1       0.299   6.848 -31.066  1.00  0.00    -0.084 Cl
HETATM   15  C   UNL     1      -1.013   6.833 -33.423  1.00  0.00     0.024 A 
HETATM   16  C   UNL     1      -1.868   6.268 -34.367  1.00  0.00     0.004 A 
HETATM   17  C   UNL     1      -2.475   5.040 -34.102  1.00  0.00     0.037 A 
ENDBRANCH  10  11
ENDBRANCH   8  10
ENDBRANCH   7   8
ENDBRANCH   3   7
BRANCH   1  18
HETATM   18  C   UNL     1      -4.826  -2.314 -34.168  1.00  0.00     0.059 A 
HETATM   19  C   UNL     1      -6.142  -2.348 -34.652  1.00  0.00    -0.032 A 
HETATM   20  C   UNL     1      -7.018  -1.136 -34.791  1.00  0.00     0.050 C 
HETATM   21  C   UNL     1      -6.686  -3.593 -35.005  1.00  0.00     0.028 A 
HETATM   22  C   UNL     1      -5.939  -4.744 -34.813  1.00  0.00     0.117 A 
HETATM   23  N   UNL     1      -4.697  -4.749 -34.291  1.00  0.00    -0.271 NA
HETATM   24  C   UNL     1      -4.177  -3.539 -33.982  1.00  0.00     0.146 A 
ENDBRANCH   1  18
TORSDOF 5
ENDMDL
MODEL 2
REMARK VINA RESULT:      -7.8      3.459      8.608
REMARK  5 active torsions:
REMARK  status: ('A' for Active; 'I' for Inactive)
REMARK    1  A    between atoms: C_3  and  N_4 
REMARK       I    between atoms: N_4  and  C_5 
REMARK       I    between atoms: C_5  and  N_6 
REMARK    2  A    between atoms: N_6  and  C_7 
REMARK    3  A    between atoms: C_7  and  C_8 
REMARK    4  A    between atoms: C_8  and  O_9 
REMARK    5  A    between atoms: O_9  and  C_10 
ROOT
HETATM    1  N   UNL     1      -2.840   3.644 -32.411  1.00  0.00    -0.307 N 
HETATM    2  C   UNL     1      -4.215   3.558 -32.462  1.00  0.00     0.320 C 
HETATM    3  N   UNL     1      -4.612   2.257 -32.668  1.00  0.00    -0.340 N 
HETATM    4  O   UNL     1      -5.001   4.481 -32.306  1.00  0.00    -0.247 OA
HETATM    5  H   UNL     1      -2.437   2.879 -31.885  1.00  0.00     0.170 HD
HETATM    6  H   UNL     1      -3.938   1.646 -33.106  1.00  0.00     0.164 HD
ENDROOT
BRANCH   3   7
HETATM    7  C   UNL     1      -6.014   1.877 -32.718  1.00  0.00     0.156 C 
BRANCH   7   8
HETATM    8  C   UNL     1      -6.261   0.358 -32.818  1.00  0.00     0.142 C 
HETATM    9  C   UNL     1      -6.145  -0.345 -31.466  1.00  0.00     0.042 C 
BRANCH   8  10
HETATM   10  O   UNL     1      -5.240  -0.222 -33.649  1.00  0.00    -0.345 OA
BRANCH  10  11
HETATM   11  C   UNL     1      -5.315  -1.547 -33.970  1.00  0.00     0.070 A 
HETATM   12  C   UNL     1      -4.312  -2.499 -33.791  1.00  0.00     0.060 A 
HETATM   13  C   UNL     1      -4.538  -3.823 -34.178  1.00  0.00     0.036 A 
HETATM   14 CL   UNL     1      -3.291  -4.992 -33.967  1.00  0.00    -0.084 Cl
HETATM   15  C   UNL     1      -5.758  -4.211 -34.728  1.00  0.00     0.024 A 
HETATM   16  C   UNL     1      -6.769  -3.266 -34.889  1.00  0.00     0.004 A 
HETATM   17  C   UNL     1      -6.545  -1.942 -34.509  1.00  0.00     0.037 A 
ENDBRANCH  10  11
ENDBRANCH   8  10
ENDBRANCH   7   8
ENDBRANCH   3   7
BRANCH   1  18
HETATM   18  C   UNL     1      -2.135   4.869 -32.358  1.00  0.00     0.059 A 
HETATM   19  C   UNL     1      -1.675   5.571 -33.482  1.00  0.00    -0.032 A 
HETATM   20  C   UNL     1      -1.822   5.082 -34.895  1.00  0.00     0.050 C 
HETATM   21  C   UNL     1      -1.016   6.793 -33.277  1.00  0.00     0.028 A 
HETATM   22  C   UNL     1      -0.788   7.237 -31.984  1.00  0.00     0.117 A 
HETATM   23  N   UNL     1      -1.161   6.554 -30.884  1.00  0.00    -0.271 NA
HETATM   24  C   UNL     1      -1.819   5.392 -31.100  1.00  0.00     0.146 A 
ENDBRANCH   1  18
TORSDOF 5
ENDMDL
MODEL 3
REMARK VINA RESULT:      -7.6      3.784      8.499
REMARK  5 active torsions:
REMARK  status: ('A' for Active; 'I' for Inactive)
REMARK    1  A    between atoms: C_3  and  N_4 
REMARK       I    between atoms: N_4  and  C_5 
REMARK       I    between atoms: C_5  and  N_6 
REMARK    2  A    between atoms: N_6  and  C_7 
REMARK    3  A    between atoms: C_7  and  C_8 
REMARK    4  A    between atoms: C_8  and  O_9 
REMARK    5  A    between atoms: O_9  and  C_10 
ROOT
HETATM    1  N   UNL     1      -3.182   3.465 -32.700  1.00  0.00    -0.307 N 
HETATM    2  C   UNL     1      -4.551   3.622 -32.734  1.00  0.00     0.320 C 
HETATM    3  N   UNL     1      -5.164   2.449 -33.111  1.00  0.00    -0.340 N 
HETATM    4  O   UNL     1      -5.168   4.634 -32.437  1.00  0.00    -0.247 OA
HETATM    5  H   UNL     1      -2.918   2.577 -32.293  1.00  0.00     0.170 HD
HETATM    6  H   UNL     1      -4.603   1.800 -33.644  1.00  0.00     0.164 HD
ENDROOT
BRANCH   3   7
HETATM    7  C   UNL     1      -6.610   2.324 -33.186  1.00  0.00     0.156 C 
BRANCH   7   8
HETATM    8  C   UNL     1      -7.106   1.085 -33.959  1.00  0.00     0.142 C 
HETATM    9  C   UNL     1      -8.584   1.180 -34.332  1.00  0.00     0.042 C 
BRANCH   8  10
HETATM   10  O   UNL     1      -6.992  -0.068 -33.107  1.00  0.00    -0.345 OA
BRANCH  10  11
HETATM   11  C   UNL     1      -6.328  -1.171 -33.561  1.00  0.00     0.070 A 
HETATM   12  C   UNL     1      -6.874  -2.220 -34.298  1.00  0.00     0.060 A 
HETATM   13  C   UNL     1      -6.063  -3.289 -34.688  1.00  0.00     0.036 A 
HETATM   14 CL   UNL     1      -6.747  -4.589 -35.587  1.00  0.00    -0.084 Cl
HETATM   15  C   UNL     1      -4.708  -3.316 -34.362  1.00  0.00     0.024 A 
HETATM   16  C   UNL     1      -4.155  -2.259 -33.643  1.00  0.00     0.004 A 
HETATM   17  C   UNL     1      -4.964  -1.193 -33.248  1.00  0.00     0.037 A 
ENDBRANCH  10  11
ENDBRANCH   8  10
ENDBRANCH   7   8
ENDBRANCH   3   7
BRANCH   1  18
HETATM   18  C   UNL     1      -2.278   4.533 -32.491  1.00  0.00     0.059 A 
HETATM   19  C   UNL     1      -1.720   5.313 -33.515  1.00  0.00    -0.032 A 
HETATM   20  C   UNL     1      -1.965   5.078 -34.979  1.00  0.00     0.050 C 
HETATM   21  C   UNL     1      -0.860   6.362 -33.155  1.00  0.00     0.028 A 
HETATM   22  C   UNL     1      -0.543   6.558 -31.820  1.00  0.00     0.117 A 
HETATM   23  N   UNL     1      -1.013   5.786 -30.821  1.00  0.00    -0.271 NA
HETATM   24  C   UNL     1      -1.863   4.797 -31.182  1.00  0.00     0.146 A 
ENDBRANCH   1  18
TORSDOF 5
ENDMDL
MODEL 4
REMARK VINA RESULT:      -7.4      3.964      8.150
REMARK  5 active torsions:
REMARK  status: ('A' for Active; 'I' for Inactive)
REMARK    1  A    between atoms: C_3  and  N_4 
REMARK       I    between atoms: N_4  and  C_5 
REMARK       I    between atoms: C_5  and  N_6 
REMARK    2  A    between atoms: N_6  and  C_7 
REMARK    3  A    between atoms: C_7  and  C_8 
REMARK    4  A    between atoms: C_8  and  O_9 
REMARK    5  A    between atoms: O_9  and  C_10 
ROOT
HETATM    1  N   UNL     1      -5.937   3.686 -32.468  1.00  0.00    -0.307 N 
HETATM    2  C   UNL     1      -6.482   2.972 -33.513  1.00  0.00     0.320 C 
HETATM    3  N   UNL     1      -7.676   2.400 -33.139  1.00  0.00    -0.340 N 
HETATM    4  O   UNL     1      -6.018   2.875 -34.639  1.00  0.00    -0.247 OA
HETATM    5  H   UNL     1      -6.641   4.214 -31.968  1.00  0.00     0.170 HD
HETATM    6  H   UNL     1      -7.811   2.248 -32.149  1.00  0.00     0.164 HD
ENDROOT
BRANCH   3   7
HETATM    7  C   UNL     1      -8.487   1.628 -34.066  1.00  0.00     0.156 C 
BRANCH   7   8
HETATM    8  C   UNL     1      -8.706   0.159 -33.652  1.00  0.00     0.142 C 
HETATM    9  C   UNL     1      -9.913  -0.016 -32.732  1.00  0.00     0.042 C 
BRANCH   8  10
HETATM   10  O   UNL     1      -7.568  -0.282 -32.891  1.00  0.00    -0.345 OA
BRANCH  10  11
HETATM   11  C   UNL     1      -6.690  -1.163 -33.454  1.00  0.00     0.070 A 
HETATM   12  C   UNL     1      -7.017  -2.300 -34.190  1.00  0.00     0.060 A 
HETATM   13  C   UNL     1      -6.000  -3.113 -34.699  1.00  0.00     0.036 A 
HETATM   14 CL   UNL     1      -6.411  -4.524 -35.597  1.00  0.00    -0.084 Cl
HETATM   15  C   UNL     1      -4.659  -2.795 -34.494  1.00  0.00     0.024 A 
HETATM   16  C   UNL     1      -4.329  -1.648 -33.775  1.00  0.00     0.004 A 
HETATM   17  C   UNL     1      -5.342  -0.838 -33.261  1.00  0.00     0.037 A 
ENDBRANCH  10  11
ENDBRANCH   8  10
ENDBRANCH   7   8
ENDBRANCH   3   7
BRANCH   1  18
HETATM   18  C   UNL     1      -4.644   4.260 -32.504  1.00  0.00     0.059 A 
HETATM   19  C   UNL     1      -3.461   3.575 -32.189  1.00  0.00    -0.032 A 
HETATM   20  C   UNL     1      -3.416   2.150 -31.714  1.00  0.00     0.050 C 
HETATM   21  C   UNL     1      -2.245   4.267 -32.300  1.00  0.00     0.028 A 
HETATM   22  C   UNL     1      -2.252   5.607 -32.655  1.00  0.00     0.117 A 
HETATM   23  N   UNL     1      -3.375   6.308 -32.900  1.00  0.00    -0.271 NA
HETATM   24  C   UNL     1      -4.537   5.619 -32.817  1.00  0.00     0.146 A 
ENDBRANCH   1  18
TORSDOF 5
ENDMDL
MODEL 5
REMARK VINA RESULT:      -7.2      2.901      4.554
REMARK  5 active torsions:
REMARK  status: ('A' for Active; 'I' for Inactive)
REMARK    1  A    between atoms: C_3  and  N_4 
REMARK       I    between atoms: N_4  and  C_5 
REMARK       I    between atoms: C_5  and  N_6 
REMARK    2  A    between atoms: N_6  and  C_7 
REMARK    3  A    between atoms: C_7  and  C_8 
REMARK    4  A    between atoms: C_8  and  O_9 
REMARK    5  A    between atoms: O_9  and  C_10 
ROOT
HETATM    1  N   UNL     1      -4.155  -1.218 -33.868  1.00  0.00    -0.307 N 
HETATM    2  C   UNL     1      -4.304  -0.569 -32.661  1.00  0.00     0.320 C 
HETATM    3  N   UNL     1      -3.401   0.463 -32.551  1.00  0.00    -0.340 N 
HETATM    4  O   UNL     1      -5.138  -0.823 -31.805  1.00  0.00    -0.247 OA
HETATM    5  H   UNL     1      -4.005  -0.566 -34.627  1.00  0.00     0.170 HD
HETATM    6  H   UNL     1      -2.567   0.393 -33.117  1.00  0.00     0.164 HD
ENDROOT
BRANCH   3   7
HETATM    7  C   UNL     1      -3.371   1.342 -31.394  1.00  0.00     0.156 C 
BRANCH   7   8
HETATM    8  C   UNL     1      -3.983   2.737 -31.635  1.00  0.00     0.142 C 
HETATM    9  C   UNL     1      -2.969   3.863 -31.437  1.00  0.00     0.042 C 
BRANCH   8  10
HETATM   10  O   UNL     1      -5.014   2.964 -30.658  1.00  0.00    -0.345 OA
BRANCH  10  11
HETATM   11  C   UNL     1      -6.323   2.867 -31.034  1.00  0.00     0.070 A 
HETATM   12  C   UNL     1      -6.798   2.416 -32.264  1.00  0.00     0.060 A 
HETATM   13  C   UNL     1      -8.175   2.380 -32.504  1.00  0.00     0.036 A 
HETATM   14 CL   UNL     1      -8.756   1.834 -34.030  1.00  0.00    -0.084 Cl
HETATM   15  C   UNL     1      -9.083   2.778 -31.525  1.00  0.00     0.024 A 
HETATM   16  C   UNL     1      -8.611   3.211 -30.287  1.00  0.00     0.004 A 
HETATM   17  C   UNL     1      -7.237   3.252 -30.047  1.00  0.00     0.037 A 
ENDBRANCH  10  11
ENDBRANCH   8  10
ENDBRANCH   7   8
ENDBRANCH   3   7
BRANCH   1  18
HETATM   18  C   UNL     1      -4.840  -2.410 -34.204  1.00  0.00     0.059 A 
HETATM   19  C   UNL     1      -6.169  -2.464 -34.651  1.00  0.00    -0.032 A 
HETATM   20  C   UNL     1      -7.063  -1.262 -34.776  1.00  0.00     0.050 C 
HETATM   21  C   UNL     1      -6.709  -3.717 -34.977  1.00  0.00     0.028 A 
HETATM   22  C   UNL     1      -5.943  -4.859 -34.795  1.00  0.00     0.117 A 
HETATM   23  N   UNL     1      -4.687  -4.844 -34.308  1.00  0.00    -0.271 NA
HETATM   24  C   UNL     1      -4.173  -3.625 -34.025  1.00  0.00     0.146 A 
ENDBRANCH   1  18
TORSDOF 5
ENDMDL
MODEL 6
REMARK VINA RESULT:      -7.2      2.520      3.851
REMARK  5 active torsions:
REMARK  status: ('A' for Active; 'I' for Inactive)
REMARK    1  A    between atoms: C_3  and  N_4 
REMARK       I    between atoms: N_4  and  C_5 
REMARK       I    between atoms: C_5  and  N_6 
REMARK    2  A    between atoms: N_6  and  C_7 
REMARK    3  A    between atoms: C_7  and  C_8 
REMARK    4  A    between atoms: C_8  and  O_9 
REMARK    5  A    between atoms: O_9  and  C_10 
ROOT
HETATM    1  N   UNL     1      -6.572  -1.437 -35.155  1.00  0.00    -0.307 N 
HETATM    2  C   UNL     1      -7.342  -0.704 -34.277  1.00  0.00     0.320 C 
HETATM    3  N   UNL     1      -7.775   0.461 -34.868  1.00  0.00    -0.340 N 
HETATM    4  O   UNL     1      -7.652  -1.034 -33.142  1.00  0.00    -0.247 OA
HETATM    5  H   UNL     1      -6.962  -1.431 -36.088  1.00  0.00     0.170 HD
HETATM    6  H   UNL     1      -7.224   0.804 -35.641  1.00  0.00     0.164 HD
ENDROOT
BRANCH   3   7
HETATM    7  C   UNL     1      -8.644   1.400 -34.177  1.00  0.00     0.156 C 
BRANCH   7   8
HETATM    8  C   UNL     1      -7.902   2.527 -33.431  1.00  0.00     0.142 C 
HETATM    9  C   UNL     1      -8.569   3.890 -33.618  1.00  0.00     0.042 C 
BRANCH   8  10
HETATM   10  O   UNL     1      -6.583   2.660 -33.989  1.00  0.00    -0.345 OA
BRANCH  10  11
HETATM   11  C   UNL     1      -5.503   2.661 -33.153  1.00  0.00     0.070 A 
HETATM   12  C   UNL     1      -4.444   3.567 -33.173  1.00  0.00     0.060 A 
HETATM   13  C   UNL     1      -3.401   3.434 -32.251  1.00  0.00     0.036 A 
HETATM   14 CL   UNL     1      -2.089   4.548 -32.289  1.00  0.00    -0.084 Cl
HETATM   15  C   UNL     1      -3.411   2.415 -31.301  1.00  0.00     0.024 A 
HETATM   16  C   UNL     1      -4.479   1.520 -31.266  1.00  0.00     0.004 A 
HETATM   17  C   UNL     1      -5.518   1.647 -32.189  1.00  0.00     0.037 A 
ENDBRANCH  10  11
ENDBRANCH   8  10
ENDBRANCH   7   8
ENDBRANCH   3   7
BRANCH   1  18
HETATM   18  C   UNL     1      -5.867  -2.606 -34.787  1.00  0.00     0.059 A 
HETATM   19  C   UNL     1      -4.657  -2.614 -34.077  1.00  0.00    -0.032 A 
HETATM   20  C   UNL     1      -3.917  -1.373 -33.663  1.00  0.00     0.050 C 
HETATM   21  C   UNL     1      -4.085  -3.855 -33.754  1.00  0.00     0.028 A 
HETATM   22  C   UNL     1      -4.694  -5.021 -34.191  1.00  0.00     0.117 A 
HETATM   23  N   UNL     1      -5.821  -5.043 -34.928  1.00  0.00    -0.271 NA
HETATM   24  C   UNL     1      -6.374  -3.840 -35.207  1.00  0.00     0.146 A 
ENDBRANCH   1  18
TORSDOF 5
ENDMDL
MODEL 7
REMARK VINA RESULT:      -7.0     16.275     18.330
REMARK  5 active torsions:
REMARK  status: ('A' for Active; 'I' for Inactive)
REMARK    1  A    between atoms: C_3  and  N_4 
REMARK       I    between atoms: N_4  and  C_5 
REMARK       I    between atoms: C_5  and  N_6 
REMARK    2  A    between atoms: N_6  and  C_7 
REMARK    3  A    between atoms: C_7  and  C_8 
REMARK    4  A    between atoms: C_8  and  O_9 
REMARK    5  A    between atoms: O_9  and  C_10 
ROOT
HETATM    1  N   UNL     1      -2.006 -13.869 -40.996  1.00  0.00    -0.307 N 
HETATM    2  C   UNL     1      -3.333 -14.236 -40.911  1.00  0.00     0.320 C 
HETATM    3  N   UNL     1      -4.105 -13.453 -41.738  1.00  0.00    -0.340 N 
HETATM    4  O   UNL     1      -3.786 -15.150 -40.240  1.00  0.00    -0.247 OA
HETATM    5  H   UNL     1      -1.731 -13.679 -41.950  1.00  0.00     0.170 HD
HETATM    6  H   UNL     1      -3.728 -12.548 -41.982  1.00  0.00     0.164 HD
ENDROOT
BRANCH   3   7
HETATM    7  C   UNL     1      -5.538 -13.657 -41.877  1.00  0.00     0.156 C 
BRANCH   7   8
HETATM    8  C   UNL     1      -6.405 -12.679 -41.058  1.00  0.00     0.142 C 
HETATM    9  C   UNL     1      -5.566 -11.715 -40.220  1.00  0.00     0.042 C 
BRANCH   8  10
HETATM   10  O   UNL     1      -7.188 -13.434 -40.116  1.00  0.00    -0.345 OA
BRANCH  10  11
HETATM   11  C   UNL     1      -8.537 -13.538 -40.303  1.00  0.00     0.070 A 
HETATM   12  C   UNL     1      -9.227 -14.669 -40.735  1.00  0.00     0.060 A 
HETATM   13  C   UNL     1     -10.616 -14.618 -40.884  1.00  0.00     0.036 A 
HETATM   14 CL   UNL     1     -11.461 -16.014 -41.432  1.00  0.00    -0.084 Cl
HETATM   15  C   UNL     1     -11.325 -13.454 -40.593  1.00  0.00     0.024 A 
HETATM   16  C   UNL     1     -10.640 -12.329 -40.142  1.00  0.00     0.004 A 
HETATM   17  C   UNL     1      -9.253 -12.375 -39.997  1.00  0.00     0.037 A 
ENDBRANCH  10  11
ENDBRANCH   8  10
ENDBRANCH   7   8
ENDBRANCH   3   7
BRANCH   1  18
HETATM   18  C   UNL     1      -0.996 -14.392 -40.155  1.00  0.00     0.059 A 
HETATM   19  C   UNL     1      -0.651 -13.862 -38.903  1.00  0.00    -0.032 A 
HETATM   20  C   UNL     1      -1.273 -12.628 -38.313  1.00  0.00     0.050 C 
HETATM   21  C   UNL     1       0.353 -14.507 -38.163  1.00  0.00     0.028 A 
HETATM   22  C   UNL     1       1.008 -15.599 -38.710  1.00  0.00     0.117 A 
HETATM   23  N   UNL     1       0.743 -16.091 -39.936  1.00  0.00    -0.271 NA
HETATM   24  C   UNL     1      -0.246 -15.476 -40.623  1.00  0.00     0.146 A 
ENDBRANCH   1  18
TORSDOF 5
ENDMDL
MODEL 8
REMARK VINA RESULT:      -6.9      6.204      8.751
REMARK  5 active torsions:
REMARK  status: ('A' for Active; 'I' for Inactive)
REMARK    1  A    between atoms: C_3  and  N_4 
REMARK       I    between atoms: N_4  and  C_5 
REMARK       I    between atoms: C_5  and  N_6 
REMARK    2  A    between atoms: N_6  and  C_7 
REMARK    3  A    between atoms: C_7  and  C_8 
REMARK    4  A    between atoms: C_8  and  O_9 
REMARK    5  A    between atoms: O_9  and  C_10 
ROOT
HETATM    1  N   UNL     1      -7.008   0.675 -32.351  1.00  0.00    -0.307 N 
HETATM    2  C   UNL     1      -7.205   1.721 -33.228  1.00  0.00     0.320 C 
HETATM    3  N   UNL     1      -8.515   2.142 -33.192  1.00  0.00    -0.340 N 
HETATM    4  O   UNL     1      -6.350   2.252 -33.921  1.00  0.00    -0.247 OA
HETATM    5  H   UNL     1      -7.490   0.826 -31.475  1.00  0.00     0.170 HD
HETATM    6  H   UNL     1      -9.195   1.469 -32.871  1.00  0.00     0.164 HD
ENDROOT
BRANCH   3   7
HETATM    7  C   UNL     1      -8.986   3.264 -33.987  1.00  0.00     0.156 C 
BRANCH   7   8
HETATM    8  C   UNL     1     -10.450   3.143 -34.458  1.00  0.00     0.142 C 
HETATM    9  C   UNL     1     -10.906   4.355 -35.269  1.00  0.00     0.042 C 
BRANCH   8  10
HETATM   10  O   UNL     1     -11.305   3.104 -33.302  1.00  0.00    -0.345 OA
BRANCH  10  11
HETATM   11  C   UNL     1     -12.427   2.325 -33.328  1.00  0.00     0.070 A 
HETATM   12  C   UNL     1     -13.696   2.689 -32.881  1.00  0.00     0.060 A 
HETATM   13  C   UNL     1     -14.750   1.775 -32.969  1.00  0.00     0.036 A 
HETATM   14 CL   UNL     1     -16.312   2.224 -32.403  1.00  0.00    -0.084 Cl
HETATM   15  C   UNL     1     -14.553   0.506 -33.512  1.00  0.00     0.024 A 
HETATM   16  C   UNL     1     -13.291   0.147 -33.978  1.00  0.00     0.004 A 
HETATM   17  C   UNL     1     -12.236   1.056 -33.886  1.00  0.00     0.037 A 
ENDBRANCH  10  11
ENDBRANCH   8  10
ENDBRANCH   7   8
ENDBRANCH   3   7
BRANCH   1  18
HETATM   18  C   UNL     1      -5.803  -0.063 -32.275  1.00  0.00     0.059 A 
HETATM   19  C   UNL     1      -5.493  -1.163 -33.087  1.00  0.00    -0.032 A 
HETATM   20  C   UNL     1      -6.427  -1.742 -34.111  1.00  0.00     0.050 C 
HETATM   21  C   UNL     1      -4.243  -1.780 -32.919  1.00  0.00     0.028 A 
HETATM   22  C   UNL     1      -3.387  -1.327 -31.927  1.00  0.00     0.117 A 
HETATM   23  N   UNL     1      -3.684  -0.315 -31.090  1.00  0.00    -0.271 NA
HETATM   24  C   UNL     1      -4.880   0.287 -31.284  1.00  0.00     0.146 A 
ENDBRANCH   1  18
TORSDOF 5
ENDMDL
MODEL 9
REMARK VINA RESULT:      -6.8      3.504      7.952
REMARK  5 active torsions:
REMARK  status: ('A' for Active; 'I' for Inactive)
REMARK    1  A    between atoms: C_3  and  N_4 
REMARK       I    between atoms: N_4  and  C_5 
REMARK       I    between atoms: C_5  and  N_6 
REMARK    2  A    between atoms: N_6  and  C_7 
REMARK    3  A    between atoms: C_7  and  C_8 
REMARK    4  A    between atoms: C_8  and  O_9 
REMARK    5  A    between atoms: O_9  and  C_10 
ROOT
HETATM    1  N   UNL     1      -3.079   4.094 -31.236  1.00  0.00    -0.307 N 
HETATM    2  C   UNL     1      -4.449   4.113 -31.081  1.00  0.00     0.320 C 
HETATM    3  N   UNL     1      -4.867   3.033 -30.339  1.00  0.00    -0.340 N 
HETATM    4  O   UNL     1      -5.209   4.976 -31.495  1.00  0.00    -0.247 OA
HETATM    5  H   UNL     1      -2.610   3.828 -30.381  1.00  0.00     0.170 HD
HETATM    6  H   UNL     1      -4.255   2.229 -30.331  1.00  0.00     0.164 HD
ENDROOT
BRANCH   3   7
HETATM    7  C   UNL     1      -6.263   2.833 -29.987  1.00  0.00     0.156 C 
BRANCH   7   8
HETATM    8  C   UNL     1      -7.144   2.308 -31.139  1.00  0.00     0.142 C 
HETATM    9  C   UNL     1      -8.563   2.874 -31.095  1.00  0.00     0.042 C 
BRANCH   8  10
HETATM   10  O   UNL     1      -7.288   0.884 -30.999  1.00  0.00    -0.345 OA
BRANCH  10  11
HETATM   11  C   UNL     1      -6.543   0.057 -31.790  1.00  0.00     0.070 A 
HETATM   12  C   UNL     1      -5.275  -0.444 -31.501  1.00  0.00     0.060 A 
HETATM   13  C   UNL     1      -4.634  -1.280 -32.419  1.00  0.00     0.036 A 
HETATM   14 CL   UNL     1      -3.062  -1.884 -32.063  1.00  0.00    -0.084 Cl
HETATM   15  C   UNL     1      -5.251  -1.632 -33.618  1.00  0.00     0.024 A 
HETATM   16  C   UNL     1      -6.527  -1.149 -33.901  1.00  0.00     0.004 A 
HETATM   17  C   UNL     1      -7.167  -0.311 -32.988  1.00  0.00     0.037 A 
ENDBRANCH  10  11
ENDBRANCH   8  10
ENDBRANCH   7   8
ENDBRANCH   3   7
BRANCH   1  18
HETATM   18  C   UNL     1      -2.375   4.992 -32.074  1.00  0.00     0.059 A 
HETATM   19  C   UNL     1      -1.816   6.206 -31.646  1.00  0.00    -0.032 A 
HETATM   20  C   UNL     1      -1.942   6.742 -30.248  1.00  0.00     0.050 C 
HETATM   21  C   UNL     1      -1.117   6.981 -32.584  1.00  0.00     0.028 A 
HETATM   22  C   UNL     1      -1.051   6.560 -33.904  1.00  0.00     0.117 A 
HETATM   23  N   UNL     1      -1.632   5.432 -34.357  1.00  0.00    -0.271 NA
HETATM   24  C   UNL     1      -2.277   4.683 -33.434  1.00  0.00     0.146 A 
ENDBRANCH   1  18
TORSDOF 5
ENDMDL
MODEL 10
REMARK VINA RESULT:      -6.8      5.345      7.215
REMARK  5 active torsions:
REMARK  status: ('A' for Active; 'I' for Inactive)
REMARK    1  A    between atoms: C_3  and  N_4 
REMARK       I    between atoms: N_4  and  C_5 
REMARK       I    between atoms: C_5  and  N_6 
REMARK    2  A    between atoms: N_6  and  C_7 
REMARK    3  A    between atoms: C_7  and  C_8 
REMARK    4  A    between atoms: C_8  and  O_9 
REMARK    5  A    between atoms: O_9  and  C_10 
ROOT
HETATM    1  N   UNL     1      -9.973   2.648 -34.687  1.00  0.00    -0.307 N 
HETATM    2  C   UNL     1      -9.458   3.520 -33.751  1.00  0.00     0.320 C 
HETATM    3  N   UNL     1      -8.218   3.971 -34.141  1.00  0.00    -0.340 N 
HETATM    4  O   UNL     1     -10.016   3.894 -32.730  1.00  0.00    -0.247 OA
HETATM    5  H   UNL     1      -9.801   2.968 -35.630  1.00  0.00     0.170 HD
HETATM    6  H   UNL     1      -7.708   3.384 -34.786  1.00  0.00     0.164 HD
ENDROOT
BRANCH   3   7
HETATM    7  C   UNL     1      -7.467   4.939 -33.358  1.00  0.00     0.156 C 
BRANCH   7   8
HETATM    8  C   UNL     1      -6.299   4.339 -32.550  1.00  0.00     0.142 C 
HETATM    9  C   UNL     1      -5.184   5.352 -32.294  1.00  0.00     0.042 C 
BRANCH   8  10
HETATM   10  O   UNL     1      -5.697   3.284 -33.322  1.00  0.00    -0.345 OA
BRANCH  10  11
HETATM   11  C   UNL     1      -5.838   1.991 -32.908  1.00  0.00     0.070 A 
HETATM   12  C   UNL     1      -6.287   0.920 -33.679  1.00  0.00     0.060 A 
HETATM   13  C   UNL     1      -6.384  -0.352 -33.108  1.00  0.00     0.036 A 
HETATM   14 CL   UNL     1      -6.952  -1.668 -34.061  1.00  0.00    -0.084 Cl
HETATM   15  C   UNL     1      -6.024  -0.570 -31.779  1.00  0.00     0.024 A 
HETATM   16  C   UNL     1      -5.556   0.495 -31.012  1.00  0.00     0.004 A 
HETATM   17  C   UNL     1      -5.463   1.767 -31.578  1.00  0.00     0.037 A 
ENDBRANCH  10  11
ENDBRANCH   8  10
ENDBRANCH   7   8
ENDBRANCH   3   7
BRANCH   1  18
HETATM   18  C   UNL     1     -11.164   1.909 -34.492  1.00  0.00     0.059 A 
HETATM   19  C   UNL     1     -11.267   0.768 -33.682  1.00  0.00    -0.032 A 
HETATM   20  C   UNL     1     -10.109   0.146 -32.956  1.00  0.00     0.050 C 
HETATM   21  C   UNL     1     -12.523   0.154 -33.560  1.00  0.00     0.028 A 
HETATM   22  C   UNL     1     -13.599   0.650 -34.280  1.00  0.00     0.117 A 
HETATM   23  N   UNL     1     -13.515   1.703 -35.115  1.00  0.00    -0.271 NA
HETATM   24  C   UNL     1     -12.304   2.301 -35.200  1.00  0.00     0.146 A 
ENDBRANCH   1  18
TORSDOF 5
ENDMDL
