MODEL 1
REMARK VINA RESULT:      -8.4      0.000      0.000
REMARK  9 active torsions:
REMARK  status: ('A' for Active; 'I' for Inactive)
REMARK    1  A    between atoms: C_5  and  N_6 
REMARK       I    between atoms: N_6  and  C_7 
REMARK    2  A    between atoms: C_7  and  C_8 
REMARK    3  A    between atoms: C_8  and  S_9 
REMARK    4  A    between atoms: S_9  and  C_10 
REMARK    5  A    between atoms: C_11  and  C_12 
REMARK       I    between atoms: C_12  and  N_13 
REMARK    6  A    between atoms: N_13  and  C_14 
REMARK    7  A    between atoms: C_14  and  C_15 
REMARK    8  A    between atoms: C_15  and  N_16 
REMARK    9  A    between atoms: C_15  and  C_22 
ROOT
HETATM    1  C   UNL     1      -7.914   1.510 -31.978  1.00  0.00     0.016 A 
HETATM    2  C   UNL     1      -7.972   2.202 -33.215  1.00  0.00     0.048 A 
HETATM    3  C   UNL     1      -8.987   1.914 -34.148  1.00  0.00     0.018 A 
HETATM    4  C   UNL     1      -9.916   0.908 -33.898  1.00  0.00     0.001 A 
HETATM    5  C   UNL     1      -9.838   0.186 -32.717  1.00  0.00     0.001 A 
HETATM    6  C   UNL     1      -8.851   0.485 -31.769  1.00  0.00     0.019 A 
ENDROOT
BRANCH   2   7
HETATM    7  C   UNL     1      -6.946   3.176 -33.700  1.00  0.00     0.253 C 
HETATM    8  N   UNL     1      -6.999   4.423 -33.134  1.00  0.00    -0.354 N 
HETATM    9  H   UNL     1      -7.815   4.649 -32.569  1.00  0.00     0.162 HD
HETATM   10  O   UNL     1      -6.009   2.844 -34.422  1.00  0.00    -0.268 OA
BRANCH   8  11
HETATM   11  C   UNL     1      -6.027   5.464 -33.383  1.00  0.00     0.161 C 
BRANCH  11  12
HETATM   12  C   UNL     1      -4.766   5.483 -32.465  1.00  0.00     0.245 C 
BRANCH  12  13
HETATM   13  N   UNL     1      -4.973   6.269 -31.170  1.00  0.00    -0.061 N 
HETATM   14  H   UNL     1      -4.043   6.652 -30.939  1.00  0.00     0.280 HD
HETATM   15  C   UNL     1      -5.366   5.543 -29.899  1.00  0.00     0.236 C 
HETATM   16  C   UNL     1      -6.760   6.045 -29.583  1.00  0.00     0.029 C 
HETATM   17  C   UNL     1      -6.691   7.496 -30.013  1.00  0.00     0.029 C 
HETATM   18  C   UNL     1      -5.947   7.423 -31.331  1.00  0.00     0.236 C 
ENDBRANCH  12  13
BRANCH  12  19
HETATM   19  C   UNL     1      -3.450   5.703 -33.193  1.00  0.00     0.015 A 
HETATM   20  S   UNL     1      -2.397   7.016 -32.840  1.00  0.00    -0.104 SA
HETATM   21  C   UNL     1      -1.272   6.551 -34.030  1.00  0.00     0.050 A 
HETATM   22  C   UNL     1      -1.686   5.434 -34.715  1.00  0.00     0.008 A 
HETATM   23  C   UNL     1      -2.937   4.946 -34.237  1.00  0.00     0.017 A 
ENDBRANCH  12  19
ENDBRANCH  11  12
ENDBRANCH   8  11
ENDBRANCH   2   7
BRANCH   1  24
HETATM   24  S   UNL     1      -6.681   1.940 -30.728  1.00  0.00    -0.120 SA
BRANCH  24  25
HETATM   25  C   UNL     1      -5.318   0.725 -30.903  1.00  0.00     0.182 C 
BRANCH  25  26
HETATM   26  C   UNL     1      -4.356   1.070 -32.034  1.00  0.00     0.231 C 
HETATM   27  N   UNL     1      -4.086   0.166 -33.022  1.00  0.00    -0.327 N 
HETATM   28  H   UNL     1      -3.214   0.385 -33.495  1.00  0.00     0.169 HD
HETATM   29  O   UNL     1      -3.661   2.090 -32.007  1.00  0.00    -0.272 OA
BRANCH  27  30
HETATM   30  C   UNL     1      -4.803  -0.919 -33.547  1.00  0.00     0.034 A 
HETATM   31  C   UNL     1      -6.083  -0.819 -34.089  1.00  0.00     0.030 A 
HETATM   32  C   UNL     1      -6.700  -1.942 -34.657  1.00  0.00     0.009 A 
HETATM   33  C   UNL     1      -6.044  -3.176 -34.692  1.00  0.00    -0.062 A 
HETATM   34  C   UNL     1      -6.680  -4.370 -35.343  1.00  0.00     0.048 C 
HETATM   35  C   UNL     1      -4.747  -3.266 -34.180  1.00  0.00     0.009 A 
HETATM   36  C   UNL     1      -4.130  -2.144 -33.623  1.00  0.00     0.030 A 
ENDBRANCH  27  30
ENDBRANCH  25  26
ENDBRANCH  24  25
ENDBRANCH   1  24
TORSDOF 9
ENDMDL
MODEL 2
REMARK VINA RESULT:      -8.2      1.733      3.395
REMARK  9 active torsions:
REMARK  status: ('A' for Active; 'I' for Inactive)
REMARK    1  A    between atoms: C_5  and  N_6 
REMARK       I    between atoms: N_6  and  C_7 
REMARK    2  A    between atoms: C_7  and  C_8 
REMARK    3  A    between atoms: C_8  and  S_9 
REMARK    4  A    between atoms: S_9  and  C_10 
REMARK    5  A    between atoms: C_11  and  C_12 
REMARK       I    between atoms: C_12  and  N_13 
REMARK    6  A    between atoms: N_13  and  C_14 
REMARK    7  A    between atoms: C_14  and  C_15 
REMARK    8  A    between atoms: C_15  and  N_16 
REMARK    9  A    between atoms: C_15  and  C_22 
ROOT
HETATM    1  C   UNL     1      -7.133   0.677 -32.570  1.00  0.00     0.016 A 
HETATM    2  C   UNL     1      -7.488   1.702 -33.484  1.00  0.00     0.048 A 
HETATM    3  C   UNL     1      -7.842   1.385 -34.810  1.00  0.00     0.018 A 
HETATM    4  C   UNL     1      -7.796   0.070 -35.262  1.00  0.00     0.001 A 
HETATM    5  C   UNL     1      -7.396  -0.936 -34.394  1.00  0.00     0.001 A 
HETATM    6  C   UNL     1      -7.071  -0.636 -33.066  1.00  0.00     0.019 A 
ENDROOT
BRANCH   2   7
HETATM    7  C   UNL     1      -7.412   3.168 -33.199  1.00  0.00     0.253 C 
HETATM    8  N   UNL     1      -6.304   3.810 -33.689  1.00  0.00    -0.354 N 
HETATM    9  H   UNL     1      -5.548   3.234 -34.052  1.00  0.00     0.162 HD
HETATM   10  O   UNL     1      -8.349   3.796 -32.715  1.00  0.00    -0.268 OA
BRANCH   8  11
HETATM   11  C   UNL     1      -6.104   5.240 -33.620  1.00  0.00     0.161 C 
BRANCH  11  12
HETATM   12  C   UNL     1      -4.752   5.733 -33.017  1.00  0.00     0.245 C 
BRANCH  12  13
HETATM   13  N   UNL     1      -3.546   4.930 -33.503  1.00  0.00    -0.061 N 
HETATM   14  H   UNL     1      -3.841   3.943 -33.445  1.00  0.00     0.280 HD
HETATM   15  C   UNL     1      -2.256   4.945 -32.706  1.00  0.00     0.236 C 
HETATM   16  C   UNL     1      -1.253   5.636 -33.607  1.00  0.00     0.029 C 
HETATM   17  C   UNL     1      -1.659   5.149 -34.982  1.00  0.00     0.029 C 
HETATM   18  C   UNL     1      -3.171   5.241 -34.941  1.00  0.00     0.236 C 
ENDBRANCH  12  13
BRANCH  12  19
HETATM   19  C   UNL     1      -4.797   6.065 -31.534  1.00  0.00     0.015 A 
HETATM   20  S   UNL     1      -5.663   5.114 -30.392  1.00  0.00    -0.104 SA
HETATM   21  C   UNL     1      -5.233   6.124 -29.091  1.00  0.00     0.050 A 
HETATM   22  C   UNL     1      -4.467   7.188 -29.502  1.00  0.00     0.008 A 
HETATM   23  C   UNL     1      -4.217   7.157 -30.905  1.00  0.00     0.017 A 
ENDBRANCH  12  19
ENDBRANCH  11  12
ENDBRANCH   8  11
ENDBRANCH   2   7
BRANCH   1  24
HETATM   24  S   UNL     1      -6.776   1.057 -30.838  1.00  0.00    -0.120 SA
BRANCH  24  25
HETATM   25  C   UNL     1      -4.997   0.694 -30.583  1.00  0.00     0.182 C 
BRANCH  25  26
HETATM   26  C   UNL     1      -4.119   1.194 -31.723  1.00  0.00     0.231 C 
HETATM   27  N   UNL     1      -3.308   0.334 -32.410  1.00  0.00    -0.327 N 
HETATM   28  H   UNL     1      -2.563   0.832 -32.888  1.00  0.00     0.169 HD
HETATM   29  O   UNL     1      -3.973   2.398 -31.950  1.00  0.00    -0.272 OA
BRANCH  27  30
HETATM   30  C   UNL     1      -3.360  -1.047 -32.643  1.00  0.00     0.034 A 
HETATM   31  C   UNL     1      -2.902  -2.007 -31.743  1.00  0.00     0.030 A 
HETATM   32  C   UNL     1      -3.056  -3.371 -32.024  1.00  0.00     0.009 A 
HETATM   33  C   UNL     1      -3.671  -3.792 -33.208  1.00  0.00    -0.062 A 
HETATM   34  C   UNL     1      -3.883  -5.250 -33.491  1.00  0.00     0.048 C 
HETATM   35  C   UNL     1      -4.161  -2.828 -34.092  1.00  0.00     0.009 A 
HETATM   36  C   UNL     1      -4.016  -1.469 -33.806  1.00  0.00     0.030 A 
ENDBRANCH  27  30
ENDBRANCH  25  26
ENDBRANCH  24  25
ENDBRANCH   1  24
TORSDOF 9
ENDMDL
MODEL 3
REMARK VINA RESULT:      -8.1      1.057      2.896
REMARK  9 active torsions:
REMARK  status: ('A' for Active; 'I' for Inactive)
REMARK    1  A    between atoms: C_5  and  N_6 
REMARK       I    between atoms: N_6  and  C_7 
REMARK    2  A    between atoms: C_7  and  C_8 
REMARK    3  A    between atoms: C_8  and  S_9 
REMARK    4  A    between atoms: S_9  and  C_10 
REMARK    5  A    between atoms: C_11  and  C_12 
REMARK       I    between atoms: C_12  and  N_13 
REMARK    6  A    between atoms: N_13  and  C_14 
REMARK    7  A    between atoms: C_14  and  C_15 
REMARK    8  A    between atoms: C_15  and  N_16 
REMARK    9  A    between atoms: C_15  and  C_22 
ROOT
HETATM    1  C   UNL     1      -7.812   1.401 -31.953  1.00  0.00     0.016 A 
HETATM    2  C   UNL     1      -7.972   2.150 -33.146  1.00  0.00     0.048 A 
HETATM    3  C   UNL     1      -9.034   1.871 -34.028  1.00  0.00     0.018 A 
HETATM    4  C   UNL     1      -9.909   0.820 -33.775  1.00  0.00     0.001 A 
HETATM    5  C   UNL     1      -9.731   0.043 -32.640  1.00  0.00     0.001 A 
HETATM    6  C   UNL     1      -8.698   0.331 -31.741  1.00  0.00     0.019 A 
ENDROOT
BRANCH   2   7
HETATM    7  C   UNL     1      -7.013   3.186 -33.642  1.00  0.00     0.253 C 
HETATM    8  N   UNL     1      -7.263   4.470 -33.230  1.00  0.00    -0.354 N 
HETATM    9  H   UNL     1      -8.154   4.652 -32.773  1.00  0.00     0.162 HD
HETATM   10  O   UNL     1      -5.975   2.897 -34.231  1.00  0.00    -0.268 OA
BRANCH   8  11
HETATM   11  C   UNL     1      -6.390   5.589 -33.505  1.00  0.00     0.161 C 
BRANCH  11  12
HETATM   12  C   UNL     1      -5.327   5.935 -32.417  1.00  0.00     0.245 C 
BRANCH  12  13
HETATM   13  N   UNL     1      -4.143   4.967 -32.400  1.00  0.00    -0.061 N 
HETATM   14  H   UNL     1      -4.563   4.035 -32.265  1.00  0.00     0.280 HD
HETATM   15  C   UNL     1      -3.120   5.044 -31.285  1.00  0.00     0.236 C 
HETATM   16  C   UNL     1      -1.836   5.472 -31.967  1.00  0.00     0.029 C 
HETATM   17  C   UNL     1      -1.920   4.757 -33.300  1.00  0.00     0.029 C 
HETATM   18  C   UNL     1      -3.365   4.965 -33.704  1.00  0.00     0.236 C 
ENDBRANCH  12  13
BRANCH  12  19
HETATM   19  C   UNL     1      -5.900   6.334 -31.067  1.00  0.00     0.015 A 
HETATM   20  S   UNL     1      -5.603   7.864 -30.343  1.00  0.00    -0.104 SA
HETATM   21  C   UNL     1      -6.524   7.490 -28.961  1.00  0.00     0.050 A 
HETATM   22  C   UNL     1      -7.035   6.216 -29.018  1.00  0.00     0.008 A 
HETATM   23  C   UNL     1      -6.677   5.549 -30.226  1.00  0.00     0.017 A 
ENDBRANCH  12  19
ENDBRANCH  11  12
ENDBRANCH   8  11
ENDBRANCH   2   7
BRANCH   1  24
HETATM   24  S   UNL     1      -6.517   1.814 -30.760  1.00  0.00    -0.120 SA
BRANCH  24  25
HETATM   25  C   UNL     1      -5.212   0.539 -30.948  1.00  0.00     0.182 C 
BRANCH  25  26
HETATM   26  C   UNL     1      -4.236   0.851 -32.076  1.00  0.00     0.231 C 
HETATM   27  N   UNL     1      -3.996  -0.060 -33.066  1.00  0.00    -0.327 N 
HETATM   28  H   UNL     1      -3.115   0.127 -33.535  1.00  0.00     0.169 HD
HETATM   29  O   UNL     1      -3.504   1.844 -32.045  1.00  0.00    -0.272 OA
BRANCH  27  30
HETATM   30  C   UNL     1      -4.751  -1.117 -33.594  1.00  0.00     0.034 A 
HETATM   31  C   UNL     1      -6.043  -0.977 -34.098  1.00  0.00     0.030 A 
HETATM   32  C   UNL     1      -6.700  -2.073 -34.674  1.00  0.00     0.009 A 
HETATM   33  C   UNL     1      -6.073  -3.320 -34.755  1.00  0.00    -0.062 A 
HETATM   34  C   UNL     1      -6.753  -4.484 -35.415  1.00  0.00     0.048 C 
HETATM   35  C   UNL     1      -4.764  -3.450 -34.282  1.00  0.00     0.009 A 
HETATM   36  C   UNL     1      -4.107  -2.355 -33.717  1.00  0.00     0.030 A 
ENDBRANCH  27  30
ENDBRANCH  25  26
ENDBRANCH  24  25
ENDBRANCH   1  24
TORSDOF 9
ENDMDL
MODEL 4
REMARK VINA RESULT:      -8.0      2.403      5.526
REMARK  9 active torsions:
REMARK  status: ('A' for Active; 'I' for Inactive)
REMARK    1  A    between atoms: C_5  and  N_6 
REMARK       I    between atoms: N_6  and  C_7 
REMARK    2  A    between atoms: C_7  and  C_8 
REMARK    3  A    between atoms: C_8  and  S_9 
REMARK    4  A    between atoms: S_9  and  C_10 
REMARK    5  A    between atoms: C_11  and  C_12 
REMARK       I    between atoms: C_12  and  N_13 
REMARK    6  A    between atoms: N_13  and  C_14 
REMARK    7  A    between atoms: C_14  and  C_15 
REMARK    8  A    between atoms: C_15  and  N_16 
REMARK    9  A    between atoms: C_15  and  C_22 
ROOT
HETATM    1  C   UNL     1      -6.489  -0.809 -33.074  1.00  0.00     0.016 A 
HETATM    2  C   UNL     1      -5.071  -0.770 -33.033  1.00  0.00     0.048 A 
HETATM    3  C   UNL     1      -4.309  -1.665 -33.809  1.00  0.00     0.018 A 
HETATM    4  C   UNL     1      -4.931  -2.639 -34.584  1.00  0.00     0.001 A 
HETATM    5  C   UNL     1      -6.315  -2.725 -34.590  1.00  0.00     0.001 A 
HETATM    6  C   UNL     1      -7.083  -1.820 -33.846  1.00  0.00     0.019 A 
ENDROOT
BRANCH   2   7
HETATM    7  C   UNL     1      -4.265   0.096 -32.118  1.00  0.00     0.253 C 
HETATM    8  N   UNL     1      -4.030   1.371 -32.563  1.00  0.00    -0.354 N 
HETATM    9  H   UNL     1      -4.264   1.582 -33.530  1.00  0.00     0.162 HD
HETATM   10  O   UNL     1      -3.977  -0.242 -30.973  1.00  0.00    -0.268 OA
BRANCH   8  11
HETATM   11  C   UNL     1      -3.374   2.391 -31.777  1.00  0.00     0.161 C 
BRANCH  11  12
HETATM   12  C   UNL     1      -3.901   3.851 -31.937  1.00  0.00     0.245 C 
BRANCH  12  13
HETATM   13  N   UNL     1      -5.389   3.922 -32.280  1.00  0.00    -0.061 N 
HETATM   14  H   UNL     1      -5.671   2.943 -32.446  1.00  0.00     0.280 HD
HETATM   15  C   UNL     1      -5.842   4.624 -33.544  1.00  0.00     0.236 C 
HETATM   16  C   UNL     1      -6.631   5.823 -33.059  1.00  0.00     0.029 C 
HETATM   17  C   UNL     1      -7.323   5.281 -31.826  1.00  0.00     0.029 C 
HETATM   18  C   UNL     1      -6.229   4.484 -31.146  1.00  0.00     0.236 C 
ENDBRANCH  12  13
BRANCH  12  19
HETATM   19  C   UNL     1      -2.979   4.782 -32.710  1.00  0.00     0.015 A 
HETATM   20  S   UNL     1      -2.833   6.457 -32.352  1.00  0.00    -0.104 SA
HETATM   21  C   UNL     1      -1.707   6.717 -33.602  1.00  0.00     0.050 A 
HETATM   22  C   UNL     1      -1.455   5.566 -34.309  1.00  0.00     0.008 A 
HETATM   23  C   UNL     1      -2.186   4.454 -33.800  1.00  0.00     0.017 A 
ENDBRANCH  12  19
ENDBRANCH  11  12
ENDBRANCH   8  11
ENDBRANCH   2   7
BRANCH   1  24
HETATM   24  S   UNL     1      -7.480   0.400 -32.165  1.00  0.00    -0.120 SA
BRANCH  24  25
HETATM   25  C   UNL     1      -9.173   0.313 -32.864  1.00  0.00     0.182 C 
BRANCH  25  26
HETATM   26  C   UNL     1      -9.338   1.150 -34.127  1.00  0.00     0.231 C 
HETATM   27  N   UNL     1     -10.579   1.521 -34.563  1.00  0.00    -0.327 N 
HETATM   28  H   UNL     1     -10.566   1.767 -35.548  1.00  0.00     0.169 HD
HETATM   29  O   UNL     1      -8.392   1.370 -34.888  1.00  0.00    -0.272 OA
BRANCH  27  30
HETATM   30  C   UNL     1     -11.806   1.703 -33.910  1.00  0.00     0.034 A 
HETATM   31  C   UNL     1     -12.151   2.854 -33.204  1.00  0.00     0.030 A 
HETATM   32  C   UNL     1     -13.428   2.982 -32.640  1.00  0.00     0.009 A 
HETATM   33  C   UNL     1     -14.375   1.963 -32.778  1.00  0.00    -0.062 A 
HETATM   34  C   UNL     1     -15.759   2.116 -32.219  1.00  0.00     0.048 C 
HETATM   35  C   UNL     1     -14.039   0.825 -33.516  1.00  0.00     0.009 A 
HETATM   36  C   UNL     1     -12.770   0.702 -34.086  1.00  0.00     0.030 A 
ENDBRANCH  27  30
ENDBRANCH  25  26
ENDBRANCH  24  25
ENDBRANCH   1  24
TORSDOF 9
ENDMDL
MODEL 5
REMARK VINA RESULT:      -8.0      2.054      5.708
REMARK  9 active torsions:
REMARK  status: ('A' for Active; 'I' for Inactive)
REMARK    1  A    between atoms: C_5  and  N_6 
REMARK       I    between atoms: N_6  and  C_7 
REMARK    2  A    between atoms: C_7  and  C_8 
REMARK    3  A    between atoms: C_8  and  S_9 
REMARK    4  A    between atoms: S_9  and  C_10 
REMARK    5  A    between atoms: C_11  and  C_12 
REMARK       I    between atoms: C_12  and  N_13 
REMARK    6  A    between atoms: N_13  and  C_14 
REMARK    7  A    between atoms: C_14  and  C_15 
REMARK    8  A    between atoms: C_15  and  N_16 
REMARK    9  A    between atoms: C_15  and  C_22 
ROOT
HETATM    1  C   UNL     1      -4.039   3.936 -32.592  1.00  0.00     0.016 A 
HETATM    2  C   UNL     1      -4.790   4.846 -33.379  1.00  0.00     0.048 A 
HETATM    3  C   UNL     1      -4.181   5.542 -34.441  1.00  0.00     0.018 A 
HETATM    4  C   UNL     1      -2.822   5.394 -34.701  1.00  0.00     0.001 A 
HETATM    5  C   UNL     1      -2.063   4.551 -33.904  1.00  0.00     0.001 A 
HETATM    6  C   UNL     1      -2.665   3.830 -32.864  1.00  0.00     0.019 A 
ENDROOT
BRANCH   2   7
HETATM    7  C   UNL     1      -6.206   5.244 -33.111  1.00  0.00     0.253 C 
HETATM    8  N   UNL     1      -7.136   4.752 -33.991  1.00  0.00    -0.354 N 
HETATM    9  H   UNL     1      -6.792   4.307 -34.839  1.00  0.00     0.162 HD
HETATM   10  O   UNL     1      -6.547   5.823 -32.083  1.00  0.00    -0.268 OA
BRANCH   8  11
HETATM   11  C   UNL     1      -8.563   4.926 -33.837  1.00  0.00     0.161 C 
BRANCH  11  12
HETATM   12  C   UNL     1      -9.375   3.685 -33.352  1.00  0.00     0.245 C 
BRANCH  12  13
HETATM   13  N   UNL     1      -8.499   2.466 -33.063  1.00  0.00    -0.061 N 
HETATM   14  H   UNL     1      -7.529   2.802 -33.169  1.00  0.00     0.280 HD
HETATM   15  C   UNL     1      -8.544   1.266 -33.988  1.00  0.00     0.236 C 
HETATM   16  C   UNL     1      -9.127   0.150 -33.146  1.00  0.00     0.029 C 
HETATM   17  C   UNL     1      -8.537   0.430 -31.779  1.00  0.00     0.029 C 
HETATM   18  C   UNL     1      -8.676   1.933 -31.652  1.00  0.00     0.236 C 
ENDBRANCH  12  13
BRANCH  12  19
HETATM   19  C   UNL     1     -10.667   3.431 -34.112  1.00  0.00     0.015 A 
HETATM   20  S   UNL     1     -12.023   2.644 -33.407  1.00  0.00    -0.104 SA
HETATM   21  C   UNL     1     -12.941   2.749 -34.837  1.00  0.00     0.050 A 
HETATM   22  C   UNL     1     -12.234   3.345 -35.853  1.00  0.00     0.008 A 
HETATM   23  C   UNL     1     -10.928   3.735 -35.440  1.00  0.00     0.017 A 
ENDBRANCH  12  19
ENDBRANCH  11  12
ENDBRANCH   8  11
ENDBRANCH   2   7
BRANCH   1  24
HETATM   24  S   UNL     1      -4.828   2.958 -31.292  1.00  0.00    -0.120 SA
BRANCH  24  25
HETATM   25  C   UNL     1      -4.960   1.247 -31.937  1.00  0.00     0.182 C 
BRANCH  25  26
HETATM   26  C   UNL     1      -3.702   0.422 -31.693  1.00  0.00     0.231 C 
HETATM   27  N   UNL     1      -3.684  -0.920 -31.955  1.00  0.00    -0.327 N 
HETATM   28  H   UNL     1      -2.935  -1.384 -31.450  1.00  0.00     0.169 HD
HETATM   29  O   UNL     1      -2.727   0.885 -31.096  1.00  0.00    -0.272 OA
BRANCH  27  30
HETATM   30  C   UNL     1      -4.424  -1.734 -32.824  1.00  0.00     0.034 A 
HETATM   31  C   UNL     1      -5.643  -1.365 -33.389  1.00  0.00     0.030 A 
HETATM   32  C   UNL     1      -6.283  -2.211 -34.305  1.00  0.00     0.009 A 
HETATM   33  C   UNL     1      -5.710  -3.434 -34.669  1.00  0.00    -0.062 A 
HETATM   34  C   UNL     1      -6.367  -4.321 -35.686  1.00  0.00     0.048 C 
HETATM   35  C   UNL     1      -4.471  -3.786 -34.128  1.00  0.00     0.009 A 
HETATM   36  C   UNL     1      -3.830  -2.937 -33.223  1.00  0.00     0.030 A 
ENDBRANCH  27  30
ENDBRANCH  25  26
ENDBRANCH  24  25
ENDBRANCH   1  24
TORSDOF 9
ENDMDL
MODEL 6
REMARK VINA RESULT:      -8.0      2.025      3.984
REMARK  9 active torsions:
REMARK  status: ('A' for Active; 'I' for Inactive)
REMARK    1  A    between atoms: C_5  and  N_6 
REMARK       I    between atoms: N_6  and  C_7 
REMARK    2  A    between atoms: C_7  and  C_8 
REMARK    3  A    between atoms: C_8  and  S_9 
REMARK    4  A    between atoms: S_9  and  C_10 
REMARK    5  A    between atoms: C_11  and  C_12 
REMARK       I    between atoms: C_12  and  N_13 
REMARK    6  A    between atoms: N_13  and  C_14 
REMARK    7  A    between atoms: C_14  and  C_15 
REMARK    8  A    between atoms: C_15  and  N_16 
REMARK    9  A    between atoms: C_15  and  C_22 
ROOT
HETATM    1  C   UNL     1      -6.256   1.155 -31.389  1.00  0.00     0.016 A 
HETATM    2  C   UNL     1      -5.262   2.033 -31.892  1.00  0.00     0.048 A 
HETATM    3  C   UNL     1      -3.899   1.686 -31.818  1.00  0.00     0.018 A 
HETATM    4  C   UNL     1      -3.500   0.505 -31.200  1.00  0.00     0.001 A 
HETATM    5  C   UNL     1      -4.458  -0.337 -30.654  1.00  0.00     0.001 A 
HETATM    6  C   UNL     1      -5.818  -0.016 -30.749  1.00  0.00     0.019 A 
ENDROOT
BRANCH   2   7
HETATM    7  C   UNL     1      -5.522   3.408 -32.419  1.00  0.00     0.253 C 
HETATM    8  N   UNL     1      -5.387   4.426 -31.510  1.00  0.00    -0.354 N 
HETATM    9  H   UNL     1      -5.292   4.171 -30.529  1.00  0.00     0.162 HD
HETATM   10  O   UNL     1      -5.674   3.640 -33.615  1.00  0.00    -0.268 OA
BRANCH   8  11
HETATM   11  C   UNL     1      -5.481   5.828 -31.849  1.00  0.00     0.161 C 
BRANCH  11  12
HETATM   12  C   UNL     1      -4.166   6.531 -32.309  1.00  0.00     0.245 C 
BRANCH  12  13
HETATM   13  N   UNL     1      -3.225   5.605 -33.079  1.00  0.00    -0.061 N 
HETATM   14  H   UNL     1      -3.803   4.791 -33.339  1.00  0.00     0.280 HD
HETATM   15  C   UNL     1      -2.044   4.969 -32.372  1.00  0.00     0.236 C 
HETATM   16  C   UNL     1      -0.824   5.579 -33.033  1.00  0.00     0.029 C 
HETATM   17  C   UNL     1      -1.267   5.713 -34.476  1.00  0.00     0.029 C 
HETATM   18  C   UNL     1      -2.682   6.239 -34.348  1.00  0.00     0.236 C 
ENDBRANCH  12  13
BRANCH  12  19
HETATM   19  C   UNL     1      -3.530   7.438 -31.269  1.00  0.00     0.015 A 
HETATM   20  S   UNL     1      -3.743   7.211 -29.578  1.00  0.00    -0.104 SA
HETATM   21  C   UNL     1      -2.787   8.564 -29.185  1.00  0.00     0.050 A 
HETATM   22  C   UNL     1      -2.328   9.208 -30.309  1.00  0.00     0.008 A 
HETATM   23  C   UNL     1      -2.754   8.564 -31.506  1.00  0.00     0.017 A 
ENDBRANCH  12  19
ENDBRANCH  11  12
ENDBRANCH   8  11
ENDBRANCH   2   7
BRANCH   1  24
HETATM   24  S   UNL     1      -8.014   1.538 -31.570  1.00  0.00    -0.120 SA
BRANCH  24  25
HETATM   25  C   UNL     1      -8.738   0.190 -32.582  1.00  0.00     0.182 C 
BRANCH  25  26
HETATM   26  C   UNL     1      -8.593   0.429 -34.080  1.00  0.00     0.231 C 
HETATM   27  N   UNL     1      -7.531  -0.085 -34.770  1.00  0.00    -0.327 N 
HETATM   28  H   UNL     1      -7.383   0.412 -35.644  1.00  0.00     0.169 HD
HETATM   29  O   UNL     1      -9.316   1.226 -34.684  1.00  0.00    -0.272 OA
BRANCH  27  30
HETATM   30  C   UNL     1      -6.689  -1.185 -34.550  1.00  0.00     0.034 A 
HETATM   31  C   UNL     1      -7.063  -2.509 -34.772  1.00  0.00     0.030 A 
HETATM   32  C   UNL     1      -6.135  -3.544 -34.593  1.00  0.00     0.009 A 
HETATM   33  C   UNL     1      -4.824  -3.268 -34.193  1.00  0.00    -0.062 A 
HETATM   34  C   UNL     1      -3.814  -4.369 -34.048  1.00  0.00     0.048 C 
HETATM   35  C   UNL     1      -4.442  -1.937 -34.005  1.00  0.00     0.009 A 
HETATM   36  C   UNL     1      -5.365  -0.905 -34.193  1.00  0.00     0.030 A 
ENDBRANCH  27  30
ENDBRANCH  25  26
ENDBRANCH  24  25
ENDBRANCH   1  24
TORSDOF 9
ENDMDL
MODEL 7
REMARK VINA RESULT:      -8.0      2.757      4.772
REMARK  9 active torsions:
REMARK  status: ('A' for Active; 'I' for Inactive)
REMARK    1  A    between atoms: C_5  and  N_6 
REMARK       I    between atoms: N_6  and  C_7 
REMARK    2  A    between atoms: C_7  and  C_8 
REMARK    3  A    between atoms: C_8  and  S_9 
REMARK    4  A    between atoms: S_9  and  C_10 
REMARK    5  A    between atoms: C_11  and  C_12 
REMARK       I    between atoms: C_12  and  N_13 
REMARK    6  A    between atoms: N_13  and  C_14 
REMARK    7  A    between atoms: C_14  and  C_15 
REMARK    8  A    between atoms: C_15  and  N_16 
REMARK    9  A    between atoms: C_15  and  C_22 
ROOT
HETATM    1  C   UNL     1      -5.338   2.047 -31.043  1.00  0.00     0.016 A 
HETATM    2  C   UNL     1      -4.176   2.195 -31.843  1.00  0.00     0.048 A 
HETATM    3  C   UNL     1      -3.502   1.062 -32.341  1.00  0.00     0.018 A 
HETATM    4  C   UNL     1      -3.929  -0.220 -32.010  1.00  0.00     0.001 A 
HETATM    5  C   UNL     1      -5.030  -0.379 -31.182  1.00  0.00     0.001 A 
HETATM    6  C   UNL     1      -5.726   0.739 -30.707  1.00  0.00     0.019 A 
ENDROOT
BRANCH   2   7
HETATM    7  C   UNL     1      -3.497   3.495 -32.134  1.00  0.00     0.253 C 
HETATM    8  N   UNL     1      -2.663   3.961 -31.150  1.00  0.00    -0.354 N 
HETATM    9  H   UNL     1      -2.694   3.494 -30.247  1.00  0.00     0.162 HD
HETATM   10  O   UNL     1      -3.538   4.030 -33.239  1.00  0.00    -0.268 OA
BRANCH   8  11
HETATM   11  C   UNL     1      -1.830   5.134 -31.288  1.00  0.00     0.161 C 
BRANCH  11  12
HETATM   12  C   UNL     1      -2.194   6.364 -30.399  1.00  0.00     0.245 C 
BRANCH  12  13
HETATM   13  N   UNL     1      -1.398   6.422 -29.095  1.00  0.00    -0.061 N 
HETATM   14  H   UNL     1      -1.977   5.918 -28.406  1.00  0.00     0.280 HD
HETATM   15  C   UNL     1      -1.152   7.757 -28.419  1.00  0.00     0.236 C 
HETATM   16  C   UNL     1       0.347   7.962 -28.504  1.00  0.00     0.029 C 
HETATM   17  C   UNL     1       0.880   6.555 -28.329  1.00  0.00     0.029 C 
HETATM   18  C   UNL     1      -0.050   5.731 -29.195  1.00  0.00     0.236 C 
ENDBRANCH  12  13
BRANCH  12  19
HETATM   19  C   UNL     1      -3.681   6.666 -30.305  1.00  0.00     0.015 A 
HETATM   20  S   UNL     1      -4.622   7.148 -31.660  1.00  0.00    -0.104 SA
HETATM   21  C   UNL     1      -6.045   7.287 -30.736  1.00  0.00     0.050 A 
HETATM   22  C   UNL     1      -5.822   7.002 -29.411  1.00  0.00     0.008 A 
HETATM   23  C   UNL     1      -4.465   6.647 -29.160  1.00  0.00     0.017 A 
ENDBRANCH  12  19
ENDBRANCH  11  12
ENDBRANCH   8  11
ENDBRANCH   2   7
BRANCH   1  24
HETATM   24  S   UNL     1      -6.273   3.490 -30.484  1.00  0.00    -0.120 SA
BRANCH  24  25
HETATM   25  C   UNL     1      -8.038   2.993 -30.476  1.00  0.00     0.182 C 
BRANCH  25  26
HETATM   26  C   UNL     1      -8.816   3.548 -31.664  1.00  0.00     0.231 C 
HETATM   27  N   UNL     1      -8.591   3.079 -32.928  1.00  0.00    -0.327 N 
HETATM   28  H   UNL     1      -8.911   3.741 -33.629  1.00  0.00     0.169 HD
HETATM   29  O   UNL     1      -9.536   4.545 -31.560  1.00  0.00    -0.272 OA
BRANCH  27  30
HETATM   30  C   UNL     1      -8.098   1.864 -33.422  1.00  0.00     0.034 A 
HETATM   31  C   UNL     1      -6.981   1.754 -34.248  1.00  0.00     0.030 A 
HETATM   32  C   UNL     1      -6.512   0.493 -34.640  1.00  0.00     0.009 A 
HETATM   33  C   UNL     1      -7.153  -0.673 -34.210  1.00  0.00    -0.062 A 
HETATM   34  C   UNL     1      -6.627  -2.027 -34.587  1.00  0.00     0.048 C 
HETATM   35  C   UNL     1      -8.252  -0.562 -33.354  1.00  0.00     0.009 A 
HETATM   36  C   UNL     1      -8.712   0.695 -32.956  1.00  0.00     0.030 A 
ENDBRANCH  27  30
ENDBRANCH  25  26
ENDBRANCH  24  25
ENDBRANCH   1  24
TORSDOF 9
ENDMDL
MODEL 8
REMARK VINA RESULT:      -7.9      2.307      8.411
REMARK  9 active torsions:
REMARK  status: ('A' for Active; 'I' for Inactive)
REMARK    1  A    between atoms: C_5  and  N_6 
REMARK       I    between atoms: N_6  and  C_7 
REMARK    2  A    between atoms: C_7  and  C_8 
REMARK    3  A    between atoms: C_8  and  S_9 
REMARK    4  A    between atoms: S_9  and  C_10 
REMARK    5  A    between atoms: C_11  and  C_12 
REMARK       I    between atoms: C_12  and  N_13 
REMARK    6  A    between atoms: N_13  and  C_14 
REMARK    7  A    between atoms: C_14  and  C_15 
REMARK    8  A    between atoms: C_15  and  N_16 
REMARK    9  A    between atoms: C_15  and  C_22 
ROOT
HETATM    1  C   UNL     1      -4.534   5.123 -33.418  1.00  0.00     0.016 A 
HETATM    2  C   UNL     1      -3.930   4.040 -32.731  1.00  0.00     0.048 A 
HETATM    3  C   UNL     1      -2.558   3.765 -32.896  1.00  0.00     0.018 A 
HETATM    4  C   UNL     1      -1.785   4.514 -33.778  1.00  0.00     0.001 A 
HETATM    5  C   UNL     1      -2.376   5.541 -34.499  1.00  0.00     0.001 A 
HETATM    6  C   UNL     1      -3.732   5.843 -34.320  1.00  0.00     0.019 A 
ENDROOT
BRANCH   2   7
HETATM    7  C   UNL     1      -4.663   3.042 -31.893  1.00  0.00     0.253 C 
HETATM    8  N   UNL     1      -5.071   1.907 -32.545  1.00  0.00    -0.354 N 
HETATM    9  H   UNL     1      -5.002   1.897 -33.560  1.00  0.00     0.162 HD
HETATM   10  O   UNL     1      -4.748   3.139 -30.672  1.00  0.00    -0.268 OA
BRANCH   8  11
HETATM   11  C   UNL     1      -5.689   0.777 -31.888  1.00  0.00     0.161 C 
BRANCH  11  12
HETATM   12  C   UNL     1      -6.570  -0.157 -32.775  1.00  0.00     0.245 C 
BRANCH  12  13
HETATM   13  N   UNL     1      -5.796  -0.805 -33.923  1.00  0.00    -0.061 N 
HETATM   14  H   UNL     1      -5.499  -0.019 -34.522  1.00  0.00     0.280 HD
HETATM   15  C   UNL     1      -6.513  -1.720 -34.897  1.00  0.00     0.236 C 
HETATM   16  C   UNL     1      -5.900  -3.086 -34.665  1.00  0.00     0.029 C 
HETATM   17  C   UNL     1      -4.451  -2.749 -34.376  1.00  0.00     0.029 C 
HETATM   18  C   UNL     1      -4.560  -1.552 -33.454  1.00  0.00     0.236 C 
ENDBRANCH  12  13
BRANCH  12  19
HETATM   19  C   UNL     1      -7.949   0.390 -33.105  1.00  0.00     0.015 A 
HETATM   20  S   UNL     1      -8.209   1.614 -34.283  1.00  0.00    -0.104 SA
HETATM   21  C   UNL     1      -9.890   1.639 -34.018  1.00  0.00     0.050 A 
HETATM   22  C   UNL     1     -10.264   0.757 -33.033  1.00  0.00     0.008 A 
HETATM   23  C   UNL     1      -9.151   0.040 -32.505  1.00  0.00     0.017 A 
ENDBRANCH  12  19
ENDBRANCH  11  12
ENDBRANCH   8  11
ENDBRANCH   2   7
BRANCH   1  24
HETATM   24  S   UNL     1      -6.268   5.553 -33.138  1.00  0.00    -0.120 SA
BRANCH  24  25
HETATM   25  C   UNL     1      -6.347   6.342 -31.485  1.00  0.00     0.182 C 
BRANCH  25  26
HETATM   26  C   UNL     1      -6.106   7.846 -31.532  1.00  0.00     0.231 C 
HETATM   27  N   UNL     1      -4.917   8.377 -31.117  1.00  0.00    -0.327 N 
HETATM   28  H   UNL     1      -5.013   9.362 -30.889  1.00  0.00     0.169 HD
HETATM   29  O   UNL     1      -7.017   8.642 -31.774  1.00  0.00    -0.272 OA
BRANCH  27  30
HETATM   30  C   UNL     1      -3.618   7.859 -31.030  1.00  0.00     0.034 A 
HETATM   31  C   UNL     1      -3.262   6.776 -30.228  1.00  0.00     0.030 A 
HETATM   32  C   UNL     1      -1.953   6.276 -30.254  1.00  0.00     0.009 A 
HETATM   33  C   UNL     1      -0.985   6.850 -31.084  1.00  0.00    -0.062 A 
HETATM   34  C   UNL     1       0.404   6.288 -31.152  1.00  0.00     0.048 C 
HETATM   35  C   UNL     1      -1.353   7.913 -31.914  1.00  0.00     0.009 A 
HETATM   36  C   UNL     1      -2.660   8.404 -31.894  1.00  0.00     0.030 A 
ENDBRANCH  27  30
ENDBRANCH  25  26
ENDBRANCH  24  25
ENDBRANCH   1  24
TORSDOF 9
ENDMDL
MODEL 9
REMARK VINA RESULT:      -7.9      2.655      6.233
REMARK  9 active torsions:
REMARK  status: ('A' for Active; 'I' for Inactive)
REMARK    1  A    between atoms: C_5  and  N_6 
REMARK       I    between atoms: N_6  and  C_7 
REMARK    2  A    between atoms: C_7  and  C_8 
REMARK    3  A    between atoms: C_8  and  S_9 
REMARK    4  A    between atoms: S_9  and  C_10 
REMARK    5  A    between atoms: C_11  and  C_12 
REMARK       I    between atoms: C_12  and  N_13 
REMARK    6  A    between atoms: N_13  and  C_14 
REMARK    7  A    between atoms: C_14  and  C_15 
REMARK    8  A    between atoms: C_15  and  N_16 
REMARK    9  A    between atoms: C_15  and  C_22 
ROOT
HETATM    1  C   UNL     1      -6.583  -0.773 -33.048  1.00  0.00     0.016 A 
HETATM    2  C   UNL     1      -5.173  -0.660 -32.938  1.00  0.00     0.048 A 
HETATM    3  C   UNL     1      -4.329  -1.499 -33.691  1.00  0.00     0.018 A 
HETATM    4  C   UNL     1      -4.859  -2.489 -34.512  1.00  0.00     0.001 A 
HETATM    5  C   UNL     1      -6.235  -2.647 -34.587  1.00  0.00     0.001 A 
HETATM    6  C   UNL     1      -7.085  -1.799 -33.866  1.00  0.00     0.019 A 
ENDROOT
BRANCH   2   7
HETATM    7  C   UNL     1      -4.458   0.228 -31.970  1.00  0.00     0.253 C 
HETATM    8  N   UNL     1      -4.136   1.476 -32.438  1.00  0.00    -0.354 N 
HETATM    9  H   UNL     1      -4.247   1.648 -33.435  1.00  0.00     0.162 HD
HETATM   10  O   UNL     1      -4.319  -0.062 -30.785  1.00  0.00    -0.268 OA
BRANCH   8  11
HETATM   11  C   UNL     1      -3.551   2.517 -31.623  1.00  0.00     0.161 C 
BRANCH  11  12
HETATM   12  C   UNL     1      -4.182   3.939 -31.737  1.00  0.00     0.245 C 
BRANCH  12  13
HETATM   13  N   UNL     1      -3.144   5.049 -31.896  1.00  0.00    -0.061 N 
HETATM   14  H   UNL     1      -3.497   5.830 -31.321  1.00  0.00     0.280 HD
HETATM   15  C   UNL     1      -2.930   5.695 -33.250  1.00  0.00     0.236 C 
HETATM   16  C   UNL     1      -1.520   5.305 -33.646  1.00  0.00     0.029 C 
HETATM   17  C   UNL     1      -0.790   5.326 -32.319  1.00  0.00     0.029 C 
HETATM   18  C   UNL     1      -1.771   4.651 -31.382  1.00  0.00     0.236 C 
ENDBRANCH  12  13
BRANCH  12  19
HETATM   19  C   UNL     1      -5.326   4.208 -30.772  1.00  0.00     0.015 A 
HETATM   20  S   UNL     1      -5.613   5.753 -30.074  1.00  0.00    -0.104 SA
HETATM   21  C   UNL     1      -6.955   5.201 -29.184  1.00  0.00     0.050 A 
HETATM   22  C   UNL     1      -7.180   3.860 -29.379  1.00  0.00     0.008 A 
HETATM   23  C   UNL     1      -6.245   3.287 -30.289  1.00  0.00     0.017 A 
ENDBRANCH  12  19
ENDBRANCH  11  12
ENDBRANCH   8  11
ENDBRANCH   2   7
BRANCH   1  24
HETATM   24  S   UNL     1      -7.679   0.364 -32.168  1.00  0.00    -0.120 SA
BRANCH  24  25
HETATM   25  C   UNL     1      -9.331   0.200 -32.947  1.00  0.00     0.182 C 
BRANCH  25  26
HETATM   26  C   UNL     1      -9.485   1.054 -34.199  1.00  0.00     0.231 C 
HETATM   27  N   UNL     1     -10.720   1.461 -34.621  1.00  0.00    -0.327 N 
HETATM   28  H   UNL     1     -10.709   1.718 -35.604  1.00  0.00     0.169 HD
HETATM   29  O   UNL     1      -8.540   1.260 -34.965  1.00  0.00    -0.272 OA
BRANCH  27  30
HETATM   30  C   UNL     1     -11.938   1.664 -33.956  1.00  0.00     0.034 A 
HETATM   31  C   UNL     1     -12.265   2.831 -33.269  1.00  0.00     0.030 A 
HETATM   32  C   UNL     1     -13.533   2.980 -32.691  1.00  0.00     0.009 A 
HETATM   33  C   UNL     1     -14.490   1.966 -32.797  1.00  0.00    -0.062 A 
HETATM   34  C   UNL     1     -15.866   2.141 -32.224  1.00  0.00     0.048 C 
HETATM   35  C   UNL     1     -14.172   0.812 -33.517  1.00  0.00     0.009 A 
HETATM   36  C   UNL     1     -12.911   0.668 -34.100  1.00  0.00     0.030 A 
ENDBRANCH  27  30
ENDBRANCH  25  26
ENDBRANCH  24  25
ENDBRANCH   1  24
TORSDOF 9
ENDMDL
MODEL 10
REMARK VINA RESULT:      -7.9      2.424      5.591
REMARK  9 active torsions:
REMARK  status: ('A' for Active; 'I' for Inactive)
REMARK    1  A    between atoms: C_5  and  N_6 
REMARK       I    between atoms: N_6  and  C_7 
REMARK    2  A    between atoms: C_7  and  C_8 
REMARK    3  A    between atoms: C_8  and  S_9 
REMARK    4  A    between atoms: S_9  and  C_10 
REMARK    5  A    between atoms: C_11  and  C_12 
REMARK       I    between atoms: C_12  and  N_13 
REMARK    6  A    between atoms: N_13  and  C_14 
REMARK    7  A    between atoms: C_14  and  C_15 
REMARK    8  A    between atoms: C_15  and  N_16 
REMARK    9  A    between atoms: C_15  and  C_22 
ROOT
HETATM    1  C   UNL     1      -6.356  -0.399 -33.902  1.00  0.00     0.016 A 
HETATM    2  C   UNL     1      -5.146  -0.441 -33.163  1.00  0.00     0.048 A 
HETATM    3  C   UNL     1      -4.298  -1.562 -33.246  1.00  0.00     0.018 A 
HETATM    4  C   UNL     1      -4.657  -2.670 -34.007  1.00  0.00     0.001 A 
HETATM    5  C   UNL     1      -5.864  -2.665 -34.691  1.00  0.00     0.001 A 
HETATM    6  C   UNL     1      -6.701  -1.544 -34.640  1.00  0.00     0.019 A 
ENDROOT
BRANCH   2   7
HETATM    7  C   UNL     1      -4.714   0.589 -32.168  1.00  0.00     0.253 C 
HETATM    8  N   UNL     1      -3.740   1.453 -32.596  1.00  0.00    -0.354 N 
HETATM    9  H   UNL     1      -3.268   1.235 -33.471  1.00  0.00     0.162 HD
HETATM   10  O   UNL     1      -5.303   0.769 -31.105  1.00  0.00    -0.268 OA
BRANCH   8  11
HETATM   11  C   UNL     1      -3.273   2.585 -31.829  1.00  0.00     0.161 C 
BRANCH  11  12
HETATM   12  C   UNL     1      -3.952   3.960 -32.117  1.00  0.00     0.245 C 
BRANCH  12  13
HETATM   13  N   UNL     1      -5.408   3.831 -32.566  1.00  0.00    -0.061 N 
HETATM   14  H   UNL     1      -5.516   2.843 -32.840  1.00  0.00     0.280 HD
HETATM   15  C   UNL     1      -5.889   4.579 -33.794  1.00  0.00     0.236 C 
HETATM   16  C   UNL     1      -6.891   5.585 -33.266  1.00  0.00     0.029 C 
HETATM   17  C   UNL     1      -7.562   4.820 -32.143  1.00  0.00     0.029 C 
HETATM   18  C   UNL     1      -6.397   4.139 -31.455  1.00  0.00     0.236 C 
ENDBRANCH  12  13
BRANCH  12  19
HETATM   19  C   UNL     1      -3.088   4.951 -32.880  1.00  0.00     0.015 A 
HETATM   20  S   UNL     1      -3.124   6.644 -32.579  1.00  0.00    -0.104 SA
HETATM   21  C   UNL     1      -1.969   6.973 -33.785  1.00  0.00     0.050 A 
HETATM   22  C   UNL     1      -1.571   5.831 -34.437  1.00  0.00     0.008 A 
HETATM   23  C   UNL     1      -2.214   4.669 -33.920  1.00  0.00     0.017 A 
ENDBRANCH  12  19
ENDBRANCH  11  12
ENDBRANCH   8  11
ENDBRANCH   2   7
BRANCH   1  24
HETATM   24  S   UNL     1      -7.405   1.074 -33.888  1.00  0.00    -0.120 SA
BRANCH  24  25
HETATM   25  C   UNL     1      -8.482   0.930 -32.411  1.00  0.00     0.182 C 
BRANCH  25  26
HETATM   26  C   UNL     1      -9.927   0.596 -32.760  1.00  0.00     0.231 C 
HETATM   27  N   UNL     1     -10.846   1.588 -32.959  1.00  0.00    -0.327 N 
HETATM   28  H   UNL     1     -11.794   1.241 -32.850  1.00  0.00     0.169 HD
HETATM   29  O   UNL     1     -10.359  -0.558 -32.702  1.00  0.00    -0.272 OA
BRANCH  27  30
HETATM   30  C   UNL     1     -10.734   2.928 -33.356  1.00  0.00     0.034 A 
HETATM   31  C   UNL     1     -10.303   3.334 -34.618  1.00  0.00     0.030 A 
HETATM   32  C   UNL     1     -10.288   4.693 -34.957  1.00  0.00     0.009 A 
HETATM   33  C   UNL     1     -10.707   5.663 -34.040  1.00  0.00    -0.062 A 
HETATM   34  C   UNL     1     -10.740   7.116 -34.415  1.00  0.00     0.048 C 
HETATM   35  C   UNL     1     -11.172   5.252 -32.789  1.00  0.00     0.009 A 
HETATM   36  C   UNL     1     -11.195   3.896 -32.455  1.00  0.00     0.030 A 
ENDBRANCH  27  30
ENDBRANCH  25  26
ENDBRANCH  24  25
ENDBRANCH   1  24
TORSDOF 9
ENDMDL
