MODEL 1
REMARK VINA RESULT:      -8.0      0.000      0.000
REMARK  4 active torsions:
REMARK  status: ('A' for Active; 'I' for Inactive)
REMARK    1  A    between atoms: C_9  and  N_10 
REMARK    2  A    between atoms: N_10  and  C_12 
REMARK    3  A    between atoms: C_12  and  C_13 
REMARK    4  A    between atoms: C_14  and  C_15 
ROOT
HETATM    1  C   UNL     1      -7.285   2.464 -31.858  1.00  0.00     0.016 A 
HETATM    2  C   UNL     1      -6.511   1.320 -31.478  1.00  0.00     0.096 A 
HETATM    3  N   UNL     1      -6.357   1.267 -30.150  1.00  0.00    -0.174 NA
HETATM    4  N   UNL     1      -7.007   2.332 -29.677  1.00  0.00    -0.288 N 
HETATM    5  H   UNL     1      -7.023   2.477 -28.669  1.00  0.00     0.188 HD
HETATM    6  C   UNL     1      -7.598   3.078 -30.657  1.00  0.00     0.120 A 
ENDROOT
BRANCH   1   7
HETATM    7  C   UNL     1      -7.722   2.816 -33.238  1.00  0.00     0.277 C 
BRANCH   7   8
HETATM    8  N   UNL     1      -8.842   3.837 -33.315  1.00  0.00    -0.065 N 
HETATM    9  H   UNL     1      -9.280   3.895 -32.390  1.00  0.00     0.280 HD
HETATM   10  C   UNL     1      -8.313   5.196 -33.709  1.00  0.00     0.270 C 
BRANCH   8  11
HETATM   11  C   UNL     1      -9.812   3.408 -34.382  1.00  0.00     0.205 C 
HETATM   12  C   UNL     1     -11.345   3.894 -34.229  1.00  0.00     0.008 C 
HETATM   13  C   UNL     1     -12.120   3.964 -35.553  1.00  0.00     0.020 C 
HETATM   14  C   UNL     1     -11.683   5.122 -33.383  1.00  0.00     0.020 C 
HETATM   15  C   UNL     1     -11.516   2.603 -33.418  1.00  0.00     0.137 C 
HETATM   16  C   UNL     1     -10.389   1.950 -34.262  1.00  0.00     0.049 C 
HETATM   17  O   UNL     1     -12.609   1.685 -33.451  1.00  0.00    -0.385 OA
HETATM   18  C   UNL     1     -10.474   0.654 -33.461  1.00  0.00     0.035 C 
HETATM   19  C   UNL     1     -12.004   0.369 -33.459  1.00  0.00     0.168 C 
ENDBRANCH   8  11
ENDBRANCH   7   8
ENDBRANCH   1   7
BRANCH   2  20
HETATM   20  C   UNL     1      -5.975   0.261 -32.328  1.00  0.00    -0.002 A 
HETATM   21  C   UNL     1      -6.807  -0.735 -32.853  1.00  0.00     0.053 A 
HETATM   22  C   UNL     1      -6.263  -1.768 -33.617  1.00  0.00     0.103 A 
HETATM   23  C   UNL     1      -4.888  -1.818 -33.860  1.00  0.00     0.102 A 
HETATM   24  O   UNL     1      -7.143  -2.711 -34.082  1.00  0.00    -0.346 OA
HETATM   25  O   UNL     1      -4.286  -2.821 -34.571  1.00  0.00    -0.346 OA
HETATM   26  C   UNL     1      -4.060  -0.806 -33.379  1.00  0.00     0.040 A 
HETATM   27  C   UNL     1      -5.155  -3.946 -34.744  1.00  0.00     0.202 C 
HETATM   28  C   UNL     1      -6.554  -3.494 -35.132  1.00  0.00     0.202 C 
HETATM   29  C   UNL     1      -4.602   0.230 -32.614  1.00  0.00     0.017 A 
ENDBRANCH   2  20
TORSDOF 4
ENDMDL
MODEL 2
REMARK VINA RESULT:      -8.0      3.778      6.862
REMARK  4 active torsions:
REMARK  status: ('A' for Active; 'I' for Inactive)
REMARK    1  A    between atoms: C_9  and  N_10 
REMARK    2  A    between atoms: N_10  and  C_12 
REMARK    3  A    between atoms: C_12  and  C_13 
REMARK    4  A    between atoms: C_14  and  C_15 
ROOT
HETATM    1  C   UNL     1      -6.966   2.065 -32.381  1.00  0.00     0.016 A 
HETATM    2  C   UNL     1      -6.189   2.963 -31.579  1.00  0.00     0.096 A 
HETATM    3  N   UNL     1      -6.761   3.153 -30.385  1.00  0.00    -0.174 NA
HETATM    4  N   UNL     1      -7.867   2.408 -30.400  1.00  0.00    -0.288 N 
HETATM    5  H   UNL     1      -8.454   2.401 -29.568  1.00  0.00     0.188 HD
HETATM    6  C   UNL     1      -8.033   1.719 -31.569  1.00  0.00     0.120 A 
ENDROOT
BRANCH   1   7
HETATM    7  C   UNL     1      -6.614   1.562 -33.738  1.00  0.00     0.277 C 
BRANCH   7   8
HETATM    8  N   UNL     1      -6.995   0.118 -34.005  1.00  0.00    -0.065 N 
HETATM    9  H   UNL     1      -7.338  -0.286 -33.126  1.00  0.00     0.280 HD
HETATM   10  C   UNL     1      -8.073   0.025 -35.058  1.00  0.00     0.270 C 
BRANCH   8  11
HETATM   11  C   UNL     1      -5.788  -0.609 -34.535  1.00  0.00     0.205 C 
HETATM   12  C   UNL     1      -5.741  -2.211 -34.336  1.00  0.00     0.008 C 
HETATM   13  C   UNL     1      -4.866  -2.948 -35.360  1.00  0.00     0.020 C 
HETATM   14  C   UNL     1      -7.034  -2.999 -34.121  1.00  0.00     0.020 C 
HETATM   15  C   UNL     1      -5.072  -1.876 -32.997  1.00  0.00     0.137 C 
HETATM   16  C   UNL     1      -4.500  -0.581 -33.634  1.00  0.00     0.049 C 
HETATM   17  O   UNL     1      -3.963  -2.531 -32.383  1.00  0.00    -0.385 OA
HETATM   18  C   UNL     1      -3.850  -0.164 -32.317  1.00  0.00     0.035 C 
HETATM   19  C   UNL     1      -3.115  -1.466 -31.887  1.00  0.00     0.168 C 
ENDBRANCH   8  11
ENDBRANCH   7   8
ENDBRANCH   1   7
BRANCH   2  20
HETATM   20  C   UNL     1      -4.907   3.586 -31.894  1.00  0.00    -0.002 A 
HETATM   21  C   UNL     1      -4.814   4.601 -32.855  1.00  0.00     0.053 A 
HETATM   22  C   UNL     1      -3.570   5.143 -33.180  1.00  0.00     0.103 A 
HETATM   23  C   UNL     1      -2.411   4.676 -32.552  1.00  0.00     0.102 A 
HETATM   24  O   UNL     1      -3.562   6.121 -34.140  1.00  0.00    -0.346 OA
HETATM   25  O   UNL     1      -1.158   5.140 -32.848  1.00  0.00    -0.346 OA
HETATM   26  C   UNL     1      -2.501   3.700 -31.563  1.00  0.00     0.040 A 
HETATM   27  C   UNL     1      -1.142   5.892 -34.067  1.00  0.00     0.202 C 
HETATM   28  C   UNL     1      -2.323   6.847 -34.129  1.00  0.00     0.202 C 
HETATM   29  C   UNL     1      -3.746   3.155 -31.236  1.00  0.00     0.017 A 
ENDBRANCH   2  20
TORSDOF 4
ENDMDL
MODEL 3
REMARK VINA RESULT:      -7.9      6.797      8.872
REMARK  4 active torsions:
REMARK  status: ('A' for Active; 'I' for Inactive)
REMARK    1  A    between atoms: C_9  and  N_10 
REMARK    2  A    between atoms: N_10  and  C_12 
REMARK    3  A    between atoms: C_12  and  C_13 
REMARK    4  A    between atoms: C_14  and  C_15 
ROOT
HETATM    1  C   UNL     1      -0.206   6.118 -29.177  1.00  0.00     0.016 A 
HETATM    2  C   UNL     1      -0.182   5.404 -30.419  1.00  0.00     0.096 A 
HETATM    3  N   UNL     1       0.744   4.439 -30.397  1.00  0.00    -0.174 NA
HETATM    4  N   UNL     1       1.304   4.513 -29.188  1.00  0.00    -0.288 N 
HETATM    5  H   UNL     1       2.039   3.849 -28.957  1.00  0.00     0.188 HD
HETATM    6  C   UNL     1       0.761   5.494 -28.407  1.00  0.00     0.120 A 
ENDROOT
BRANCH   1   7
HETATM    7  C   UNL     1      -1.148   7.210 -28.803  1.00  0.00     0.277 C 
BRANCH   7   8
HETATM    8  N   UNL     1      -2.274   6.795 -27.874  1.00  0.00    -0.065 N 
HETATM    9  H   UNL     1      -2.573   5.852 -28.142  1.00  0.00     0.280 HD
HETATM   10  C   UNL     1      -1.815   6.788 -26.434  1.00  0.00     0.270 C 
BRANCH   8  11
HETATM   11  C   UNL     1      -3.386   7.802 -27.985  1.00  0.00     0.205 C 
HETATM   12  C   UNL     1      -4.897   7.261 -27.800  1.00  0.00     0.008 C 
HETATM   13  C   UNL     1      -5.896   8.328 -27.331  1.00  0.00     0.020 C 
HETATM   14  C   UNL     1      -5.161   5.958 -27.045  1.00  0.00     0.020 C 
HETATM   15  C   UNL     1      -4.836   7.018 -29.313  1.00  0.00     0.137 C 
HETATM   16  C   UNL     1      -3.834   8.197 -29.440  1.00  0.00     0.049 C 
HETATM   17  O   UNL     1      -5.853   7.265 -30.283  1.00  0.00    -0.385 OA
HETATM   18  C   UNL     1      -3.689   7.975 -30.943  1.00  0.00     0.035 C 
HETATM   19  C   UNL     1      -5.172   7.880 -31.405  1.00  0.00     0.168 C 
ENDBRANCH   8  11
ENDBRANCH   7   8
ENDBRANCH   1   7
BRANCH   2  20
HETATM   20  C   UNL     1      -1.045   5.576 -31.584  1.00  0.00    -0.002 A 
HETATM   21  C   UNL     1      -2.175   4.770 -31.770  1.00  0.00     0.053 A 
HETATM   22  C   UNL     1      -2.954   4.915 -32.919  1.00  0.00     0.103 A 
HETATM   23  C   UNL     1      -2.611   5.860 -33.890  1.00  0.00     0.102 A 
HETATM   24  O   UNL     1      -4.035   4.079 -33.033  1.00  0.00    -0.346 OA
HETATM   25  O   UNL     1      -3.311   6.029 -35.054  1.00  0.00    -0.346 OA
HETATM   26  C   UNL     1      -1.515   6.695 -33.690  1.00  0.00     0.040 A 
HETATM   27  C   UNL     1      -4.204   4.938 -35.302  1.00  0.00     0.202 C 
HETATM   28  C   UNL     1      -4.949   4.550 -34.035  1.00  0.00     0.202 C 
HETATM   29  C   UNL     1      -0.733   6.553 -32.540  1.00  0.00     0.017 A 
ENDBRANCH   2  20
TORSDOF 4
ENDMDL
MODEL 4
REMARK VINA RESULT:      -7.8      4.653      7.012
REMARK  4 active torsions:
REMARK  status: ('A' for Active; 'I' for Inactive)
REMARK    1  A    between atoms: C_9  and  N_10 
REMARK    2  A    between atoms: N_10  and  C_12 
REMARK    3  A    between atoms: C_12  and  C_13 
REMARK    4  A    between atoms: C_14  and  C_15 
ROOT
HETATM    1  C   UNL     1      -5.834   5.081 -32.412  1.00  0.00     0.016 A 
HETATM    2  C   UNL     1      -6.492   4.091 -33.211  1.00  0.00     0.096 A 
HETATM    3  N   UNL     1      -7.471   4.638 -33.939  1.00  0.00    -0.174 NA
HETATM    4  N   UNL     1      -7.454   5.937 -33.634  1.00  0.00    -0.288 N 
HETATM    5  H   UNL     1      -8.126   6.548 -34.095  1.00  0.00     0.188 HD
HETATM    6  C   UNL     1      -6.480   6.262 -32.733  1.00  0.00     0.120 A 
ENDROOT
BRANCH   1   7
HETATM    7  C   UNL     1      -4.654   4.862 -31.529  1.00  0.00     0.277 C 
BRANCH   7   8
HETATM    8  N   UNL     1      -3.890   6.120 -31.156  1.00  0.00    -0.065 N 
HETATM    9  H   UNL     1      -4.227   6.882 -31.755  1.00  0.00     0.280 HD
HETATM   10  C   UNL     1      -4.112   6.481 -29.707  1.00  0.00     0.270 C 
BRANCH   8  11
HETATM   11  C   UNL     1      -2.419   5.859 -31.333  1.00  0.00     0.205 C 
HETATM   12  C   UNL     1      -1.496   7.103 -31.794  1.00  0.00     0.008 C 
HETATM   13  C   UNL     1      -0.020   6.976 -31.392  1.00  0.00     0.020 C 
HETATM   14  C   UNL     1      -1.963   8.539 -31.551  1.00  0.00     0.020 C 
HETATM   15  C   UNL     1      -1.847   6.643 -33.215  1.00  0.00     0.137 C 
HETATM   16  C   UNL     1      -1.982   5.190 -32.687  1.00  0.00     0.049 C 
HETATM   17  O   UNL     1      -0.986   6.568 -34.350  1.00  0.00    -0.385 OA
HETATM   18  C   UNL     1      -2.386   4.675 -34.067  1.00  0.00     0.035 C 
HETATM   19  C   UNL     1      -1.295   5.302 -34.983  1.00  0.00     0.168 C 
ENDBRANCH   8  11
ENDBRANCH   7   8
ENDBRANCH   1   7
BRANCH   2  20
HETATM   20  C   UNL     1      -6.178   2.671 -33.341  1.00  0.00    -0.002 A 
HETATM   21  C   UNL     1      -5.200   2.071 -32.539  1.00  0.00     0.053 A 
HETATM   22  C   UNL     1      -4.877   0.725 -32.719  1.00  0.00     0.103 A 
HETATM   23  C   UNL     1      -5.526  -0.030 -33.701  1.00  0.00     0.102 A 
HETATM   24  O   UNL     1      -3.899   0.218 -31.904  1.00  0.00    -0.346 OA
HETATM   25  O   UNL     1      -5.233  -1.344 -33.952  1.00  0.00    -0.346 OA
HETATM   26  C   UNL     1      -6.532   0.547 -34.470  1.00  0.00     0.040 A 
HETATM   27  C   UNL     1      -4.000  -1.742 -33.341  1.00  0.00     0.202 C 
HETATM   28  C   UNL     1      -3.909  -1.218 -31.917  1.00  0.00     0.202 C 
HETATM   29  C   UNL     1      -6.857   1.895 -34.292  1.00  0.00     0.017 A 
ENDBRANCH   2  20
TORSDOF 4
ENDMDL
MODEL 5
REMARK VINA RESULT:      -7.6      2.717      6.180
REMARK  4 active torsions:
REMARK  status: ('A' for Active; 'I' for Inactive)
REMARK    1  A    between atoms: C_9  and  N_10 
REMARK    2  A    between atoms: N_10  and  C_12 
REMARK    3  A    between atoms: C_12  and  C_13 
REMARK    4  A    between atoms: C_14  and  C_15 
ROOT
HETATM    1  C   UNL     1      -5.511  -0.945 -33.865  1.00  0.00     0.016 A 
HETATM    2  C   UNL     1      -6.935  -1.102 -33.861  1.00  0.00     0.096 A 
HETATM    3  N   UNL     1      -7.280  -2.340 -34.229  1.00  0.00    -0.174 NA
HETATM    4  N   UNL     1      -6.129  -2.973 -34.463  1.00  0.00    -0.288 N 
HETATM    5  H   UNL     1      -6.166  -3.949 -34.750  1.00  0.00     0.188 HD
HETATM    6  C   UNL     1      -5.032  -2.187 -34.244  1.00  0.00     0.120 A 
ENDROOT
BRANCH   1   7
HETATM    7  C   UNL     1      -4.755   0.268 -33.447  1.00  0.00     0.277 C 
BRANCH   7   8
HETATM    8  N   UNL     1      -4.846   0.603 -31.969  1.00  0.00    -0.065 N 
HETATM    9  H   UNL     1      -5.774   0.317 -31.638  1.00  0.00     0.280 HD
HETATM   10  C   UNL     1      -3.783  -0.123 -31.180  1.00  0.00     0.270 C 
BRANCH   8  11
HETATM   11  C   UNL     1      -4.606   2.078 -31.794  1.00  0.00     0.205 C 
HETATM   12  C   UNL     1      -5.584   2.874 -30.784  1.00  0.00     0.008 C 
HETATM   13  C   UNL     1      -4.973   4.150 -30.188  1.00  0.00     0.020 C 
HETATM   14  C   UNL     1      -6.339   2.119 -29.689  1.00  0.00     0.020 C 
HETATM   15  C   UNL     1      -6.463   3.066 -32.026  1.00  0.00     0.137 C 
HETATM   16  C   UNL     1      -5.187   3.022 -32.909  1.00  0.00     0.049 C 
HETATM   17  O   UNL     1      -7.173   4.239 -32.425  1.00  0.00    -0.385 OA
HETATM   18  C   UNL     1      -6.009   3.162 -34.188  1.00  0.00     0.035 C 
HETATM   19  C   UNL     1      -6.940   4.361 -33.850  1.00  0.00     0.168 C 
ENDBRANCH   8  11
ENDBRANCH   7   8
ENDBRANCH   1   7
BRANCH   2  20
HETATM   20  C   UNL     1      -7.956  -0.136 -33.464  1.00  0.00    -0.002 A 
HETATM   21  C   UNL     1      -8.550   0.714 -34.404  1.00  0.00     0.053 A 
HETATM   22  C   UNL     1      -9.482   1.667 -33.992  1.00  0.00     0.103 A 
HETATM   23  C   UNL     1      -9.826   1.781 -32.642  1.00  0.00     0.102 A 
HETATM   24  O   UNL     1     -10.007   2.470 -34.971  1.00  0.00    -0.346 OA
HETATM   25  O   UNL     1     -10.707   2.715 -32.168  1.00  0.00    -0.346 OA
HETATM   26  C   UNL     1      -9.274   0.908 -31.708  1.00  0.00     0.040 A 
HETATM   27  C   UNL     1     -10.968   3.740 -33.133  1.00  0.00     0.202 C 
HETATM   28  C   UNL     1     -11.192   3.140 -34.511  1.00  0.00     0.202 C 
HETATM   29  C   UNL     1      -8.340  -0.047 -32.118  1.00  0.00     0.017 A 
ENDBRANCH   2  20
TORSDOF 4
ENDMDL
MODEL 6
REMARK VINA RESULT:      -7.6     14.987     17.255
REMARK  4 active torsions:
REMARK  status: ('A' for Active; 'I' for Inactive)
REMARK    1  A    between atoms: C_9  and  N_10 
REMARK    2  A    between atoms: N_10  and  C_12 
REMARK    3  A    between atoms: C_12  and  C_13 
REMARK    4  A    between atoms: C_14  and  C_15 
ROOT
HETATM    1  C   UNL     1      -4.467 -13.021 -37.044  1.00  0.00     0.016 A 
HETATM    2  C   UNL     1      -5.679 -13.758 -36.838  1.00  0.00     0.096 A 
HETATM    3  N   UNL     1      -5.714 -14.287 -35.611  1.00  0.00    -0.174 NA
HETATM    4  N   UNL     1      -4.573 -13.910 -35.031  1.00  0.00    -0.288 N 
HETATM    5  H   UNL     1      -4.401 -14.203 -34.071  1.00  0.00     0.188 HD
HETATM    6  C   UNL     1      -3.792 -13.134 -35.840  1.00  0.00     0.120 A 
ENDROOT
BRANCH   1   7
HETATM    7  C   UNL     1      -4.104 -12.237 -38.257  1.00  0.00     0.277 C 
BRANCH   7   8
HETATM    8  N   UNL     1      -2.858 -12.715 -38.980  1.00  0.00    -0.065 N 
HETATM    9  H   UNL     1      -2.648 -12.042 -39.725  1.00  0.00     0.280 HD
HETATM   10  C   UNL     1      -1.682 -12.804 -38.036  1.00  0.00     0.270 C 
BRANCH   8  11
HETATM   11  C   UNL     1      -3.110 -14.099 -39.512  1.00  0.00     0.205 C 
HETATM   12  C   UNL     1      -2.145 -14.626 -40.695  1.00  0.00     0.008 C 
HETATM   13  C   UNL     1      -2.030 -16.155 -40.783  1.00  0.00     0.020 C 
HETATM   14  C   UNL     1      -0.761 -14.006 -40.893  1.00  0.00     0.020 C 
HETATM   15  C   UNL     1      -3.177 -13.975 -41.625  1.00  0.00     0.137 C 
HETATM   16  C   UNL     1      -4.273 -14.248 -40.561  1.00  0.00     0.049 C 
HETATM   17  O   UNL     1      -3.693 -14.483 -42.855  1.00  0.00    -0.385 OA
HETATM   18  C   UNL     1      -5.340 -13.568 -41.416  1.00  0.00     0.035 C 
HETATM   19  C   UNL     1      -5.119 -14.232 -42.805  1.00  0.00     0.168 C 
ENDBRANCH   8  11
ENDBRANCH   7   8
ENDBRANCH   1   7
BRANCH   2  20
HETATM   20  C   UNL     1      -6.811 -13.917 -37.746  1.00  0.00    -0.002 A 
HETATM   21  C   UNL     1      -7.545 -12.809 -38.187  1.00  0.00     0.053 A 
HETATM   22  C   UNL     1      -8.657 -12.990 -39.009  1.00  0.00     0.103 A 
HETATM   23  C   UNL     1      -9.047 -14.276 -39.395  1.00  0.00     0.102 A 
HETATM   24  O   UNL     1      -9.330 -11.856 -39.385  1.00  0.00    -0.346 OA
HETATM   25  O   UNL     1     -10.147 -14.525 -40.172  1.00  0.00    -0.346 OA
HETATM   26  C   UNL     1      -8.296 -15.378 -38.999  1.00  0.00     0.040 A 
HETATM   27  C   UNL     1     -11.008 -13.384 -40.259  1.00  0.00     0.202 C 
HETATM   28  C   UNL     1     -10.203 -12.117 -40.495  1.00  0.00     0.202 C 
HETATM   29  C   UNL     1      -7.181 -15.200 -38.175  1.00  0.00     0.017 A 
ENDBRANCH   2  20
TORSDOF 4
ENDMDL
MODEL 7
REMARK VINA RESULT:      -7.4      6.286      8.422
REMARK  4 active torsions:
REMARK  status: ('A' for Active; 'I' for Inactive)
REMARK    1  A    between atoms: C_9  and  N_10 
REMARK    2  A    between atoms: N_10  and  C_12 
REMARK    3  A    between atoms: C_12  and  C_13 
REMARK    4  A    between atoms: C_14  and  C_15 
ROOT
HETATM    1  C   UNL     1      -2.609   4.761 -33.321  1.00  0.00     0.016 A 
HETATM    2  C   UNL     1      -1.789   5.805 -32.782  1.00  0.00     0.096 A 
HETATM    3  N   UNL     1      -1.701   6.831 -33.635  1.00  0.00    -0.174 NA
HETATM    4  N   UNL     1      -2.437   6.477 -34.690  1.00  0.00    -0.288 N 
HETATM    5  H   UNL     1      -2.514   7.133 -35.465  1.00  0.00     0.188 HD
HETATM    6  C   UNL     1      -3.019   5.249 -34.549  1.00  0.00     0.120 A 
ENDROOT
BRANCH   1   7
HETATM    7  C   UNL     1      -2.993   3.496 -32.634  1.00  0.00     0.277 C 
BRANCH   7   8
HETATM    8  N   UNL     1      -4.264   3.575 -31.809  1.00  0.00    -0.065 N 
HETATM    9  H   UNL     1      -4.036   3.288 -30.850  1.00  0.00     0.280 HD
HETATM   10  C   UNL     1      -4.818   4.980 -31.796  1.00  0.00     0.270 C 
BRANCH   8  11
HETATM   11  C   UNL     1      -5.304   2.689 -32.439  1.00  0.00     0.205 C 
HETATM   12  C   UNL     1      -6.412   2.035 -31.462  1.00  0.00     0.008 C 
HETATM   13  C   UNL     1      -7.730   1.670 -32.159  1.00  0.00     0.020 C 
HETATM   14  C   UNL     1      -6.719   2.676 -30.108  1.00  0.00     0.020 C 
HETATM   15  C   UNL     1      -5.393   0.898 -31.314  1.00  0.00     0.137 C 
HETATM   16  C   UNL     1      -4.874   1.208 -32.744  1.00  0.00     0.049 C 
HETATM   17  O   UNL     1      -5.645  -0.507 -31.286  1.00  0.00    -0.385 OA
HETATM   18  C   UNL     1      -3.804   0.123 -32.642  1.00  0.00     0.035 C 
HETATM   19  C   UNL     1      -4.621  -1.096 -32.125  1.00  0.00     0.168 C 
ENDBRANCH   8  11
ENDBRANCH   7   8
ENDBRANCH   1   7
BRANCH   2  20
HETATM   20  C   UNL     1      -1.147   5.874 -31.473  1.00  0.00    -0.002 A 
HETATM   21  C   UNL     1      -1.740   6.572 -30.414  1.00  0.00     0.053 A 
HETATM   22  C   UNL     1      -1.081   6.671 -29.187  1.00  0.00     0.103 A 
HETATM   23  C   UNL     1       0.172   6.078 -29.009  1.00  0.00     0.102 A 
HETATM   24  O   UNL     1      -1.722   7.384 -28.207  1.00  0.00    -0.346 OA
HETATM   25  O   UNL     1       0.886   6.167 -27.844  1.00  0.00    -0.346 OA
HETATM   26  C   UNL     1       0.746   5.343 -30.043  1.00  0.00     0.040 A 
HETATM   27  C   UNL     1       0.367   7.181 -26.977  1.00  0.00     0.202 C 
HETATM   28  C   UNL     1      -1.151   7.116 -26.916  1.00  0.00     0.202 C 
HETATM   29  C   UNL     1       0.090   5.242 -31.272  1.00  0.00     0.017 A 
ENDBRANCH   2  20
TORSDOF 4
ENDMDL
MODEL 8
REMARK VINA RESULT:      -7.4     15.219     17.003
REMARK  4 active torsions:
REMARK  status: ('A' for Active; 'I' for Inactive)
REMARK    1  A    between atoms: C_9  and  N_10 
REMARK    2  A    between atoms: N_10  and  C_12 
REMARK    3  A    between atoms: C_12  and  C_13 
REMARK    4  A    between atoms: C_14  and  C_15 
ROOT
HETATM    1  C   UNL     1      -7.800 -12.596 -39.498  1.00  0.00     0.016 A 
HETATM    2  C   UNL     1      -8.363 -13.370 -38.432  1.00  0.00     0.096 A 
HETATM    3  N   UNL     1      -9.694 -13.442 -38.545  1.00  0.00    -0.174 NA
HETATM    4  N   UNL     1      -9.993 -12.746 -39.644  1.00  0.00    -0.288 N 
HETATM    5  H   UNL     1     -10.970 -12.682 -39.921  1.00  0.00     0.188 HD
HETATM    6  C   UNL     1      -8.892 -12.229 -40.266  1.00  0.00     0.120 A 
ENDROOT
BRANCH   1   7
HETATM    7  C   UNL     1      -6.351 -12.356 -39.746  1.00  0.00     0.277 C 
BRANCH   7   8
HETATM    8  N   UNL     1      -5.604 -13.521 -40.369  1.00  0.00    -0.065 N 
HETATM    9  H   UNL     1      -5.967 -14.386 -39.953  1.00  0.00     0.280 HD
HETATM   10  C   UNL     1      -5.805 -13.558 -41.865  1.00  0.00     0.270 C 
BRANCH   8  11
HETATM   11  C   UNL     1      -4.132 -13.339 -40.119  1.00  0.00     0.205 C 
HETATM   12  C   UNL     1      -3.233 -14.674 -39.975  1.00  0.00     0.008 C 
HETATM   13  C   UNL     1      -1.750 -14.476 -40.320  1.00  0.00     0.020 C 
HETATM   14  C   UNL     1      -3.717 -15.995 -40.573  1.00  0.00     0.020 C 
HETATM   15  C   UNL     1      -3.596 -14.577 -38.488  1.00  0.00     0.137 C 
HETATM   16  C   UNL     1      -3.703 -13.036 -38.637  1.00  0.00     0.049 C 
HETATM   17  O   UNL     1      -2.748 -14.803 -37.362  1.00  0.00    -0.385 OA
HETATM   18  C   UNL     1      -4.117 -12.875 -37.176  1.00  0.00     0.035 C 
HETATM   19  C   UNL     1      -3.047 -13.729 -36.436  1.00  0.00     0.168 C 
ENDBRANCH   8  11
ENDBRANCH   7   8
ENDBRANCH   1   7
BRANCH   2  20
HETATM   20  C   UNL     1      -7.672 -14.080 -37.360  1.00  0.00    -0.002 A 
HETATM   21  C   UNL     1      -7.512 -13.501 -36.095  1.00  0.00     0.053 A 
HETATM   22  C   UNL     1      -6.799 -14.175 -35.103  1.00  0.00     0.103 A 
HETATM   23  C   UNL     1      -6.239 -15.429 -35.366  1.00  0.00     0.102 A 
HETATM   24  O   UNL     1      -6.676 -13.535 -33.898  1.00  0.00    -0.346 OA
HETATM   25  O   UNL     1      -5.500 -16.128 -34.449  1.00  0.00    -0.346 OA
HETATM   26  C   UNL     1      -6.433 -16.031 -36.606  1.00  0.00     0.040 A 
HETATM   27  C   UNL     1      -5.103 -15.306 -33.346  1.00  0.00     0.202 C 
HETATM   28  C   UNL     1      -6.261 -14.446 -32.868  1.00  0.00     0.202 C 
HETATM   29  C   UNL     1      -7.146 -15.358 -37.601  1.00  0.00     0.017 A 
ENDBRANCH   2  20
TORSDOF 4
ENDMDL
MODEL 9
REMARK VINA RESULT:      -7.4      6.761      9.132
REMARK  4 active torsions:
REMARK  status: ('A' for Active; 'I' for Inactive)
REMARK    1  A    between atoms: C_9  and  N_10 
REMARK    2  A    between atoms: N_10  and  C_12 
REMARK    3  A    between atoms: C_12  and  C_13 
REMARK    4  A    between atoms: C_14  and  C_15 
ROOT
HETATM    1  C   UNL     1      -2.663   6.470 -32.395  1.00  0.00     0.016 A 
HETATM    2  C   UNL     1      -3.099   5.449 -33.300  1.00  0.00     0.096 A 
HETATM    3  N   UNL     1      -2.750   5.745 -34.557  1.00  0.00    -0.174 NA
HETATM    4  N   UNL     1      -2.107   6.911 -34.480  1.00  0.00    -0.288 N 
HETATM    5  H   UNL     1      -1.743   7.317 -35.340  1.00  0.00     0.188 HD
HETATM    6  C   UNL     1      -2.010   7.386 -33.202  1.00  0.00     0.120 A 
ENDROOT
BRANCH   1   7
HETATM    7  C   UNL     1      -2.806   6.456 -30.912  1.00  0.00     0.277 C 
BRANCH   7   8
HETATM    8  N   UNL     1      -1.550   6.075 -30.150  1.00  0.00    -0.065 N 
HETATM    9  H   UNL     1      -1.834   5.540 -29.322  1.00  0.00     0.280 HD
HETATM   10  C   UNL     1      -0.630   5.235 -31.003  1.00  0.00     0.270 C 
BRANCH   8  11
HETATM   11  C   UNL     1      -0.805   7.332 -29.791  1.00  0.00     0.205 C 
HETATM   12  C   UNL     1      -0.040   7.361 -28.369  1.00  0.00     0.008 C 
HETATM   13  C   UNL     1       1.140   8.341 -28.306  1.00  0.00     0.020 C 
HETATM   14  C   UNL     1       0.356   6.053 -27.682  1.00  0.00     0.020 C 
HETATM   15  C   UNL     1      -1.377   7.883 -27.829  1.00  0.00     0.137 C 
HETATM   16  C   UNL     1      -1.663   8.518 -29.216  1.00  0.00     0.049 C 
HETATM   17  O   UNL     1      -1.591   8.921 -26.873  1.00  0.00    -0.385 OA
HETATM   18  C   UNL     1      -3.029   9.024 -28.756  1.00  0.00     0.035 C 
HETATM   19  C   UNL     1      -2.685   9.710 -27.403  1.00  0.00     0.168 C 
ENDBRANCH   8  11
ENDBRANCH   7   8
ENDBRANCH   1   7
BRANCH   2  20
HETATM   20  C   UNL     1      -3.776   4.192 -32.996  1.00  0.00    -0.002 A 
HETATM   21  C   UNL     1      -3.096   3.138 -32.372  1.00  0.00     0.053 A 
HETATM   22  C   UNL     1      -3.748   1.926 -32.142  1.00  0.00     0.103 A 
HETATM   23  C   UNL     1      -5.079   1.755 -32.534  1.00  0.00     0.102 A 
HETATM   24  O   UNL     1      -3.009   0.941 -31.540  1.00  0.00    -0.346 OA
HETATM   25  O   UNL     1      -5.765   0.582 -32.369  1.00  0.00    -0.346 OA
HETATM   26  C   UNL     1      -5.774   2.812 -33.113  1.00  0.00     0.040 A 
HETATM   27  C   UNL     1      -4.889  -0.510 -32.064  1.00  0.00     0.202 C 
HETATM   28  C   UNL     1      -3.855  -0.101 -31.028  1.00  0.00     0.202 C 
HETATM   29  C   UNL     1      -5.125   4.028 -33.345  1.00  0.00     0.017 A 
ENDBRANCH   2  20
TORSDOF 4
ENDMDL
MODEL 10
REMARK VINA RESULT:      -7.3      1.703      6.807
REMARK  4 active torsions:
REMARK  status: ('A' for Active; 'I' for Inactive)
REMARK    1  A    between atoms: C_9  and  N_10 
REMARK    2  A    between atoms: N_10  and  C_12 
REMARK    3  A    between atoms: C_12  and  C_13 
REMARK    4  A    between atoms: C_14  and  C_15 
ROOT
HETATM    1  C   UNL     1      -6.474   1.639 -31.932  1.00  0.00     0.016 A 
HETATM    2  C   UNL     1      -7.859   1.787 -31.597  1.00  0.00     0.096 A 
HETATM    3  N   UNL     1      -8.008   2.100 -30.306  1.00  0.00    -0.174 NA
HETATM    4  N   UNL     1      -6.770   2.160 -29.812  1.00  0.00    -0.288 N 
HETATM    5  H   UNL     1      -6.655   2.398 -28.829  1.00  0.00     0.188 HD
HETATM    6  C   UNL     1      -5.808   1.907 -30.749  1.00  0.00     0.120 A 
ENDROOT
BRANCH   1   7
HETATM    7  C   UNL     1      -5.917   1.364 -33.286  1.00  0.00     0.277 C 
BRANCH   7   8
HETATM    8  N   UNL     1      -6.468   0.124 -33.966  1.00  0.00    -0.065 N 
HETATM    9  H   UNL     1      -7.043  -0.381 -33.283  1.00  0.00     0.280 HD
HETATM   10  C   UNL     1      -7.313   0.491 -35.163  1.00  0.00     0.270 C 
BRANCH   8  11
HETATM   11  C   UNL     1      -5.316  -0.703 -34.468  1.00  0.00     0.205 C 
HETATM   12  C   UNL     1      -5.426  -2.306 -34.303  1.00  0.00     0.008 C 
HETATM   13  C   UNL     1      -4.586  -3.103 -35.310  1.00  0.00     0.020 C 
HETATM   14  C   UNL     1      -6.794  -2.972 -34.151  1.00  0.00     0.020 C 
HETATM   15  C   UNL     1      -4.779  -2.059 -32.934  1.00  0.00     0.137 C 
HETATM   16  C   UNL     1      -4.065  -0.813 -33.522  1.00  0.00     0.049 C 
HETATM   17  O   UNL     1      -3.760  -2.827 -32.295  1.00  0.00    -0.385 OA
HETATM   18  C   UNL     1      -3.428  -0.483 -32.174  1.00  0.00     0.035 C 
HETATM   19  C   UNL     1      -2.835  -1.856 -31.746  1.00  0.00     0.168 C 
ENDBRANCH   8  11
ENDBRANCH   7   8
ENDBRANCH   1   7
BRANCH   2  20
HETATM   20  C   UNL     1      -9.022   1.698 -32.476  1.00  0.00    -0.002 A 
HETATM   21  C   UNL     1      -9.427   2.792 -33.252  1.00  0.00     0.053 A 
HETATM   22  C   UNL     1     -10.573   2.702 -34.041  1.00  0.00     0.103 A 
HETATM   23  C   UNL     1     -11.325   1.523 -34.062  1.00  0.00     0.102 A 
HETATM   24  O   UNL     1     -10.910   3.820 -34.759  1.00  0.00    -0.346 OA
HETATM   25  O   UNL     1     -12.477   1.380 -34.787  1.00  0.00    -0.346 OA
HETATM   26  C   UNL     1     -10.904   0.417 -33.330  1.00  0.00     0.040 A 
HETATM   27  C   UNL     1     -12.982   2.642 -35.241  1.00  0.00     0.202 C 
HETATM   28  C   UNL     1     -11.860   3.507 -35.790  1.00  0.00     0.202 C 
HETATM   29  C   UNL     1      -9.756   0.504 -32.537  1.00  0.00     0.017 A 
ENDBRANCH   2  20
TORSDOF 4
ENDMDL
