MODEL 1
REMARK VINA RESULT:      -8.3      0.000      0.000
REMARK  6 active torsions:
REMARK  status: ('A' for Active; 'I' for Inactive)
REMARK    1  A    between atoms: C_2  and  O_3 
REMARK    2  A    between atoms: O_3  and  C_4 
REMARK    3  A    between atoms: C_4  and  C_5 
REMARK    4  A    between atoms: C_8  and  C_9 
REMARK    5  A    between atoms: C_9  and  N_10 
REMARK    6  A    between atoms: N_10  and  C_11 
ROOT
HETATM    1  N   UNL     1      -4.595   4.302 -33.822  1.00  0.00    -0.220 N 
HETATM    2  H   UNL     1      -4.980   4.631 -34.696  1.00  0.00     0.178 HD
ENDROOT
BRANCH   1   3
HETATM    3  C   UNL     1      -5.559   3.673 -32.941  1.00  0.00     0.176 C 
BRANCH   3   4
HETATM    4  C   UNL     1      -5.779   2.242 -33.367  1.00  0.00    -0.040 A 
HETATM    5  C   UNL     1      -5.041   1.207 -32.778  1.00  0.00     0.009 A 
HETATM    6  C   UNL     1      -5.256  -0.120 -33.155  1.00  0.00     0.010 A 
HETATM    7  C   UNL     1      -6.203  -0.437 -34.138  1.00  0.00    -0.035 A 
HETATM    8  C   UNL     1      -6.930   0.598 -34.738  1.00  0.00     0.010 A 
HETATM    9  C   UNL     1      -6.716   1.927 -34.360  1.00  0.00     0.009 A 
BRANCH   7  10
HETATM   10  C   UNL     1      -6.460  -1.875 -34.506  1.00  0.00     0.206 C 
BRANCH  10  11
HETATM   11  O   UNL     1      -5.257  -2.606 -34.292  1.00  0.00    -0.382 OA
BRANCH  11  12
HETATM   12  C   UNL     1      -5.226  -3.872 -34.952  1.00  0.00     0.113 C 
HETATM   13  C   UNL     1      -6.638  -4.417 -35.146  1.00  0.00     0.039 C 
HETATM   14  C   UNL     1      -4.415  -4.813 -34.067  1.00  0.00     0.039 C 
ENDBRANCH  11  12
ENDBRANCH  10  11
ENDBRANCH   7  10
ENDBRANCH   3   4
ENDBRANCH   1   3
BRANCH   1  15
HETATM   15  C   UNL     1      -3.496   4.935 -33.327  1.00  0.00     0.704 A 
HETATM   16  N   UNL     1      -2.806   4.465 -32.337  1.00  0.00    -0.064 NA
HETATM   17  C   UNL     1      -1.688   5.185 -31.887  1.00  0.00     0.091 A 
HETATM   18  C   UNL     1      -1.287   6.389 -32.468  1.00  0.00     0.062 A 
HETATM   19  C   UNL     1      -0.947   4.683 -30.815  1.00  0.00     0.033 A 
HETATM   20  C   UNL     1      -2.088   6.886 -33.596  1.00  0.00     0.272 A 
HETATM   21  C   UNL     1      -0.171   7.090 -32.000  1.00  0.00     0.019 A 
HETATM   22  O   UNL     1      -1.814   7.925 -34.185  1.00  0.00    -0.267 OA
HETATM   23  N   UNL     1      -3.164   6.110 -33.945  1.00  0.00    -0.154 N 
HETATM   24  H   UNL     1      -3.697   6.433 -34.735  1.00  0.00     0.187 HD
HETATM   25  C   UNL     1       0.558   6.577 -30.929  1.00  0.00     0.001 A 
HETATM   26  C   UNL     1       0.171   5.374 -30.337  1.00  0.00     0.002 A 
ENDBRANCH   1  15
TORSDOF 6
ENDMDL
MODEL 2
REMARK VINA RESULT:      -8.2      5.512      8.799
REMARK  6 active torsions:
REMARK  status: ('A' for Active; 'I' for Inactive)
REMARK    1  A    between atoms: C_2  and  O_3 
REMARK    2  A    between atoms: O_3  and  C_4 
REMARK    3  A    between atoms: C_4  and  C_5 
REMARK    4  A    between atoms: C_8  and  C_9 
REMARK    5  A    between atoms: C_9  and  N_10 
REMARK    6  A    between atoms: N_10  and  C_11 
ROOT
HETATM    1  N   UNL     1      -7.368   0.705 -34.867  1.00  0.00    -0.220 N 
HETATM    2  H   UNL     1      -7.197   1.231 -35.713  1.00  0.00     0.178 HD
ENDROOT
BRANCH   1   3
HETATM    3  C   UNL     1      -7.959   1.474 -33.791  1.00  0.00     0.176 C 
BRANCH   3   4
HETATM    4  C   UNL     1      -9.457   1.299 -33.805  1.00  0.00    -0.040 A 
HETATM    5  C   UNL     1     -10.049   0.206 -33.156  1.00  0.00     0.009 A 
HETATM    6  C   UNL     1     -11.436   0.052 -33.150  1.00  0.00     0.010 A 
HETATM    7  C   UNL     1     -12.260   0.979 -33.803  1.00  0.00    -0.035 A 
HETATM    8  C   UNL     1     -11.669   2.062 -34.463  1.00  0.00     0.010 A 
HETATM    9  C   UNL     1     -10.280   2.218 -34.470  1.00  0.00     0.009 A 
BRANCH   7  10
HETATM   10  C   UNL     1     -13.758   0.828 -33.752  1.00  0.00     0.206 C 
BRANCH  10  11
HETATM   11  O   UNL     1     -14.319   2.109 -33.483  1.00  0.00    -0.382 OA
BRANCH  11  12
HETATM   12  C   UNL     1     -14.882   2.229 -32.176  1.00  0.00     0.113 C 
HETATM   13  C   UNL     1     -16.401   2.360 -32.250  1.00  0.00     0.039 C 
HETATM   14  C   UNL     1     -14.276   3.478 -31.546  1.00  0.00     0.039 C 
ENDBRANCH  11  12
ENDBRANCH  10  11
ENDBRANCH   7  10
ENDBRANCH   3   4
ENDBRANCH   1   3
BRANCH   1  15
HETATM   15  C   UNL     1      -6.573  -0.371 -34.611  1.00  0.00     0.704 A 
HETATM   16  N   UNL     1      -6.887  -1.574 -34.975  1.00  0.00    -0.064 NA
HETATM   17  C   UNL     1      -6.011  -2.626 -34.665  1.00  0.00     0.091 A 
HETATM   18  C   UNL     1      -4.810  -2.427 -33.983  1.00  0.00     0.062 A 
HETATM   19  C   UNL     1      -6.352  -3.924 -35.051  1.00  0.00     0.033 A 
HETATM   20  C   UNL     1      -4.483  -1.048 -33.595  1.00  0.00     0.272 A 
HETATM   21  C   UNL     1      -3.955  -3.493 -33.683  1.00  0.00     0.019 A 
HETATM   22  O   UNL     1      -3.446  -0.763 -33.005  1.00  0.00    -0.267 OA
HETATM   23  N   UNL     1      -5.413  -0.100 -33.937  1.00  0.00    -0.154 N 
HETATM   24  H   UNL     1      -5.178   0.849 -33.699  1.00  0.00     0.187 HD
HETATM   25  C   UNL     1      -4.309  -4.783 -34.074  1.00  0.00     0.001 A 
HETATM   26  C   UNL     1      -5.506  -4.999 -34.757  1.00  0.00     0.002 A 
ENDBRANCH   1  15
TORSDOF 6
ENDMDL
MODEL 3
REMARK VINA RESULT:      -8.1      2.266      8.636
REMARK  6 active torsions:
REMARK  status: ('A' for Active; 'I' for Inactive)
REMARK    1  A    between atoms: C_2  and  O_3 
REMARK    2  A    between atoms: O_3  and  C_4 
REMARK    3  A    between atoms: C_4  and  C_5 
REMARK    4  A    between atoms: C_8  and  C_9 
REMARK    5  A    between atoms: C_9  and  N_10 
REMARK    6  A    between atoms: N_10  and  C_11 
ROOT
HETATM    1  N   UNL     1      -6.413   1.266 -33.764  1.00  0.00    -0.220 N 
HETATM    2  H   UNL     1      -6.400   1.815 -34.612  1.00  0.00     0.178 HD
ENDROOT
BRANCH   1   3
HETATM    3  C   UNL     1      -6.349   2.045 -32.544  1.00  0.00     0.176 C 
BRANCH   3   4
HETATM    4  C   UNL     1      -5.093   2.880 -32.539  1.00  0.00    -0.040 A 
HETATM    5  C   UNL     1      -4.123   2.695 -31.544  1.00  0.00     0.009 A 
HETATM    6  C   UNL     1      -2.950   3.452 -31.549  1.00  0.00     0.010 A 
HETATM    7  C   UNL     1      -2.728   4.418 -32.540  1.00  0.00    -0.035 A 
HETATM    8  C   UNL     1      -3.703   4.613 -33.526  1.00  0.00     0.010 A 
HETATM    9  C   UNL     1      -4.878   3.855 -33.522  1.00  0.00     0.009 A 
BRANCH   7  10
HETATM   10  C   UNL     1      -1.439   5.198 -32.562  1.00  0.00     0.206 C 
BRANCH  10  11
HETATM   11  O   UNL     1      -0.569   4.636 -31.586  1.00  0.00    -0.382 OA
BRANCH  11  12
HETATM   12  C   UNL     1      -0.166   5.559 -30.573  1.00  0.00     0.113 C 
HETATM   13  C   UNL     1       0.507   6.781 -31.189  1.00  0.00     0.039 C 
HETATM   14  C   UNL     1       0.811   4.821 -29.664  1.00  0.00     0.039 C 
ENDBRANCH  11  12
ENDBRANCH  10  11
ENDBRANCH   7  10
ENDBRANCH   3   4
ENDBRANCH   1   3
BRANCH   1  15
HETATM   15  C   UNL     1      -5.927  -0.005 -33.817  1.00  0.00     0.704 A 
HETATM   16  N   UNL     1      -6.568  -0.976 -34.386  1.00  0.00    -0.064 NA
HETATM   17  C   UNL     1      -5.995  -2.257 -34.389  1.00  0.00     0.091 A 
HETATM   18  C   UNL     1      -4.755  -2.526 -33.807  1.00  0.00     0.062 A 
HETATM   19  C   UNL     1      -6.688  -3.306 -34.996  1.00  0.00     0.033 A 
HETATM   20  C   UNL     1      -4.052  -1.398 -33.180  1.00  0.00     0.272 A 
HETATM   21  C   UNL     1      -4.205  -3.812 -33.821  1.00  0.00     0.019 A 
HETATM   22  O   UNL     1      -2.952  -1.524 -32.654  1.00  0.00    -0.267 OA
HETATM   23  N   UNL     1      -4.708  -0.194 -33.224  1.00  0.00    -0.154 N 
HETATM   24  H   UNL     1      -4.216   0.586 -32.822  1.00  0.00     0.187 HD
HETATM   25  C   UNL     1      -4.910  -4.849 -34.430  1.00  0.00     0.001 A 
HETATM   26  C   UNL     1      -6.150  -4.597 -35.017  1.00  0.00     0.002 A 
ENDBRANCH   1  15
TORSDOF 6
ENDMDL
MODEL 4
REMARK VINA RESULT:      -7.9      2.390      9.094
REMARK  6 active torsions:
REMARK  status: ('A' for Active; 'I' for Inactive)
REMARK    1  A    between atoms: C_2  and  O_3 
REMARK    2  A    between atoms: O_3  and  C_4 
REMARK    3  A    between atoms: C_4  and  C_5 
REMARK    4  A    between atoms: C_8  and  C_9 
REMARK    5  A    between atoms: C_9  and  N_10 
REMARK    6  A    between atoms: N_10  and  C_11 
ROOT
HETATM    1  N   UNL     1      -3.438   0.397 -32.569  1.00  0.00    -0.220 N 
HETATM    2  H   UNL     1      -2.434   0.355 -32.674  1.00  0.00     0.178 HD
ENDROOT
BRANCH   1   3
HETATM    3  C   UNL     1      -3.888   1.064 -31.364  1.00  0.00     0.176 C 
BRANCH   3   4
HETATM    4  C   UNL     1      -3.854   2.558 -31.566  1.00  0.00    -0.040 A 
HETATM    5  C   UNL     1      -4.683   3.395 -30.806  1.00  0.00     0.009 A 
HETATM    6  C   UNL     1      -4.639   4.780 -30.977  1.00  0.00     0.010 A 
HETATM    7  C   UNL     1      -3.777   5.356 -31.920  1.00  0.00    -0.035 A 
HETATM    8  C   UNL     1      -2.959   4.519 -32.689  1.00  0.00     0.010 A 
HETATM    9  C   UNL     1      -3.002   3.132 -32.519  1.00  0.00     0.009 A 
BRANCH   7  10
HETATM   10  C   UNL     1      -3.704   6.853 -32.064  1.00  0.00     0.206 C 
BRANCH  10  11
HETATM   11  O   UNL     1      -2.655   7.156 -32.978  1.00  0.00    -0.382 OA
BRANCH  11  12
HETATM   12  C   UNL     1      -1.618   7.964 -32.418  1.00  0.00     0.113 C 
HETATM   13  C   UNL     1      -0.497   7.094 -31.857  1.00  0.00     0.039 C 
HETATM   14  C   UNL     1      -2.253   8.790 -31.304  1.00  0.00     0.039 C 
ENDBRANCH  11  12
ENDBRANCH  10  11
ENDBRANCH   7  10
ENDBRANCH   3   4
ENDBRANCH   1   3
BRANCH   1  15
HETATM   15  C   UNL     1      -4.186  -0.578 -33.157  1.00  0.00     0.704 A 
HETATM   16  N   UNL     1      -3.792  -1.809 -33.233  1.00  0.00    -0.064 NA
HETATM   17  C   UNL     1      -4.625  -2.749 -33.861  1.00  0.00     0.091 A 
HETATM   18  C   UNL     1      -5.865  -2.410 -34.403  1.00  0.00     0.062 A 
HETATM   19  C   UNL     1      -4.198  -4.076 -33.951  1.00  0.00     0.033 A 
HETATM   20  C   UNL     1      -6.283  -1.005 -34.288  1.00  0.00     0.272 A 
HETATM   21  C   UNL     1      -6.676  -3.364 -35.026  1.00  0.00     0.019 A 
HETATM   22  O   UNL     1      -7.359  -0.606 -34.718  1.00  0.00    -0.267 OA
HETATM   23  N   UNL     1      -5.389  -0.170 -33.667  1.00  0.00    -0.154 N 
HETATM   24  H   UNL     1      -5.685   0.785 -33.561  1.00  0.00     0.187 HD
HETATM   25  C   UNL     1      -6.237  -4.684 -35.109  1.00  0.00     0.001 A 
HETATM   26  C   UNL     1      -4.999  -5.040 -34.571  1.00  0.00     0.002 A 
ENDBRANCH   1  15
TORSDOF 6
ENDMDL
MODEL 5
REMARK VINA RESULT:      -7.9      2.330      9.115
REMARK  6 active torsions:
REMARK  status: ('A' for Active; 'I' for Inactive)
REMARK    1  A    between atoms: C_2  and  O_3 
REMARK    2  A    between atoms: O_3  and  C_4 
REMARK    3  A    between atoms: C_4  and  C_5 
REMARK    4  A    between atoms: C_8  and  C_9 
REMARK    5  A    between atoms: C_9  and  N_10 
REMARK    6  A    between atoms: N_10  and  C_11 
ROOT
HETATM    1  N   UNL     1      -4.109   0.859 -32.536  1.00  0.00    -0.220 N 
HETATM    2  H   UNL     1      -3.274   0.773 -31.972  1.00  0.00     0.178 HD
ENDROOT
BRANCH   1   3
HETATM    3  C   UNL     1      -4.984   1.947 -32.149  1.00  0.00     0.176 C 
BRANCH   3   4
HETATM    4  C   UNL     1      -4.175   3.206 -31.955  1.00  0.00    -0.040 A 
HETATM    5  C   UNL     1      -4.627   4.212 -31.091  1.00  0.00     0.009 A 
HETATM    6  C   UNL     1      -3.871   5.369 -30.894  1.00  0.00     0.010 A 
HETATM    7  C   UNL     1      -2.655   5.550 -31.568  1.00  0.00    -0.035 A 
HETATM    8  C   UNL     1      -2.211   4.552 -32.443  1.00  0.00     0.010 A 
HETATM    9  C   UNL     1      -2.967   3.392 -32.640  1.00  0.00     0.009 A 
BRANCH   7  10
HETATM   10  C   UNL     1      -1.825   6.781 -31.314  1.00  0.00     0.206 C 
BRANCH  10  11
HETATM   11  O   UNL     1      -1.396   6.751 -29.957  1.00  0.00    -0.382 OA
BRANCH  11  12
HETATM   12  C   UNL     1       0.020   6.844 -29.797  1.00  0.00     0.113 C 
HETATM   13  C   UNL     1       0.720   6.844 -31.153  1.00  0.00     0.039 C 
HETATM   14  C   UNL     1       0.455   5.632 -28.980  1.00  0.00     0.039 C 
ENDBRANCH  11  12
ENDBRANCH  10  11
ENDBRANCH   7  10
ENDBRANCH   3   4
ENDBRANCH   1   3
BRANCH   1  15
HETATM   15  C   UNL     1      -4.599  -0.264 -33.129  1.00  0.00     0.704 A 
HETATM   16  N   UNL     1      -4.009  -1.414 -33.045  1.00  0.00    -0.064 NA
HETATM   17  C   UNL     1      -4.582  -2.519 -33.693  1.00  0.00     0.091 A 
HETATM   18  C   UNL     1      -5.769  -2.430 -34.422  1.00  0.00     0.062 A 
HETATM   19  C   UNL     1      -3.943  -3.758 -33.609  1.00  0.00     0.033 A 
HETATM   20  C   UNL     1      -6.415  -1.112 -34.487  1.00  0.00     0.272 A 
HETATM   21  C   UNL     1      -6.319  -3.546 -35.061  1.00  0.00     0.019 A 
HETATM   22  O   UNL     1      -7.467  -0.928 -35.090  1.00  0.00    -0.267 OA
HETATM   23  N   UNL     1      -5.764  -0.100 -33.828  1.00  0.00    -0.154 N 
HETATM   24  H   UNL     1      -6.220   0.797 -33.847  1.00  0.00     0.187 HD
HETATM   25  C   UNL     1      -5.670  -4.775 -34.969  1.00  0.00     0.001 A 
HETATM   26  C   UNL     1      -4.483  -4.882 -34.243  1.00  0.00     0.002 A 
ENDBRANCH   1  15
TORSDOF 6
ENDMDL
MODEL 6
REMARK VINA RESULT:      -7.8      1.667      2.264
REMARK  6 active torsions:
REMARK  status: ('A' for Active; 'I' for Inactive)
REMARK    1  A    between atoms: C_2  and  O_3 
REMARK    2  A    between atoms: O_3  and  C_4 
REMARK    3  A    between atoms: C_4  and  C_5 
REMARK    4  A    between atoms: C_8  and  C_9 
REMARK    5  A    between atoms: C_9  and  N_10 
REMARK    6  A    between atoms: N_10  and  C_11 
ROOT
HETATM    1  N   UNL     1      -4.659   3.028 -30.620  1.00  0.00    -0.220 N 
HETATM    2  H   UNL     1      -4.230   2.230 -30.173  1.00  0.00     0.178 HD
ENDROOT
BRANCH   1   3
HETATM    3  C   UNL     1      -5.999   2.789 -31.116  1.00  0.00     0.176 C 
BRANCH   3   4
HETATM    4  C   UNL     1      -5.997   1.586 -32.027  1.00  0.00    -0.040 A 
HETATM    5  C   UNL     1      -5.578   0.337 -31.549  1.00  0.00     0.009 A 
HETATM    6  C   UNL     1      -5.594  -0.782 -32.383  1.00  0.00     0.010 A 
HETATM    7  C   UNL     1      -6.016  -0.674 -33.715  1.00  0.00    -0.035 A 
HETATM    8  C   UNL     1      -6.421   0.577 -34.197  1.00  0.00     0.010 A 
HETATM    9  C   UNL     1      -6.406   1.698 -33.362  1.00  0.00     0.009 A 
BRANCH   7  10
HETATM   10  C   UNL     1      -6.073  -1.896 -34.594  1.00  0.00     0.206 C 
BRANCH  10  11
HETATM   11  O   UNL     1      -4.954  -2.717 -34.278  1.00  0.00    -0.382 OA
BRANCH  11  12
HETATM   12  C   UNL     1      -5.031  -4.034 -34.827  1.00  0.00     0.113 C 
HETATM   13  C   UNL     1      -6.484  -4.478 -34.968  1.00  0.00     0.039 C 
HETATM   14  C   UNL     1      -4.289  -4.958 -33.867  1.00  0.00     0.039 C 
ENDBRANCH  11  12
ENDBRANCH  10  11
ENDBRANCH   7  10
ENDBRANCH   3   4
ENDBRANCH   1   3
BRANCH   1  15
HETATM   15  C   UNL     1      -3.844   3.949 -31.205  1.00  0.00     0.704 A 
HETATM   16  N   UNL     1      -3.404   3.824 -32.416  1.00  0.00    -0.064 NA
HETATM   17  C   UNL     1      -2.564   4.820 -32.939  1.00  0.00     0.091 A 
HETATM   18  C   UNL     1      -2.187   5.945 -32.205  1.00  0.00     0.062 A 
HETATM   19  C   UNL     1      -2.083   4.683 -34.243  1.00  0.00     0.033 A 
HETATM   20  C   UNL     1      -2.714   6.058 -30.837  1.00  0.00     0.272 A 
HETATM   21  C   UNL     1      -1.346   6.923 -32.747  1.00  0.00     0.019 A 
HETATM   22  O   UNL     1      -2.455   7.014 -30.114  1.00  0.00    -0.267 OA
HETATM   23  N   UNL     1      -3.516   5.024 -30.424  1.00  0.00    -0.154 N 
HETATM   24  H   UNL     1      -3.901   5.114 -29.500  1.00  0.00     0.187 HD
HETATM   25  C   UNL     1      -0.874   6.772 -34.049  1.00  0.00     0.001 A 
HETATM   26  C   UNL     1      -1.242   5.653 -34.797  1.00  0.00     0.002 A 
ENDBRANCH   1  15
TORSDOF 6
ENDMDL
MODEL 7
REMARK VINA RESULT:      -7.8      2.824      7.973
REMARK  6 active torsions:
REMARK  status: ('A' for Active; 'I' for Inactive)
REMARK    1  A    between atoms: C_2  and  O_3 
REMARK    2  A    between atoms: O_3  and  C_4 
REMARK    3  A    between atoms: C_4  and  C_5 
REMARK    4  A    between atoms: C_8  and  C_9 
REMARK    5  A    between atoms: C_9  and  N_10 
REMARK    6  A    between atoms: N_10  and  C_11 
ROOT
HETATM    1  N   UNL     1      -6.583   1.464 -29.993  1.00  0.00    -0.220 N 
HETATM    2  H   UNL     1      -6.955   1.095 -29.130  1.00  0.00     0.178 HD
ENDROOT
BRANCH   1   3
HETATM    3  C   UNL     1      -7.128   2.749 -30.381  1.00  0.00     0.176 C 
BRANCH   3   4
HETATM    4  C   UNL     1      -6.268   3.361 -31.460  1.00  0.00    -0.040 A 
HETATM    5  C   UNL     1      -6.761   3.499 -32.765  1.00  0.00     0.009 A 
HETATM    6  C   UNL     1      -5.976   4.083 -33.760  1.00  0.00     0.010 A 
HETATM    7  C   UNL     1      -4.678   4.528 -33.476  1.00  0.00    -0.035 A 
HETATM    8  C   UNL     1      -4.180   4.377 -32.176  1.00  0.00     0.010 A 
HETATM    9  C   UNL     1      -4.966   3.793 -31.178  1.00  0.00     0.009 A 
BRANCH   7  10
HETATM   10  C   UNL     1      -3.855   5.198 -34.545  1.00  0.00     0.206 C 
BRANCH  10  11
HETATM   11  O   UNL     1      -3.411   6.452 -34.037  1.00  0.00    -0.382 OA
BRANCH  11  12
HETATM   12  C   UNL     1      -2.013   6.685 -34.218  1.00  0.00     0.113 C 
HETATM   13  C   UNL     1      -1.316   5.428 -34.731  1.00  0.00     0.039 C 
HETATM   14  C   UNL     1      -1.450   7.081 -32.857  1.00  0.00     0.039 C 
ENDBRANCH  11  12
ENDBRANCH  10  11
ENDBRANCH   7  10
ENDBRANCH   3   4
ENDBRANCH   1   3
BRANCH   1  15
HETATM   15  C   UNL     1      -6.129   0.580 -30.925  1.00  0.00     0.704 A 
HETATM   16  N   UNL     1      -6.890   0.089 -31.851  1.00  0.00    -0.064 NA
HETATM   17  C   UNL     1      -6.341  -0.821 -32.768  1.00  0.00     0.091 A 
HETATM   18  C   UNL     1      -5.003  -1.215 -32.725  1.00  0.00     0.062 A 
HETATM   19  C   UNL     1      -7.162  -1.356 -33.763  1.00  0.00     0.033 A 
HETATM   20  C   UNL     1      -4.167  -0.630 -31.666  1.00  0.00     0.272 A 
HETATM   21  C   UNL     1      -4.479  -2.125 -33.649  1.00  0.00     0.019 A 
HETATM   22  O   UNL     1      -2.977  -0.898 -31.549  1.00  0.00    -0.267 OA
HETATM   23  N   UNL     1      -4.808   0.239 -30.819  1.00  0.00    -0.154 N 
HETATM   24  H   UNL     1      -4.232   0.663 -30.112  1.00  0.00     0.187 HD
HETATM   25  C   UNL     1      -5.311  -2.652 -34.635  1.00  0.00     0.001 A 
HETATM   26  C   UNL     1      -6.651  -2.267 -34.693  1.00  0.00     0.002 A 
ENDBRANCH   1  15
TORSDOF 6
ENDMDL
MODEL 8
REMARK VINA RESULT:      -7.7      2.958      8.092
REMARK  6 active torsions:
REMARK  status: ('A' for Active; 'I' for Inactive)
REMARK    1  A    between atoms: C_2  and  O_3 
REMARK    2  A    between atoms: O_3  and  C_4 
REMARK    3  A    between atoms: C_4  and  C_5 
REMARK    4  A    between atoms: C_8  and  C_9 
REMARK    5  A    between atoms: C_9  and  N_10 
REMARK    6  A    between atoms: N_10  and  C_11 
ROOT
HETATM    1  N   UNL     1      -6.587   1.701 -29.706  1.00  0.00    -0.220 N 
HETATM    2  H   UNL     1      -6.748   1.297 -28.794  1.00  0.00     0.178 HD
ENDROOT
BRANCH   1   3
HETATM    3  C   UNL     1      -6.889   3.115 -29.798  1.00  0.00     0.176 C 
BRANCH   3   4
HETATM    4  C   UNL     1      -6.114   3.727 -30.938  1.00  0.00    -0.040 A 
HETATM    5  C   UNL     1      -4.727   3.905 -30.836  1.00  0.00     0.009 A 
HETATM    6  C   UNL     1      -4.004   4.453 -31.896  1.00  0.00     0.010 A 
HETATM    7  C   UNL     1      -4.652   4.846 -33.075  1.00  0.00    -0.035 A 
HETATM    8  C   UNL     1      -6.039   4.682 -33.171  1.00  0.00     0.010 A 
HETATM    9  C   UNL     1      -6.765   4.133 -32.110  1.00  0.00     0.009 A 
BRANCH   7  10
HETATM   10  C   UNL     1      -3.856   5.394 -34.231  1.00  0.00     0.206 C 
BRANCH  10  11
HETATM   11  O   UNL     1      -3.240   6.605 -33.805  1.00  0.00    -0.382 OA
BRANCH  11  12
HETATM   12  C   UNL     1      -1.863   6.711 -34.172  1.00  0.00     0.113 C 
HETATM   13  C   UNL     1      -1.361   5.403 -34.776  1.00  0.00     0.039 C 
HETATM   14  C   UNL     1      -1.089   7.036 -32.899  1.00  0.00     0.039 C 
ENDBRANCH  11  12
ENDBRANCH  10  11
ENDBRANCH   7  10
ENDBRANCH   3   4
ENDBRANCH   1   3
BRANCH   1  15
HETATM   15  C   UNL     1      -6.685   0.886 -30.793  1.00  0.00     0.704 A 
HETATM   16  N   UNL     1      -5.672   0.237 -31.272  1.00  0.00    -0.064 NA
HETATM   17  C   UNL     1      -5.860  -0.577 -32.400  1.00  0.00     0.091 A 
HETATM   18  C   UNL     1      -7.100  -0.719 -33.025  1.00  0.00     0.062 A 
HETATM   19  C   UNL     1      -4.768  -1.273 -32.922  1.00  0.00     0.033 A 
HETATM   20  C   UNL     1      -8.228   0.026 -32.448  1.00  0.00     0.272 A 
HETATM   21  C   UNL     1      -7.263  -1.534 -34.150  1.00  0.00     0.019 A 
HETATM   22  O   UNL     1      -9.361  -0.040 -32.912  1.00  0.00    -0.267 OA
HETATM   23  N   UNL     1      -7.930   0.798 -31.354  1.00  0.00    -0.154 N 
HETATM   24  H   UNL     1      -8.706   1.286 -30.940  1.00  0.00     0.187 HD
HETATM   25  C   UNL     1      -6.162  -2.222 -34.659  1.00  0.00     0.001 A 
HETATM   26  C   UNL     1      -4.916  -2.092 -34.046  1.00  0.00     0.002 A 
ENDBRANCH   1  15
TORSDOF 6
ENDMDL
MODEL 9
REMARK VINA RESULT:      -7.7      2.226      8.956
REMARK  6 active torsions:
REMARK  status: ('A' for Active; 'I' for Inactive)
REMARK    1  A    between atoms: C_2  and  O_3 
REMARK    2  A    between atoms: O_3  and  C_4 
REMARK    3  A    between atoms: C_4  and  C_5 
REMARK    4  A    between atoms: C_8  and  C_9 
REMARK    5  A    between atoms: C_9  and  N_10 
REMARK    6  A    between atoms: N_10  and  C_11 
ROOT
HETATM    1  N   UNL     1      -5.053   3.056 -32.251  1.00  0.00    -0.220 N 
HETATM    2  H   UNL     1      -5.800   3.296 -31.614  1.00  0.00     0.178 HD
ENDROOT
BRANCH   1   3
HETATM    3  C   UNL     1      -4.635   4.137 -33.121  1.00  0.00     0.176 C 
BRANCH   3   4
HETATM    4  C   UNL     1      -3.397   4.792 -32.559  1.00  0.00    -0.040 A 
HETATM    5  C   UNL     1      -3.488   5.641 -31.447  1.00  0.00     0.009 A 
HETATM    6  C   UNL     1      -2.342   6.233 -30.913  1.00  0.00     0.010 A 
HETATM    7  C   UNL     1      -1.085   5.999 -31.486  1.00  0.00    -0.035 A 
HETATM    8  C   UNL     1      -0.996   5.163 -32.606  1.00  0.00     0.010 A 
HETATM    9  C   UNL     1      -2.143   4.570 -33.142  1.00  0.00     0.009 A 
BRANCH   7  10
HETATM   10  C   UNL     1       0.151   6.606 -30.875  1.00  0.00     0.206 C 
BRANCH  10  11
HETATM   11  O   UNL     1      -0.227   7.242 -29.659  1.00  0.00    -0.382 OA
BRANCH  11  12
HETATM   12  C   UNL     1       0.621   6.925 -28.554  1.00  0.00     0.113 C 
HETATM   13  C   UNL     1      -0.176   6.271 -27.429  1.00  0.00     0.039 C 
HETATM   14  C   UNL     1       1.231   8.238 -28.073  1.00  0.00     0.039 C 
ENDBRANCH  11  12
ENDBRANCH  10  11
ENDBRANCH   7  10
ENDBRANCH   3   4
ENDBRANCH   1   3
BRANCH   1  15
HETATM   15  C   UNL     1      -4.932   1.755 -32.635  1.00  0.00     0.704 A 
HETATM   16  N   UNL     1      -5.819   1.156 -33.364  1.00  0.00    -0.064 NA
HETATM   17  C   UNL     1      -5.617  -0.189 -33.709  1.00  0.00     0.091 A 
HETATM   18  C   UNL     1      -4.492  -0.908 -33.302  1.00  0.00     0.062 A 
HETATM   19  C   UNL     1      -6.576  -0.838 -34.489  1.00  0.00     0.033 A 
HETATM   20  C   UNL     1      -3.502  -0.192 -32.484  1.00  0.00     0.272 A 
HETATM   21  C   UNL     1      -4.314  -2.249 -33.657  1.00  0.00     0.019 A 
HETATM   22  O   UNL     1      -2.473  -0.727 -32.087  1.00  0.00    -0.267 OA
HETATM   23  N   UNL     1      -3.805   1.114 -32.196  1.00  0.00    -0.154 N 
HETATM   24  H   UNL     1      -3.115   1.614 -31.662  1.00  0.00     0.187 HD
HETATM   25  C   UNL     1      -5.280  -2.883 -34.435  1.00  0.00     0.001 A 
HETATM   26  C   UNL     1      -6.411  -2.179 -34.851  1.00  0.00     0.002 A 
ENDBRANCH   1  15
TORSDOF 6
ENDMDL
MODEL 10
REMARK VINA RESULT:      -7.6      2.529      8.302
REMARK  6 active torsions:
REMARK  status: ('A' for Active; 'I' for Inactive)
REMARK    1  A    between atoms: C_2  and  O_3 
REMARK    2  A    between atoms: O_3  and  C_4 
REMARK    3  A    between atoms: C_4  and  C_5 
REMARK    4  A    between atoms: C_8  and  C_9 
REMARK    5  A    between atoms: C_9  and  N_10 
REMARK    6  A    between atoms: N_10  and  C_11 
ROOT
HETATM    1  N   UNL     1      -6.463   0.645 -34.502  1.00  0.00    -0.220 N 
HETATM    2  H   UNL     1      -6.186   1.159 -35.326  1.00  0.00     0.178 HD
ENDROOT
BRANCH   1   3
HETATM    3  C   UNL     1      -7.002   1.465 -33.436  1.00  0.00     0.176 C 
BRANCH   3   4
HETATM    4  C   UNL     1      -6.121   2.671 -33.227  1.00  0.00    -0.040 A 
HETATM    5  C   UNL     1      -5.237   2.723 -32.141  1.00  0.00     0.009 A 
HETATM    6  C   UNL     1      -4.406   3.829 -31.957  1.00  0.00     0.010 A 
HETATM    7  C   UNL     1      -4.450   4.911 -32.846  1.00  0.00    -0.035 A 
HETATM    8  C   UNL     1      -5.343   4.866 -33.923  1.00  0.00     0.010 A 
HETATM    9  C   UNL     1      -6.176   3.759 -34.109  1.00  0.00     0.009 A 
BRANCH   7  10
HETATM   10  C   UNL     1      -3.517   6.080 -32.664  1.00  0.00     0.206 C 
BRANCH  10  11
HETATM   11  O   UNL     1      -3.228   6.616 -33.952  1.00  0.00    -0.382 OA
BRANCH  11  12
HETATM   12  C   UNL     1      -1.832   6.700 -34.241  1.00  0.00     0.113 C 
HETATM   13  C   UNL     1      -1.291   5.350 -34.701  1.00  0.00     0.039 C 
HETATM   14  C   UNL     1      -1.138   7.135 -32.954  1.00  0.00     0.039 C 
ENDBRANCH  11  12
ENDBRANCH  10  11
ENDBRANCH   7  10
ENDBRANCH   3   4
ENDBRANCH   1   3
BRANCH   1  15
HETATM   15  C   UNL     1      -5.828  -0.530 -34.236  1.00  0.00     0.704 A 
HETATM   16  N   UNL     1      -4.969  -0.657 -33.275  1.00  0.00    -0.064 NA
HETATM   17  C   UNL     1      -4.356  -1.904 -33.074  1.00  0.00     0.091 A 
HETATM   18  C   UNL     1      -4.641  -3.017 -33.867  1.00  0.00     0.062 A 
HETATM   19  C   UNL     1      -3.425  -2.041 -32.043  1.00  0.00     0.033 A 
HETATM   20  C   UNL     1      -5.628  -2.837 -34.942  1.00  0.00     0.272 A 
HETATM   21  C   UNL     1      -4.016  -4.249 -33.649  1.00  0.00     0.019 A 
HETATM   22  O   UNL     1      -5.959  -3.753 -35.685  1.00  0.00    -0.267 OA
HETATM   23  N   UNL     1      -6.155  -1.576 -35.056  1.00  0.00    -0.154 N 
HETATM   24  H   UNL     1      -6.853  -1.458 -35.771  1.00  0.00     0.187 HD
HETATM   25  C   UNL     1      -3.087  -4.370 -32.616  1.00  0.00     0.001 A 
HETATM   26  C   UNL     1      -2.792  -3.267 -31.814  1.00  0.00     0.002 A 
ENDBRANCH   1  15
TORSDOF 6
ENDMDL
