MODEL 1
REMARK VINA RESULT:      -7.2      0.000      0.000
REMARK  4 active torsions:
REMARK  status: ('A' for Active; 'I' for Inactive)
REMARK    1  A    between atoms: O_2  and  C_3 
REMARK    2  A    between atoms: C_5  and  N_6 
REMARK    3  A    between atoms: N_6  and  C_7 
REMARK    4  A    between atoms: C_7  and  C_8 
ROOT
HETATM    1  N   UNL     1      -9.955   1.195 -32.625  1.00  0.00    -0.371 N 
HETATM    2  H   UNL     1      -9.588   1.746 -31.858  1.00  0.00     0.161 HD
ENDROOT
BRANCH   1   3
HETATM    3  C   UNL     1     -10.794   1.752 -33.556  1.00  0.00     0.103 A 
HETATM    4  C   UNL     1     -12.073   1.290 -33.875  1.00  0.00     0.085 A 
HETATM    5  C   UNL     1     -12.856   1.951 -34.825  1.00  0.00     0.073 A 
HETATM    6  C   UNL     1     -12.354   3.081 -35.450  1.00  0.00     0.053 A 
HETATM    7  C   UNL     1     -11.084   3.518 -35.105  1.00  0.00     0.092 A 
HETATM    8  N   UNL     1     -10.365   2.857 -34.189  1.00  0.00    -0.352 N 
HETATM    9  H   UNL     1      -9.444   3.206 -33.944  1.00  0.00     0.166 HD
BRANCH   5  10
HETATM   10  O   UNL     1     -14.082   1.392 -35.037  1.00  0.00    -0.356 OA
HETATM   11  C   UNL     1     -14.550   0.440 -34.086  1.00  0.00     0.210 C 
ENDBRANCH   5  10
ENDBRANCH   1   3
BRANCH   1  12
HETATM   12  C   UNL     1      -9.201  -0.035 -32.856  1.00  0.00     0.180 C 
BRANCH  12  13
HETATM   13  C   UNL     1      -7.726   0.115 -32.838  1.00  0.00     0.053 A 
HETATM   14  N   UNL     1      -6.856  -0.820 -33.377  1.00  0.00    -0.306 N 
HETATM   15  C   UNL     1      -5.568  -0.337 -33.161  1.00  0.00     0.133 A 
HETATM   16  C   UNL     1      -7.116  -2.031 -34.020  1.00  0.00     0.118 A 
HETATM   17  C   UNL     1      -4.483  -1.132 -33.625  1.00  0.00     0.052 A 
HETATM   18  N   UNL     1      -5.585   0.817 -32.533  1.00  0.00    -0.241 NA
HETATM   19  C   UNL     1      -4.728  -2.302 -34.246  1.00  0.00     0.024 A 
HETATM   20  C   UNL     1      -6.088  -2.780 -34.458  1.00  0.00     0.027 A 
HETATM   21 BR   UNL     1      -6.334  -4.407 -35.325  1.00  0.00    -0.050 Br
HETATM   22  C   UNL     1      -6.905   1.099 -32.324  1.00  0.00     0.146 A 
ENDBRANCH  12  13
ENDBRANCH   1  12
TORSDOF 4
ENDMDL
MODEL 2
REMARK VINA RESULT:      -7.2      5.250      7.520
REMARK  4 active torsions:
REMARK  status: ('A' for Active; 'I' for Inactive)
REMARK    1  A    between atoms: O_2  and  C_3 
REMARK    2  A    between atoms: C_5  and  N_6 
REMARK    3  A    between atoms: N_6  and  C_7 
REMARK    4  A    between atoms: C_7  and  C_8 
ROOT
HETATM    1  N   UNL     1      -2.962   2.956 -30.880  1.00  0.00    -0.371 N 
HETATM    2  H   UNL     1      -2.445   2.527 -30.121  1.00  0.00     0.161 HD
ENDROOT
BRANCH   1   3
HETATM    3  C   UNL     1      -2.393   3.930 -31.658  1.00  0.00     0.103 A 
HETATM    4  C   UNL     1      -2.677   4.161 -33.006  1.00  0.00     0.085 A 
HETATM    5  C   UNL     1      -2.056   5.203 -33.700  1.00  0.00     0.073 A 
HETATM    6  C   UNL     1      -1.151   6.016 -33.036  1.00  0.00     0.053 A 
HETATM    7  C   UNL     1      -0.897   5.765 -31.696  1.00  0.00     0.092 A 
HETATM    8  N   UNL     1      -1.514   4.757 -31.066  1.00  0.00    -0.352 N 
HETATM    9  H   UNL     1      -1.322   4.604 -30.081  1.00  0.00     0.166 HD
BRANCH   5  10
HETATM   10  O   UNL     1      -2.427   5.314 -35.008  1.00  0.00    -0.356 OA
HETATM   11  C   UNL     1      -3.811   5.179 -35.318  1.00  0.00     0.210 C 
ENDBRANCH   5  10
ENDBRANCH   1   3
BRANCH   1  12
HETATM   12  C   UNL     1      -4.124   2.173 -31.293  1.00  0.00     0.180 C 
BRANCH  12  13
HETATM   13  C   UNL     1      -3.834   0.772 -31.688  1.00  0.00     0.053 A 
HETATM   14  N   UNL     1      -4.577   0.074 -32.626  1.00  0.00    -0.306 N 
HETATM   15  C   UNL     1      -4.012  -1.196 -32.717  1.00  0.00     0.133 A 
HETATM   16  C   UNL     1      -5.685   0.468 -33.377  1.00  0.00     0.118 A 
HETATM   17  C   UNL     1      -4.608  -2.116 -33.623  1.00  0.00     0.052 A 
HETATM   18  N   UNL     1      -2.984  -1.325 -31.908  1.00  0.00    -0.241 NA
HETATM   19  C   UNL     1      -5.678  -1.742 -34.350  1.00  0.00     0.024 A 
HETATM   20  C   UNL     1      -6.246  -0.405 -34.233  1.00  0.00     0.027 A 
HETATM   21 BR   UNL     1      -7.725   0.028 -35.276  1.00  0.00    -0.050 Br
HETATM   22  C   UNL     1      -2.872  -0.124 -31.267  1.00  0.00     0.146 A 
ENDBRANCH  12  13
ENDBRANCH   1  12
TORSDOF 4
ENDMDL
MODEL 3
REMARK VINA RESULT:      -7.2      4.928      7.284
REMARK  4 active torsions:
REMARK  status: ('A' for Active; 'I' for Inactive)
REMARK    1  A    between atoms: O_2  and  C_3 
REMARK    2  A    between atoms: C_5  and  N_6 
REMARK    3  A    between atoms: N_6  and  C_7 
REMARK    4  A    between atoms: C_7  and  C_8 
ROOT
HETATM    1  N   UNL     1      -3.499   2.652 -31.123  1.00  0.00    -0.371 N 
HETATM    2  H   UNL     1      -3.780   2.733 -30.153  1.00  0.00     0.161 HD
ENDROOT
BRANCH   1   3
HETATM    3  C   UNL     1      -2.744   3.626 -31.722  1.00  0.00     0.103 A 
HETATM    4  C   UNL     1      -2.912   4.097 -33.027  1.00  0.00     0.085 A 
HETATM    5  C   UNL     1      -2.100   5.116 -33.531  1.00  0.00     0.073 A 
HETATM    6  C   UNL     1      -1.120   5.666 -32.719  1.00  0.00     0.053 A 
HETATM    7  C   UNL     1      -0.984   5.182 -31.427  1.00  0.00     0.092 A 
HETATM    8  N   UNL     1      -1.783   4.204 -30.981  1.00  0.00    -0.352 N 
HETATM    9  H   UNL     1      -1.673   3.879 -30.026  1.00  0.00     0.166 HD
BRANCH   5  10
HETATM   10  O   UNL     1      -2.374   5.476 -34.817  1.00  0.00    -0.356 OA
HETATM   11  C   UNL     1      -3.698   5.260 -35.298  1.00  0.00     0.210 C 
ENDBRANCH   5  10
ENDBRANCH   1   3
BRANCH   1  12
HETATM   12  C   UNL     1      -3.606   1.288 -31.636  1.00  0.00     0.180 C 
BRANCH  12  13
HETATM   13  C   UNL     1      -4.732   1.053 -32.573  1.00  0.00     0.053 A 
HETATM   14  N   UNL     1      -4.960  -0.160 -33.204  1.00  0.00    -0.306 N 
HETATM   15  C   UNL     1      -6.088   0.011 -34.002  1.00  0.00     0.133 A 
HETATM   16  C   UNL     1      -4.258  -1.364 -33.128  1.00  0.00     0.118 A 
HETATM   17  C   UNL     1      -6.527  -1.106 -34.766  1.00  0.00     0.052 A 
HETATM   18  N   UNL     1      -6.565   1.232 -33.907  1.00  0.00    -0.241 NA
HETATM   19  C   UNL     1      -5.854  -2.270 -34.697  1.00  0.00     0.024 A 
HETATM   20  C   UNL     1      -4.676  -2.418 -33.851  1.00  0.00     0.027 A 
HETATM   21 BR   UNL     1      -3.808  -4.063 -33.816  1.00  0.00    -0.050 Br
HETATM   22  C   UNL     1      -5.734   1.881 -33.038  1.00  0.00     0.146 A 
ENDBRANCH  12  13
ENDBRANCH   1  12
TORSDOF 4
ENDMDL
MODEL 4
REMARK VINA RESULT:      -7.0      1.202      1.938
REMARK  4 active torsions:
REMARK  status: ('A' for Active; 'I' for Inactive)
REMARK    1  A    between atoms: O_2  and  C_3 
REMARK    2  A    between atoms: C_5  and  N_6 
REMARK    3  A    between atoms: N_6  and  C_7 
REMARK    4  A    between atoms: C_7  and  C_8 
ROOT
HETATM    1  N   UNL     1      -9.131   1.191 -33.483  1.00  0.00    -0.371 N 
HETATM    2  H   UNL     1      -8.800   1.706 -32.675  1.00  0.00     0.161 HD
ENDROOT
BRANCH   1   3
HETATM    3  C   UNL     1     -10.471   1.090 -33.754  1.00  0.00     0.103 A 
HETATM    4  C   UNL     1     -11.191   1.923 -34.614  1.00  0.00     0.085 A 
HETATM    5  C   UNL     1     -12.554   1.714 -34.839  1.00  0.00     0.073 A 
HETATM    6  C   UNL     1     -13.192   0.661 -34.203  1.00  0.00     0.053 A 
HETATM    7  C   UNL     1     -12.448  -0.152 -33.362  1.00  0.00     0.092 A 
HETATM    8  N   UNL     1     -11.143   0.081 -33.173  1.00  0.00    -0.352 N 
HETATM    9  H   UNL     1     -10.617  -0.538 -32.564  1.00  0.00     0.166 HD
BRANCH   5  10
HETATM   10  O   UNL     1     -13.129   2.601 -35.700  1.00  0.00    -0.356 OA
HETATM   11  C   UNL     1     -12.521   3.883 -35.837  1.00  0.00     0.210 C 
ENDBRANCH   5  10
ENDBRANCH   1   3
BRANCH   1  12
HETATM   12  C   UNL     1      -8.089   0.965 -34.482  1.00  0.00     0.180 C 
BRANCH  12  13
HETATM   13  C   UNL     1      -6.744   0.663 -33.934  1.00  0.00     0.053 A 
HETATM   14  N   UNL     1      -6.138  -0.579 -34.039  1.00  0.00    -0.306 N 
HETATM   15  C   UNL     1      -4.903  -0.475 -33.403  1.00  0.00     0.133 A 
HETATM   16  C   UNL     1      -6.590  -1.758 -34.633  1.00  0.00     0.118 A 
HETATM   17  C   UNL     1      -4.083  -1.637 -33.371  1.00  0.00     0.052 A 
HETATM   18  N   UNL     1      -4.710   0.732 -32.920  1.00  0.00    -0.241 NA
HETATM   19  C   UNL     1      -4.514  -2.777 -33.942  1.00  0.00     0.024 A 
HETATM   20  C   UNL     1      -5.811  -2.854 -34.600  1.00  0.00     0.027 A 
HETATM   21 BR   UNL     1      -6.327  -4.471 -35.364  1.00  0.00    -0.050 Br
HETATM   22  C   UNL     1      -5.838   1.435 -33.235  1.00  0.00     0.146 A 
ENDBRANCH  12  13
ENDBRANCH   1  12
TORSDOF 4
ENDMDL
MODEL 5
REMARK VINA RESULT:      -6.9      5.771      7.645
REMARK  4 active torsions:
REMARK  status: ('A' for Active; 'I' for Inactive)
REMARK    1  A    between atoms: O_2  and  C_3 
REMARK    2  A    between atoms: C_5  and  N_6 
REMARK    3  A    between atoms: N_6  and  C_7 
REMARK    4  A    between atoms: C_7  and  C_8 
ROOT
HETATM    1  N   UNL     1      -5.578   2.387 -32.503  1.00  0.00    -0.371 N 
HETATM    2  H   UNL     1      -6.285   3.031 -32.171  1.00  0.00     0.161 HD
ENDROOT
BRANCH   1   3
HETATM    3  C   UNL     1      -5.908   1.337 -33.321  1.00  0.00     0.103 A 
HETATM    4  C   UNL     1      -5.386   0.044 -33.232  1.00  0.00     0.085 A 
HETATM    5  C   UNL     1      -5.813  -0.962 -34.104  1.00  0.00     0.073 A 
HETATM    6  C   UNL     1      -6.770  -0.667 -35.062  1.00  0.00     0.053 A 
HETATM    7  C   UNL     1      -7.273   0.624 -35.119  1.00  0.00     0.092 A 
HETATM    8  N   UNL     1      -6.838   1.559 -34.264  1.00  0.00    -0.352 N 
HETATM    9  H   UNL     1      -7.234   2.493 -34.317  1.00  0.00     0.166 HD
BRANCH   5  10
HETATM   10  O   UNL     1      -5.222  -2.174 -33.904  1.00  0.00    -0.356 OA
HETATM   11  C   UNL     1      -5.342  -3.149 -34.937  1.00  0.00     0.210 C 
ENDBRANCH   5  10
ENDBRANCH   1   3
BRANCH   1  12
HETATM   12  C   UNL     1      -4.221   2.915 -32.381  1.00  0.00     0.180 C 
BRANCH  12  13
HETATM   13  C   UNL     1      -3.928   4.102 -33.220  1.00  0.00     0.053 A 
HETATM   14  N   UNL     1      -2.842   4.936 -33.010  1.00  0.00    -0.306 N 
HETATM   15  C   UNL     1      -2.910   5.932 -33.982  1.00  0.00     0.133 A 
HETATM   16  C   UNL     1      -1.831   4.881 -32.049  1.00  0.00     0.118 A 
HETATM   17  C   UNL     1      -1.893   6.927 -33.974  1.00  0.00     0.052 A 
HETATM   18  N   UNL     1      -3.952   5.770 -34.766  1.00  0.00    -0.241 NA
HETATM   19  C   UNL     1      -0.916   6.879 -33.048  1.00  0.00     0.024 A 
HETATM   20  C   UNL     1      -0.872   5.823 -32.044  1.00  0.00     0.027 A 
HETATM   21 BR   UNL     1       0.514   5.834 -30.803  1.00  0.00    -0.050 Br
HETATM   22  C   UNL     1      -4.587   4.654 -34.301  1.00  0.00     0.146 A 
ENDBRANCH  12  13
ENDBRANCH   1  12
TORSDOF 4
ENDMDL
MODEL 6
REMARK VINA RESULT:      -6.8      6.354      8.829
REMARK  4 active torsions:
REMARK  status: ('A' for Active; 'I' for Inactive)
REMARK    1  A    between atoms: O_2  and  C_3 
REMARK    2  A    between atoms: C_5  and  N_6 
REMARK    3  A    between atoms: N_6  and  C_7 
REMARK    4  A    between atoms: C_7  and  C_8 
ROOT
HETATM    1  N   UNL     1      -3.369   2.221 -31.550  1.00  0.00    -0.371 N 
HETATM    2  H   UNL     1      -2.610   2.352 -30.891  1.00  0.00     0.161 HD
ENDROOT
BRANCH   1   3
HETATM    3  C   UNL     1      -3.703   0.971 -32.003  1.00  0.00     0.103 A 
HETATM    4  C   UNL     1      -3.060  -0.219 -31.651  1.00  0.00     0.085 A 
HETATM    5  C   UNL     1      -3.501  -1.446 -32.153  1.00  0.00     0.073 A 
HETATM    6  C   UNL     1      -4.593  -1.477 -33.006  1.00  0.00     0.053 A 
HETATM    7  C   UNL     1      -5.214  -0.280 -33.329  1.00  0.00     0.092 A 
HETATM    8  N   UNL     1      -4.761   0.876 -32.826  1.00  0.00    -0.352 N 
HETATM    9  H   UNL     1      -5.242   1.737 -33.066  1.00  0.00     0.166 HD
BRANCH   5  10
HETATM   10  O   UNL     1      -2.783  -2.524 -31.728  1.00  0.00    -0.356 OA
HETATM   11  C   UNL     1      -3.173  -3.810 -32.201  1.00  0.00     0.210 C 
ENDBRANCH   5  10
ENDBRANCH   1   3
BRANCH   1  12
HETATM   12  C   UNL     1      -4.271   3.368 -31.616  1.00  0.00     0.180 C 
BRANCH  12  13
HETATM   13  C   UNL     1      -3.995   4.328 -32.712  1.00  0.00     0.053 A 
HETATM   14  N   UNL     1      -2.928   5.212 -32.702  1.00  0.00    -0.306 N 
HETATM   15  C   UNL     1      -3.007   5.946 -33.883  1.00  0.00     0.133 A 
HETATM   16  C   UNL     1      -1.927   5.411 -31.750  1.00  0.00     0.118 A 
HETATM   17  C   UNL     1      -2.012   6.938 -34.107  1.00  0.00     0.052 A 
HETATM   18  N   UNL     1      -4.038   5.578 -34.611  1.00  0.00    -0.241 NA
HETATM   19  C   UNL     1      -1.044   7.134 -33.192  1.00  0.00     0.024 A 
HETATM   20  C   UNL     1      -0.988   6.349 -31.965  1.00  0.00     0.027 A 
HETATM   21 BR   UNL     1       0.385   6.686 -30.755  1.00  0.00    -0.050 Br
HETATM   22  C   UNL     1      -4.654   4.590 -33.897  1.00  0.00     0.146 A 
ENDBRANCH  12  13
ENDBRANCH   1  12
TORSDOF 4
ENDMDL
MODEL 7
REMARK VINA RESULT:      -6.7      5.397      7.927
REMARK  4 active torsions:
REMARK  status: ('A' for Active; 'I' for Inactive)
REMARK    1  A    between atoms: O_2  and  C_3 
REMARK    2  A    between atoms: C_5  and  N_6 
REMARK    3  A    between atoms: N_6  and  C_7 
REMARK    4  A    between atoms: C_7  and  C_8 
ROOT
HETATM    1  N   UNL     1      -3.635   2.921 -31.451  1.00  0.00    -0.371 N 
HETATM    2  H   UNL     1      -4.003   3.079 -30.520  1.00  0.00     0.161 HD
ENDROOT
BRANCH   1   3
HETATM    3  C   UNL     1      -2.770   3.815 -32.028  1.00  0.00     0.103 A 
HETATM    4  C   UNL     1      -1.732   4.481 -31.372  1.00  0.00     0.085 A 
HETATM    5  C   UNL     1      -0.891   5.355 -32.065  1.00  0.00     0.073 A 
HETATM    6  C   UNL     1      -1.091   5.556 -33.422  1.00  0.00     0.053 A 
HETATM    7  C   UNL     1      -2.125   4.875 -34.045  1.00  0.00     0.092 A 
HETATM    8  N   UNL     1      -2.909   4.044 -33.345  1.00  0.00    -0.352 N 
HETATM    9  H   UNL     1      -3.650   3.546 -33.829  1.00  0.00     0.166 HD
BRANCH   5  10
HETATM   10  O   UNL     1       0.079   5.934 -31.301  1.00  0.00    -0.356 OA
HETATM   11  C   UNL     1       0.290   5.414 -29.991  1.00  0.00     0.210 C 
ENDBRANCH   5  10
ENDBRANCH   1   3
BRANCH   1  12
HETATM   12  C   UNL     1      -3.770   1.535 -31.891  1.00  0.00     0.180 C 
BRANCH  12  13
HETATM   13  C   UNL     1      -4.945   1.258 -32.753  1.00  0.00     0.053 A 
HETATM   14  N   UNL     1      -5.185   0.029 -33.346  1.00  0.00    -0.306 N 
HETATM   15  C   UNL     1      -6.363   0.161 -34.077  1.00  0.00     0.133 A 
HETATM   16  C   UNL     1      -4.454  -1.159 -33.291  1.00  0.00     0.118 A 
HETATM   17  C   UNL     1      -6.823  -0.979 -34.792  1.00  0.00     0.052 A 
HETATM   18  N   UNL     1      -6.859   1.374 -33.976  1.00  0.00    -0.241 NA
HETATM   19  C   UNL     1      -6.122  -2.128 -34.742  1.00  0.00     0.024 A 
HETATM   20  C   UNL     1      -4.893  -2.235 -33.968  1.00  0.00     0.027 A 
HETATM   21 BR   UNL     1      -3.989  -3.862 -33.955  1.00  0.00    -0.050 Br
HETATM   22  C   UNL     1      -5.991   2.057 -33.171  1.00  0.00     0.146 A 
ENDBRANCH  12  13
ENDBRANCH   1  12
TORSDOF 4
ENDMDL
MODEL 8
REMARK VINA RESULT:      -6.7      5.703      6.832
REMARK  4 active torsions:
REMARK  status: ('A' for Active; 'I' for Inactive)
REMARK    1  A    between atoms: O_2  and  C_3 
REMARK    2  A    between atoms: C_5  and  N_6 
REMARK    3  A    between atoms: N_6  and  C_7 
REMARK    4  A    between atoms: C_7  and  C_8 
ROOT
HETATM    1  N   UNL     1      -5.301   1.317 -32.013  1.00  0.00    -0.371 N 
HETATM    2  H   UNL     1      -5.885   0.848 -31.330  1.00  0.00     0.161 HD
ENDROOT
BRANCH   1   3
HETATM    3  C   UNL     1      -4.683   2.504 -31.718  1.00  0.00     0.103 A 
HETATM    4  C   UNL     1      -3.385   2.859 -32.092  1.00  0.00     0.085 A 
HETATM    5  C   UNL     1      -2.861   4.111 -31.759  1.00  0.00     0.073 A 
HETATM    6  C   UNL     1      -3.646   5.009 -31.053  1.00  0.00     0.053 A 
HETATM    7  C   UNL     1      -4.932   4.629 -30.703  1.00  0.00     0.092 A 
HETATM    8  N   UNL     1      -5.399   3.420 -31.042  1.00  0.00    -0.352 N 
HETATM    9  H   UNL     1      -6.349   3.172 -30.787  1.00  0.00     0.166 HD
BRANCH   5  10
HETATM   10  O   UNL     1      -1.584   4.323 -32.188  1.00  0.00    -0.356 OA
HETATM   11  C   UNL     1      -1.392   5.209 -33.287  1.00  0.00     0.210 C 
ENDBRANCH   5  10
ENDBRANCH   1   3
BRANCH   1  12
HETATM   12  C   UNL     1      -4.875   0.437 -33.099  1.00  0.00     0.180 C 
BRANCH  12  13
HETATM   13  C   UNL     1      -4.081  -0.744 -32.681  1.00  0.00     0.053 A 
HETATM   14  N   UNL     1      -4.288  -2.019 -33.180  1.00  0.00    -0.306 N 
HETATM   15  C   UNL     1      -3.367  -2.850 -32.547  1.00  0.00     0.133 A 
HETATM   16  C   UNL     1      -5.209  -2.484 -34.121  1.00  0.00     0.118 A 
HETATM   17  C   UNL     1      -3.383  -4.230 -32.891  1.00  0.00     0.052 A 
HETATM   18  N   UNL     1      -2.615  -2.180 -31.702  1.00  0.00    -0.241 NA
HETATM   19  C   UNL     1      -4.269  -4.684 -33.798  1.00  0.00     0.024 A 
HETATM   20  C   UNL     1      -5.221  -3.789 -34.444  1.00  0.00     0.027 A 
HETATM   21 BR   UNL     1      -6.410  -4.501 -35.685  1.00  0.00    -0.050 Br
HETATM   22  C   UNL     1      -3.051  -0.888 -31.772  1.00  0.00     0.146 A 
ENDBRANCH  12  13
ENDBRANCH   1  12
TORSDOF 4
ENDMDL
MODEL 9
REMARK VINA RESULT:      -6.6      5.682      8.205
REMARK  4 active torsions:
REMARK  status: ('A' for Active; 'I' for Inactive)
REMARK    1  A    between atoms: O_2  and  C_3 
REMARK    2  A    between atoms: C_5  and  N_6 
REMARK    3  A    between atoms: N_6  and  C_7 
REMARK    4  A    between atoms: C_7  and  C_8 
ROOT
HETATM    1  N   UNL     1      -3.061   3.083 -31.227  1.00  0.00    -0.371 N 
HETATM    2  H   UNL     1      -2.523   2.521 -30.578  1.00  0.00     0.161 HD
ENDROOT
BRANCH   1   3
HETATM    3  C   UNL     1      -2.457   4.041 -32.000  1.00  0.00     0.103 A 
HETATM    4  C   UNL     1      -1.605   5.044 -31.531  1.00  0.00     0.085 A 
HETATM    5  C   UNL     1      -1.021   5.956 -32.414  1.00  0.00     0.073 A 
HETATM    6  C   UNL     1      -1.289   5.856 -33.770  1.00  0.00     0.053 A 
HETATM    7  C   UNL     1      -2.132   4.844 -34.203  1.00  0.00     0.092 A 
HETATM    8  N   UNL     1      -2.672   3.989 -33.326  1.00  0.00    -0.352 N 
HETATM    9  H   UNL     1      -3.274   3.247 -33.671  1.00  0.00     0.166 HD
BRANCH   5  10
HETATM   10  O   UNL     1      -0.213   6.881 -31.820  1.00  0.00    -0.356 OA
HETATM   11  C   UNL     1       0.386   6.536 -30.574  1.00  0.00     0.210 C 
ENDBRANCH   5  10
ENDBRANCH   1   3
BRANCH   1  12
HETATM   12  C   UNL     1      -4.366   2.503 -31.539  1.00  0.00     0.180 C 
BRANCH  12  13
HETATM   13  C   UNL     1      -4.325   1.206 -32.256  1.00  0.00     0.053 A 
HETATM   14  N   UNL     1      -5.455   0.561 -32.733  1.00  0.00    -0.306 N 
HETATM   15  C   UNL     1      -5.018  -0.619 -33.331  1.00  0.00     0.133 A 
HETATM   16  C   UNL     1      -6.800   0.930 -32.673  1.00  0.00     0.118 A 
HETATM   17  C   UNL     1      -6.006  -1.470 -33.899  1.00  0.00     0.052 A 
HETATM   18  N   UNL     1      -3.712  -0.743 -33.255  1.00  0.00    -0.241 NA
HETATM   19  C   UNL     1      -7.305  -1.120 -33.844  1.00  0.00     0.024 A 
HETATM   20  C   UNL     1      -7.730   0.123 -33.211  1.00  0.00     0.027 A 
HETATM   21 BR   UNL     1      -9.546   0.529 -33.181  1.00  0.00    -0.050 Br
HETATM   22  C   UNL     1      -3.279   0.369 -32.590  1.00  0.00     0.146 A 
ENDBRANCH  12  13
ENDBRANCH   1  12
TORSDOF 4
ENDMDL
MODEL 10
REMARK VINA RESULT:      -6.4      4.905      6.870
REMARK  4 active torsions:
REMARK  status: ('A' for Active; 'I' for Inactive)
REMARK    1  A    between atoms: O_2  and  C_3 
REMARK    2  A    between atoms: C_5  and  N_6 
REMARK    3  A    between atoms: N_6  and  C_7 
REMARK    4  A    between atoms: C_7  and  C_8 
ROOT
HETATM    1  N   UNL     1      -4.691   1.417 -31.940  1.00  0.00    -0.371 N 
HETATM    2  H   UNL     1      -3.977   1.112 -31.289  1.00  0.00     0.161 HD
ENDROOT
BRANCH   1   3
HETATM    3  C   UNL     1      -5.466   0.509 -32.615  1.00  0.00     0.103 A 
HETATM    4  C   UNL     1      -6.863   0.491 -32.638  1.00  0.00     0.085 A 
HETATM    5  C   UNL     1      -7.554  -0.468 -33.382  1.00  0.00     0.073 A 
HETATM    6  C   UNL     1      -6.839  -1.407 -34.109  1.00  0.00     0.053 A 
HETATM    7  C   UNL     1      -5.455  -1.358 -34.071  1.00  0.00     0.092 A 
HETATM    8  N   UNL     1      -4.829  -0.422 -33.346  1.00  0.00    -0.352 N 
HETATM    9  H   UNL     1      -3.814  -0.398 -33.347  1.00  0.00     0.166 HD
BRANCH   5  10
HETATM   10  O   UNL     1      -8.912  -0.368 -33.314  1.00  0.00    -0.356 OA
HETATM   11  C   UNL     1      -9.467   0.425 -32.268  1.00  0.00     0.210 C 
ENDBRANCH   5  10
ENDBRANCH   1   3
BRANCH   1  12
HETATM   12  C   UNL     1      -5.068   2.817 -31.759  1.00  0.00     0.180 C 
BRANCH  12  13
HETATM   13  C   UNL     1      -4.730   3.713 -32.892  1.00  0.00     0.053 A 
HETATM   14  N   UNL     1      -3.544   4.424 -32.976  1.00  0.00    -0.306 N 
HETATM   15  C   UNL     1      -3.597   5.151 -34.163  1.00  0.00     0.133 A 
HETATM   16  C   UNL     1      -2.457   4.477 -32.101  1.00  0.00     0.118 A 
HETATM   17  C   UNL     1      -2.482   5.977 -34.477  1.00  0.00     0.052 A 
HETATM   18  N   UNL     1      -4.722   4.938 -34.808  1.00  0.00    -0.241 NA
HETATM   19  C   UNL     1      -1.431   6.031 -33.637  1.00  0.00     0.024 A 
HETATM   20  C   UNL     1      -1.405   5.258 -32.402  1.00  0.00     0.027 A 
HETATM   21 BR   UNL     1       0.088   5.394 -31.300  1.00  0.00    -0.050 Br
HETATM   22  C   UNL     1      -5.427   4.062 -34.032  1.00  0.00     0.146 A 
ENDBRANCH  12  13
ENDBRANCH   1  12
TORSDOF 4
ENDMDL
