MODEL 1
REMARK VINA RESULT:      -8.9      0.000      0.000
REMARK  3 active torsions:
REMARK  status: ('A' for Active; 'I' for Inactive)
REMARK    1  A    between atoms: C_3  and  O_4 
REMARK    2  A    between atoms: C_6  and  C_7 
REMARK    3  A    between atoms: N_8  and  N_9 
ROOT
HETATM    1  N   UNL     1      -4.601   1.348 -32.657  1.00  0.00    -0.189 N 
HETATM    2  C   UNL     1      -5.136   2.595 -33.026  1.00  0.00     0.298 A 
HETATM    3  O   UNL     1      -6.184   2.797 -33.633  1.00  0.00    -0.264 OA
HETATM    4  C   UNL     1      -4.308   3.670 -32.576  1.00  0.00     0.133 A 
HETATM    5  C   UNL     1      -3.191   3.500 -31.813  1.00  0.00     0.103 A 
HETATM    6  N   UNL     1      -2.753   2.249 -31.376  1.00  0.00    -0.239 NA
HETATM    7  C   UNL     1      -3.486   1.271 -31.822  1.00  0.00     0.239 A 
HETATM    8  N   UNL     1      -4.457   5.010 -32.801  1.00  0.00    -0.349 N 
HETATM    9  H   UNL     1      -5.210   5.427 -33.332  1.00  0.00     0.166 HD
HETATM   10  C   UNL     1      -3.416   5.699 -32.206  1.00  0.00     0.045 A 
HETATM   11  C   UNL     1      -2.601   4.757 -31.566  1.00  0.00     0.024 A 
HETATM   12  C   UNL     1      -3.141   7.072 -32.186  1.00  0.00     0.032 A 
HETATM   13  C   UNL     1      -1.999   7.489 -31.493  1.00  0.00     0.026 A 
HETATM   14  C   UNL     1      -1.176   6.567 -30.848  1.00  0.00     0.035 A 
HETATM   15 CL   UNL     1       0.221   7.126 -30.007  1.00  0.00    -0.084 Cl
HETATM   16  C   UNL     1      -1.460   5.200 -30.870  1.00  0.00     0.040 A 
ENDROOT
BRANCH   1  17
HETATM   17  N   UNL     1      -5.197   0.129 -32.957  1.00  0.00    -0.175 NA
HETATM   18  C   UNL     1      -4.502  -0.753 -33.601  1.00  0.00     0.150 C 
BRANCH  18  19
HETATM   19  C   UNL     1      -5.076  -2.056 -33.999  1.00  0.00    -0.014 A 
HETATM   20  C   UNL     1      -4.258  -3.186 -33.950  1.00  0.00     0.049 A 
HETATM   21  C   UNL     1      -4.782  -4.421 -34.314  1.00  0.00     0.066 A 
HETATM   22  C   UNL     1      -6.106  -4.546 -34.726  1.00  0.00     0.036 A 
HETATM   23  C   UNL     1      -6.922  -3.413 -34.774  1.00  0.00     0.004 A 
HETATM   24  C   UNL     1      -6.408  -2.165 -34.412  1.00  0.00     0.013 A 
BRANCH  21  25
HETATM   25  O   UNL     1      -3.953  -5.502 -34.252  1.00  0.00    -0.361 OA
HETATM   26  H   UNL     1      -3.725  -5.670 -33.322  1.00  0.00     0.217 HD
ENDBRANCH  21  25
ENDBRANCH  18  19
ENDBRANCH   1  17
TORSDOF 3
ENDMDL
MODEL 2
REMARK VINA RESULT:      -8.7      3.721      9.044
REMARK  3 active torsions:
REMARK  status: ('A' for Active; 'I' for Inactive)
REMARK    1  A    between atoms: C_3  and  O_4 
REMARK    2  A    between atoms: C_6  and  C_7 
REMARK    3  A    between atoms: N_8  and  N_9 
ROOT
HETATM    1  N   UNL     1      -4.252   1.740 -32.256  1.00  0.00    -0.189 N 
HETATM    2  C   UNL     1      -3.447   0.681 -31.801  1.00  0.00     0.298 A 
HETATM    3  O   UNL     1      -2.547   0.744 -30.968  1.00  0.00    -0.264 OA
HETATM    4  C   UNL     1      -3.816  -0.555 -32.417  1.00  0.00     0.133 A 
HETATM    5  C   UNL     1      -4.872  -0.693 -33.269  1.00  0.00     0.103 A 
HETATM    6  N   UNL     1      -5.715   0.364 -33.612  1.00  0.00    -0.239 NA
HETATM    7  C   UNL     1      -5.351   1.496 -33.082  1.00  0.00     0.239 A 
HETATM    8  N   UNL     1      -3.226  -1.781 -32.285  1.00  0.00    -0.349 N 
HETATM    9  H   UNL     1      -2.422  -1.976 -31.703  1.00  0.00     0.166 HD
HETATM   10  C   UNL     1      -3.886  -2.702 -33.078  1.00  0.00     0.045 A 
HETATM   11  C   UNL     1      -4.942  -2.031 -33.709  1.00  0.00     0.024 A 
HETATM   12  C   UNL     1      -3.630  -4.064 -33.278  1.00  0.00     0.032 A 
HETATM   13  C   UNL     1      -4.478  -4.756 -34.150  1.00  0.00     0.026 A 
HETATM   14  C   UNL     1      -5.536  -4.108 -34.787  1.00  0.00     0.035 A 
HETATM   15 CL   UNL     1      -6.554  -5.000 -35.854  1.00  0.00    -0.084 Cl
HETATM   16  C   UNL     1      -5.785  -2.750 -34.579  1.00  0.00     0.040 A 
ENDROOT
BRANCH   1  17
HETATM   17  N   UNL     1      -4.122   3.054 -31.825  1.00  0.00    -0.175 NA
HETATM   18  C   UNL     1      -3.407   3.867 -32.535  1.00  0.00     0.150 C 
BRANCH  18  19
HETATM   19  C   UNL     1      -3.180   5.268 -32.121  1.00  0.00    -0.014 A 
HETATM   20  C   UNL     1      -2.507   6.120 -32.999  1.00  0.00     0.049 A 
HETATM   21  C   UNL     1      -2.291   7.442 -32.631  1.00  0.00     0.066 A 
HETATM   22  C   UNL     1      -2.733   7.928 -31.403  1.00  0.00     0.036 A 
HETATM   23  C   UNL     1      -3.405   7.073 -30.527  1.00  0.00     0.004 A 
HETATM   24  C   UNL     1      -3.629   5.740 -30.884  1.00  0.00     0.013 A 
BRANCH  21  25
HETATM   25  O   UNL     1      -1.631   8.244 -33.516  1.00  0.00    -0.361 OA
HETATM   26  H   UNL     1      -1.749   9.171 -33.248  1.00  0.00     0.217 HD
ENDBRANCH  21  25
ENDBRANCH  18  19
ENDBRANCH   1  17
TORSDOF 3
ENDMDL
MODEL 3
REMARK VINA RESULT:      -8.4      2.272      2.792
REMARK  3 active torsions:
REMARK  status: ('A' for Active; 'I' for Inactive)
REMARK    1  A    between atoms: C_3  and  O_4 
REMARK    2  A    between atoms: C_6  and  C_7 
REMARK    3  A    between atoms: N_8  and  N_9 
ROOT
HETATM    1  N   UNL     1      -4.958   0.993 -32.359  1.00  0.00    -0.189 N 
HETATM    2  C   UNL     1      -3.933   1.668 -31.672  1.00  0.00     0.298 A 
HETATM    3  O   UNL     1      -2.890   1.182 -31.245  1.00  0.00    -0.264 OA
HETATM    4  C   UNL     1      -4.228   3.059 -31.534  1.00  0.00     0.133 A 
HETATM    5  C   UNL     1      -5.324   3.661 -32.079  1.00  0.00     0.103 A 
HETATM    6  N   UNL     1      -6.264   2.975 -32.848  1.00  0.00    -0.239 NA
HETATM    7  C   UNL     1      -6.014   1.701 -32.937  1.00  0.00     0.239 A 
HETATM    8  N   UNL     1      -3.515   4.018 -30.870  1.00  0.00    -0.349 N 
HETATM    9  H   UNL     1      -2.646   3.855 -30.378  1.00  0.00     0.166 HD
HETATM   10  C   UNL     1      -4.169   5.232 -30.964  1.00  0.00     0.045 A 
HETATM   11  C   UNL     1      -5.321   5.029 -31.735  1.00  0.00     0.024 A 
HETATM   12  C   UNL     1      -3.829   6.482 -30.431  1.00  0.00     0.032 A 
HETATM   13  C   UNL     1      -4.694   7.550 -30.694  1.00  0.00     0.026 A 
HETATM   14  C   UNL     1      -5.844   7.369 -31.461  1.00  0.00     0.035 A 
HETATM   15 CL   UNL     1      -6.881   8.714 -31.758  1.00  0.00    -0.084 Cl
HETATM   16  C   UNL     1      -6.174   6.120 -31.991  1.00  0.00     0.040 A 
ENDROOT
BRANCH   1  17
HETATM   17  N   UNL     1      -4.938  -0.367 -32.642  1.00  0.00    -0.175 NA
HETATM   18  C   UNL     1      -5.419  -0.767 -33.775  1.00  0.00     0.150 C 
BRANCH  18  19
HETATM   19  C   UNL     1      -5.478  -2.200 -34.132  1.00  0.00    -0.014 A 
HETATM   20  C   UNL     1      -4.335  -2.980 -33.943  1.00  0.00     0.049 A 
HETATM   21  C   UNL     1      -4.373  -4.331 -34.267  1.00  0.00     0.066 A 
HETATM   22  C   UNL     1      -5.529  -4.916 -34.775  1.00  0.00     0.036 A 
HETATM   23  C   UNL     1      -6.670  -4.133 -34.964  1.00  0.00     0.004 A 
HETATM   24  C   UNL     1      -6.647  -2.773 -34.644  1.00  0.00     0.013 A 
BRANCH  21  25
HETATM   25  O   UNL     1      -3.237  -5.060 -34.067  1.00  0.00    -0.361 OA
HETATM   26  H   UNL     1      -2.570  -4.786 -34.719  1.00  0.00     0.217 HD
ENDBRANCH  21  25
ENDBRANCH  18  19
ENDBRANCH   1  17
TORSDOF 3
ENDMDL
MODEL 4
REMARK VINA RESULT:      -8.1      5.588      7.013
REMARK  3 active torsions:
REMARK  status: ('A' for Active; 'I' for Inactive)
REMARK    1  A    between atoms: C_3  and  O_4 
REMARK    2  A    between atoms: C_6  and  C_7 
REMARK    3  A    between atoms: N_8  and  N_9 
ROOT
HETATM    1  N   UNL     1      -8.808   0.667 -33.388  1.00  0.00    -0.189 N 
HETATM    2  C   UNL     1     -10.185   0.590 -33.112  1.00  0.00     0.298 A 
HETATM    3  O   UNL     1     -10.811  -0.403 -32.754  1.00  0.00    -0.264 OA
HETATM    4  C   UNL     1     -10.819   1.861 -33.274  1.00  0.00     0.133 A 
HETATM    5  C   UNL     1     -10.149   3.012 -33.571  1.00  0.00     0.103 A 
HETATM    6  N   UNL     1      -8.764   3.065 -33.730  1.00  0.00    -0.239 NA
HETATM    7  C   UNL     1      -8.196   1.899 -33.623  1.00  0.00     0.239 A 
HETATM    8  N   UNL     1     -12.146   2.169 -33.167  1.00  0.00    -0.349 N 
HETATM    9  H   UNL     1     -12.877   1.507 -32.942  1.00  0.00     0.166 HD
HETATM   10  C   UNL     1     -12.333   3.515 -33.425  1.00  0.00     0.045 A 
HETATM   11  C   UNL     1     -11.073   4.072 -33.679  1.00  0.00     0.024 A 
HETATM   12  C   UNL     1     -13.511   4.271 -33.450  1.00  0.00     0.032 A 
HETATM   13  C   UNL     1     -13.394   5.634 -33.745  1.00  0.00     0.026 A 
HETATM   14  C   UNL     1     -12.149   6.209 -33.999  1.00  0.00     0.035 A 
HETATM   15 CL   UNL     1     -12.053   7.891 -34.359  1.00  0.00    -0.084 Cl
HETATM   16  C   UNL     1     -10.979   5.447 -33.969  1.00  0.00     0.040 A 
ENDROOT
BRANCH   1  17
HETATM   17  N   UNL     1      -7.940  -0.415 -33.307  1.00  0.00    -0.175 NA
HETATM   18  C   UNL     1      -7.210  -0.696 -34.339  1.00  0.00     0.150 C 
BRANCH  18  19
HETATM   19  C   UNL     1      -6.296  -1.858 -34.352  1.00  0.00    -0.014 A 
HETATM   20  C   UNL     1      -6.762  -3.065 -34.877  1.00  0.00     0.049 A 
HETATM   21  C   UNL     1      -5.915  -4.166 -34.904  1.00  0.00     0.066 A 
HETATM   22  C   UNL     1      -4.614  -4.084 -34.416  1.00  0.00     0.036 A 
HETATM   23  C   UNL     1      -4.151  -2.876 -33.891  1.00  0.00     0.004 A 
HETATM   24  C   UNL     1      -4.992  -1.760 -33.856  1.00  0.00     0.013 A 
BRANCH  21  25
HETATM   25  O   UNL     1      -6.406  -5.327 -35.427  1.00  0.00    -0.361 OA
HETATM   26  H   UNL     1      -7.143  -5.633 -34.874  1.00  0.00     0.217 HD
ENDBRANCH  21  25
ENDBRANCH  18  19
ENDBRANCH   1  17
TORSDOF 3
ENDMDL
MODEL 5
REMARK VINA RESULT:      -8.1      3.558      8.768
REMARK  3 active torsions:
REMARK  status: ('A' for Active; 'I' for Inactive)
REMARK    1  A    between atoms: C_3  and  O_4 
REMARK    2  A    between atoms: C_6  and  C_7 
REMARK    3  A    between atoms: N_8  and  N_9 
ROOT
HETATM    1  N   UNL     1      -4.309   2.284 -32.286  1.00  0.00    -0.189 N 
HETATM    2  C   UNL     1      -5.533   2.031 -32.931  1.00  0.00     0.298 A 
HETATM    3  O   UNL     1      -6.429   2.840 -33.154  1.00  0.00    -0.264 OA
HETATM    4  C   UNL     1      -5.628   0.668 -33.350  1.00  0.00     0.133 A 
HETATM    5  C   UNL     1      -4.620  -0.241 -33.215  1.00  0.00     0.103 A 
HETATM    6  N   UNL     1      -3.378   0.079 -32.666  1.00  0.00    -0.239 NA
HETATM    7  C   UNL     1      -3.310   1.310 -32.249  1.00  0.00     0.239 A 
HETATM    8  N   UNL     1      -6.684   0.031 -33.940  1.00  0.00    -0.349 N 
HETATM    9  H   UNL     1      -7.567   0.468 -34.171  1.00  0.00     0.166 HD
HETATM   10  C   UNL     1      -6.364  -1.296 -34.158  1.00  0.00     0.045 A 
HETATM   11  C   UNL     1      -5.051  -1.489 -33.708  1.00  0.00     0.024 A 
HETATM   12  C   UNL     1      -7.130  -2.328 -34.714  1.00  0.00     0.032 A 
HETATM   13  C   UNL     1      -6.536  -3.591 -34.811  1.00  0.00     0.026 A 
HETATM   14  C   UNL     1      -5.229  -3.804 -34.371  1.00  0.00     0.035 A 
HETATM   15 CL   UNL     1      -4.538  -5.376 -34.509  1.00  0.00    -0.084 Cl
HETATM   16  C   UNL     1      -4.471  -2.768 -33.820  1.00  0.00     0.040 A 
ENDROOT
BRANCH   1  17
HETATM   17  N   UNL     1      -3.942   3.524 -31.778  1.00  0.00    -0.175 NA
HETATM   18  C   UNL     1      -2.731   3.936 -31.978  1.00  0.00     0.150 C 
BRANCH  18  19
HETATM   19  C   UNL     1      -2.247   5.221 -31.432  1.00  0.00    -0.014 A 
HETATM   20  C   UNL     1      -0.896   5.540 -31.582  1.00  0.00     0.049 A 
HETATM   21  C   UNL     1      -0.423   6.748 -31.081  1.00  0.00     0.066 A 
HETATM   22  C   UNL     1      -1.274   7.639 -30.434  1.00  0.00     0.036 A 
HETATM   23  C   UNL     1      -2.624   7.316 -30.285  1.00  0.00     0.004 A 
HETATM   24  C   UNL     1      -3.114   6.106 -30.783  1.00  0.00     0.013 A 
BRANCH  21  25
HETATM   25  O   UNL     1       0.902   7.025 -31.248  1.00  0.00    -0.361 OA
HETATM   26  H   UNL     1       1.021   7.989 -31.274  1.00  0.00     0.217 HD
ENDBRANCH  21  25
ENDBRANCH  18  19
ENDBRANCH   1  17
TORSDOF 3
ENDMDL
MODEL 6
REMARK VINA RESULT:      -8.0      3.754      4.266
REMARK  3 active torsions:
REMARK  status: ('A' for Active; 'I' for Inactive)
REMARK    1  A    between atoms: C_3  and  O_4 
REMARK    2  A    between atoms: C_6  and  C_7 
REMARK    3  A    between atoms: N_8  and  N_9 
ROOT
HETATM    1  N   UNL     1      -6.523   0.503 -31.281  1.00  0.00    -0.189 N 
HETATM    2  C   UNL     1      -5.497   1.254 -30.682  1.00  0.00     0.298 A 
HETATM    3  O   UNL     1      -4.316   0.937 -30.579  1.00  0.00    -0.264 OA
HETATM    4  C   UNL     1      -5.984   2.508 -30.199  1.00  0.00     0.133 A 
HETATM    5  C   UNL     1      -7.263   2.947 -30.381  1.00  0.00     0.103 A 
HETATM    6  N   UNL     1      -8.225   2.216 -31.078  1.00  0.00    -0.239 NA
HETATM    7  C   UNL     1      -7.789   1.057 -31.480  1.00  0.00     0.239 A 
HETATM    8  N   UNL     1      -5.310   3.471 -29.502  1.00  0.00    -0.349 N 
HETATM    9  H   UNL     1      -4.335   3.416 -29.235  1.00  0.00     0.166 HD
HETATM   10  C   UNL     1      -6.165   4.517 -29.209  1.00  0.00     0.045 A 
HETATM   11  C   UNL     1      -7.413   4.206 -29.765  1.00  0.00     0.024 A 
HETATM   12  C   UNL     1      -5.928   5.703 -28.502  1.00  0.00     0.032 A 
HETATM   13  C   UNL     1      -6.999   6.592 -28.360  1.00  0.00     0.026 A 
HETATM   14  C   UNL     1      -8.249   6.302 -28.907  1.00  0.00     0.035 A 
HETATM   15 CL   UNL     1      -9.540   7.426 -28.707  1.00  0.00    -0.084 Cl
HETATM   16  C   UNL     1      -8.475   5.119 -29.614  1.00  0.00     0.040 A 
ENDROOT
BRANCH   1  17
HETATM   17  N   UNL     1      -6.338  -0.755 -31.842  1.00  0.00    -0.175 NA
HETATM   18  C   UNL     1      -6.034  -0.830 -33.098  1.00  0.00     0.150 C 
BRANCH  18  19
HETATM   19  C   UNL     1      -5.866  -2.130 -33.782  1.00  0.00    -0.014 A 
HETATM   20  C   UNL     1      -4.630  -2.772 -33.692  1.00  0.00     0.049 A 
HETATM   21  C   UNL     1      -4.455  -3.999 -34.322  1.00  0.00     0.066 A 
HETATM   22  C   UNL     1      -5.490  -4.593 -35.038  1.00  0.00     0.036 A 
HETATM   23  C   UNL     1      -6.725  -3.947 -35.126  1.00  0.00     0.004 A 
HETATM   24  C   UNL     1      -6.916  -2.713 -34.499  1.00  0.00     0.013 A 
BRANCH  21  25
HETATM   25  O   UNL     1      -3.234  -4.597 -34.212  1.00  0.00    -0.361 OA
HETATM   26  H   UNL     1      -3.115  -4.901 -33.297  1.00  0.00     0.217 HD
ENDBRANCH  21  25
ENDBRANCH  18  19
ENDBRANCH   1  17
TORSDOF 3
ENDMDL
MODEL 7
REMARK VINA RESULT:      -7.7      4.493      8.878
REMARK  3 active torsions:
REMARK  status: ('A' for Active; 'I' for Inactive)
REMARK    1  A    between atoms: C_3  and  O_4 
REMARK    2  A    between atoms: C_6  and  C_7 
REMARK    3  A    between atoms: N_8  and  N_9 
ROOT
HETATM    1  N   UNL     1      -6.537   2.078 -31.974  1.00  0.00    -0.189 N 
HETATM    2  C   UNL     1      -7.449   1.370 -32.776  1.00  0.00     0.298 A 
HETATM    3  O   UNL     1      -8.571   1.736 -33.114  1.00  0.00    -0.264 OA
HETATM    4  C   UNL     1      -6.904   0.121 -33.205  1.00  0.00     0.133 A 
HETATM    5  C   UNL     1      -5.628  -0.283 -32.939  1.00  0.00     0.103 A 
HETATM    6  N   UNL     1      -4.716   0.499 -32.230  1.00  0.00    -0.239 NA
HETATM    7  C   UNL     1      -5.230   1.618 -31.805  1.00  0.00     0.239 A 
HETATM    8  N   UNL     1      -7.509  -0.867 -33.931  1.00  0.00    -0.349 N 
HETATM    9  H   UNL     1      -8.459  -0.831 -34.276  1.00  0.00     0.166 HD
HETATM   10  C   UNL     1      -6.630  -1.920 -34.106  1.00  0.00     0.045 A 
HETATM   11  C   UNL     1      -5.424  -1.566 -33.487  1.00  0.00     0.024 A 
HETATM   12  C   UNL     1      -6.810  -3.144 -34.761  1.00  0.00     0.032 A 
HETATM   13  C   UNL     1      -5.727  -4.030 -34.779  1.00  0.00     0.026 A 
HETATM   14  C   UNL     1      -4.518  -3.696 -34.171  1.00  0.00     0.035 A 
HETATM   15 CL   UNL     1      -3.211  -4.819 -34.217  1.00  0.00    -0.084 Cl
HETATM   16  C   UNL     1      -4.345  -2.471 -33.523  1.00  0.00     0.040 A 
ENDROOT
BRANCH   1  17
HETATM   17  N   UNL     1      -6.797   3.326 -31.420  1.00  0.00    -0.175 NA
HETATM   18  C   UNL     1      -7.359   3.377 -30.255  1.00  0.00     0.150 C 
BRANCH  18  19
HETATM   19  C   UNL     1      -7.712   4.663 -29.618  1.00  0.00    -0.014 A 
HETATM   20  C   UNL     1      -6.803   5.233 -28.724  1.00  0.00     0.049 A 
HETATM   21  C   UNL     1      -7.113   6.446 -28.120  1.00  0.00     0.066 A 
HETATM   22  C   UNL     1      -8.313   7.097 -28.392  1.00  0.00     0.036 A 
HETATM   23  C   UNL     1      -9.220   6.524 -29.286  1.00  0.00     0.004 A 
HETATM   24  C   UNL     1      -8.922   5.305 -29.900  1.00  0.00     0.013 A 
BRANCH  21  25
HETATM   25  O   UNL     1      -6.200   6.972 -27.254  1.00  0.00    -0.361 OA
HETATM   26  H   UNL     1      -5.343   7.042 -27.706  1.00  0.00     0.217 HD
ENDBRANCH  21  25
ENDBRANCH  18  19
ENDBRANCH   1  17
TORSDOF 3
ENDMDL
MODEL 8
REMARK VINA RESULT:      -7.6      4.775      9.066
REMARK  3 active torsions:
REMARK  status: ('A' for Active; 'I' for Inactive)
REMARK    1  A    between atoms: C_3  and  O_4 
REMARK    2  A    between atoms: C_6  and  C_7 
REMARK    3  A    between atoms: N_8  and  N_9 
ROOT
HETATM    1  N   UNL     1      -6.368   2.377 -31.766  1.00  0.00    -0.189 N 
HETATM    2  C   UNL     1      -5.143   1.699 -31.636  1.00  0.00     0.298 A 
HETATM    3  O   UNL     1      -4.155   2.076 -31.012  1.00  0.00    -0.264 OA
HETATM    4  C   UNL     1      -5.168   0.443 -32.318  1.00  0.00     0.133 A 
HETATM    5  C   UNL     1      -6.273  -0.063 -32.937  1.00  0.00     0.103 A 
HETATM    6  N   UNL     1      -7.504   0.594 -32.950  1.00  0.00    -0.239 NA
HETATM    7  C   UNL     1      -7.465   1.756 -32.364  1.00  0.00     0.239 A 
HETATM    8  N   UNL     1      -4.153  -0.458 -32.478  1.00  0.00    -0.349 N 
HETATM    9  H   UNL     1      -3.217  -0.347 -32.110  1.00  0.00     0.166 HD
HETATM   10  C   UNL     1      -4.599  -1.532 -33.227  1.00  0.00     0.045 A 
HETATM   11  C   UNL     1      -5.949  -1.303 -33.525  1.00  0.00     0.024 A 
HETATM   12  C   UNL     1      -3.915  -2.676 -33.656  1.00  0.00     0.032 A 
HETATM   13  C   UNL     1      -4.634  -3.609 -34.412  1.00  0.00     0.026 A 
HETATM   14  C   UNL     1      -5.978  -3.401 -34.718  1.00  0.00     0.035 A 
HETATM   15 CL   UNL     1      -6.823  -4.576 -35.653  1.00  0.00    -0.084 Cl
HETATM   16  C   UNL     1      -6.653  -2.258 -34.283  1.00  0.00     0.040 A 
ENDROOT
BRANCH   1  17
HETATM   17  N   UNL     1      -6.631   3.619 -31.202  1.00  0.00    -0.175 NA
HETATM   18  C   UNL     1      -7.313   3.663 -30.102  1.00  0.00     0.150 C 
BRANCH  18  19
HETATM   19  C   UNL     1      -7.675   4.946 -29.463  1.00  0.00    -0.014 A 
HETATM   20  C   UNL     1      -6.739   5.560 -28.629  1.00  0.00     0.049 A 
HETATM   21  C   UNL     1      -7.059   6.770 -28.024  1.00  0.00     0.066 A 
HETATM   22  C   UNL     1      -8.294   7.376 -28.237  1.00  0.00     0.036 A 
HETATM   23  C   UNL     1      -9.229   6.758 -29.072  1.00  0.00     0.004 A 
HETATM   24  C   UNL     1      -8.921   5.540 -29.686  1.00  0.00     0.013 A 
BRANCH  21  25
HETATM   25  O   UNL     1      -6.119   7.341 -27.218  1.00  0.00    -0.361 OA
HETATM   26  H   UNL     1      -6.452   8.198 -26.904  1.00  0.00     0.217 HD
ENDBRANCH  21  25
ENDBRANCH  18  19
ENDBRANCH   1  17
TORSDOF 3
ENDMDL
MODEL 9
REMARK VINA RESULT:      -7.6      7.136     10.515
REMARK  3 active torsions:
REMARK  status: ('A' for Active; 'I' for Inactive)
REMARK    1  A    between atoms: C_3  and  O_4 
REMARK    2  A    between atoms: C_6  and  C_7 
REMARK    3  A    between atoms: N_8  and  N_9 
ROOT
HETATM    1  N   UNL     1       0.315   8.481 -27.911  1.00  0.00    -0.189 N 
HETATM    2  C   UNL     1       0.090   9.710 -27.267  1.00  0.00     0.298 A 
HETATM    3  O   UNL     1      -0.733  10.566 -27.578  1.00  0.00    -0.264 OA
HETATM    4  C   UNL     1       0.945   9.866 -26.132  1.00  0.00     0.133 A 
HETATM    5  C   UNL     1       1.802   8.902 -25.688  1.00  0.00     0.103 A 
HETATM    6  N   UNL     1       1.916   7.651 -26.293  1.00  0.00    -0.239 NA
HETATM    7  C   UNL     1       1.167   7.528 -27.351  1.00  0.00     0.239 A 
HETATM    8  N   UNL     1       1.070  10.946 -25.304  1.00  0.00    -0.349 N 
HETATM    9  H   UNL     1       0.544  11.806 -25.391  1.00  0.00     0.166 HD
HETATM   10  C   UNL     1       2.031  10.687 -24.344  1.00  0.00     0.045 A 
HETATM   11  C   UNL     1       2.506   9.388 -24.567  1.00  0.00     0.024 A 
HETATM   12  C   UNL     1       2.508  11.496 -23.305  1.00  0.00     0.032 A 
HETATM   13  C   UNL     1       3.499  10.961 -22.475  1.00  0.00     0.026 A 
HETATM   14  C   UNL     1       3.984   9.669 -22.679  1.00  0.00     0.035 A 
HETATM   15 CL   UNL     1       5.205   9.051 -21.632  1.00  0.00    -0.084 Cl
HETATM   16  C   UNL     1       3.500   8.867 -23.715  1.00  0.00     0.040 A 
ENDROOT
BRANCH   1  17
HETATM   17  N   UNL     1      -0.376   8.059 -29.041  1.00  0.00    -0.175 NA
HETATM   18  C   UNL     1       0.057   7.016 -29.674  1.00  0.00     0.150 C 
BRANCH  18  19
HETATM   19  C   UNL     1      -0.593   6.531 -30.909  1.00  0.00    -0.014 A 
HETATM   20  C   UNL     1      -0.867   7.453 -31.922  1.00  0.00     0.049 A 
HETATM   21  C   UNL     1      -1.471   7.014 -33.094  1.00  0.00     0.066 A 
HETATM   22  C   UNL     1      -1.806   5.675 -33.273  1.00  0.00     0.036 A 
HETATM   23  C   UNL     1      -1.531   4.756 -32.257  1.00  0.00     0.004 A 
HETATM   24  C   UNL     1      -0.924   5.183 -31.073  1.00  0.00     0.013 A 
BRANCH  21  25
HETATM   25  O   UNL     1      -1.721   7.944 -34.061  1.00  0.00    -0.361 OA
HETATM   26  H   UNL     1      -2.525   7.686 -34.543  1.00  0.00     0.217 HD
ENDBRANCH  21  25
ENDBRANCH  18  19
ENDBRANCH   1  17
TORSDOF 3
ENDMDL
MODEL 10
REMARK VINA RESULT:      -7.6     16.597     18.476
REMARK  3 active torsions:
REMARK  status: ('A' for Active; 'I' for Inactive)
REMARK    1  A    between atoms: C_3  and  O_4 
REMARK    2  A    between atoms: C_6  and  C_7 
REMARK    3  A    between atoms: N_8  and  N_9 
ROOT
HETATM    1  N   UNL     1      -4.372 -14.226 -38.306  1.00  0.00    -0.189 N 
HETATM    2  C   UNL     1      -5.350 -15.231 -38.415  1.00  0.00     0.298 A 
HETATM    3  O   UNL     1      -5.208 -16.426 -38.172  1.00  0.00    -0.264 OA
HETATM    4  C   UNL     1      -6.605 -14.692 -38.835  1.00  0.00     0.133 A 
HETATM    5  C   UNL     1      -6.837 -13.361 -39.019  1.00  0.00     0.103 A 
HETATM    6  N   UNL     1      -5.867 -12.383 -38.795  1.00  0.00    -0.239 NA
HETATM    7  C   UNL     1      -4.714 -12.881 -38.452  1.00  0.00     0.239 A 
HETATM    8  N   UNL     1      -7.764 -15.358 -39.119  1.00  0.00    -0.349 N 
HETATM    9  H   UNL     1      -7.885 -16.361 -39.058  1.00  0.00     0.166 HD
HETATM   10  C   UNL     1      -8.734 -14.456 -39.515  1.00  0.00     0.045 A 
HETATM   11  C   UNL     1      -8.166 -13.176 -39.453  1.00  0.00     0.024 A 
HETATM   12  C   UNL     1     -10.057 -14.674 -39.917  1.00  0.00     0.032 A 
HETATM   13  C   UNL     1     -10.817 -13.553 -40.266  1.00  0.00     0.026 A 
HETATM   14  C   UNL     1     -10.271 -12.271 -40.209  1.00  0.00     0.035 A 
HETATM   15 CL   UNL     1     -11.244 -10.918 -40.649  1.00  0.00    -0.084 Cl
HETATM   16  C   UNL     1      -8.951 -12.061 -39.804  1.00  0.00     0.040 A 
ENDROOT
BRANCH   1  17
HETATM   17  N   UNL     1      -3.060 -14.460 -37.912  1.00  0.00    -0.175 NA
HETATM   18  C   UNL     1      -2.188 -14.755 -38.823  1.00  0.00     0.150 C 
BRANCH  18  19
HETATM   19  C   UNL     1      -0.783 -15.064 -38.482  1.00  0.00    -0.014 A 
HETATM   20  C   UNL     1       0.189 -14.913 -39.473  1.00  0.00     0.049 A 
HETATM   21  C   UNL     1       1.517 -15.192 -39.170  1.00  0.00     0.066 A 
HETATM   22  C   UNL     1       1.890 -15.617 -37.899  1.00  0.00     0.036 A 
HETATM   23  C   UNL     1       0.914 -15.767 -36.910  1.00  0.00     0.004 A 
HETATM   24  C   UNL     1      -0.425 -15.491 -37.200  1.00  0.00     0.013 A 
BRANCH  21  25
HETATM   25  O   UNL     1       2.438 -15.032 -40.164  1.00  0.00    -0.361 OA
HETATM   26  H   UNL     1       1.987 -15.090 -41.023  1.00  0.00     0.217 HD
ENDBRANCH  21  25
ENDBRANCH  18  19
ENDBRANCH   1  17
TORSDOF 3
ENDMDL
