MODEL 1
REMARK VINA RESULT:      -8.4      0.000      0.000
REMARK  11 active torsions:
REMARK  status: ('A' for Active; 'I' for Inactive)
REMARK    1  A    between atoms: C_2  and  O_3 
REMARK    2  A    between atoms: C_2  and  C_4 
REMARK    3  A    between atoms: C_8  and  C_9 
REMARK    4  A    between atoms: C_12  and  C_13 
REMARK    5  A    between atoms: C_13  and  C_14 
REMARK    6  A    between atoms: C_14  and  N_15 
REMARK    7  A    between atoms: C_14  and  C_29 
REMARK       I    between atoms: N_15  and  C_16 
REMARK    8  A    between atoms: C_16  and  C_17 
REMARK    9  A    between atoms: C_21  and  O_22 
REMARK   10  A    between atoms: O_22  and  C_23 
REMARK   11  A    between atoms: C_29  and  N_30 
ROOT
HETATM    1  C   UNL     1      -5.538  -1.746 -33.668  1.00  0.00     0.114 C 
ENDROOT
BRANCH   1   2
HETATM    2  C   UNL     1      -6.740  -1.583 -34.628  1.00  0.00     0.065 C 
BRANCH   2   3
HETATM    3  C   UNL     1      -7.764  -0.552 -34.235  1.00  0.00    -0.056 A 
HETATM    4  C   UNL     1      -7.957   0.607 -34.995  1.00  0.00     0.008 A 
HETATM    5  C   UNL     1      -8.962   1.517 -34.650  1.00  0.00     0.014 A 
HETATM    6  C   UNL     1      -9.799   1.287 -33.549  1.00  0.00    -0.006 A 
HETATM    7  C   UNL     1      -9.581   0.140 -32.776  1.00  0.00     0.014 A 
HETATM    8  C   UNL     1      -8.578  -0.772 -33.117  1.00  0.00     0.008 A 
BRANCH   6   9
HETATM    9  C   UNL     1     -10.885   2.213 -33.258  1.00  0.00     0.085 A 
HETATM   10  C   UNL     1     -10.761   3.570 -33.046  1.00  0.00     0.130 A 
HETATM   11  N   UNL     1     -12.024   4.020 -32.757  1.00  0.00    -0.315 N 
HETATM   12  C   UNL     1     -12.869   2.917 -32.810  1.00  0.00     0.143 A 
HETATM   13  C   UNL     1     -12.445   5.308 -32.451  1.00  0.00     0.098 A 
HETATM   14  C   UNL     1     -14.269   3.125 -32.531  1.00  0.00     0.017 A 
HETATM   15  N   UNL     1     -12.197   1.821 -33.115  1.00  0.00    -0.228 NA
HETATM   16  C   UNL     1     -14.662   4.392 -32.245  1.00  0.00     0.015 A 
HETATM   17  C   UNL     1     -13.744   5.519 -32.193  1.00  0.00     0.018 A 
BRANCH  14  18
HETATM   18  C   UNL     1     -15.266   1.977 -32.576  1.00  0.00     0.150 C 
HETATM   19  C   UNL     1     -16.670   2.441 -32.201  1.00  0.00     0.044 C 
BRANCH  18  20
HETATM   20  O   UNL     1     -15.314   1.395 -33.881  1.00  0.00    -0.391 OA
HETATM   21  H   UNL     1     -16.195   0.997 -33.983  1.00  0.00     0.210 HD
ENDBRANCH  18  20
ENDBRANCH  14  18
ENDBRANCH   6   9
ENDBRANCH   2   3
ENDBRANCH   1   2
BRANCH   1  22
HETATM   22  N   UNL     1      -4.984  -0.389 -33.443  1.00  0.00    -0.350 N 
HETATM   23  C   UNL     1      -5.027   0.332 -32.272  1.00  0.00     0.252 C 
HETATM   24  O   UNL     1      -5.486  -0.140 -31.236  1.00  0.00    -0.268 OA
HETATM   25  H   UNL     1      -4.860   0.169 -34.284  1.00  0.00     0.163 HD
BRANCH  23  26
HETATM   26  C   UNL     1      -4.481   1.718 -32.316  1.00  0.00     0.033 A 
HETATM   27  C   UNL     1      -5.165   2.684 -33.059  1.00  0.00     0.043 A 
HETATM   28  C   UNL     1      -4.674   3.994 -33.122  1.00  0.00     0.068 A 
HETATM   29 CL   UNL     1      -5.562   5.136 -34.068  1.00  0.00    -0.081 Cl
HETATM   30  C   UNL     1      -3.496   4.359 -32.450  1.00  0.00     0.091 A 
HETATM   31  C   UNL     1      -2.839   3.396 -31.681  1.00  0.00     0.039 A 
HETATM   32  C   UNL     1      -3.328   2.086 -31.610  1.00  0.00     0.020 A 
BRANCH  30  33
HETATM   33  O   UNL     1      -3.091   5.660 -32.574  1.00  0.00    -0.345 OA
BRANCH  33  34
HETATM   34  C   UNL     1      -1.797   5.962 -33.110  1.00  0.00     0.121 C 
HETATM   35  C   UNL     1      -1.683   5.462 -34.548  1.00  0.00     0.040 C 
HETATM   36  C   UNL     1      -1.653   7.482 -33.075  1.00  0.00     0.040 C 
ENDBRANCH  33  34
ENDBRANCH  30  33
ENDBRANCH  23  26
ENDBRANCH   1  22
BRANCH   1  37
HETATM   37  C   UNL     1      -4.515  -2.770 -34.241  1.00  0.00     0.254 C 
BRANCH  37  38
HETATM   38  N   UNL     1      -5.183  -4.001 -34.737  1.00  0.00    -0.077 N 
HETATM   39  H   UNL     1      -4.560  -4.477 -35.426  1.00  0.00     0.274 HD
HETATM   40  H   UNL     1      -5.360  -4.691 -33.999  1.00  0.00     0.274 HD
HETATM   41  H   UNL     1      -6.062  -3.808 -35.228  1.00  0.00     0.274 HD
ENDBRANCH  37  38
ENDBRANCH   1  37
TORSDOF 11
ENDMDL
MODEL 2
REMARK VINA RESULT:      -8.4      1.934      2.914
REMARK  11 active torsions:
REMARK  status: ('A' for Active; 'I' for Inactive)
REMARK    1  A    between atoms: C_2  and  O_3 
REMARK    2  A    between atoms: C_2  and  C_4 
REMARK    3  A    between atoms: C_8  and  C_9 
REMARK    4  A    between atoms: C_12  and  C_13 
REMARK    5  A    between atoms: C_13  and  C_14 
REMARK    6  A    between atoms: C_14  and  N_15 
REMARK    7  A    between atoms: C_14  and  C_29 
REMARK       I    between atoms: N_15  and  C_16 
REMARK    8  A    between atoms: C_16  and  C_17 
REMARK    9  A    between atoms: C_21  and  O_22 
REMARK   10  A    between atoms: O_22  and  C_23 
REMARK   11  A    between atoms: C_29  and  N_30 
ROOT
HETATM    1  C   UNL     1      -4.707  -1.891 -32.727  1.00  0.00     0.114 C 
ENDROOT
BRANCH   1   2
HETATM    2  C   UNL     1      -5.640  -2.038 -33.952  1.00  0.00     0.065 C 
BRANCH   2   3
HETATM    3  C   UNL     1      -6.780  -1.059 -34.035  1.00  0.00    -0.056 A 
HETATM    4  C   UNL     1      -7.860  -1.126 -33.147  1.00  0.00     0.008 A 
HETATM    5  C   UNL     1      -8.874  -0.162 -33.198  1.00  0.00     0.014 A 
HETATM    6  C   UNL     1      -8.829   0.888 -34.126  1.00  0.00    -0.006 A 
HETATM    7  C   UNL     1      -7.760   0.930 -35.029  1.00  0.00     0.014 A 
HETATM    8  C   UNL     1      -6.744  -0.029 -34.982  1.00  0.00     0.008 A 
BRANCH   6   9
HETATM    9  C   UNL     1      -9.859   1.917 -34.105  1.00  0.00     0.085 A 
HETATM   10  C   UNL     1     -11.145   1.771 -33.630  1.00  0.00     0.130 A 
HETATM   11  N   UNL     1     -11.767   2.971 -33.860  1.00  0.00    -0.315 N 
HETATM   12  C   UNL     1     -10.832   3.803 -34.463  1.00  0.00     0.143 A 
HETATM   13  C   UNL     1     -13.076   3.346 -33.581  1.00  0.00     0.098 A 
HETATM   14  C   UNL     1     -11.246   5.138 -34.820  1.00  0.00     0.017 A 
HETATM   15  N   UNL     1      -9.674   3.184 -34.614  1.00  0.00    -0.228 NA
HETATM   16  C   UNL     1     -12.524   5.489 -34.529  1.00  0.00     0.015 A 
HETATM   17  C   UNL     1     -13.475   4.584 -33.903  1.00  0.00     0.018 A 
BRANCH  14  18
HETATM   18  C   UNL     1     -10.285   6.119 -35.474  1.00  0.00     0.150 C 
HETATM   19  C   UNL     1     -10.761   7.560 -35.315  1.00  0.00     0.044 C 
BRANCH  18  20
HETATM   20  O   UNL     1      -8.978   6.009 -34.906  1.00  0.00    -0.391 OA
HETATM   21  H   UNL     1      -8.450   6.744 -35.260  1.00  0.00     0.210 HD
ENDBRANCH  18  20
ENDBRANCH  14  18
ENDBRANCH   6   9
ENDBRANCH   2   3
ENDBRANCH   1   2
BRANCH   1  22
HETATM   22  N   UNL     1      -4.299  -0.465 -32.670  1.00  0.00    -0.350 N 
HETATM   23  C   UNL     1      -4.776   0.490 -31.802  1.00  0.00     0.252 C 
HETATM   24  O   UNL     1      -5.567   0.216 -30.905  1.00  0.00    -0.268 OA
HETATM   25  H   UNL     1      -3.892  -0.100 -33.527  1.00  0.00     0.163 HD
BRANCH  23  26
HETATM   26  C   UNL     1      -4.280   1.883 -31.999  1.00  0.00     0.033 A 
HETATM   27  C   UNL     1      -4.973   2.723 -32.873  1.00  0.00     0.043 A 
HETATM   28  C   UNL     1      -4.529   4.035 -33.080  1.00  0.00     0.068 A 
HETATM   29 CL   UNL     1      -5.425   5.019 -34.184  1.00  0.00    -0.081 Cl
HETATM   30  C   UNL     1      -3.389   4.526 -32.423  1.00  0.00     0.091 A 
HETATM   31  C   UNL     1      -2.723   3.690 -31.524  1.00  0.00     0.039 A 
HETATM   32  C   UNL     1      -3.166   2.378 -31.309  1.00  0.00     0.020 A 
BRANCH  30  33
HETATM   33  O   UNL     1      -3.028   5.817 -32.692  1.00  0.00    -0.345 OA
BRANCH  33  34
HETATM   34  C   UNL     1      -1.741   6.102 -33.254  1.00  0.00     0.121 C 
HETATM   35  C   UNL     1      -1.605   5.461 -34.633  1.00  0.00     0.040 C 
HETATM   36  C   UNL     1      -1.643   7.621 -33.376  1.00  0.00     0.040 C 
ENDBRANCH  33  34
ENDBRANCH  30  33
ENDBRANCH  23  26
ENDBRANCH   1  22
BRANCH   1  37
HETATM   37  C   UNL     1      -3.520  -2.893 -32.819  1.00  0.00     0.254 C 
BRANCH  37  38
HETATM   38  N   UNL     1      -2.634  -2.813 -31.629  1.00  0.00    -0.077 N 
HETATM   39  H   UNL     1      -2.582  -3.751 -31.174  1.00  0.00     0.274 HD
HETATM   40  H   UNL     1      -1.667  -2.563 -31.861  1.00  0.00     0.274 HD
HETATM   41  H   UNL     1      -2.982  -2.165 -30.915  1.00  0.00     0.274 HD
ENDBRANCH  37  38
ENDBRANCH   1  37
TORSDOF 11
ENDMDL
MODEL 3
REMARK VINA RESULT:      -8.3      3.150      8.575
REMARK  11 active torsions:
REMARK  status: ('A' for Active; 'I' for Inactive)
REMARK    1  A    between atoms: C_2  and  O_3 
REMARK    2  A    between atoms: C_2  and  C_4 
REMARK    3  A    between atoms: C_8  and  C_9 
REMARK    4  A    between atoms: C_12  and  C_13 
REMARK    5  A    between atoms: C_13  and  C_14 
REMARK    6  A    between atoms: C_14  and  N_15 
REMARK    7  A    between atoms: C_14  and  C_29 
REMARK       I    between atoms: N_15  and  C_16 
REMARK    8  A    between atoms: C_16  and  C_17 
REMARK    9  A    between atoms: C_21  and  O_22 
REMARK   10  A    between atoms: O_22  and  C_23 
REMARK   11  A    between atoms: C_29  and  N_30 
ROOT
HETATM    1  C   UNL     1     -11.181   2.257 -32.990  1.00  0.00     0.114 C 
ENDROOT
BRANCH   1   2
HETATM    2  C   UNL     1     -10.916   3.709 -32.525  1.00  0.00     0.065 C 
BRANCH   2   3
HETATM    3  C   UNL     1      -9.512   4.216 -32.714  1.00  0.00    -0.056 A 
HETATM    4  C   UNL     1      -8.547   4.077 -31.710  1.00  0.00     0.008 A 
HETATM    5  C   UNL     1      -7.230   4.494 -31.935  1.00  0.00     0.014 A 
HETATM    6  C   UNL     1      -6.847   5.048 -33.165  1.00  0.00    -0.006 A 
HETATM    7  C   UNL     1      -7.825   5.210 -34.154  1.00  0.00     0.014 A 
HETATM    8  C   UNL     1      -9.141   4.796 -33.934  1.00  0.00     0.008 A 
BRANCH   6   9
HETATM    9  C   UNL     1      -5.454   5.402 -33.397  1.00  0.00     0.085 A 
HETATM   10  C   UNL     1      -4.629   4.867 -34.365  1.00  0.00     0.130 A 
HETATM   11  N   UNL     1      -3.404   5.452 -34.176  1.00  0.00    -0.315 N 
HETATM   12  C   UNL     1      -3.532   6.326 -33.103  1.00  0.00     0.143 A 
HETATM   13  C   UNL     1      -2.221   5.250 -34.876  1.00  0.00     0.098 A 
HETATM   14  C   UNL     1      -2.366   7.069 -32.693  1.00  0.00     0.017 A 
HETATM   15  N   UNL     1      -4.764   6.310 -32.625  1.00  0.00    -0.228 NA
HETATM   16  C   UNL     1      -1.223   6.865 -33.396  1.00  0.00     0.015 A 
HETATM   17  C   UNL     1      -1.128   5.935 -34.511  1.00  0.00     0.018 A 
BRANCH  14  18
HETATM   18  C   UNL     1      -2.418   8.054 -31.535  1.00  0.00     0.150 C 
HETATM   19  C   UNL     1      -1.443   7.667 -30.427  1.00  0.00     0.044 C 
BRANCH  18  20
HETATM   20  O   UNL     1      -2.102   9.376 -31.976  1.00  0.00    -0.391 OA
HETATM   21  H   UNL     1      -2.650   9.988 -31.456  1.00  0.00     0.210 HD
ENDBRANCH  18  20
ENDBRANCH  14  18
ENDBRANCH   6   9
ENDBRANCH   2   3
ENDBRANCH   1   2
BRANCH   1  22
HETATM   22  N   UNL     1      -9.863   1.578 -33.040  1.00  0.00    -0.350 N 
HETATM   23  C   UNL     1      -9.628   0.231 -32.882  1.00  0.00     0.252 C 
HETATM   24  O   UNL     1     -10.542  -0.577 -32.752  1.00  0.00    -0.268 OA
HETATM   25  H   UNL     1      -9.064   2.177 -32.853  1.00  0.00     0.163 HD
BRANCH  23  26
HETATM   26  C   UNL     1      -8.202  -0.205 -32.882  1.00  0.00     0.033 A 
HETATM   27  C   UNL     1      -7.779  -1.112 -33.856  1.00  0.00     0.043 A 
HETATM   28  C   UNL     1      -6.447  -1.542 -33.879  1.00  0.00     0.068 A 
HETATM   29 CL   UNL     1      -5.992  -2.675 -35.103  1.00  0.00    -0.081 Cl
HETATM   30  C   UNL     1      -5.519  -1.077 -32.933  1.00  0.00     0.091 A 
HETATM   31  C   UNL     1      -5.942  -0.143 -31.984  1.00  0.00     0.039 A 
HETATM   32  C   UNL     1      -7.273   0.294 -31.960  1.00  0.00     0.020 A 
BRANCH  30  33
HETATM   33  O   UNL     1      -4.242  -1.558 -33.030  1.00  0.00    -0.345 OA
BRANCH  33  34
HETATM   34  C   UNL     1      -3.505  -1.885 -31.846  1.00  0.00     0.121 C 
HETATM   35  C   UNL     1      -3.009  -3.328 -31.907  1.00  0.00     0.040 C 
HETATM   36  C   UNL     1      -2.315  -0.929 -31.794  1.00  0.00     0.040 C 
ENDBRANCH  33  34
ENDBRANCH  30  33
ENDBRANCH  23  26
ENDBRANCH   1  22
BRANCH   1  37
HETATM   37  C   UNL     1     -11.959   2.248 -34.338  1.00  0.00     0.254 C 
BRANCH  37  38
HETATM   38  N   UNL     1     -12.794   1.028 -34.488  1.00  0.00    -0.077 N 
HETATM   39  H   UNL     1     -12.179   0.214 -34.707  1.00  0.00     0.274 HD
HETATM   40  H   UNL     1     -13.295   0.774 -33.629  1.00  0.00     0.274 HD
HETATM   41  H   UNL     1     -13.468   1.098 -35.256  1.00  0.00     0.274 HD
ENDBRANCH  37  38
ENDBRANCH   1  37
TORSDOF 11
ENDMDL
MODEL 4
REMARK VINA RESULT:      -8.2      6.706     12.689
REMARK  11 active torsions:
REMARK  status: ('A' for Active; 'I' for Inactive)
REMARK    1  A    between atoms: C_2  and  O_3 
REMARK    2  A    between atoms: C_2  and  C_4 
REMARK    3  A    between atoms: C_8  and  C_9 
REMARK    4  A    between atoms: C_12  and  C_13 
REMARK    5  A    between atoms: C_13  and  C_14 
REMARK    6  A    between atoms: C_14  and  N_15 
REMARK    7  A    between atoms: C_14  and  C_29 
REMARK       I    between atoms: N_15  and  C_16 
REMARK    8  A    between atoms: C_16  and  C_17 
REMARK    9  A    between atoms: C_21  and  O_22 
REMARK   10  A    between atoms: O_22  and  C_23 
REMARK   11  A    between atoms: C_29  and  N_30 
ROOT
HETATM    1  C   UNL     1      -1.719   5.608 -32.522  1.00  0.00     0.114 C 
ENDROOT
BRANCH   1   2
HETATM    2  C   UNL     1      -0.459   5.266 -31.692  1.00  0.00     0.065 C 
BRANCH   2   3
HETATM    3  C   UNL     1      -0.339   5.957 -30.360  1.00  0.00    -0.056 A 
HETATM    4  C   UNL     1       0.574   5.518 -29.394  1.00  0.00     0.008 A 
HETATM    5  C   UNL     1       0.718   6.218 -28.191  1.00  0.00     0.014 A 
HETATM    6  C   UNL     1      -0.036   7.370 -27.930  1.00  0.00    -0.006 A 
HETATM    7  C   UNL     1      -0.968   7.786 -28.888  1.00  0.00     0.014 A 
HETATM    8  C   UNL     1      -1.115   7.091 -30.092  1.00  0.00     0.008 A 
BRANCH   6   9
HETATM    9  C   UNL     1       0.190   8.121 -26.702  1.00  0.00     0.085 A 
HETATM   10  C   UNL     1      -0.731   8.918 -26.056  1.00  0.00     0.130 A 
HETATM   11  N   UNL     1      -0.069   9.463 -24.986  1.00  0.00    -0.315 N 
HETATM   12  C   UNL     1       1.230   8.969 -25.020  1.00  0.00     0.143 A 
HETATM   13  C   UNL     1      -0.539  10.348 -24.024  1.00  0.00     0.098 A 
HETATM   14  C   UNL     1       2.145   9.403 -23.992  1.00  0.00     0.017 A 
HETATM   15  N   UNL     1       1.401   8.156 -26.047  1.00  0.00    -0.228 NA
HETATM   16  C   UNL     1       1.663  10.260 -23.056  1.00  0.00     0.015 A 
HETATM   17  C   UNL     1       0.297  10.758 -23.060  1.00  0.00     0.018 A 
BRANCH  14  18
HETATM   18  C   UNL     1       3.582   8.907 -23.947  1.00  0.00     0.150 C 
HETATM   19  C   UNL     1       4.534   9.992 -23.454  1.00  0.00     0.044 C 
BRANCH  18  20
HETATM   20  O   UNL     1       3.702   7.773 -23.085  1.00  0.00    -0.391 OA
HETATM   21  H   UNL     1       4.562   7.361 -23.274  1.00  0.00     0.210 HD
ENDBRANCH  18  20
ENDBRANCH  14  18
ENDBRANCH   6   9
ENDBRANCH   2   3
ENDBRANCH   1   2
BRANCH   1  22
HETATM   22  N   UNL     1      -2.476   4.343 -32.689  1.00  0.00    -0.350 N 
HETATM   23  C   UNL     1      -3.559   3.931 -31.946  1.00  0.00     0.252 C 
HETATM   24  O   UNL     1      -4.065   4.643 -31.085  1.00  0.00    -0.268 OA
HETATM   25  H   UNL     1      -1.968   3.596 -33.155  1.00  0.00     0.163 HD
BRANCH  23  26
HETATM   26  C   UNL     1      -4.097   2.572 -32.242  1.00  0.00     0.033 A 
HETATM   27  C   UNL     1      -3.316   1.458 -31.922  1.00  0.00     0.043 A 
HETATM   28  C   UNL     1      -3.794   0.170 -32.191  1.00  0.00     0.068 A 
HETATM   29 CL   UNL     1      -2.773  -1.164 -31.781  1.00  0.00    -0.081 Cl
HETATM   30  C   UNL     1      -5.052  -0.028 -32.784  1.00  0.00     0.091 A 
HETATM   31  C   UNL     1      -5.840   1.090 -33.068  1.00  0.00     0.039 A 
HETATM   32  C   UNL     1      -5.369   2.381 -32.796  1.00  0.00     0.020 A 
BRANCH  30  33
HETATM   33  O   UNL     1      -5.431  -1.321 -33.014  1.00  0.00    -0.345 OA
BRANCH  33  34
HETATM   34  C   UNL     1      -5.466  -1.833 -34.352  1.00  0.00     0.121 C 
HETATM   35  C   UNL     1      -4.427  -2.937 -34.530  1.00  0.00     0.040 C 
HETATM   36  C   UNL     1      -6.868  -2.400 -34.566  1.00  0.00     0.040 C 
ENDBRANCH  33  34
ENDBRANCH  30  33
ENDBRANCH  23  26
ENDBRANCH   1  22
BRANCH   1  37
HETATM   37  C   UNL     1      -1.323   6.299 -33.859  1.00  0.00     0.254 C 
BRANCH  37  38
HETATM   38  N   UNL     1      -1.248   5.330 -34.982  1.00  0.00    -0.077 N 
HETATM   39  H   UNL     1      -0.251   5.210 -35.268  1.00  0.00     0.274 HD
HETATM   40  H   UNL     1      -1.578   4.392 -34.729  1.00  0.00     0.274 HD
HETATM   41  H   UNL     1      -1.752   5.645 -35.816  1.00  0.00     0.274 HD
ENDBRANCH  37  38
ENDBRANCH   1  37
TORSDOF 11
ENDMDL
MODEL 5
REMARK VINA RESULT:      -8.1      6.061      9.490
REMARK  11 active torsions:
REMARK  status: ('A' for Active; 'I' for Inactive)
REMARK    1  A    between atoms: C_2  and  O_3 
REMARK    2  A    between atoms: C_2  and  C_4 
REMARK    3  A    between atoms: C_8  and  C_9 
REMARK    4  A    between atoms: C_12  and  C_13 
REMARK    5  A    between atoms: C_13  and  C_14 
REMARK    6  A    between atoms: C_14  and  N_15 
REMARK    7  A    between atoms: C_14  and  C_29 
REMARK       I    between atoms: N_15  and  C_16 
REMARK    8  A    between atoms: C_16  and  C_17 
REMARK    9  A    between atoms: C_21  and  O_22 
REMARK   10  A    between atoms: O_22  and  C_23 
REMARK   11  A    between atoms: C_29  and  N_30 
ROOT
HETATM    1  C   UNL     1      -2.438   6.322 -31.647  1.00  0.00     0.114 C 
ENDROOT
BRANCH   1   2
HETATM    2  C   UNL     1      -3.613   5.544 -31.010  1.00  0.00     0.065 C 
BRANCH   2   3
HETATM    3  C   UNL     1      -3.731   4.094 -31.394  1.00  0.00    -0.056 A 
HETATM    4  C   UNL     1      -2.966   3.554 -32.434  1.00  0.00     0.008 A 
HETATM    5  C   UNL     1      -3.040   2.187 -32.728  1.00  0.00     0.014 A 
HETATM    6  C   UNL     1      -3.869   1.333 -31.988  1.00  0.00    -0.006 A 
HETATM    7  C   UNL     1      -4.653   1.886 -30.969  1.00  0.00     0.014 A 
HETATM    8  C   UNL     1      -4.582   3.249 -30.671  1.00  0.00     0.008 A 
BRANCH   6   9
HETATM    9  C   UNL     1      -3.869  -0.097 -32.267  1.00  0.00     0.085 A 
HETATM   10  C   UNL     1      -3.106  -1.050 -31.625  1.00  0.00     0.130 A 
HETATM   11  N   UNL     1      -3.390  -2.237 -32.249  1.00  0.00    -0.315 N 
HETATM   12  C   UNL     1      -4.320  -1.961 -33.244  1.00  0.00     0.143 A 
HETATM   13  C   UNL     1      -2.878  -3.504 -31.994  1.00  0.00     0.098 A 
HETATM   14  C   UNL     1      -4.781  -3.056 -34.061  1.00  0.00     0.017 A 
HETATM   15  N   UNL     1      -4.622  -0.674 -33.265  1.00  0.00    -0.228 NA
HETATM   16  C   UNL     1      -4.277  -4.287 -33.790  1.00  0.00     0.015 A 
HETATM   17  C   UNL     1      -3.299  -4.534 -32.742  1.00  0.00     0.018 A 
BRANCH  14  18
HETATM   18  C   UNL     1      -5.805  -2.846 -35.166  1.00  0.00     0.150 C 
HETATM   19  C   UNL     1      -6.611  -4.114 -35.432  1.00  0.00     0.044 C 
BRANCH  18  20
HETATM   20  O   UNL     1      -6.713  -1.795 -34.827  1.00  0.00    -0.391 OA
HETATM   21  H   UNL     1      -7.522  -2.216 -34.489  1.00  0.00     0.210 HD
ENDBRANCH  18  20
ENDBRANCH  14  18
ENDBRANCH   6   9
ENDBRANCH   2   3
ENDBRANCH   1   2
BRANCH   1  22
HETATM   22  N   UNL     1      -1.755   7.042 -30.544  1.00  0.00    -0.350 N 
HETATM   23  C   UNL     1      -0.716   6.570 -29.775  1.00  0.00     0.252 C 
HETATM   24  O   UNL     1      -0.187   5.485 -29.994  1.00  0.00    -0.268 OA
HETATM   25  H   UNL     1      -2.298   7.790 -30.118  1.00  0.00     0.163 HD
BRANCH  23  26
HETATM   26  C   UNL     1      -0.255   7.447 -28.660  1.00  0.00     0.033 A 
HETATM   27  C   UNL     1      -1.166   7.789 -27.658  1.00  0.00     0.043 A 
HETATM   28  C   UNL     1      -0.762   8.613 -26.600  1.00  0.00     0.068 A 
HETATM   29 CL   UNL     1      -1.941   9.009 -25.399  1.00  0.00    -0.081 Cl
HETATM   30  C   UNL     1       0.550   9.108 -26.526  1.00  0.00     0.091 A 
HETATM   31  C   UNL     1       1.463   8.731 -27.514  1.00  0.00     0.039 A 
HETATM   32  C   UNL     1       1.066   7.903 -28.572  1.00  0.00     0.020 A 
BRANCH  30  33
HETATM   33  O   UNL     1       0.850   9.910 -25.460  1.00  0.00    -0.345 OA
BRANCH  33  34
HETATM   34  C   UNL     1       1.523   9.366 -24.318  1.00  0.00     0.121 C 
HETATM   35  C   UNL     1       3.031   9.579 -24.433  1.00  0.00     0.040 C 
HETATM   36  C   UNL     1       0.986  10.111 -23.098  1.00  0.00     0.040 C 
ENDBRANCH  33  34
ENDBRANCH  30  33
ENDBRANCH  23  26
ENDBRANCH   1  22
BRANCH   1  37
HETATM   37  C   UNL     1      -2.948   7.242 -32.794  1.00  0.00     0.254 C 
BRANCH  37  38
HETATM   38  N   UNL     1      -2.230   6.987 -34.069  1.00  0.00    -0.077 N 
HETATM   39  H   UNL     1      -2.416   7.770 -34.733  1.00  0.00     0.274 HD
HETATM   40  H   UNL     1      -1.210   6.953 -33.959  1.00  0.00     0.274 HD
HETATM   41  H   UNL     1      -2.540   6.130 -34.539  1.00  0.00     0.274 HD
ENDBRANCH  37  38
ENDBRANCH   1  37
TORSDOF 11
ENDMDL
MODEL 6
REMARK VINA RESULT:      -8.0      3.429      9.311
REMARK  11 active torsions:
REMARK  status: ('A' for Active; 'I' for Inactive)
REMARK    1  A    between atoms: C_2  and  O_3 
REMARK    2  A    between atoms: C_2  and  C_4 
REMARK    3  A    between atoms: C_8  and  C_9 
REMARK    4  A    between atoms: C_12  and  C_13 
REMARK    5  A    between atoms: C_13  and  C_14 
REMARK    6  A    between atoms: C_14  and  N_15 
REMARK    7  A    between atoms: C_14  and  C_29 
REMARK       I    between atoms: N_15  and  C_16 
REMARK    8  A    between atoms: C_16  and  C_17 
REMARK    9  A    between atoms: C_21  and  O_22 
REMARK   10  A    between atoms: O_22  and  C_23 
REMARK   11  A    between atoms: C_29  and  N_30 
ROOT
HETATM    1  C   UNL     1      -9.752   3.217 -33.298  1.00  0.00     0.114 C 
ENDROOT
BRANCH   1   2
HETATM    2  C   UNL     1      -9.124   4.427 -34.029  1.00  0.00     0.065 C 
BRANCH   2   3
HETATM    3  C   UNL     1      -7.938   5.063 -33.355  1.00  0.00    -0.056 A 
HETATM    4  C   UNL     1      -8.080   5.783 -32.164  1.00  0.00     0.008 A 
HETATM    5  C   UNL     1      -6.953   6.305 -31.518  1.00  0.00     0.014 A 
HETATM    6  C   UNL     1      -5.666   6.115 -32.041  1.00  0.00    -0.006 A 
HETATM    7  C   UNL     1      -5.536   5.418 -33.249  1.00  0.00     0.014 A 
HETATM    8  C   UNL     1      -6.658   4.894 -33.897  1.00  0.00     0.008 A 
BRANCH   6   9
HETATM    9  C   UNL     1      -4.507   6.604 -31.309  1.00  0.00     0.085 A 
HETATM   10  C   UNL     1      -4.436   7.780 -30.591  1.00  0.00     0.130 A 
HETATM   11  N   UNL     1      -3.150   7.854 -30.122  1.00  0.00    -0.315 N 
HETATM   12  C   UNL     1      -2.489   6.716 -30.569  1.00  0.00     0.143 A 
HETATM   13  C   UNL     1      -2.554   8.848 -29.355  1.00  0.00     0.098 A 
HETATM   14  C   UNL     1      -1.100   6.558 -30.213  1.00  0.00     0.017 A 
HETATM   15  N   UNL     1      -3.295   5.951 -31.283  1.00  0.00    -0.228 NA
HETATM   16  C   UNL     1      -0.539   7.534 -29.454  1.00  0.00     0.015 A 
HETATM   17  C   UNL     1      -1.265   8.714 -29.012  1.00  0.00     0.018 A 
BRANCH  14  18
HETATM   18  C   UNL     1      -0.302   5.339 -30.650  1.00  0.00     0.150 C 
HETATM   19  C   UNL     1       0.788   4.992 -29.641  1.00  0.00     0.044 C 
BRANCH  18  20
HETATM   20  O   UNL     1      -1.154   4.202 -30.807  1.00  0.00    -0.391 OA
HETATM   21  H   UNL     1      -0.747   3.471 -30.311  1.00  0.00     0.210 HD
ENDBRANCH  18  20
ENDBRANCH  14  18
ENDBRANCH   6   9
ENDBRANCH   2   3
ENDBRANCH   1   2
BRANCH   1  22
HETATM   22  N   UNL     1      -8.868   2.055 -33.560  1.00  0.00    -0.350 N 
HETATM   23  C   UNL     1      -8.004   1.463 -32.667  1.00  0.00     0.252 C 
HETATM   24  O   UNL     1      -7.940   1.817 -31.494  1.00  0.00    -0.268 OA
HETATM   25  H   UNL     1      -8.646   1.896 -34.540  1.00  0.00     0.163 HD
BRANCH  23  26
HETATM   26  C   UNL     1      -7.148   0.361 -33.192  1.00  0.00     0.033 A 
HETATM   27  C   UNL     1      -5.987   0.023 -32.493  1.00  0.00     0.043 A 
HETATM   28  C   UNL     1      -5.162  -1.005 -32.963  1.00  0.00     0.068 A 
HETATM   29 CL   UNL     1      -3.734  -1.365 -32.057  1.00  0.00    -0.081 Cl
HETATM   30  C   UNL     1      -5.480  -1.710 -34.136  1.00  0.00     0.091 A 
HETATM   31  C   UNL     1      -6.661  -1.389 -34.810  1.00  0.00     0.039 A 
HETATM   32  C   UNL     1      -7.492  -0.364 -34.340  1.00  0.00     0.020 A 
BRANCH  30  33
HETATM   33  O   UNL     1      -4.611  -2.694 -34.522  1.00  0.00    -0.345 OA
BRANCH  33  34
HETATM   34  C   UNL     1      -4.832  -4.049 -34.112  1.00  0.00     0.121 C 
HETATM   35  C   UNL     1      -5.609  -4.812 -35.183  1.00  0.00     0.040 C 
HETATM   36  C   UNL     1      -3.454  -4.679 -33.923  1.00  0.00     0.040 C 
ENDBRANCH  33  34
ENDBRANCH  30  33
ENDBRANCH  23  26
ENDBRANCH   1  22
BRANCH   1  37
HETATM   37  C   UNL     1     -11.229   3.013 -33.745  1.00  0.00     0.254 C 
BRANCH  37  38
HETATM   38  N   UNL     1     -11.871   1.877 -33.034  1.00  0.00    -0.077 N 
HETATM   39  H   UNL     1     -11.182   1.447 -32.379  1.00  0.00     0.274 HD
HETATM   40  H   UNL     1     -12.666   2.162 -32.452  1.00  0.00     0.274 HD
HETATM   41  H   UNL     1     -12.174   1.130 -33.666  1.00  0.00     0.274 HD
ENDBRANCH  37  38
ENDBRANCH   1  37
TORSDOF 11
ENDMDL
MODEL 7
REMARK VINA RESULT:      -8.0      3.298      9.461
REMARK  11 active torsions:
REMARK  status: ('A' for Active; 'I' for Inactive)
REMARK    1  A    between atoms: C_2  and  O_3 
REMARK    2  A    between atoms: C_2  and  C_4 
REMARK    3  A    between atoms: C_8  and  C_9 
REMARK    4  A    between atoms: C_12  and  C_13 
REMARK    5  A    between atoms: C_13  and  C_14 
REMARK    6  A    between atoms: C_14  and  N_15 
REMARK    7  A    between atoms: C_14  and  C_29 
REMARK       I    between atoms: N_15  and  C_16 
REMARK    8  A    between atoms: C_16  and  C_17 
REMARK    9  A    between atoms: C_21  and  O_22 
REMARK   10  A    between atoms: O_22  and  C_23 
REMARK   11  A    between atoms: C_29  and  N_30 
ROOT
HETATM    1  C   UNL     1      -9.718   3.278 -32.624  1.00  0.00     0.114 C 
ENDROOT
BRANCH   1   2
HETATM    2  C   UNL     1      -9.139   4.489 -33.393  1.00  0.00     0.065 C 
BRANCH   2   3
HETATM    3  C   UNL     1      -7.749   4.915 -33.005  1.00  0.00    -0.056 A 
HETATM    4  C   UNL     1      -7.477   5.431 -31.733  1.00  0.00     0.008 A 
HETATM    5  C   UNL     1      -6.164   5.754 -31.370  1.00  0.00     0.014 A 
HETATM    6  C   UNL     1      -5.099   5.563 -32.261  1.00  0.00    -0.006 A 
HETATM    7  C   UNL     1      -5.384   5.073 -33.541  1.00  0.00     0.014 A 
HETATM    8  C   UNL     1      -6.693   4.748 -33.909  1.00  0.00     0.008 A 
BRANCH   6   9
HETATM    9  C   UNL     1      -3.735   5.837 -31.830  1.00  0.00     0.085 A 
HETATM   10  C   UNL     1      -2.589   5.271 -32.348  1.00  0.00     0.130 A 
HETATM   11  N   UNL     1      -1.554   5.778 -31.606  1.00  0.00    -0.315 N 
HETATM   12  C   UNL     1      -2.111   6.639 -30.668  1.00  0.00     0.143 A 
HETATM   13  C   UNL     1      -0.193   5.518 -31.711  1.00  0.00     0.098 A 
HETATM   14  C   UNL     1      -1.220   7.303 -29.747  1.00  0.00     0.017 A 
HETATM   15  N   UNL     1      -3.425   6.688 -30.792  1.00  0.00    -0.228 NA
HETATM   16  C   UNL     1       0.106   7.044 -29.873  1.00  0.00     0.015 A 
HETATM   17  C   UNL     1       0.649   6.130 -30.866  1.00  0.00     0.018 A 
BRANCH  14  18
HETATM   18  C   UNL     1      -1.743   8.268 -28.694  1.00  0.00     0.150 C 
HETATM   19  C   UNL     1      -1.958   9.664 -29.272  1.00  0.00     0.044 C 
BRANCH  18  20
HETATM   20  O   UNL     1      -2.981   7.807 -28.150  1.00  0.00    -0.391 OA
HETATM   21  H   UNL     1      -3.561   7.593 -28.900  1.00  0.00     0.210 HD
ENDBRANCH  18  20
ENDBRANCH  14  18
ENDBRANCH   6   9
ENDBRANCH   2   3
ENDBRANCH   1   2
BRANCH   1  22
HETATM   22  N   UNL     1      -8.909   2.098 -33.015  1.00  0.00    -0.350 N 
HETATM   23  C   UNL     1      -7.994   1.434 -32.231  1.00  0.00     0.252 C 
HETATM   24  O   UNL     1      -7.812   1.730 -31.054  1.00  0.00    -0.268 OA
HETATM   25  H   UNL     1      -8.782   1.977 -34.017  1.00  0.00     0.163 HD
BRANCH  23  26
HETATM   26  C   UNL     1      -7.233   0.327 -32.878  1.00  0.00     0.033 A 
HETATM   27  C   UNL     1      -6.029  -0.084 -32.304  1.00  0.00     0.043 A 
HETATM   28  C   UNL     1      -5.291  -1.119 -32.891  1.00  0.00     0.068 A 
HETATM   29 CL   UNL     1      -3.803  -1.571 -32.136  1.00  0.00    -0.081 Cl
HETATM   30  C   UNL     1      -5.741  -1.757 -34.058  1.00  0.00     0.091 A 
HETATM   31  C   UNL     1      -6.965  -1.364 -34.606  1.00  0.00     0.039 A 
HETATM   32  C   UNL     1      -7.709  -0.332 -34.019  1.00  0.00     0.020 A 
BRANCH  30  33
HETATM   33  O   UNL     1      -4.951  -2.753 -34.563  1.00  0.00    -0.345 OA
BRANCH  33  34
HETATM   34  C   UNL     1      -5.231  -4.123 -34.249  1.00  0.00     0.121 C 
HETATM   35  C   UNL     1      -5.948  -4.803 -35.413  1.00  0.00     0.040 C 
HETATM   36  C   UNL     1      -3.885  -4.799 -34.003  1.00  0.00     0.040 C 
ENDBRANCH  33  34
ENDBRANCH  30  33
ENDBRANCH  23  26
ENDBRANCH   1  22
BRANCH   1  37
HETATM   37  C   UNL     1     -11.242   3.131 -32.902  1.00  0.00     0.254 C 
BRANCH  37  38
HETATM   38  N   UNL     1     -11.659   1.706 -32.963  1.00  0.00    -0.077 N 
HETATM   39  H   UNL     1     -10.811   1.100 -33.011  1.00  0.00     0.274 HD
HETATM   40  H   UNL     1     -12.173   1.399 -32.131  1.00  0.00     0.274 HD
HETATM   41  H   UNL     1     -12.216   1.489 -33.795  1.00  0.00     0.274 HD
ENDBRANCH  37  38
ENDBRANCH   1  37
TORSDOF 11
ENDMDL
MODEL 8
REMARK VINA RESULT:      -8.0      3.179      9.146
REMARK  11 active torsions:
REMARK  status: ('A' for Active; 'I' for Inactive)
REMARK    1  A    between atoms: C_2  and  O_3 
REMARK    2  A    between atoms: C_2  and  C_4 
REMARK    3  A    between atoms: C_8  and  C_9 
REMARK    4  A    between atoms: C_12  and  C_13 
REMARK    5  A    between atoms: C_13  and  C_14 
REMARK    6  A    between atoms: C_14  and  N_15 
REMARK    7  A    between atoms: C_14  and  C_29 
REMARK       I    between atoms: N_15  and  C_16 
REMARK    8  A    between atoms: C_16  and  C_17 
REMARK    9  A    between atoms: C_21  and  O_22 
REMARK   10  A    between atoms: O_22  and  C_23 
REMARK   11  A    between atoms: C_29  and  N_30 
ROOT
HETATM    1  C   UNL     1      -6.003   6.087 -30.651  1.00  0.00     0.114 C 
ENDROOT
BRANCH   1   2
HETATM    2  C   UNL     1      -4.619   5.494 -31.007  1.00  0.00     0.065 C 
BRANCH   2   3
HETATM    3  C   UNL     1      -4.597   4.029 -31.351  1.00  0.00    -0.056 A 
HETATM    4  C   UNL     1      -4.216   3.588 -32.623  1.00  0.00     0.008 A 
HETATM    5  C   UNL     1      -4.135   2.218 -32.899  1.00  0.00     0.014 A 
HETATM    6  C   UNL     1      -4.424   1.264 -31.914  1.00  0.00    -0.006 A 
HETATM    7  C   UNL     1      -4.833   1.713 -30.653  1.00  0.00     0.014 A 
HETATM    8  C   UNL     1      -4.915   3.080 -30.372  1.00  0.00     0.008 A 
BRANCH   6   9
HETATM    9  C   UNL     1      -4.259  -0.153 -32.207  1.00  0.00     0.085 A 
HETATM   10  C   UNL     1      -3.422  -1.028 -31.547  1.00  0.00     0.130 A 
HETATM   11  N   UNL     1      -3.552  -2.230 -32.193  1.00  0.00    -0.315 N 
HETATM   12  C   UNL     1      -4.469  -2.040 -33.220  1.00  0.00     0.143 A 
HETATM   13  C   UNL     1      -2.915  -3.437 -31.933  1.00  0.00     0.098 A 
HETATM   14  C   UNL     1      -4.779  -3.167 -34.066  1.00  0.00     0.017 A 
HETATM   15  N   UNL     1      -4.908  -0.794 -33.239  1.00  0.00    -0.228 NA
HETATM   16  C   UNL     1      -4.155  -4.340 -33.788  1.00  0.00     0.015 A 
HETATM   17  C   UNL     1      -3.195  -4.495 -32.707  1.00  0.00     0.018 A 
BRANCH  14  18
HETATM   18  C   UNL     1      -5.778  -3.052 -35.207  1.00  0.00     0.150 C 
HETATM   19  C   UNL     1      -6.403  -4.404 -35.542  1.00  0.00     0.044 C 
BRANCH  18  20
HETATM   20  O   UNL     1      -6.826  -2.138 -34.877  1.00  0.00    -0.391 OA
HETATM   21  H   UNL     1      -6.405  -1.345 -34.505  1.00  0.00     0.210 HD
ENDBRANCH  18  20
ENDBRANCH  14  18
ENDBRANCH   6   9
ENDBRANCH   2   3
ENDBRANCH   1   2
BRANCH   1  22
HETATM   22  N   UNL     1      -7.020   5.166 -31.216  1.00  0.00    -0.350 N 
HETATM   23  C   UNL     1      -8.229   4.833 -30.651  1.00  0.00     0.252 C 
HETATM   24  O   UNL     1      -8.626   5.352 -29.613  1.00  0.00    -0.268 OA
HETATM   25  H   UNL     1      -6.663   4.494 -31.891  1.00  0.00     0.163 HD
BRANCH  23  26
HETATM   26  C   UNL     1      -9.045   3.809 -31.366  1.00  0.00     0.033 A 
HETATM   27  C   UNL     1      -8.427   2.623 -31.769  1.00  0.00     0.043 A 
HETATM   28  C   UNL     1      -9.167   1.645 -32.445  1.00  0.00     0.068 A 
HETATM   29 CL   UNL     1      -8.339   0.205 -32.925  1.00  0.00    -0.081 Cl
HETATM   30  C   UNL     1     -10.528   1.835 -32.732  1.00  0.00     0.091 A 
HETATM   31  C   UNL     1     -11.146   3.010 -32.294  1.00  0.00     0.039 A 
HETATM   32  C   UNL     1     -10.412   3.989 -31.613  1.00  0.00     0.020 A 
BRANCH  30  33
HETATM   33  O   UNL     1     -11.167   0.828 -33.401  1.00  0.00    -0.345 OA
BRANCH  33  34
HETATM   34  C   UNL     1     -12.521   0.999 -33.837  1.00  0.00     0.121 C 
HETATM   35  C   UNL     1     -12.560   1.496 -35.280  1.00  0.00     0.040 C 
HETATM   36  C   UNL     1     -13.187  -0.373 -33.742  1.00  0.00     0.040 C 
ENDBRANCH  33  34
ENDBRANCH  30  33
ENDBRANCH  23  26
ENDBRANCH   1  22
BRANCH   1  37
HETATM   37  C   UNL     1      -6.117   7.554 -31.157  1.00  0.00     0.254 C 
BRANCH  37  38
HETATM   38  N   UNL     1      -7.001   7.663 -32.346  1.00  0.00    -0.077 N 
HETATM   39  H   UNL     1      -7.984   7.816 -32.033  1.00  0.00     0.274 HD
HETATM   40  H   UNL     1      -6.774   8.463 -32.947  1.00  0.00     0.274 HD
HETATM   41  H   UNL     1      -7.009   6.812 -32.917  1.00  0.00     0.274 HD
ENDBRANCH  37  38
ENDBRANCH   1  37
TORSDOF 11
ENDMDL
MODEL 9
REMARK VINA RESULT:      -7.9      2.038      3.055
REMARK  11 active torsions:
REMARK  status: ('A' for Active; 'I' for Inactive)
REMARK    1  A    between atoms: C_2  and  O_3 
REMARK    2  A    between atoms: C_2  and  C_4 
REMARK    3  A    between atoms: C_8  and  C_9 
REMARK    4  A    between atoms: C_12  and  C_13 
REMARK    5  A    between atoms: C_13  and  C_14 
REMARK    6  A    between atoms: C_14  and  N_15 
REMARK    7  A    between atoms: C_14  and  C_29 
REMARK       I    between atoms: N_15  and  C_16 
REMARK    8  A    between atoms: C_16  and  C_17 
REMARK    9  A    between atoms: C_21  and  O_22 
REMARK   10  A    between atoms: O_22  and  C_23 
REMARK   11  A    between atoms: C_29  and  N_30 
ROOT
HETATM    1  C   UNL     1      -3.759  -0.301 -32.089  1.00  0.00     0.114 C 
ENDROOT
BRANCH   1   2
HETATM    2  C   UNL     1      -4.555  -0.715 -33.350  1.00  0.00     0.065 C 
BRANCH   2   3
HETATM    3  C   UNL     1      -5.998  -0.292 -33.388  1.00  0.00    -0.056 A 
HETATM    4  C   UNL     1      -6.651  -0.048 -34.601  1.00  0.00     0.008 A 
HETATM    5  C   UNL     1      -8.013   0.276 -34.616  1.00  0.00     0.014 A 
HETATM    6  C   UNL     1      -8.751   0.354 -33.426  1.00  0.00    -0.006 A 
HETATM    7  C   UNL     1      -8.083   0.136 -32.215  1.00  0.00     0.014 A 
HETATM    8  C   UNL     1      -6.724  -0.187 -32.195  1.00  0.00     0.008 A 
BRANCH   6   9
HETATM    9  C   UNL     1     -10.182   0.618 -33.478  1.00  0.00     0.085 A 
HETATM   10  C   UNL     1     -11.187  -0.314 -33.326  1.00  0.00     0.130 A 
HETATM   11  N   UNL     1     -12.361   0.370 -33.503  1.00  0.00    -0.315 N 
HETATM   12  C   UNL     1     -12.025   1.696 -33.750  1.00  0.00     0.143 A 
HETATM   13  C   UNL     1     -13.666  -0.107 -33.468  1.00  0.00     0.098 A 
HETATM   14  C   UNL     1     -13.097   2.633 -33.983  1.00  0.00     0.017 A 
HETATM   15  N   UNL     1     -10.714   1.862 -33.735  1.00  0.00    -0.228 NA
HETATM   16  C   UNL     1     -14.364   2.150 -33.932  1.00  0.00     0.015 A 
HETATM   17  C   UNL     1     -14.674   0.752 -33.677  1.00  0.00     0.018 A 
BRANCH  14  18
HETATM   18  C   UNL     1     -12.820   4.105 -34.251  1.00  0.00     0.150 C 
HETATM   19  C   UNL     1     -12.502   4.355 -35.722  1.00  0.00     0.044 C 
BRANCH  18  20
HETATM   20  O   UNL     1     -13.945   4.909 -33.888  1.00  0.00    -0.391 OA
HETATM   21  H   UNL     1     -13.686   5.837 -34.020  1.00  0.00     0.210 HD
ENDBRANCH  18  20
ENDBRANCH  14  18
ENDBRANCH   6   9
ENDBRANCH   2   3
ENDBRANCH   1   2
BRANCH   1  22
HETATM   22  N   UNL     1      -3.477   1.150 -32.220  1.00  0.00    -0.350 N 
HETATM   23  C   UNL     1      -3.981   2.158 -31.430  1.00  0.00     0.252 C 
HETATM   24  O   UNL     1      -4.685   1.926 -30.452  1.00  0.00    -0.268 OA
HETATM   25  H   UNL     1      -3.161   1.445 -33.140  1.00  0.00     0.163 HD
BRANCH  23  26
HETATM   26  C   UNL     1      -3.624   3.553 -31.815  1.00  0.00     0.033 A 
HETATM   27  C   UNL     1      -2.819   3.753 -32.939  1.00  0.00     0.043 A 
HETATM   28  C   UNL     1      -2.465   5.051 -33.324  1.00  0.00     0.068 A 
HETATM   29 CL   UNL     1      -1.457   5.228 -34.717  1.00  0.00    -0.081 Cl
HETATM   30  C   UNL     1      -2.906   6.168 -32.595  1.00  0.00     0.091 A 
HETATM   31  C   UNL     1      -3.739   5.961 -31.493  1.00  0.00     0.039 A 
HETATM   32  C   UNL     1      -4.100   4.664 -31.107  1.00  0.00     0.020 A 
BRANCH  30  33
HETATM   33  O   UNL     1      -2.504   7.397 -33.042  1.00  0.00    -0.345 OA
BRANCH  33  34
HETATM   34  C   UNL     1      -1.558   8.164 -32.287  1.00  0.00     0.121 C 
HETATM   35  C   UNL     1      -2.264   8.952 -31.187  1.00  0.00     0.040 C 
HETATM   36  C   UNL     1      -0.582   7.166 -31.667  1.00  0.00     0.040 C 
ENDBRANCH  33  34
ENDBRANCH  30  33
ENDBRANCH  23  26
ENDBRANCH   1  22
BRANCH   1  37
HETATM   37  C   UNL     1      -2.491  -1.188 -31.926  1.00  0.00     0.254 C 
BRANCH  37  38
HETATM   38  N   UNL     1      -2.839  -2.602 -31.631  1.00  0.00    -0.077 N 
HETATM   39  H   UNL     1      -3.118  -2.688 -30.630  1.00  0.00     0.274 HD
HETATM   40  H   UNL     1      -3.641  -2.943 -32.173  1.00  0.00     0.274 HD
HETATM   41  H   UNL     1      -2.051  -3.244 -31.768  1.00  0.00     0.274 HD
ENDBRANCH  37  38
ENDBRANCH   1  37
TORSDOF 11
ENDMDL
MODEL 10
REMARK VINA RESULT:      -7.8      3.112      8.126
REMARK  11 active torsions:
REMARK  status: ('A' for Active; 'I' for Inactive)
REMARK    1  A    between atoms: C_2  and  O_3 
REMARK    2  A    between atoms: C_2  and  C_4 
REMARK    3  A    between atoms: C_8  and  C_9 
REMARK    4  A    between atoms: C_12  and  C_13 
REMARK    5  A    between atoms: C_13  and  C_14 
REMARK    6  A    between atoms: C_14  and  N_15 
REMARK    7  A    between atoms: C_14  and  C_29 
REMARK       I    between atoms: N_15  and  C_16 
REMARK    8  A    between atoms: C_16  and  C_17 
REMARK    9  A    between atoms: C_21  and  O_22 
REMARK   10  A    between atoms: O_22  and  C_23 
REMARK   11  A    between atoms: C_29  and  N_30 
ROOT
HETATM    1  C   UNL     1     -11.258   2.104 -33.465  1.00  0.00     0.114 C 
ENDROOT
BRANCH   1   2
HETATM    2  C   UNL     1     -11.181   3.580 -33.008  1.00  0.00     0.065 C 
BRANCH   2   3
HETATM    3  C   UNL     1      -9.798   4.148 -32.838  1.00  0.00    -0.056 A 
HETATM    4  C   UNL     1      -9.066   4.618 -33.935  1.00  0.00     0.008 A 
HETATM    5  C   UNL     1      -7.810   5.206 -33.744  1.00  0.00     0.014 A 
HETATM    6  C   UNL     1      -7.264   5.345 -32.461  1.00  0.00    -0.006 A 
HETATM    7  C   UNL     1      -7.990   4.846 -31.372  1.00  0.00     0.014 A 
HETATM    8  C   UNL     1      -9.244   4.258 -31.557  1.00  0.00     0.008 A 
BRANCH   6   9
HETATM    9  C   UNL     1      -5.990   6.028 -32.286  1.00  0.00     0.085 A 
HETATM   10  C   UNL     1      -5.699   6.971 -31.322  1.00  0.00     0.130 A 
HETATM   11  N   UNL     1      -4.413   7.376 -31.572  1.00  0.00    -0.315 N 
HETATM   12  C   UNL     1      -3.969   6.658 -32.676  1.00  0.00     0.143 A 
HETATM   13  C   UNL     1      -3.647   8.320 -30.900  1.00  0.00     0.098 A 
HETATM   14  C   UNL     1      -2.631   6.909 -33.153  1.00  0.00     0.017 A 
HETATM   15  N   UNL     1      -4.908   5.838 -33.116  1.00  0.00    -0.228 NA
HETATM   16  C   UNL     1      -1.895   7.828 -32.476  1.00  0.00     0.015 A 
HETATM   17  C   UNL     1      -2.399   8.563 -31.327  1.00  0.00     0.018 A 
BRANCH  14  18
HETATM   18  C   UNL     1      -2.061   6.162 -34.349  1.00  0.00     0.150 C 
HETATM   19  C   UNL     1      -1.494   4.805 -33.943  1.00  0.00     0.044 C 
BRANCH  18  20
HETATM   20  O   UNL     1      -3.064   5.955 -35.346  1.00  0.00    -0.391 OA
HETATM   21  H   UNL     1      -2.623   5.559 -36.116  1.00  0.00     0.210 HD
ENDBRANCH  18  20
ENDBRANCH  14  18
ENDBRANCH   6   9
ENDBRANCH   2   3
ENDBRANCH   1   2
BRANCH   1  22
HETATM   22  N   UNL     1      -9.862   1.607 -33.536  1.00  0.00    -0.350 N 
HETATM   23  C   UNL     1      -9.409   0.372 -33.131  1.00  0.00     0.252 C 
HETATM   24  O   UNL     1     -10.173  -0.498 -32.723  1.00  0.00    -0.268 OA
HETATM   25  H   UNL     1      -9.149   2.331 -33.579  1.00  0.00     0.163 HD
BRANCH  23  26
HETATM   26  C   UNL     1      -7.940   0.135 -33.217  1.00  0.00     0.033 A 
HETATM   27  C   UNL     1      -7.486  -1.055 -33.791  1.00  0.00     0.043 A 
HETATM   28  C   UNL     1      -6.111  -1.307 -33.883  1.00  0.00     0.068 A 
HETATM   29 CL   UNL     1      -5.617  -2.803 -34.592  1.00  0.00    -0.081 Cl
HETATM   30  C   UNL     1      -5.171  -0.379 -33.404  1.00  0.00     0.091 A 
HETATM   31  C   UNL     1      -5.634   0.823 -32.864  1.00  0.00     0.039 A 
HETATM   32  C   UNL     1      -7.007   1.082 -32.774  1.00  0.00     0.020 A 
BRANCH  30  33
HETATM   33  O   UNL     1      -3.852  -0.714 -33.531  1.00  0.00    -0.345 OA
BRANCH  33  34
HETATM   34  C   UNL     1      -3.054  -0.950 -32.364  1.00  0.00     0.121 C 
HETATM   35  C   UNL     1      -3.489  -0.034 -31.224  1.00  0.00     0.040 C 
HETATM   36  C   UNL     1      -3.274  -2.409 -31.971  1.00  0.00     0.040 C 
ENDBRANCH  33  34
ENDBRANCH  30  33
ENDBRANCH  23  26
ENDBRANCH   1  22
BRANCH   1  37
HETATM   37  C   UNL     1     -12.049   1.985 -34.800  1.00  0.00     0.254 C 
BRANCH  37  38
HETATM   38  N   UNL     1     -11.556   2.942 -35.823  1.00  0.00    -0.077 N 
HETATM   39  H   UNL     1     -12.361   3.487 -36.202  1.00  0.00     0.274 HD
HETATM   40  H   UNL     1     -10.904   3.638 -35.445  1.00  0.00     0.274 HD
HETATM   41  H   UNL     1     -11.118   2.479 -36.625  1.00  0.00     0.274 HD
ENDBRANCH  37  38
ENDBRANCH   1  37
TORSDOF 11
ENDMDL
