MODEL 1
REMARK VINA RESULT:      -9.3      0.000      0.000
REMARK  6 active torsions:
REMARK  status: ('A' for Active; 'I' for Inactive)
REMARK    1  A    between atoms: O_2  and  C_3 
REMARK    2  A    between atoms: C_3  and  C_4 
REMARK    3  A    between atoms: C_7  and  N_8 
REMARK       I    between atoms: N_8  and  C_9 
REMARK    4  A    between atoms: C_9  and  C_10 
REMARK    5  A    between atoms: C_10  and  O_11 
REMARK    6  A    between atoms: O_11  and  C_12 
ROOT
HETATM    1  C   UNL     1      -7.378   3.277 -32.722  1.00  0.00     0.278 C 
ENDROOT
BRANCH   1   2
HETATM    2  C   UNL     1      -8.738   2.770 -32.236  1.00  0.00     0.246 C 
HETATM    3  N   UNL     1      -9.766   3.098 -33.104  1.00  0.00    -0.325 N 
HETATM    4  H   UNL     1      -9.511   3.742 -33.846  1.00  0.00     0.169 HD
HETATM    5  O   UNL     1      -8.822   2.074 -31.226  1.00  0.00    -0.271 OA
BRANCH   3   6
HETATM    6  C   UNL     1     -11.094   2.630 -33.086  1.00  0.00     0.034 A 
HETATM    7  C   UNL     1     -11.496   1.408 -33.627  1.00  0.00     0.030 A 
HETATM    8  C   UNL     1     -12.847   1.036 -33.628  1.00  0.00     0.020 A 
HETATM    9  C   UNL     1     -13.815   1.887 -33.084  1.00  0.00     0.039 A 
HETATM   10  C   UNL     1     -13.413   3.102 -32.519  1.00  0.00     0.020 A 
HETATM   11  C   UNL     1     -12.062   3.469 -32.519  1.00  0.00     0.030 A 
BRANCH   9  12
HETATM   12  C   UNL     1     -15.267   1.557 -33.097  1.00  0.00     0.292 C 
HETATM   13  O   UNL     1     -15.828   1.022 -34.039  1.00  0.00    -0.259 OA
BRANCH  12  14
HETATM   14  O   UNL     1     -15.845   1.903 -31.919  1.00  0.00    -0.323 OA
HETATM   15  C   UNL     1     -17.065   2.633 -32.061  1.00  0.00     0.213 C 
ENDBRANCH  12  14
ENDBRANCH   9  12
ENDBRANCH   3   6
ENDBRANCH   1   2
BRANCH   1  16
HETATM   16  O   UNL     1      -7.121   2.836 -34.056  1.00  0.00    -0.342 OA
BRANCH  16  17
HETATM   17  C   UNL     1      -6.953   1.480 -34.180  1.00  0.00     0.071 A 
HETATM   18  C   UNL     1      -5.789   0.959 -33.605  1.00  0.00     0.067 A 
HETATM   19  C   UNL     1      -5.537  -0.412 -33.760  1.00  0.00     0.046 A 
HETATM   20  C   UNL     1      -6.386  -1.257 -34.472  1.00  0.00     0.003 A 
HETATM   21  N   UNL     1      -4.494  -1.184 -33.303  1.00  0.00    -0.355 N 
HETATM   22  C   UNL     1      -7.549  -0.710 -35.048  1.00  0.00     0.017 A 
HETATM   23  C   UNL     1      -5.807  -2.565 -34.455  1.00  0.00     0.003 A 
HETATM   24  C   UNL     1      -7.819   0.658 -34.902  1.00  0.00     0.038 A 
HETATM   25  C   UNL     1      -4.626  -2.489 -33.718  1.00  0.00     0.043 A 
HETATM   26  C   UNL     1      -6.177  -3.808 -35.009  1.00  0.00     0.014 A 
HETATM   27  C   UNL     1      -3.795  -3.596 -33.503  1.00  0.00     0.030 A 
HETATM   28  C   UNL     1      -4.183  -4.816 -34.066  1.00  0.00     0.002 A 
HETATM   29  C   UNL     1      -5.356  -4.923 -34.810  1.00  0.00     0.001 A 
HETATM   30  H   UNL     1      -3.725  -0.838 -32.748  1.00  0.00     0.166 HD
ENDBRANCH  16  17
ENDBRANCH   1  16
TORSDOF 6
ENDMDL
MODEL 2
REMARK VINA RESULT:      -8.9      4.859      8.629
REMARK  6 active torsions:
REMARK  status: ('A' for Active; 'I' for Inactive)
REMARK    1  A    between atoms: O_2  and  C_3 
REMARK    2  A    between atoms: C_3  and  C_4 
REMARK    3  A    between atoms: C_7  and  N_8 
REMARK       I    between atoms: N_8  and  C_9 
REMARK    4  A    between atoms: C_9  and  C_10 
REMARK    5  A    between atoms: C_10  and  O_11 
REMARK    6  A    between atoms: O_11  and  C_12 
ROOT
HETATM    1  C   UNL     1      -5.874   3.955 -34.259  1.00  0.00     0.278 C 
ENDROOT
BRANCH   1   2
HETATM    2  C   UNL     1      -4.693   4.827 -33.825  1.00  0.00     0.246 C 
HETATM    3  N   UNL     1      -4.349   4.629 -32.497  1.00  0.00    -0.325 N 
HETATM    4  H   UNL     1      -5.003   4.062 -31.965  1.00  0.00     0.169 HD
HETATM    5  O   UNL     1      -4.102   5.533 -34.639  1.00  0.00    -0.271 OA
BRANCH   3   6
HETATM    6  C   UNL     1      -3.206   5.098 -31.822  1.00  0.00     0.034 A 
HETATM    7  C   UNL     1      -1.922   4.584 -32.014  1.00  0.00     0.030 A 
HETATM    8  C   UNL     1      -0.841   5.059 -31.260  1.00  0.00     0.020 A 
HETATM    9  C   UNL     1      -1.033   6.058 -30.301  1.00  0.00     0.039 A 
HETATM   10  C   UNL     1      -2.314   6.593 -30.122  1.00  0.00     0.020 A 
HETATM   11  C   UNL     1      -3.391   6.116 -30.879  1.00  0.00     0.030 A 
BRANCH   9  12
HETATM   12  C   UNL     1       0.074   6.568 -29.445  1.00  0.00     0.292 C 
HETATM   13  O   UNL     1       0.690   7.594 -29.682  1.00  0.00    -0.259 OA
BRANCH  12  14
HETATM   14  O   UNL     1       0.261   5.756 -28.374  1.00  0.00    -0.323 OA
HETATM   15  C   UNL     1      -0.223   6.295 -27.143  1.00  0.00     0.213 C 
ENDBRANCH  12  14
ENDBRANCH   9  12
ENDBRANCH   3   6
ENDBRANCH   1   2
BRANCH   1  16
HETATM   16  O   UNL     1      -6.322   3.136 -33.178  1.00  0.00    -0.342 OA
BRANCH  16  17
HETATM   17  C   UNL     1      -6.417   1.801 -33.483  1.00  0.00     0.071 A 
HETATM   18  C   UNL     1      -5.294   1.027 -33.168  1.00  0.00     0.067 A 
HETATM   19  C   UNL     1      -5.314  -0.330 -33.518  1.00  0.00     0.046 A 
HETATM   20  C   UNL     1      -6.391  -0.922 -34.175  1.00  0.00     0.003 A 
HETATM   21  N   UNL     1      -4.371  -1.314 -33.329  1.00  0.00    -0.355 N 
HETATM   22  C   UNL     1      -7.508  -0.123 -34.489  1.00  0.00     0.017 A 
HETATM   23  C   UNL     1      -6.057  -2.294 -34.403  1.00  0.00     0.003 A 
HETATM   24  C   UNL     1      -7.507   1.236 -34.144  1.00  0.00     0.038 A 
HETATM   25  C   UNL     1      -4.790  -2.510 -33.864  1.00  0.00     0.043 A 
HETATM   26  C   UNL     1      -6.716  -3.373 -35.029  1.00  0.00     0.014 A 
HETATM   27  C   UNL     1      -4.147  -3.753 -33.916  1.00  0.00     0.030 A 
HETATM   28  C   UNL     1      -4.821  -4.806 -34.545  1.00  0.00     0.002 A 
HETATM   29  C   UNL     1      -6.086  -4.620 -35.096  1.00  0.00     0.001 A 
HETATM   30  H   UNL     1      -3.482  -1.175 -32.870  1.00  0.00     0.166 HD
ENDBRANCH  16  17
ENDBRANCH   1  16
TORSDOF 6
ENDMDL
MODEL 3
REMARK VINA RESULT:      -8.8      6.014      9.568
REMARK  6 active torsions:
REMARK  status: ('A' for Active; 'I' for Inactive)
REMARK    1  A    between atoms: O_2  and  C_3 
REMARK    2  A    between atoms: C_3  and  C_4 
REMARK    3  A    between atoms: C_7  and  N_8 
REMARK       I    between atoms: N_8  and  C_9 
REMARK    4  A    between atoms: C_9  and  C_10 
REMARK    5  A    between atoms: C_10  and  O_11 
REMARK    6  A    between atoms: O_11  and  C_12 
ROOT
HETATM    1  C   UNL     1      -3.824   3.565 -33.060  1.00  0.00     0.278 C 
ENDROOT
BRANCH   1   2
HETATM    2  C   UNL     1      -2.756   3.997 -32.051  1.00  0.00     0.246 C 
HETATM    3  N   UNL     1      -2.476   5.352 -32.124  1.00  0.00    -0.325 N 
HETATM    4  H   UNL     1      -2.892   5.833 -32.917  1.00  0.00     0.169 HD
HETATM    5  O   UNL     1      -2.308   3.199 -31.232  1.00  0.00    -0.271 OA
BRANCH   3   6
HETATM    6  C   UNL     1      -1.712   6.126 -31.231  1.00  0.00     0.034 A 
HETATM    7  C   UNL     1      -0.330   6.296 -31.334  1.00  0.00     0.030 A 
HETATM    8  C   UNL     1       0.374   7.032 -30.371  1.00  0.00     0.020 A 
HETATM    9  C   UNL     1      -0.300   7.608 -29.289  1.00  0.00     0.039 A 
HETATM   10  C   UNL     1      -1.689   7.459 -29.195  1.00  0.00     0.020 A 
HETATM   11  C   UNL     1      -2.388   6.725 -30.161  1.00  0.00     0.030 A 
BRANCH   9  12
HETATM   12  C   UNL     1       0.405   8.362 -28.217  1.00  0.00     0.292 C 
HETATM   13  O   UNL     1       1.526   8.083 -27.822  1.00  0.00    -0.259 OA
BRANCH  12  14
HETATM   14  O   UNL     1      -0.354   9.400 -27.785  1.00  0.00    -0.323 OA
HETATM   15  C   UNL     1       0.048   9.931 -26.522  1.00  0.00     0.213 C 
ENDBRANCH  12  14
ENDBRANCH   9  12
ENDBRANCH   3   6
ENDBRANCH   1   2
BRANCH   1  16
HETATM   16  O   UNL     1      -4.961   3.020 -32.390  1.00  0.00    -0.342 OA
BRANCH  16  17
HETATM   17  C   UNL     1      -5.327   1.770 -32.824  1.00  0.00     0.071 A 
HETATM   18  C   UNL     1      -4.356   0.773 -32.684  1.00  0.00     0.067 A 
HETATM   19  C   UNL     1      -4.655  -0.507 -33.172  1.00  0.00     0.046 A 
HETATM   20  C   UNL     1      -5.862  -0.811 -33.798  1.00  0.00     0.003 A 
HETATM   21  N   UNL     1      -3.907  -1.663 -33.163  1.00  0.00    -0.355 N 
HETATM   22  C   UNL     1      -6.823   0.211 -33.934  1.00  0.00     0.017 A 
HETATM   23  C   UNL     1      -5.810  -2.184 -34.194  1.00  0.00     0.003 A 
HETATM   24  C   UNL     1      -6.542   1.496 -33.450  1.00  0.00     0.038 A 
HETATM   25  C   UNL     1      -4.577  -2.690 -33.785  1.00  0.00     0.043 A 
HETATM   26  C   UNL     1      -6.699  -3.042 -34.874  1.00  0.00     0.014 A 
HETATM   27  C   UNL     1      -4.188  -4.015 -34.019  1.00  0.00     0.030 A 
HETATM   28  C   UNL     1      -5.086  -4.845 -34.698  1.00  0.00     0.002 A 
HETATM   29  C   UNL     1      -6.324  -4.368 -35.121  1.00  0.00     0.001 A 
HETATM   30  H   UNL     1      -2.982  -1.744 -32.766  1.00  0.00     0.166 HD
ENDBRANCH  16  17
ENDBRANCH   1  16
TORSDOF 6
ENDMDL
MODEL 4
REMARK VINA RESULT:      -8.8      6.657     10.281
REMARK  6 active torsions:
REMARK  status: ('A' for Active; 'I' for Inactive)
REMARK    1  A    between atoms: O_2  and  C_3 
REMARK    2  A    between atoms: C_3  and  C_4 
REMARK    3  A    between atoms: C_7  and  N_8 
REMARK       I    between atoms: N_8  and  C_9 
REMARK    4  A    between atoms: C_9  and  C_10 
REMARK    5  A    between atoms: C_10  and  O_11 
REMARK    6  A    between atoms: O_11  and  C_12 
ROOT
HETATM    1  C   UNL     1      -2.603   3.780 -32.977  1.00  0.00     0.278 C 
ENDROOT
BRANCH   1   2
HETATM    2  C   UNL     1      -1.843   4.977 -32.399  1.00  0.00     0.246 C 
HETATM    3  N   UNL     1      -1.810   4.964 -31.014  1.00  0.00    -0.325 N 
HETATM    4  H   UNL     1      -2.406   4.266 -30.578  1.00  0.00     0.169 HD
HETATM    5  O   UNL     1      -1.270   5.773 -33.139  1.00  0.00    -0.271 OA
BRANCH   3   6
HETATM    6  C   UNL     1      -1.042   5.778 -30.161  1.00  0.00     0.034 A 
HETATM    7  C   UNL     1       0.130   5.357 -29.529  1.00  0.00     0.030 A 
HETATM    8  C   UNL     1       0.810   6.203 -28.643  1.00  0.00     0.020 A 
HETATM    9  C   UNL     1       0.322   7.487 -28.377  1.00  0.00     0.039 A 
HETATM   10  C   UNL     1      -0.839   7.922 -29.026  1.00  0.00     0.020 A 
HETATM   11  C   UNL     1      -1.514   7.073 -29.912  1.00  0.00     0.030 A 
BRANCH   9  12
HETATM   12  C   UNL     1       0.983   8.409 -27.414  1.00  0.00     0.292 C 
HETATM   13  O   UNL     1       0.741   9.604 -27.351  1.00  0.00    -0.259 OA
BRANCH  12  14
HETATM   14  O   UNL     1       1.844   7.729 -26.616  1.00  0.00    -0.323 OA
HETATM   15  C   UNL     1       2.173   8.406 -25.402  1.00  0.00     0.213 C 
ENDBRANCH  12  14
ENDBRANCH   9  12
ENDBRANCH   3   6
ENDBRANCH   1   2
BRANCH   1  16
HETATM   16  O   UNL     1      -3.431   3.178 -31.981  1.00  0.00    -0.342 OA
BRANCH  16  17
HETATM   17  C   UNL     1      -4.123   2.075 -32.413  1.00  0.00     0.071 A 
HETATM   18  C   UNL     1      -3.377   0.895 -32.519  1.00  0.00     0.067 A 
HETATM   19  C   UNL     1      -4.021  -0.246 -33.018  1.00  0.00     0.046 A 
HETATM   20  C   UNL     1      -5.354  -0.241 -33.423  1.00  0.00     0.003 A 
HETATM   21  N   UNL     1      -3.545  -1.521 -33.220  1.00  0.00    -0.355 N 
HETATM   22  C   UNL     1      -6.084   0.959 -33.314  1.00  0.00     0.017 A 
HETATM   23  C   UNL     1      -5.664  -1.552 -33.905  1.00  0.00     0.003 A 
HETATM   24  C   UNL     1      -5.458   2.109 -32.815  1.00  0.00     0.038 A 
HETATM   25  C   UNL     1      -4.515  -2.329 -33.766  1.00  0.00     0.043 A 
HETATM   26  C   UNL     1      -6.818  -2.146 -34.456  1.00  0.00     0.014 A 
HETATM   27  C   UNL     1      -4.462  -3.676 -34.149  1.00  0.00     0.030 A 
HETATM   28  C   UNL     1      -5.620  -4.240 -34.696  1.00  0.00     0.002 A 
HETATM   29  C   UNL     1      -6.781  -3.488 -34.850  1.00  0.00     0.001 A 
HETATM   30  H   UNL     1      -2.605  -1.823 -33.010  1.00  0.00     0.166 HD
ENDBRANCH  16  17
ENDBRANCH   1  16
TORSDOF 6
ENDMDL
MODEL 5
REMARK VINA RESULT:      -8.5      4.959      8.874
REMARK  6 active torsions:
REMARK  status: ('A' for Active; 'I' for Inactive)
REMARK    1  A    between atoms: O_2  and  C_3 
REMARK    2  A    between atoms: C_3  and  C_4 
REMARK    3  A    between atoms: C_7  and  N_8 
REMARK       I    between atoms: N_8  and  C_9 
REMARK    4  A    between atoms: C_9  and  C_10 
REMARK    5  A    between atoms: C_10  and  O_11 
REMARK    6  A    between atoms: O_11  and  C_12 
ROOT
HETATM    1  C   UNL     1      -7.201   3.209 -31.608  1.00  0.00     0.278 C 
ENDROOT
BRANCH   1   2
HETATM    2  C   UNL     1      -6.999   1.695 -31.706  1.00  0.00     0.246 C 
HETATM    3  N   UNL     1      -6.972   1.249 -33.018  1.00  0.00    -0.325 N 
HETATM    4  H   UNL     1      -7.234   1.943 -33.712  1.00  0.00     0.169 HD
HETATM    5  O   UNL     1      -6.796   1.022 -30.698  1.00  0.00    -0.271 OA
BRANCH   3   6
HETATM    6  C   UNL     1      -6.609  -0.026 -33.489  1.00  0.00     0.034 A 
HETATM    7  C   UNL     1      -7.525  -0.986 -33.925  1.00  0.00     0.030 A 
HETATM    8  C   UNL     1      -7.094  -2.258 -34.324  1.00  0.00     0.020 A 
HETATM    9  C   UNL     1      -5.735  -2.587 -34.290  1.00  0.00     0.039 A 
HETATM   10  C   UNL     1      -4.811  -1.620 -33.876  1.00  0.00     0.020 A 
HETATM   11  C   UNL     1      -5.246  -0.350 -33.481  1.00  0.00     0.030 A 
BRANCH   9  12
HETATM   12  C   UNL     1      -5.229  -3.937 -34.662  1.00  0.00     0.292 C 
HETATM   13  O   UNL     1      -5.935  -4.813 -35.135  1.00  0.00    -0.259 OA
BRANCH  12  14
HETATM   14  O   UNL     1      -3.895  -4.026 -34.434  1.00  0.00    -0.323 OA
HETATM   15  C   UNL     1      -3.536  -4.995 -33.448  1.00  0.00     0.213 C 
ENDBRANCH  12  14
ENDBRANCH   9  12
ENDBRANCH   3   6
ENDBRANCH   1   2
BRANCH   1  16
HETATM   16  O   UNL     1      -6.549   3.878 -32.689  1.00  0.00    -0.342 OA
BRANCH  16  17
HETATM   17  C   UNL     1      -5.250   4.237 -32.430  1.00  0.00     0.071 A 
HETATM   18  C   UNL     1      -5.055   5.021 -31.287  1.00  0.00     0.067 A 
HETATM   19  C   UNL     1      -3.756   5.470 -31.012  1.00  0.00     0.046 A 
HETATM   20  C   UNL     1      -2.670   5.181 -31.836  1.00  0.00     0.003 A 
HETATM   21  N   UNL     1      -3.277   6.235 -29.974  1.00  0.00    -0.355 N 
HETATM   22  C   UNL     1      -2.890   4.395 -32.986  1.00  0.00     0.017 A 
HETATM   23  C   UNL     1      -1.520   5.821 -31.277  1.00  0.00     0.003 A 
HETATM   24  C   UNL     1      -4.182   3.936 -33.275  1.00  0.00     0.038 A 
HETATM   25  C   UNL     1      -1.930   6.472 -30.115  1.00  0.00     0.043 A 
HETATM   26  C   UNL     1      -0.166   5.913 -31.660  1.00  0.00     0.014 A 
HETATM   27  C   UNL     1      -1.051   7.211 -29.311  1.00  0.00     0.030 A 
HETATM   28  C   UNL     1       0.286   7.290 -29.715  1.00  0.00     0.002 A 
HETATM   29  C   UNL     1       0.724   6.652 -30.873  1.00  0.00     0.001 A 
HETATM   30  H   UNL     1      -3.842   6.590 -29.215  1.00  0.00     0.166 HD
ENDBRANCH  16  17
ENDBRANCH   1  16
TORSDOF 6
ENDMDL
MODEL 6
REMARK VINA RESULT:      -8.5      4.726      8.670
REMARK  6 active torsions:
REMARK  status: ('A' for Active; 'I' for Inactive)
REMARK    1  A    between atoms: O_2  and  C_3 
REMARK    2  A    between atoms: C_3  and  C_4 
REMARK    3  A    between atoms: C_7  and  N_8 
REMARK       I    between atoms: N_8  and  C_9 
REMARK    4  A    between atoms: C_9  and  C_10 
REMARK    5  A    between atoms: C_10  and  O_11 
REMARK    6  A    between atoms: O_11  and  C_12 
ROOT
HETATM    1  C   UNL     1      -7.582   4.390 -33.429  1.00  0.00     0.278 C 
ENDROOT
BRANCH   1   2
HETATM    2  C   UNL     1      -7.481   2.896 -33.107  1.00  0.00     0.246 C 
HETATM    3  N   UNL     1      -6.996   2.157 -34.173  1.00  0.00    -0.325 N 
HETATM    4  H   UNL     1      -6.919   2.668 -35.049  1.00  0.00     0.169 HD
HETATM    5  O   UNL     1      -7.731   2.480 -31.978  1.00  0.00    -0.271 OA
BRANCH   3   6
HETATM    6  C   UNL     1      -6.585   0.811 -34.175  1.00  0.00     0.034 A 
HETATM    7  C   UNL     1      -5.453   0.341 -33.506  1.00  0.00     0.030 A 
HETATM    8  C   UNL     1      -5.071  -1.003 -33.604  1.00  0.00     0.020 A 
HETATM    9  C   UNL     1      -5.820  -1.897 -34.375  1.00  0.00     0.039 A 
HETATM   10  C   UNL     1      -6.969  -1.436 -35.028  1.00  0.00     0.020 A 
HETATM   11  C   UNL     1      -7.348  -0.092 -34.926  1.00  0.00     0.030 A 
BRANCH   9  12
HETATM   12  C   UNL     1      -5.434  -3.325 -34.545  1.00  0.00     0.292 C 
HETATM   13  O   UNL     1      -6.240  -4.225 -34.716  1.00  0.00    -0.259 OA
BRANCH  12  14
HETATM   14  O   UNL     1      -4.084  -3.461 -34.516  1.00  0.00    -0.323 OA
HETATM   15  C   UNL     1      -3.629  -4.599 -33.782  1.00  0.00     0.213 C 
ENDBRANCH  12  14
ENDBRANCH   9  12
ENDBRANCH   3   6
ENDBRANCH   1   2
BRANCH   1  16
HETATM   16  O   UNL     1      -6.468   4.814 -34.215  1.00  0.00    -0.342 OA
BRANCH  16  17
HETATM   17  C   UNL     1      -5.437   5.354 -33.489  1.00  0.00     0.071 A 
HETATM   18  C   UNL     1      -4.208   4.692 -33.598  1.00  0.00     0.067 A 
HETATM   19  C   UNL     1      -3.138   5.164 -32.825  1.00  0.00     0.046 A 
HETATM   20  C   UNL     1      -3.258   6.243 -31.952  1.00  0.00     0.003 A 
HETATM   21  N   UNL     1      -1.838   4.722 -32.738  1.00  0.00    -0.355 N 
HETATM   22  C   UNL     1      -4.506   6.890 -31.852  1.00  0.00     0.017 A 
HETATM   23  C   UNL     1      -1.993   6.423 -31.309  1.00  0.00     0.003 A 
HETATM   24  C   UNL     1      -5.587   6.434 -32.619  1.00  0.00     0.038 A 
HETATM   25  C   UNL     1      -1.126   5.458 -31.820  1.00  0.00     0.043 A 
HETATM   26  C   UNL     1      -1.508   7.315 -30.331  1.00  0.00     0.014 A 
HETATM   27  C   UNL     1       0.207   5.342 -31.404  1.00  0.00     0.030 A 
HETATM   28  C   UNL     1       0.662   6.237 -30.430  1.00  0.00     0.002 A 
HETATM   29  C   UNL     1      -0.182   7.210 -29.899  1.00  0.00     0.001 A 
HETATM   30  H   UNL     1      -1.458   3.949 -33.266  1.00  0.00     0.166 HD
ENDBRANCH  16  17
ENDBRANCH   1  16
TORSDOF 6
ENDMDL
MODEL 7
REMARK VINA RESULT:      -8.2      1.841      2.739
REMARK  6 active torsions:
REMARK  status: ('A' for Active; 'I' for Inactive)
REMARK    1  A    between atoms: O_2  and  C_3 
REMARK    2  A    between atoms: C_3  and  C_4 
REMARK    3  A    between atoms: C_7  and  N_8 
REMARK       I    between atoms: N_8  and  C_9 
REMARK    4  A    between atoms: C_9  and  C_10 
REMARK    5  A    between atoms: C_10  and  O_11 
REMARK    6  A    between atoms: O_11  and  C_12 
ROOT
HETATM    1  C   UNL     1      -5.721   2.994 -30.740  1.00  0.00     0.278 C 
ENDROOT
BRANCH   1   2
HETATM    2  C   UNL     1      -7.242   2.915 -30.893  1.00  0.00     0.246 C 
HETATM    3  N   UNL     1      -7.632   2.720 -32.208  1.00  0.00    -0.325 N 
HETATM    4  H   UNL     1      -6.886   2.806 -32.893  1.00  0.00     0.169 HD
HETATM    5  O   UNL     1      -7.973   2.935 -29.906  1.00  0.00    -0.271 OA
BRANCH   3   6
HETATM    6  C   UNL     1      -8.915   2.401 -32.690  1.00  0.00     0.034 A 
HETATM    7  C   UNL     1      -9.401   1.098 -32.809  1.00  0.00     0.030 A 
HETATM    8  C   UNL     1     -10.668   0.853 -33.356  1.00  0.00     0.020 A 
HETATM    9  C   UNL     1     -11.466   1.915 -33.793  1.00  0.00     0.039 A 
HETATM   10  C   UNL     1     -10.993   3.225 -33.653  1.00  0.00     0.020 A 
HETATM   11  C   UNL     1      -9.727   3.464 -33.104  1.00  0.00     0.030 A 
BRANCH   9  12
HETATM   12  C   UNL     1     -12.801   1.707 -34.419  1.00  0.00     0.292 C 
HETATM   13  O   UNL     1     -13.152   2.252 -35.452  1.00  0.00    -0.259 OA
BRANCH  12  14
HETATM   14  O   UNL     1     -13.531   0.816 -33.701  1.00  0.00    -0.323 OA
HETATM   15  C   UNL     1     -14.874   0.659 -34.161  1.00  0.00     0.213 C 
ENDBRANCH  12  14
ENDBRANCH   9  12
ENDBRANCH   3   6
ENDBRANCH   1   2
BRANCH   1  16
HETATM   16  O   UNL     1      -5.073   2.759 -31.991  1.00  0.00    -0.342 OA
BRANCH  16  17
HETATM   17  C   UNL     1      -4.683   1.458 -32.190  1.00  0.00     0.071 A 
HETATM   18  C   UNL     1      -5.392   0.758 -33.173  1.00  0.00     0.067 A 
HETATM   19  C   UNL     1      -5.077  -0.594 -33.370  1.00  0.00     0.046 A 
HETATM   20  C   UNL     1      -4.109  -1.259 -32.621  1.00  0.00     0.003 A 
HETATM   21  N   UNL     1      -5.596  -1.511 -34.256  1.00  0.00    -0.355 N 
HETATM   22  C   UNL     1      -3.413  -0.536 -31.632  1.00  0.00     0.017 A 
HETATM   23  C   UNL     1      -4.078  -2.619 -33.063  1.00  0.00     0.003 A 
HETATM   24  C   UNL     1      -3.712   0.817 -31.421  1.00  0.00     0.038 A 
HETATM   25  C   UNL     1      -5.018  -2.746 -34.084  1.00  0.00     0.043 A 
HETATM   26  C   UNL     1      -3.340  -3.758 -32.679  1.00  0.00     0.014 A 
HETATM   27  C   UNL     1      -5.256  -3.958 -34.747  1.00  0.00     0.030 A 
HETATM   28  C   UNL     1      -4.513  -5.073 -34.345  1.00  0.00     0.002 A 
HETATM   29  C   UNL     1      -3.569  -4.977 -33.325  1.00  0.00     0.001 A 
HETATM   30  H   UNL     1      -6.317  -1.308 -34.934  1.00  0.00     0.166 HD
ENDBRANCH  16  17
ENDBRANCH   1  16
TORSDOF 6
ENDMDL
MODEL 8
REMARK VINA RESULT:      -8.2      7.304     10.930
REMARK  6 active torsions:
REMARK  status: ('A' for Active; 'I' for Inactive)
REMARK    1  A    between atoms: O_2  and  C_3 
REMARK    2  A    between atoms: C_3  and  C_4 
REMARK    3  A    between atoms: C_7  and  N_8 
REMARK       I    between atoms: N_8  and  C_9 
REMARK    4  A    between atoms: C_9  and  C_10 
REMARK    5  A    between atoms: C_10  and  O_11 
REMARK    6  A    between atoms: O_11  and  C_12 
ROOT
HETATM    1  C   UNL     1      -3.536   4.882 -31.506  1.00  0.00     0.278 C 
ENDROOT
BRANCH   1   2
HETATM    2  C   UNL     1      -3.370   3.607 -32.338  1.00  0.00     0.246 C 
HETATM    3  N   UNL     1      -4.204   2.586 -31.912  1.00  0.00    -0.325 N 
HETATM    4  H   UNL     1      -4.687   2.764 -31.037  1.00  0.00     0.169 HD
HETATM    5  O   UNL     1      -2.631   3.591 -33.319  1.00  0.00    -0.271 OA
BRANCH   3   6
HETATM    6  C   UNL     1      -4.467   1.362 -32.555  1.00  0.00     0.034 A 
HETATM    7  C   UNL     1      -5.647   1.084 -33.248  1.00  0.00     0.030 A 
HETATM    8  C   UNL     1      -5.866  -0.180 -33.811  1.00  0.00     0.020 A 
HETATM    9  C   UNL     1      -4.902  -1.186 -33.687  1.00  0.00     0.039 A 
HETATM   10  C   UNL     1      -3.707  -0.905 -33.014  1.00  0.00     0.020 A 
HETATM   11  C   UNL     1      -3.493   0.361 -32.454  1.00  0.00     0.030 A 
BRANCH   9  12
HETATM   12  C   UNL     1      -5.103  -2.557 -34.230  1.00  0.00     0.292 C 
HETATM   13  O   UNL     1      -4.190  -3.342 -34.431  1.00  0.00    -0.259 OA
BRANCH  12  14
HETATM   14  O   UNL     1      -6.422  -2.804 -34.428  1.00  0.00    -0.323 OA
HETATM   15  C   UNL     1      -6.700  -4.101 -34.956  1.00  0.00     0.213 C 
ENDBRANCH  12  14
ENDBRANCH   9  12
ENDBRANCH   3   6
ENDBRANCH   1   2
BRANCH   1  16
HETATM   16  O   UNL     1      -2.670   5.913 -31.983  1.00  0.00    -0.342 OA
BRANCH  16  17
HETATM   17  C   UNL     1      -1.775   6.375 -31.051  1.00  0.00     0.071 A 
HETATM   18  C   UNL     1      -2.317   6.713 -29.806  1.00  0.00     0.067 A 
HETATM   19  C   UNL     1      -1.456   7.252 -28.840  1.00  0.00     0.046 A 
HETATM   20  C   UNL     1      -0.102   7.476 -29.079  1.00  0.00     0.003 A 
HETATM   21  N   UNL     1      -1.707   7.660 -27.550  1.00  0.00    -0.355 N 
HETATM   22  C   UNL     1       0.421   7.134 -30.342  1.00  0.00     0.017 A 
HETATM   23  C   UNL     1       0.455   8.060 -27.899  1.00  0.00     0.003 A 
HETATM   24  C   UNL     1      -0.424   6.592 -31.320  1.00  0.00     0.038 A 
HETATM   25  C   UNL     1      -0.571   8.164 -26.961  1.00  0.00     0.043 A 
HETATM   26  C   UNL     1       1.741   8.520 -27.546  1.00  0.00     0.014 A 
HETATM   27  C   UNL     1      -0.376   8.703 -25.683  1.00  0.00     0.030 A 
HETATM   28  C   UNL     1       0.907   9.155 -25.359  1.00  0.00     0.002 A 
HETATM   29  C   UNL     1       1.952   9.067 -26.275  1.00  0.00     0.001 A 
HETATM   30  H   UNL     1      -2.609   7.611 -27.098  1.00  0.00     0.166 HD
ENDBRANCH  16  17
ENDBRANCH   1  16
TORSDOF 6
ENDMDL
MODEL 9
REMARK VINA RESULT:      -8.2      2.654      8.649
REMARK  6 active torsions:
REMARK  status: ('A' for Active; 'I' for Inactive)
REMARK    1  A    between atoms: O_2  and  C_3 
REMARK    2  A    between atoms: C_3  and  C_4 
REMARK    3  A    between atoms: C_7  and  N_8 
REMARK       I    between atoms: N_8  and  C_9 
REMARK    4  A    between atoms: C_9  and  C_10 
REMARK    5  A    between atoms: C_10  and  O_11 
REMARK    6  A    between atoms: O_11  and  C_12 
ROOT
HETATM    1  C   UNL     1      -6.770   3.581 -32.724  1.00  0.00     0.278 C 
ENDROOT
BRANCH   1   2
HETATM    2  C   UNL     1      -6.708   2.063 -32.532  1.00  0.00     0.246 C 
HETATM    3  N   UNL     1      -6.397   1.394 -33.704  1.00  0.00    -0.325 N 
HETATM    4  H   UNL     1      -6.403   1.971 -34.541  1.00  0.00     0.169 HD
HETATM    5  O   UNL     1      -6.836   1.567 -31.415  1.00  0.00    -0.271 OA
BRANCH   3   6
HETATM    6  C   UNL     1      -6.061   0.037 -33.860  1.00  0.00     0.034 A 
HETATM    7  C   UNL     1      -4.833  -0.510 -33.481  1.00  0.00     0.030 A 
HETATM    8  C   UNL     1      -4.545  -1.860 -33.724  1.00  0.00     0.020 A 
HETATM    9  C   UNL     1      -5.486  -2.682 -34.353  1.00  0.00     0.039 A 
HETATM   10  C   UNL     1      -6.727  -2.143 -34.714  1.00  0.00     0.020 A 
HETATM   11  C   UNL     1      -7.011  -0.795 -34.467  1.00  0.00     0.030 A 
BRANCH   9  12
HETATM   12  C   UNL     1      -5.214  -4.110 -34.672  1.00  0.00     0.292 C 
HETATM   13  O   UNL     1      -6.068  -4.886 -35.067  1.00  0.00    -0.259 OA
BRANCH  12  14
HETATM   14  O   UNL     1      -3.899  -4.396 -34.492  1.00  0.00    -0.323 OA
HETATM   15  C   UNL     1      -3.616  -5.096 -33.280  1.00  0.00     0.213 C 
ENDBRANCH  12  14
ENDBRANCH   9  12
ENDBRANCH   3   6
ENDBRANCH   1   2
BRANCH   1  16
HETATM   16  O   UNL     1      -7.738   3.926 -33.715  1.00  0.00    -0.342 OA
BRANCH  16  17
HETATM   17  C   UNL     1      -9.034   3.642 -33.363  1.00  0.00     0.071 A 
HETATM   18  C   UNL     1      -9.705   2.742 -34.199  1.00  0.00     0.067 A 
HETATM   19  C   UNL     1     -11.051   2.467 -33.921  1.00  0.00     0.046 A 
HETATM   20  C   UNL     1     -11.739   3.064 -32.867  1.00  0.00     0.003 A 
HETATM   21  N   UNL     1     -11.941   1.633 -34.558  1.00  0.00    -0.355 N 
HETATM   22  C   UNL     1     -11.046   3.972 -32.042  1.00  0.00     0.017 A 
HETATM   23  C   UNL     1     -13.086   2.585 -32.902  1.00  0.00     0.003 A 
HETATM   24  C   UNL     1      -9.698   4.257 -32.303  1.00  0.00     0.038 A 
HETATM   25  C   UNL     1     -13.183   1.693 -33.969  1.00  0.00     0.043 A 
HETATM   26  C   UNL     1     -14.237   2.836 -32.127  1.00  0.00     0.014 A 
HETATM   27  C   UNL     1     -14.375   1.035 -34.300  1.00  0.00     0.030 A 
HETATM   28  C   UNL     1     -15.502   1.304 -33.517  1.00  0.00     0.002 A 
HETATM   29  C   UNL     1     -15.438   2.193 -32.447  1.00  0.00     0.001 A 
HETATM   30  H   UNL     1     -11.718   1.063 -35.361  1.00  0.00     0.166 HD
ENDBRANCH  16  17
ENDBRANCH   1  16
TORSDOF 6
ENDMDL
MODEL 10
REMARK VINA RESULT:      -7.8      7.597     11.163
REMARK  6 active torsions:
REMARK  status: ('A' for Active; 'I' for Inactive)
REMARK    1  A    between atoms: O_2  and  C_3 
REMARK    2  A    between atoms: C_3  and  C_4 
REMARK    3  A    between atoms: C_7  and  N_8 
REMARK       I    between atoms: N_8  and  C_9 
REMARK    4  A    between atoms: C_9  and  C_10 
REMARK    5  A    between atoms: C_10  and  O_11 
REMARK    6  A    between atoms: O_11  and  C_12 
ROOT
HETATM    1  C   UNL     1      -3.239   6.775 -32.540  1.00  0.00     0.278 C 
ENDROOT
BRANCH   1   2
HETATM    2  C   UNL     1      -2.366   7.757 -31.753  1.00  0.00     0.246 C 
HETATM    3  N   UNL     1      -2.084   7.307 -30.474  1.00  0.00    -0.325 N 
HETATM    4  H   UNL     1      -2.605   6.483 -30.185  1.00  0.00     0.169 HD
HETATM    5  O   UNL     1      -1.921   8.768 -32.290  1.00  0.00    -0.271 OA
BRANCH   3   6
HETATM    6  C   UNL     1      -1.161   7.839 -29.555  1.00  0.00     0.034 A 
HETATM    7  C   UNL     1       0.147   7.375 -29.408  1.00  0.00     0.030 A 
HETATM    8  C   UNL     1       0.992   7.912 -28.428  1.00  0.00     0.020 A 
HETATM    9  C   UNL     1       0.535   8.926 -27.579  1.00  0.00     0.039 A 
HETATM   10  C   UNL     1      -0.768   9.411 -27.738  1.00  0.00     0.020 A 
HETATM   11  C   UNL     1      -1.608   8.871 -28.720  1.00  0.00     0.030 A 
BRANCH   9  12
HETATM   12  C   UNL     1       1.378   9.502 -26.495  1.00  0.00     0.292 C 
HETATM   13  O   UNL     1       2.352   8.936 -26.026  1.00  0.00    -0.259 OA
BRANCH  12  14
HETATM   14  O   UNL     1       0.928  10.733 -26.145  1.00  0.00    -0.323 OA
HETATM   15  C   UNL     1       1.676  11.350 -25.096  1.00  0.00     0.213 C 
ENDBRANCH  12  14
ENDBRANCH   9  12
ENDBRANCH   3   6
ENDBRANCH   1   2
BRANCH   1  16
HETATM   16  O   UNL     1      -3.235   5.487 -31.921  1.00  0.00    -0.342 OA
BRANCH  16  17
HETATM   17  C   UNL     1      -4.099   4.585 -32.489  1.00  0.00     0.071 A 
HETATM   18  C   UNL     1      -3.981   3.266 -32.035  1.00  0.00     0.067 A 
HETATM   19  C   UNL     1      -4.797   2.293 -32.630  1.00  0.00     0.046 A 
HETATM   20  C   UNL     1      -5.695   2.586 -33.653  1.00  0.00     0.003 A 
HETATM   21  N   UNL     1      -4.899   0.943 -32.383  1.00  0.00    -0.355 N 
HETATM   22  C   UNL     1      -5.792   3.920 -34.099  1.00  0.00     0.017 A 
HETATM   23  C   UNL     1      -6.326   1.362 -34.039  1.00  0.00     0.003 A 
HETATM   24  C   UNL     1      -4.987   4.907 -33.515  1.00  0.00     0.038 A 
HETATM   25  C   UNL     1      -5.808   0.353 -33.229  1.00  0.00     0.043 A 
HETATM   26  C   UNL     1      -7.286   1.019 -35.013  1.00  0.00     0.014 A 
HETATM   27  C   UNL     1      -6.205  -0.986 -33.341  1.00  0.00     0.030 A 
HETATM   28  C   UNL     1      -7.157  -1.300 -34.317  1.00  0.00     0.002 A 
HETATM   29  C   UNL     1      -7.690  -0.314 -35.143  1.00  0.00     0.001 A 
HETATM   30  H   UNL     1      -4.366   0.446 -31.683  1.00  0.00     0.166 HD
ENDBRANCH  16  17
ENDBRANCH   1  16
TORSDOF 6
ENDMDL
