MODEL 1
REMARK VINA RESULT:     -10.3      0.000      0.000
REMARK  6 active torsions:
REMARK  status: ('A' for Active; 'I' for Inactive)
REMARK    1  A    between atoms: N_9  and  C_10 
REMARK    2  A    between atoms: C_10  and  C_11 
REMARK       I    between atoms: C_11  and  N_12 
REMARK    3  A    between atoms: N_12  and  C_13 
REMARK    4  A    between atoms: C_14  and  C_15 
REMARK       I    between atoms: C_15  and  N_16 
REMARK    5  A    between atoms: N_16  and  C_17 
REMARK    6  A    between atoms: C_17  and  C_18 
ROOT
HETATM    1  C   UNL     1      -3.639   3.211 -31.235  1.00  0.00     0.240 C 
HETATM    2  N   UNL     1      -3.777   4.415 -31.912  1.00  0.00    -0.325 N 
HETATM    3  O   UNL     1      -2.619   2.540 -31.146  1.00  0.00    -0.271 OA
HETATM    4  H   UNL     1      -4.727   4.746 -32.026  1.00  0.00     0.169 HD
ENDROOT
BRANCH   1   5
HETATM    5  C   UNL     1      -4.939   2.782 -30.548  1.00  0.00     0.240 C 
BRANCH   5   6
HETATM    6  N   UNL     1      -5.386   1.489 -31.009  1.00  0.00    -0.259 N 
HETATM    7  C   UNL     1      -5.954   0.558 -30.196  1.00  0.00     0.326 C 
HETATM    8  N   UNL     1      -6.451  -0.457 -30.968  1.00  0.00    -0.320 N 
HETATM    9  O   UNL     1      -6.058   0.612 -28.981  1.00  0.00    -0.247 OA
HETATM   10  C   UNL     1      -6.453  -0.133 -32.381  1.00  0.00     0.144 C 
HETATM   11  H   UNL     1      -6.898  -1.263 -30.555  1.00  0.00     0.165 HD
HETATM   12  C   UNL     1      -5.744  -1.188 -33.210  1.00  0.00    -0.014 A 
HETATM   13  C   UNL     1      -5.686   1.212 -32.319  1.00  0.00     0.261 C 
HETATM   14  C   UNL     1      -7.909   0.141 -32.808  1.00  0.00     0.047 C 
HETATM   15  C   UNL     1      -6.332  -1.717 -34.380  1.00  0.00    -0.049 A 
HETATM   16  C   UNL     1      -4.465  -1.645 -32.840  1.00  0.00     0.011 A 
HETATM   17  C   UNL     1      -5.663  -2.710 -35.111  1.00  0.00     0.007 A 
HETATM   18  C   UNL     1      -7.695  -1.275 -34.852  1.00  0.00     0.039 C 
HETATM   19  C   UNL     1      -4.405  -3.160 -34.715  1.00  0.00     0.001 A 
HETATM   20  C   UNL     1      -3.805  -2.623 -33.583  1.00  0.00     0.001 A 
HETATM   21  C   UNL     1      -8.078   0.101 -34.321  1.00  0.00     0.008 C 
HETATM   22  O   UNL     1      -5.478   1.962 -33.265  1.00  0.00    -0.270 OA
ENDBRANCH   5   6
ENDBRANCH   1   5
BRANCH   2  23
HETATM   23  C   UNL     1      -2.806   5.154 -32.626  1.00  0.00     0.050 A 
HETATM   24  C   UNL     1      -1.989   6.195 -32.159  1.00  0.00     0.058 A 
HETATM   25  C   UNL     1      -1.009   6.746 -33.014  1.00  0.00     0.019 A 
HETATM   26  C   UNL     1      -0.863   6.308 -34.328  1.00  0.00     0.001 A 
HETATM   27  C   UNL     1      -1.704   5.320 -34.813  1.00  0.00     0.002 A 
HETATM   28  C   UNL     1      -2.667   4.756 -33.973  1.00  0.00     0.030 A 
BRANCH  24  29
HETATM   29  C   UNL     1      -2.111   6.911 -30.865  1.00  0.00     0.254 C 
HETATM   30  N   UNL     1      -1.051   7.717 -30.499  1.00  0.00    -0.351 N 
HETATM   31  H   UNL     1      -0.377   7.997 -31.204  1.00  0.00     0.163 HD
HETATM   32  O   UNL     1      -3.064   6.666 -30.130  1.00  0.00    -0.268 OA
BRANCH  30  33
HETATM   33  C   UNL     1      -1.181   8.539 -29.321  1.00  0.00     0.187 C 
BRANCH  33  34
HETATM   34  C   UNL     1      -0.259   8.054 -28.266  1.00  0.00     0.070 A 
HETATM   35  O   UNL     1      -0.774   7.182 -27.352  1.00  0.00    -0.325 OA
HETATM   36  C   UNL     1       0.240   6.825 -26.523  1.00  0.00     0.142 A 
HETATM   37  C   UNL     1       1.401   7.467 -26.883  1.00  0.00     0.027 A 
HETATM   38  C   UNL     1       1.080   8.263 -28.008  1.00  0.00     0.036 A 
ENDBRANCH  33  34
ENDBRANCH  30  33
ENDBRANCH  24  29
ENDBRANCH   2  23
TORSDOF 6
ENDMDL
MODEL 2
REMARK VINA RESULT:     -10.0      2.969      5.011
REMARK  6 active torsions:
REMARK  status: ('A' for Active; 'I' for Inactive)
REMARK    1  A    between atoms: N_9  and  C_10 
REMARK    2  A    between atoms: C_10  and  C_11 
REMARK       I    between atoms: C_11  and  N_12 
REMARK    3  A    between atoms: N_12  and  C_13 
REMARK    4  A    between atoms: C_14  and  C_15 
REMARK       I    between atoms: C_15  and  N_16 
REMARK    5  A    between atoms: N_16  and  C_17 
REMARK    6  A    between atoms: C_17  and  C_18 
ROOT
HETATM    1  C   UNL     1      -8.760   3.122 -31.265  1.00  0.00     0.240 C 
HETATM    2  N   UNL     1      -7.663   3.153 -30.417  1.00  0.00    -0.325 N 
HETATM    3  O   UNL     1      -9.382   4.088 -31.685  1.00  0.00    -0.271 OA
HETATM    4  H   UNL     1      -7.378   2.259 -30.036  1.00  0.00     0.169 HD
ENDROOT
BRANCH   1   5
HETATM    5  C   UNL     1      -9.132   1.693 -31.676  1.00  0.00     0.240 C 
BRANCH   5   6
HETATM    6  N   UNL     1      -8.165   1.130 -32.587  1.00  0.00    -0.259 N 
HETATM    7  C   UNL     1      -7.933   1.622 -33.834  1.00  0.00     0.326 C 
HETATM    8  N   UNL     1      -6.825   1.005 -34.352  1.00  0.00    -0.320 N 
HETATM    9  O   UNL     1      -8.562   2.498 -34.404  1.00  0.00    -0.247 OA
HETATM   10  C   UNL     1      -6.107   0.228 -33.363  1.00  0.00     0.144 C 
HETATM   11  H   UNL     1      -6.493   1.215 -35.282  1.00  0.00     0.165 HD
HETATM   12  C   UNL     1      -5.886  -1.205 -33.811  1.00  0.00    -0.014 A 
HETATM   13  C   UNL     1      -7.108   0.353 -32.186  1.00  0.00     0.261 C 
HETATM   14  C   UNL     1      -4.814   0.989 -33.002  1.00  0.00     0.047 C 
HETATM   15  C   UNL     1      -4.617  -1.815 -33.715  1.00  0.00    -0.049 A 
HETATM   16  C   UNL     1      -6.958  -1.968 -34.311  1.00  0.00     0.011 A 
HETATM   17  C   UNL     1      -4.440  -3.133 -34.163  1.00  0.00     0.007 A 
HETATM   18  C   UNL     1      -3.417  -1.071 -33.182  1.00  0.00     0.039 C 
HETATM   19  C   UNL     1      -5.512  -3.863 -34.671  1.00  0.00     0.001 A 
HETATM   20  C   UNL     1      -6.772  -3.281 -34.740  1.00  0.00     0.001 A 
HETATM   21  C   UNL     1      -3.807   0.098 -32.286  1.00  0.00     0.008 C 
HETATM   22  O   UNL     1      -6.935  -0.075 -31.050  1.00  0.00    -0.270 OA
ENDBRANCH   5   6
ENDBRANCH   1   5
BRANCH   2  23
HETATM   23  C   UNL     1      -6.996   4.269 -29.859  1.00  0.00     0.050 A 
HETATM   24  C   UNL     1      -5.816   4.887 -30.299  1.00  0.00     0.058 A 
HETATM   25  C   UNL     1      -5.362   6.057 -29.653  1.00  0.00     0.019 A 
HETATM   26  C   UNL     1      -6.036   6.590 -28.556  1.00  0.00     0.001 A 
HETATM   27  C   UNL     1      -7.171   5.952 -28.081  1.00  0.00     0.002 A 
HETATM   28  C   UNL     1      -7.640   4.803 -28.721  1.00  0.00     0.030 A 
BRANCH  24  29
HETATM   29  C   UNL     1      -4.873   4.376 -31.324  1.00  0.00     0.254 C 
HETATM   30  N   UNL     1      -3.535   4.363 -30.984  1.00  0.00    -0.351 N 
HETATM   31  H   UNL     1      -3.272   4.442 -30.007  1.00  0.00     0.163 HD
HETATM   32  O   UNL     1      -5.291   4.114 -32.448  1.00  0.00    -0.268 OA
BRANCH  30  33
HETATM   33  C   UNL     1      -2.596   3.748 -31.890  1.00  0.00     0.187 C 
BRANCH  33  34
HETATM   34  C   UNL     1      -1.967   4.785 -32.743  1.00  0.00     0.070 A 
HETATM   35  O   UNL     1      -1.963   4.558 -34.088  1.00  0.00    -0.325 OA
HETATM   36  C   UNL     1      -1.400   5.643 -34.677  1.00  0.00     0.142 A 
HETATM   37  C   UNL     1      -1.027   6.564 -33.727  1.00  0.00     0.027 A 
HETATM   38  C   UNL     1      -1.392   6.011 -32.476  1.00  0.00     0.036 A 
ENDBRANCH  33  34
ENDBRANCH  30  33
ENDBRANCH  24  29
ENDBRANCH   2  23
TORSDOF 6
ENDMDL
MODEL 3
REMARK VINA RESULT:      -9.9      2.329      9.297
REMARK  6 active torsions:
REMARK  status: ('A' for Active; 'I' for Inactive)
REMARK    1  A    between atoms: N_9  and  C_10 
REMARK    2  A    between atoms: C_10  and  C_11 
REMARK       I    between atoms: C_11  and  N_12 
REMARK    3  A    between atoms: N_12  and  C_13 
REMARK    4  A    between atoms: C_14  and  C_15 
REMARK       I    between atoms: C_15  and  N_16 
REMARK    5  A    between atoms: N_16  and  C_17 
REMARK    6  A    between atoms: C_17  and  C_18 
ROOT
HETATM    1  C   UNL     1      -7.400   4.221 -32.047  1.00  0.00     0.240 C 
HETATM    2  N   UNL     1      -8.129   3.148 -31.554  1.00  0.00    -0.325 N 
HETATM    3  O   UNL     1      -7.353   4.594 -33.211  1.00  0.00    -0.271 OA
HETATM    4  H   UNL     1      -7.921   2.878 -30.601  1.00  0.00     0.169 HD
ENDROOT
BRANCH   1   5
HETATM    5  C   UNL     1      -6.637   4.957 -30.941  1.00  0.00     0.240 C 
BRANCH   5   6
HETATM    6  N   UNL     1      -5.212   4.752 -31.046  1.00  0.00    -0.259 N 
HETATM    7  C   UNL     1      -4.600   3.574 -30.750  1.00  0.00     0.326 C 
HETATM    8  N   UNL     1      -3.293   3.644 -31.152  1.00  0.00    -0.320 N 
HETATM    9  O   UNL     1      -5.114   2.586 -30.251  1.00  0.00    -0.247 OA
HETATM   10  C   UNL     1      -3.023   4.808 -31.971  1.00  0.00     0.144 C 
HETATM   11  H   UNL     1      -2.655   2.875 -31.004  1.00  0.00     0.165 HD
HETATM   12  C   UNL     1      -1.862   5.626 -31.437  1.00  0.00    -0.014 A 
HETATM   13  C   UNL     1      -4.391   5.523 -31.830  1.00  0.00     0.261 C 
HETATM   14  C   UNL     1      -2.853   4.339 -33.431  1.00  0.00     0.047 C 
HETATM   15  C   UNL     1      -0.820   6.060 -32.285  1.00  0.00    -0.049 A 
HETATM   16  C   UNL     1      -1.815   5.993 -30.079  1.00  0.00     0.011 A 
HETATM   17  C   UNL     1       0.253   6.794 -31.755  1.00  0.00     0.007 A 
HETATM   18  C   UNL     1      -0.800   5.720 -33.755  1.00  0.00     0.039 C 
HETATM   19  C   UNL     1       0.287   7.130 -30.404  1.00  0.00     0.001 A 
HETATM   20  C   UNL     1      -0.750   6.734 -29.567  1.00  0.00     0.001 A 
HETATM   21  C   UNL     1      -2.186   5.399 -34.298  1.00  0.00     0.008 C 
HETATM   22  O   UNL     1      -4.726   6.549 -32.409  1.00  0.00    -0.270 OA
ENDBRANCH   5   6
ENDBRANCH   1   5
BRANCH   2  23
HETATM   23  C   UNL     1      -8.986   2.259 -32.243  1.00  0.00     0.050 A 
HETATM   24  C   UNL     1      -8.746   0.925 -32.607  1.00  0.00     0.058 A 
HETATM   25  C   UNL     1      -9.776   0.174 -33.214  1.00  0.00     0.019 A 
HETATM   26  C   UNL     1     -11.016   0.740 -33.500  1.00  0.00     0.001 A 
HETATM   27  C   UNL     1     -11.241   2.073 -33.195  1.00  0.00     0.002 A 
HETATM   28  C   UNL     1     -10.236   2.823 -32.580  1.00  0.00     0.030 A 
BRANCH  24  29
HETATM   29  C   UNL     1      -7.449   0.207 -32.548  1.00  0.00     0.254 C 
HETATM   30  N   UNL     1      -7.014  -0.385 -33.717  1.00  0.00    -0.351 N 
HETATM   31  H   UNL     1      -7.428  -0.102 -34.599  1.00  0.00     0.163 HD
HETATM   32  O   UNL     1      -6.892   0.059 -31.463  1.00  0.00    -0.268 OA
BRANCH  30  33
HETATM   33  C   UNL     1      -5.698  -0.975 -33.747  1.00  0.00     0.187 C 
BRANCH  33  34
HETATM   34  C   UNL     1      -5.786  -2.379 -34.214  1.00  0.00     0.070 A 
HETATM   35  O   UNL     1      -4.653  -3.133 -34.115  1.00  0.00    -0.325 OA
HETATM   36  C   UNL     1      -4.967  -4.384 -34.537  1.00  0.00     0.142 A 
HETATM   37  C   UNL     1      -6.286  -4.444 -34.920  1.00  0.00     0.027 A 
HETATM   38  C   UNL     1      -6.816  -3.149 -34.713  1.00  0.00     0.036 A 
ENDBRANCH  33  34
ENDBRANCH  30  33
ENDBRANCH  24  29
ENDBRANCH   2  23
TORSDOF 6
ENDMDL
MODEL 4
REMARK VINA RESULT:      -9.9      4.299      7.464
REMARK  6 active torsions:
REMARK  status: ('A' for Active; 'I' for Inactive)
REMARK    1  A    between atoms: N_9  and  C_10 
REMARK    2  A    between atoms: C_10  and  C_11 
REMARK       I    between atoms: C_11  and  N_12 
REMARK    3  A    between atoms: N_12  and  C_13 
REMARK    4  A    between atoms: C_14  and  C_15 
REMARK       I    between atoms: C_15  and  N_16 
REMARK    5  A    between atoms: N_16  and  C_17 
REMARK    6  A    between atoms: C_17  and  C_18 
ROOT
HETATM    1  C   UNL     1      -7.326   3.375 -33.439  1.00  0.00     0.240 C 
HETATM    2  N   UNL     1      -7.614   2.057 -33.116  1.00  0.00    -0.325 N 
HETATM    3  O   UNL     1      -6.393   3.768 -34.128  1.00  0.00    -0.271 OA
HETATM    4  H   UNL     1      -8.318   1.925 -32.401  1.00  0.00     0.169 HD
ENDROOT
BRANCH   1   5
HETATM    5  C   UNL     1      -8.348   4.352 -32.848  1.00  0.00     0.240 C 
BRANCH   5   6
HETATM    6  N   UNL     1      -9.683   4.082 -33.326  1.00  0.00    -0.259 N 
HETATM    7  C   UNL     1     -10.137   4.478 -34.545  1.00  0.00     0.326 C 
HETATM    8  N   UNL     1     -11.353   3.891 -34.774  1.00  0.00    -0.320 N 
HETATM    9  O   UNL     1      -9.560   5.198 -35.343  1.00  0.00    -0.247 OA
HETATM   10  C   UNL     1     -11.668   2.864 -33.801  1.00  0.00     0.144 C 
HETATM   11  H   UNL     1     -11.874   4.072 -35.620  1.00  0.00     0.165 HD
HETATM   12  C   UNL     1     -13.018   3.090 -33.147  1.00  0.00    -0.014 A 
HETATM   13  C   UNL     1     -10.476   3.077 -32.834  1.00  0.00     0.261 C 
HETATM   14  C   UNL     1     -11.515   1.491 -34.488  1.00  0.00     0.047 C 
HETATM   15  C   UNL     1     -13.961   2.045 -33.032  1.00  0.00    -0.049 A 
HETATM   16  C   UNL     1     -13.349   4.350 -32.614  1.00  0.00     0.011 A 
HETATM   17  C   UNL     1     -15.211   2.294 -32.445  1.00  0.00     0.007 A 
HETATM   18  C   UNL     1     -13.681   0.663 -33.568  1.00  0.00     0.039 C 
HETATM   19  C   UNL     1     -15.524   3.554 -31.941  1.00  0.00     0.001 A 
HETATM   20  C   UNL     1     -14.590   4.580 -32.021  1.00  0.00     0.001 A 
HETATM   21  C   UNL     1     -12.190   0.378 -33.697  1.00  0.00     0.008 C 
HETATM   22  O   UNL     1     -10.220   2.390 -31.851  1.00  0.00    -0.270 OA
ENDBRANCH   5   6
ENDBRANCH   1   5
BRANCH   2  23
HETATM   23  C   UNL     1      -6.940   0.875 -33.503  1.00  0.00     0.050 A 
HETATM   24  C   UNL     1      -5.784   0.310 -32.944  1.00  0.00     0.058 A 
HETATM   25  C   UNL     1      -5.320  -0.936 -33.419  1.00  0.00     0.019 A 
HETATM   26  C   UNL     1      -5.961  -1.600 -34.464  1.00  0.00     0.001 A 
HETATM   27  C   UNL     1      -7.070  -1.020 -35.058  1.00  0.00     0.002 A 
HETATM   28  C   UNL     1      -7.548   0.205 -34.587  1.00  0.00     0.030 A 
BRANCH  24  29
HETATM   29  C   UNL     1      -4.872   0.941 -31.958  1.00  0.00     0.254 C 
HETATM   30  N   UNL     1      -4.166   2.047 -32.386  1.00  0.00    -0.351 N 
HETATM   31  H   UNL     1      -4.469   2.535 -33.222  1.00  0.00     0.163 HD
HETATM   32  O   UNL     1      -4.689   0.395 -30.874  1.00  0.00    -0.268 OA
BRANCH  30  33
HETATM   33  C   UNL     1      -3.373   2.777 -31.427  1.00  0.00     0.187 C 
BRANCH  33  34
HETATM   34  C   UNL     1      -2.572   3.814 -32.120  1.00  0.00     0.070 A 
HETATM   35  O   UNL     1      -1.521   4.343 -31.430  1.00  0.00    -0.325 OA
HETATM   36  C   UNL     1      -0.897   5.218 -32.260  1.00  0.00     0.142 A 
HETATM   37  C   UNL     1      -1.542   5.271 -33.472  1.00  0.00     0.027 A 
HETATM   38  C   UNL     1      -2.625   4.365 -33.384  1.00  0.00     0.036 A 
ENDBRANCH  33  34
ENDBRANCH  30  33
ENDBRANCH  24  29
ENDBRANCH   2  23
TORSDOF 6
ENDMDL
MODEL 5
REMARK VINA RESULT:      -9.8      2.298      4.318
REMARK  6 active torsions:
REMARK  status: ('A' for Active; 'I' for Inactive)
REMARK    1  A    between atoms: N_9  and  C_10 
REMARK    2  A    between atoms: C_10  and  C_11 
REMARK       I    between atoms: C_11  and  N_12 
REMARK    3  A    between atoms: N_12  and  C_13 
REMARK    4  A    between atoms: C_14  and  C_15 
REMARK       I    between atoms: C_15  and  N_16 
REMARK    5  A    between atoms: N_16  and  C_17 
REMARK    6  A    between atoms: C_17  and  C_18 
ROOT
HETATM    1  C   UNL     1      -5.208   5.141 -31.133  1.00  0.00     0.240 C 
HETATM    2  N   UNL     1      -5.575   6.117 -30.217  1.00  0.00    -0.325 N 
HETATM    3  O   UNL     1      -4.089   4.667 -31.282  1.00  0.00    -0.271 OA
HETATM    4  H   UNL     1      -6.498   6.513 -30.345  1.00  0.00     0.169 HD
ENDROOT
BRANCH   1   5
HETATM    5  C   UNL     1      -6.396   4.662 -31.974  1.00  0.00     0.240 C 
BRANCH   5   6
HETATM    6  N   UNL     1      -6.522   3.224 -31.950  1.00  0.00    -0.259 N 
HETATM    7  C   UNL     1      -7.250   2.550 -31.021  1.00  0.00     0.326 C 
HETATM    8  N   UNL     1      -7.339   1.237 -31.397  1.00  0.00    -0.320 N 
HETATM    9  O   UNL     1      -7.786   3.019 -30.029  1.00  0.00    -0.247 OA
HETATM   10  C   UNL     1      -6.867   1.012 -32.749  1.00  0.00     0.144 C 
HETATM   11  H   UNL     1      -7.824   0.557 -30.829  1.00  0.00     0.165 HD
HETATM   12  C   UNL     1      -5.811  -0.076 -32.813  1.00  0.00    -0.014 A 
HETATM   13  C   UNL     1      -6.307   2.426 -33.045  1.00  0.00     0.261 C 
HETATM   14  C   UNL     1      -8.095   0.762 -33.650  1.00  0.00     0.047 C 
HETATM   15  C   UNL     1      -5.889  -1.117 -33.763  1.00  0.00    -0.049 A 
HETATM   16  C   UNL     1      -4.711  -0.053 -31.936  1.00  0.00     0.011 A 
HETATM   17  C   UNL     1      -4.910  -2.123 -33.779  1.00  0.00     0.007 A 
HETATM   18  C   UNL     1      -7.030  -1.210 -34.746  1.00  0.00     0.039 C 
HETATM   19  C   UNL     1      -3.840  -2.089 -32.889  1.00  0.00     0.001 A 
HETATM   20  C   UNL     1      -3.738  -1.051 -31.971  1.00  0.00     0.001 A 
HETATM   21  C   UNL     1      -7.707   0.134 -34.982  1.00  0.00     0.008 C 
HETATM   22  O   UNL     1      -5.848   2.804 -34.117  1.00  0.00    -0.270 OA
ENDBRANCH   5   6
ENDBRANCH   1   5
BRANCH   2  23
HETATM   23  C   UNL     1      -4.784   6.772 -29.245  1.00  0.00     0.050 A 
HETATM   24  C   UNL     1      -3.842   7.794 -29.434  1.00  0.00     0.058 A 
HETATM   25  C   UNL     1      -3.221   8.384 -28.312  1.00  0.00     0.019 A 
HETATM   26  C   UNL     1      -3.490   7.943 -27.017  1.00  0.00     0.001 A 
HETATM   27  C   UNL     1      -4.377   6.895 -26.827  1.00  0.00     0.002 A 
HETATM   28  C   UNL     1      -5.010   6.314 -27.928  1.00  0.00     0.030 A 
BRANCH  24  29
HETATM   29  C   UNL     1      -3.295   8.272 -30.728  1.00  0.00     0.254 C 
HETATM   30  N   UNL     1      -2.346   7.473 -31.334  1.00  0.00    -0.351 N 
HETATM   31  H   UNL     1      -2.249   6.508 -31.037  1.00  0.00     0.163 HD
HETATM   32  O   UNL     1      -3.604   9.389 -31.134  1.00  0.00    -0.268 OA
BRANCH  30  33
HETATM   33  C   UNL     1      -1.888   7.823 -32.656  1.00  0.00     0.187 C 
BRANCH  33  34
HETATM   34  C   UNL     1      -2.092   6.681 -33.579  1.00  0.00     0.070 A 
HETATM   35  O   UNL     1      -3.365   6.463 -34.018  1.00  0.00    -0.325 OA
HETATM   36  C   UNL     1      -3.317   5.421 -34.886  1.00  0.00     0.142 A 
HETATM   37  C   UNL     1      -2.029   4.954 -35.003  1.00  0.00     0.027 A 
HETATM   38  C   UNL     1      -1.236   5.767 -34.159  1.00  0.00     0.036 A 
ENDBRANCH  33  34
ENDBRANCH  30  33
ENDBRANCH  24  29
ENDBRANCH   2  23
TORSDOF 6
ENDMDL
MODEL 6
REMARK VINA RESULT:      -9.6      1.351      1.437
REMARK  6 active torsions:
REMARK  status: ('A' for Active; 'I' for Inactive)
REMARK    1  A    between atoms: N_9  and  C_10 
REMARK    2  A    between atoms: C_10  and  C_11 
REMARK       I    between atoms: C_11  and  N_12 
REMARK    3  A    between atoms: N_12  and  C_13 
REMARK    4  A    between atoms: C_14  and  C_15 
REMARK       I    between atoms: C_15  and  N_16 
REMARK    5  A    between atoms: N_16  and  C_17 
REMARK    6  A    between atoms: C_17  and  C_18 
ROOT
HETATM    1  C   UNL     1      -4.756   4.726 -31.632  1.00  0.00     0.240 C 
HETATM    2  N   UNL     1      -4.362   5.216 -32.869  1.00  0.00    -0.325 N 
HETATM    3  O   UNL     1      -4.046   4.584 -30.645  1.00  0.00    -0.271 OA
HETATM    4  H   UNL     1      -5.034   5.106 -33.618  1.00  0.00     0.169 HD
ENDROOT
BRANCH   1   5
HETATM    5  C   UNL     1      -6.249   4.380 -31.597  1.00  0.00     0.240 C 
BRANCH   5   6
HETATM    6  N   UNL     1      -6.472   2.960 -31.728  1.00  0.00    -0.259 N 
HETATM    7  C   UNL     1      -7.227   2.236 -30.859  1.00  0.00     0.326 C 
HETATM    8  N   UNL     1      -7.412   0.982 -31.374  1.00  0.00    -0.320 N 
HETATM    9  O   UNL     1      -7.710   2.626 -29.808  1.00  0.00    -0.247 OA
HETATM   10  C   UNL     1      -6.982   0.877 -32.754  1.00  0.00     0.144 C 
HETATM   11  H   UNL     1      -7.931   0.277 -30.871  1.00  0.00     0.165 HD
HETATM   12  C   UNL     1      -6.005  -0.264 -32.965  1.00  0.00    -0.014 A 
HETATM   13  C   UNL     1      -6.333   2.276 -32.909  1.00  0.00     0.261 C 
HETATM   14  C   UNL     1      -8.241   0.811 -33.644  1.00  0.00     0.047 C 
HETATM   15  C   UNL     1      -6.172  -1.186 -34.021  1.00  0.00    -0.049 A 
HETATM   16  C   UNL     1      -4.889  -0.410 -32.120  1.00  0.00     0.011 A 
HETATM   17  C   UNL     1      -5.264  -2.246 -34.173  1.00  0.00     0.007 A 
HETATM   18  C   UNL     1      -7.335  -1.094 -34.978  1.00  0.00     0.039 C 
HETATM   19  C   UNL     1      -4.177  -2.381 -33.313  1.00  0.00     0.001 A 
HETATM   20  C   UNL     1      -3.987  -1.460 -32.289  1.00  0.00     0.001 A 
HETATM   21  C   UNL     1      -7.923   0.310 -35.047  1.00  0.00     0.008 C 
HETATM   22  O   UNL     1      -5.869   2.740 -33.945  1.00  0.00    -0.270 OA
ENDBRANCH   5   6
ENDBRANCH   1   5
BRANCH   2  23
HETATM   23  C   UNL     1      -3.091   5.680 -33.282  1.00  0.00     0.050 A 
HETATM   24  C   UNL     1      -2.232   6.569 -32.618  1.00  0.00     0.058 A 
HETATM   25  C   UNL     1      -0.954   6.834 -33.159  1.00  0.00     0.019 A 
HETATM   26  C   UNL     1      -0.542   6.265 -34.362  1.00  0.00     0.001 A 
HETATM   27  C   UNL     1      -1.408   5.431 -35.051  1.00  0.00     0.002 A 
HETATM   28  C   UNL     1      -2.668   5.148 -34.519  1.00  0.00     0.030 A 
BRANCH  24  29
HETATM   29  C   UNL     1      -2.554   7.402 -31.434  1.00  0.00     0.254 C 
HETATM   30  N   UNL     1      -2.097   6.947 -30.213  1.00  0.00    -0.351 N 
HETATM   31  H   UNL     1      -1.366   6.244 -30.189  1.00  0.00     0.163 HD
HETATM   32  O   UNL     1      -3.303   8.366 -31.563  1.00  0.00    -0.268 OA
BRANCH  30  33
HETATM   33  C   UNL     1      -2.265   7.789 -29.053  1.00  0.00     0.187 C 
BRANCH  33  34
HETATM   34  C   UNL     1      -0.954   8.009 -28.397  1.00  0.00     0.070 A 
HETATM   35  O   UNL     1      -0.974   8.315 -27.068  1.00  0.00    -0.325 OA
HETATM   36  C   UNL     1       0.317   8.415 -26.660  1.00  0.00     0.142 A 
HETATM   37  C   UNL     1       1.171   8.191 -27.713  1.00  0.00     0.027 A 
HETATM   38  C   UNL     1       0.352   7.929 -28.837  1.00  0.00     0.036 A 
ENDBRANCH  33  34
ENDBRANCH  30  33
ENDBRANCH  24  29
ENDBRANCH   2  23
TORSDOF 6
ENDMDL
MODEL 7
REMARK VINA RESULT:      -9.4      4.377      8.809
REMARK  6 active torsions:
REMARK  status: ('A' for Active; 'I' for Inactive)
REMARK    1  A    between atoms: N_9  and  C_10 
REMARK    2  A    between atoms: C_10  and  C_11 
REMARK       I    between atoms: C_11  and  N_12 
REMARK    3  A    between atoms: N_12  and  C_13 
REMARK    4  A    between atoms: C_14  and  C_15 
REMARK       I    between atoms: C_15  and  N_16 
REMARK    5  A    between atoms: N_16  and  C_17 
REMARK    6  A    between atoms: C_17  and  C_18 
ROOT
HETATM    1  C   UNL     1      -7.379   4.833 -33.154  1.00  0.00     0.240 C 
HETATM    2  N   UNL     1      -6.857   4.109 -32.092  1.00  0.00    -0.325 N 
HETATM    3  O   UNL     1      -6.913   4.908 -34.283  1.00  0.00    -0.271 OA
HETATM    4  H   UNL     1      -7.274   4.295 -31.188  1.00  0.00     0.169 HD
ENDROOT
BRANCH   1   5
HETATM    5  C   UNL     1      -8.679   5.553 -32.779  1.00  0.00     0.240 C 
BRANCH   5   6
HETATM    6  N   UNL     1      -9.836   4.889 -33.330  1.00  0.00    -0.259 N 
HETATM    7  C   UNL     1     -10.262   5.063 -34.610  1.00  0.00     0.326 C 
HETATM    8  N   UNL     1     -11.242   4.144 -34.876  1.00  0.00    -0.320 N 
HETATM    9  O   UNL     1      -9.831   5.865 -35.422  1.00  0.00    -0.247 OA
HETATM   10  C   UNL     1     -11.355   3.134 -33.844  1.00  0.00     0.144 C 
HETATM   11  H   UNL     1     -11.709   4.117 -35.772  1.00  0.00     0.165 HD
HETATM   12  C   UNL     1     -12.771   3.011 -33.315  1.00  0.00    -0.014 A 
HETATM   13  C   UNL     1     -10.366   3.734 -32.812  1.00  0.00     0.261 C 
HETATM   14  C   UNL     1     -10.764   1.819 -34.394  1.00  0.00     0.047 C 
HETATM   15  C   UNL     1     -13.396   1.753 -33.180  1.00  0.00    -0.049 A 
HETATM   16  C   UNL     1     -13.486   4.158 -32.921  1.00  0.00     0.011 A 
HETATM   17  C   UNL     1     -14.717   1.676 -32.712  1.00  0.00     0.007 A 
HETATM   18  C   UNL     1     -12.697   0.474 -33.570  1.00  0.00     0.039 C 
HETATM   19  C   UNL     1     -15.411   2.826 -32.345  1.00  0.00     0.001 A 
HETATM   20  C   UNL     1     -14.793   4.067 -32.445  1.00  0.00     0.001 A 
HETATM   21  C   UNL     1     -11.180   0.613 -33.562  1.00  0.00     0.008 C 
HETATM   22  O   UNL     1     -10.027   3.211 -31.757  1.00  0.00    -0.270 OA
ENDBRANCH   5   6
ENDBRANCH   1   5
BRANCH   2  23
HETATM   23  C   UNL     1      -5.707   3.287 -32.051  1.00  0.00     0.050 A 
HETATM   24  C   UNL     1      -5.562   1.970 -32.515  1.00  0.00     0.058 A 
HETATM   25  C   UNL     1      -4.294   1.352 -32.466  1.00  0.00     0.019 A 
HETATM   26  C   UNL     1      -3.188   2.005 -31.925  1.00  0.00     0.001 A 
HETATM   27  C   UNL     1      -3.337   3.284 -31.413  1.00  0.00     0.002 A 
HETATM   28  C   UNL     1      -4.583   3.913 -31.470  1.00  0.00     0.030 A 
BRANCH  24  29
HETATM   29  C   UNL     1      -6.646   1.058 -32.957  1.00  0.00     0.254 C 
HETATM   30  N   UNL     1      -6.266  -0.044 -33.697  1.00  0.00    -0.351 N 
HETATM   31  H   UNL     1      -5.293  -0.332 -33.692  1.00  0.00     0.163 HD
HETATM   32  O   UNL     1      -7.816   1.376 -32.763  1.00  0.00    -0.268 OA
BRANCH  30  33
HETATM   33  C   UNL     1      -7.262  -1.032 -34.030  1.00  0.00     0.187 C 
BRANCH  33  34
HETATM   34  C   UNL     1      -6.604  -2.312 -34.382  1.00  0.00     0.070 A 
HETATM   35  O   UNL     1      -5.240  -2.316 -34.414  1.00  0.00    -0.325 OA
HETATM   36  C   UNL     1      -4.849  -3.585 -34.696  1.00  0.00     0.142 A 
HETATM   37  C   UNL     1      -5.944  -4.399 -34.860  1.00  0.00     0.027 A 
HETATM   38  C   UNL     1      -7.080  -3.578 -34.658  1.00  0.00     0.036 A 
ENDBRANCH  33  34
ENDBRANCH  30  33
ENDBRANCH  24  29
ENDBRANCH   2  23
TORSDOF 6
ENDMDL
MODEL 8
REMARK VINA RESULT:      -9.3      2.992      5.042
REMARK  6 active torsions:
REMARK  status: ('A' for Active; 'I' for Inactive)
REMARK    1  A    between atoms: N_9  and  C_10 
REMARK    2  A    between atoms: C_10  and  C_11 
REMARK       I    between atoms: C_11  and  N_12 
REMARK    3  A    between atoms: N_12  and  C_13 
REMARK    4  A    between atoms: C_14  and  C_15 
REMARK       I    between atoms: C_15  and  N_16 
REMARK    5  A    between atoms: N_16  and  C_17 
REMARK    6  A    between atoms: C_17  and  C_18 
ROOT
HETATM    1  C   UNL     1      -8.031   4.349 -32.943  1.00  0.00     0.240 C 
HETATM    2  N   UNL     1      -8.205   4.373 -31.566  1.00  0.00    -0.325 N 
HETATM    3  O   UNL     1      -7.498   5.215 -33.624  1.00  0.00    -0.271 OA
HETATM    4  H   UNL     1      -8.815   3.658 -31.190  1.00  0.00     0.169 HD
ENDROOT
BRANCH   1   5
HETATM    5  C   UNL     1      -8.571   3.060 -33.571  1.00  0.00     0.240 C 
BRANCH   5   6
HETATM    6  N   UNL     1      -7.919   1.890 -33.035  1.00  0.00    -0.259 N 
HETATM    7  C   UNL     1      -8.427   1.149 -32.014  1.00  0.00     0.326 C 
HETATM    8  N   UNL     1      -7.686   0.004 -31.889  1.00  0.00    -0.320 N 
HETATM    9  O   UNL     1      -9.406   1.412 -31.335  1.00  0.00    -0.247 OA
HETATM   10  C   UNL     1      -6.774  -0.193 -32.997  1.00  0.00     0.144 C 
HETATM   11  H   UNL     1      -7.887  -0.677 -31.171  1.00  0.00     0.165 HD
HETATM   12  C   UNL     1      -5.345  -0.405 -32.532  1.00  0.00    -0.014 A 
HETATM   13  C   UNL     1      -6.986   1.158 -33.726  1.00  0.00     0.261 C 
HETATM   14  C   UNL     1      -7.332  -1.329 -33.880  1.00  0.00     0.047 C 
HETATM   15  C   UNL     1      -4.562  -1.466 -33.034  1.00  0.00    -0.049 A 
HETATM   16  C   UNL     1      -4.761   0.476 -31.603  1.00  0.00     0.011 A 
HETATM   17  C   UNL     1      -3.252  -1.650 -32.564  1.00  0.00     0.007 A 
HETATM   18  C   UNL     1      -5.107  -2.449 -34.041  1.00  0.00     0.039 C 
HETATM   19  C   UNL     1      -2.701  -0.776 -31.630  1.00  0.00     0.001 A 
HETATM   20  C   UNL     1      -3.454   0.290 -31.154  1.00  0.00     0.001 A 
HETATM   21  C   UNL     1      -6.279  -1.882 -34.832  1.00  0.00     0.008 C 
HETATM   22  O   UNL     1      -6.490   1.478 -34.800  1.00  0.00    -0.270 OA
ENDBRANCH   5   6
ENDBRANCH   1   5
BRANCH   2  23
HETATM   23  C   UNL     1      -7.807   5.358 -30.633  1.00  0.00     0.050 A 
HETATM   24  C   UNL     1      -6.509   5.688 -30.216  1.00  0.00     0.058 A 
HETATM   25  C   UNL     1      -6.316   6.776 -29.337  1.00  0.00     0.019 A 
HETATM   26  C   UNL     1      -7.393   7.505 -28.837  1.00  0.00     0.001 A 
HETATM   27  C   UNL     1      -8.682   7.149 -29.199  1.00  0.00     0.002 A 
HETATM   28  C   UNL     1      -8.885   6.085 -30.081  1.00  0.00     0.030 A 
BRANCH  24  29
HETATM   29  C   UNL     1      -5.265   4.928 -30.495  1.00  0.00     0.254 C 
HETATM   30  N   UNL     1      -4.278   5.589 -31.198  1.00  0.00    -0.351 N 
HETATM   31  H   UNL     1      -4.313   6.601 -31.268  1.00  0.00     0.163 HD
HETATM   32  O   UNL     1      -5.213   3.735 -30.210  1.00  0.00    -0.268 OA
BRANCH  30  33
HETATM   33  C   UNL     1      -3.001   4.943 -31.373  1.00  0.00     0.187 C 
BRANCH  33  34
HETATM   34  C   UNL     1      -2.557   5.078 -32.781  1.00  0.00     0.070 A 
HETATM   35  O   UNL     1      -3.533   5.130 -33.733  1.00  0.00    -0.325 OA
HETATM   36  C   UNL     1      -2.918   5.311 -34.929  1.00  0.00     0.142 A 
HETATM   37  C   UNL     1      -1.554   5.363 -34.763  1.00  0.00     0.027 A 
HETATM   38  C   UNL     1      -1.319   5.212 -33.376  1.00  0.00     0.036 A 
ENDBRANCH  33  34
ENDBRANCH  30  33
ENDBRANCH  24  29
ENDBRANCH   2  23
TORSDOF 6
ENDMDL
MODEL 9
REMARK VINA RESULT:      -9.2      5.090      8.647
REMARK  6 active torsions:
REMARK  status: ('A' for Active; 'I' for Inactive)
REMARK    1  A    between atoms: N_9  and  C_10 
REMARK    2  A    between atoms: C_10  and  C_11 
REMARK       I    between atoms: C_11  and  N_12 
REMARK    3  A    between atoms: N_12  and  C_13 
REMARK    4  A    between atoms: C_14  and  C_15 
REMARK       I    between atoms: C_15  and  N_16 
REMARK    5  A    between atoms: N_16  and  C_17 
REMARK    6  A    between atoms: C_17  and  C_18 
ROOT
HETATM    1  C   UNL     1      -9.346   3.054 -31.175  1.00  0.00     0.240 C 
HETATM    2  N   UNL     1      -9.453   2.812 -32.537  1.00  0.00    -0.325 N 
HETATM    3  O   UNL     1     -10.271   3.214 -30.390  1.00  0.00    -0.271 OA
HETATM    4  H   UNL     1      -8.589   2.874 -33.062  1.00  0.00     0.169 HD
ENDROOT
BRANCH   1   5
HETATM    5  C   UNL     1      -7.888   3.078 -30.705  1.00  0.00     0.240 C 
BRANCH   5   6
HETATM    6  N   UNL     1      -7.013   2.416 -31.643  1.00  0.00    -0.259 N 
HETATM    7  C   UNL     1      -6.396   3.056 -32.673  1.00  0.00     0.326 C 
HETATM    8  N   UNL     1      -5.484   2.205 -33.238  1.00  0.00    -0.320 N 
HETATM    9  O   UNL     1      -6.572   4.210 -33.029  1.00  0.00    -0.247 OA
HETATM   10  C   UNL     1      -5.271   1.011 -32.445  1.00  0.00     0.144 C 
HETATM   11  H   UNL     1      -4.930   2.481 -34.036  1.00  0.00     0.165 HD
HETATM   12  C   UNL     1      -5.466  -0.256 -33.257  1.00  0.00    -0.014 A 
HETATM   13  C   UNL     1      -6.376   1.230 -31.380  1.00  0.00     0.261 C 
HETATM   14  C   UNL     1      -3.892   1.126 -31.765  1.00  0.00     0.047 C 
HETATM   15  C   UNL     1      -4.519  -1.303 -33.219  1.00  0.00    -0.049 A 
HETATM   16  C   UNL     1      -6.616  -0.425 -34.050  1.00  0.00     0.011 A 
HETATM   17  C   UNL     1      -4.715  -2.451 -34.002  1.00  0.00     0.007 A 
HETATM   18  C   UNL     1      -3.264  -1.208 -32.387  1.00  0.00     0.039 C 
HETATM   19  C   UNL     1      -5.853  -2.588 -34.793  1.00  0.00     0.001 A 
HETATM   20  C   UNL     1      -6.806  -1.576 -34.813  1.00  0.00     0.001 A 
HETATM   21  C   UNL     1      -3.400  -0.216 -31.239  1.00  0.00     0.008 C 
HETATM   22  O   UNL     1      -6.577   0.521 -30.401  1.00  0.00    -0.270 OA
ENDBRANCH   5   6
ENDBRANCH   1   5
BRANCH   2  23
HETATM   23  C   UNL     1     -10.615   2.675 -33.331  1.00  0.00     0.050 A 
HETATM   24  C   UNL     1     -11.335   3.676 -34.000  1.00  0.00     0.058 A 
HETATM   25  C   UNL     1     -12.423   3.316 -34.825  1.00  0.00     0.019 A 
HETATM   26  C   UNL     1     -12.829   1.990 -34.955  1.00  0.00     0.001 A 
HETATM   27  C   UNL     1     -12.158   1.002 -34.252  1.00  0.00     0.002 A 
HETATM   28  C   UNL     1     -11.070   1.343 -33.445  1.00  0.00     0.030 A 
BRANCH  24  29
HETATM   29  C   UNL     1     -11.170   5.143 -33.849  1.00  0.00     0.254 C 
HETATM   30  N   UNL     1     -11.428   5.914 -34.964  1.00  0.00    -0.351 N 
HETATM   31  H   UNL     1     -11.953   5.512 -35.734  1.00  0.00     0.163 HD
HETATM   32  O   UNL     1     -10.700   5.590 -32.807  1.00  0.00    -0.268 OA
BRANCH  30  33
HETATM   33  C   UNL     1     -11.417   7.351 -34.831  1.00  0.00     0.187 C 
BRANCH  33  34
HETATM   34  C   UNL     1     -11.327   7.980 -36.170  1.00  0.00     0.070 A 
HETATM   35  O   UNL     1     -12.505   8.276 -36.791  1.00  0.00    -0.325 OA
HETATM   36  C   UNL     1     -12.197   8.891 -37.961  1.00  0.00     0.142 A 
HETATM   37  C   UNL     1     -10.834   8.984 -38.110  1.00  0.00     0.027 A 
HETATM   38  C   UNL     1     -10.270   8.395 -36.953  1.00  0.00     0.036 A 
ENDBRANCH  33  34
ENDBRANCH  30  33
ENDBRANCH  24  29
ENDBRANCH   2  23
TORSDOF 6
ENDMDL
MODEL 10
REMARK VINA RESULT:      -9.2      3.455      8.916
REMARK  6 active torsions:
REMARK  status: ('A' for Active; 'I' for Inactive)
REMARK    1  A    between atoms: N_9  and  C_10 
REMARK    2  A    between atoms: C_10  and  C_11 
REMARK       I    between atoms: C_11  and  N_12 
REMARK    3  A    between atoms: N_12  and  C_13 
REMARK    4  A    between atoms: C_14  and  C_15 
REMARK       I    between atoms: C_15  and  N_16 
REMARK    5  A    between atoms: N_16  and  C_17 
REMARK    6  A    between atoms: C_17  and  C_18 
ROOT
HETATM    1  C   UNL     1      -9.820   5.389 -32.917  1.00  0.00     0.240 C 
HETATM    2  N   UNL     1      -9.827   4.516 -33.994  1.00  0.00    -0.325 N 
HETATM    3  O   UNL     1     -10.528   5.321 -31.920  1.00  0.00    -0.271 OA
HETATM    4  H   UNL     1      -9.300   4.817 -34.805  1.00  0.00     0.169 HD
ENDROOT
BRANCH   1   5
HETATM    5  C   UNL     1      -8.773   6.497 -33.077  1.00  0.00     0.240 C 
BRANCH   5   6
HETATM    6  N   UNL     1      -7.512   6.131 -32.477  1.00  0.00    -0.259 N 
HETATM    7  C   UNL     1      -7.268   6.204 -31.141  1.00  0.00     0.326 C 
HETATM    8  N   UNL     1      -6.070   5.595 -30.879  1.00  0.00    -0.320 N 
HETATM    9  O   UNL     1      -7.996   6.686 -30.289  1.00  0.00    -0.247 OA
HETATM   10  C   UNL     1      -5.558   4.858 -32.017  1.00  0.00     0.144 C 
HETATM   11  H   UNL     1      -5.692   5.557 -29.943  1.00  0.00     0.165 HD
HETATM   12  C   UNL     1      -4.139   5.264 -32.370  1.00  0.00    -0.014 A 
HETATM   13  C   UNL     1      -6.601   5.298 -33.075  1.00  0.00     0.261 C 
HETATM   14  C   UNL     1      -5.738   3.352 -31.734  1.00  0.00     0.047 C 
HETATM   15  C   UNL     1      -3.136   4.297 -32.594  1.00  0.00    -0.049 A 
HETATM   16  C   UNL     1      -3.800   6.623 -32.507  1.00  0.00     0.011 A 
HETATM   17  C   UNL     1      -1.826   4.705 -32.893  1.00  0.00     0.007 A 
HETATM   18  C   UNL     1      -3.417   2.819 -32.478  1.00  0.00     0.039 C 
HETATM   19  C   UNL     1      -1.510   6.057 -33.006  1.00  0.00     0.001 A 
HETATM   20  C   UNL     1      -2.499   7.015 -32.817  1.00  0.00     0.001 A 
HETATM   21  C   UNL     1      -4.893   2.491 -32.663  1.00  0.00     0.008 C 
HETATM   22  O   UNL     1      -6.670   4.885 -34.228  1.00  0.00    -0.270 OA
ENDBRANCH   5   6
ENDBRANCH   1   5
BRANCH   2  23
HETATM   23  C   UNL     1     -10.609   3.356 -34.199  1.00  0.00     0.050 A 
HETATM   24  C   UNL     1     -10.482   2.101 -33.584  1.00  0.00     0.058 A 
HETATM   25  C   UNL     1     -11.431   1.092 -33.860  1.00  0.00     0.019 A 
HETATM   26  C   UNL     1     -12.469   1.300 -34.766  1.00  0.00     0.001 A 
HETATM   27  C   UNL     1     -12.567   2.517 -35.420  1.00  0.00     0.002 A 
HETATM   28  C   UNL     1     -11.644   3.529 -35.144  1.00  0.00     0.030 A 
BRANCH  24  29
HETATM   29  C   UNL     1      -9.357   1.635 -32.737  1.00  0.00     0.254 C 
HETATM   30  N   UNL     1      -8.767   0.438 -33.092  1.00  0.00    -0.351 N 
HETATM   31  H   UNL     1      -8.927   0.065 -34.022  1.00  0.00     0.163 HD
HETATM   32  O   UNL     1      -9.085   2.247 -31.708  1.00  0.00    -0.268 OA
BRANCH  30  33
HETATM   33  C   UNL     1      -7.584   0.012 -32.386  1.00  0.00     0.187 C 
BRANCH  33  34
HETATM   34  C   UNL     1      -6.760  -0.855 -33.262  1.00  0.00     0.070 A 
HETATM   35  O   UNL     1      -5.462  -1.051 -32.890  1.00  0.00    -0.325 OA
HETATM   36  C   UNL     1      -4.913  -1.911 -33.785  1.00  0.00     0.142 A 
HETATM   37  C   UNL     1      -5.838  -2.263 -34.739  1.00  0.00     0.027 A 
HETATM   38  C   UNL     1      -7.032  -1.581 -34.404  1.00  0.00     0.036 A 
ENDBRANCH  33  34
ENDBRANCH  30  33
ENDBRANCH  24  29
ENDBRANCH   2  23
TORSDOF 6
ENDMDL
