MODEL 1
REMARK VINA RESULT:     -10.2      0.000      0.000
REMARK  10 active torsions:
REMARK  status: ('A' for Active; 'I' for Inactive)
REMARK    1  A    between atoms: C_2  and  C_5 
REMARK    2  A    between atoms: C_5  and  C_6 
REMARK    3  A    between atoms: C_6  and  N_7 
REMARK    4  A    between atoms: N_7  and  C_10 
REMARK    5  A    between atoms: C_16  and  N_17 
REMARK       I    between atoms: N_17  and  C_18 
REMARK    6  A    between atoms: C_18  and  C_20 
REMARK    7  A    between atoms: C_24  and  C_25 
REMARK    8  A    between atoms: C_25  and  O_26 
REMARK    9  A    between atoms: O_26  and  C_27 
REMARK       I    between atoms: C_27  and  N_29 
REMARK   10  A    between atoms: N_29  and  C_30 
ROOT
HETATM    1  C   UNL     1     -11.949   1.680 -33.880  1.00  0.00     0.036 A 
HETATM    2  C   UNL     1     -12.909   0.690 -34.106  1.00  0.00     0.031 A 
HETATM    3  C   UNL     1     -14.220   0.855 -33.643  1.00  0.00     0.025 A 
HETATM    4  C   UNL     1     -14.584   2.015 -32.954  1.00  0.00     0.044 A 
HETATM    5  C   UNL     1     -13.631   3.010 -32.731  1.00  0.00     0.025 A 
HETATM    6  C   UNL     1     -12.320   2.841 -33.189  1.00  0.00     0.031 A 
HETATM    7  C   UNL     1     -15.926   2.174 -32.477  1.00  0.00     0.099 C 
HETATM    8  N   UNL     1     -17.014   2.283 -32.088  1.00  0.00    -0.191 NA
ENDROOT
BRANCH   1   9
HETATM    9  N   UNL     1     -10.613   1.579 -34.299  1.00  0.00    -0.303 N 
HETATM   10  C   UNL     1      -9.610   0.822 -33.767  1.00  0.00     0.365 C 
HETATM   11  O   UNL     1      -9.674   0.043 -32.826  1.00  0.00    -0.238 OA
HETATM   12  H   UNL     1     -10.334   2.104 -35.118  1.00  0.00     0.171 HD
BRANCH  10  13
HETATM   13  O   UNL     1      -8.474   1.073 -34.471  1.00  0.00    -0.299 OA
BRANCH  13  14
HETATM   14  C   UNL     1      -7.853  -0.067 -35.078  1.00  0.00     0.219 C 
BRANCH  14  15
HETATM   15  C   UNL     1      -6.569  -0.442 -34.377  1.00  0.00    -0.033 A 
HETATM   16  C   UNL     1      -6.075  -1.750 -34.432  1.00  0.00     0.009 A 
HETATM   17  C   UNL     1      -4.873  -2.082 -33.803  1.00  0.00     0.002 A 
HETATM   18  C   UNL     1      -4.141  -1.107 -33.120  1.00  0.00     0.017 A 
HETATM   19  C   UNL     1      -4.618   0.208 -33.073  1.00  0.00     0.033 A 
HETATM   20  C   UNL     1      -5.835   0.532 -33.685  1.00  0.00     0.026 A 
BRANCH  19  21
HETATM   21  C   UNL     1      -3.895   1.291 -32.365  1.00  0.00     0.257 C 
HETATM   22  N   UNL     1      -4.148   2.631 -32.782  1.00  0.00    -0.303 N 
HETATM   23  H   UNL     1      -4.784   2.828 -33.534  1.00  0.00     0.171 HD
HETATM   24  O   UNL     1      -3.090   1.064 -31.482  1.00  0.00    -0.267 OA
BRANCH  22  25
HETATM   25  C   UNL     1      -3.597   3.690 -32.199  1.00  0.00     0.152 A 
HETATM   26  N   UNL     1      -2.305   4.014 -32.419  1.00  0.00    -0.339 N 
HETATM   27  C   UNL     1      -1.881   5.109 -31.697  1.00  0.00     0.024 A 
HETATM   28  H   UNL     1      -1.729   3.462 -33.051  1.00  0.00     0.168 HD
HETATM   29  C   UNL     1      -0.464   5.549 -31.725  1.00  0.00     0.060 C 
HETATM   30  C   UNL     1      -2.862   5.682 -30.934  1.00  0.00     0.011 A 
HETATM   31  C   UNL     1      -0.303   6.924 -31.036  1.00  0.00     0.039 C 
HETATM   32  C   UNL     1      -1.179   7.137 -29.775  1.00  0.00     0.191 C 
HETATM   33  C   UNL     1      -2.687   6.906 -30.087  1.00  0.00     0.081 C 
HETATM   34  S   UNL     1      -4.330   4.842 -31.104  1.00  0.00    -0.056 SA
BRANCH  32  35
HETATM   35  N   UNL     1      -0.769   6.217 -28.633  1.00  0.00    -0.070 N 
HETATM   36  H   UNL     1      -1.043   5.242 -28.815  1.00  0.00     0.277 HD
HETATM   37  H   UNL     1      -1.323   6.499 -27.805  1.00  0.00     0.277 HD
BRANCH  35  38
HETATM   38  C   UNL     1       0.686   6.268 -28.220  1.00  0.00     0.241 C 
BRANCH  38  39
HETATM   39  C   UNL     1       0.822   7.106 -26.961  1.00  0.00     0.144 C 
BRANCH  39  40
HETATM   40  C   UNL     1       1.335   8.474 -27.341  1.00  0.00     0.389 C 
HETATM   41  F   UNL     1       1.785   8.463 -28.610  1.00  0.00    -0.171 F 
HETATM   42  F   UNL     1       2.359   8.812 -26.532  1.00  0.00    -0.171 F 
HETATM   43  F   UNL     1       0.368   9.397 -27.225  1.00  0.00    -0.171 F 
ENDBRANCH  39  40
ENDBRANCH  38  39
ENDBRANCH  35  38
ENDBRANCH  32  35
ENDBRANCH  22  25
ENDBRANCH  19  21
ENDBRANCH  14  15
ENDBRANCH  13  14
ENDBRANCH  10  13
ENDBRANCH   1   9
TORSDOF 10
ENDMDL
MODEL 2
REMARK VINA RESULT:      -9.3      1.999      2.511
REMARK  10 active torsions:
REMARK  status: ('A' for Active; 'I' for Inactive)
REMARK    1  A    between atoms: C_2  and  C_5 
REMARK    2  A    between atoms: C_5  and  C_6 
REMARK    3  A    between atoms: C_6  and  N_7 
REMARK    4  A    between atoms: N_7  and  C_10 
REMARK    5  A    between atoms: C_16  and  N_17 
REMARK       I    between atoms: N_17  and  C_18 
REMARK    6  A    between atoms: C_18  and  C_20 
REMARK    7  A    between atoms: C_24  and  C_25 
REMARK    8  A    between atoms: C_25  and  O_26 
REMARK    9  A    between atoms: O_26  and  C_27 
REMARK       I    between atoms: C_27  and  N_29 
REMARK   10  A    between atoms: N_29  and  C_30 
ROOT
HETATM    1  C   UNL     1     -10.839   3.427 -34.958  1.00  0.00     0.036 A 
HETATM    2  C   UNL     1     -12.198   3.594 -35.234  1.00  0.00     0.031 A 
HETATM    3  C   UNL     1     -12.729   4.875 -35.431  1.00  0.00     0.025 A 
HETATM    4  C   UNL     1     -11.903   6.000 -35.359  1.00  0.00     0.044 A 
HETATM    5  C   UNL     1     -10.543   5.838 -35.090  1.00  0.00     0.025 A 
HETATM    6  C   UNL     1     -10.016   4.558 -34.887  1.00  0.00     0.031 A 
HETATM    7  C   UNL     1     -12.454   7.308 -35.555  1.00  0.00     0.099 C 
HETATM    8  N   UNL     1     -12.918   8.361 -35.705  1.00  0.00    -0.191 NA
ENDROOT
BRANCH   1   9
HETATM    9  N   UNL     1     -10.238   2.178 -34.734  1.00  0.00    -0.303 N 
HETATM   10  C   UNL     1      -9.821   1.635 -33.553  1.00  0.00     0.365 C 
HETATM   11  O   UNL     1      -9.912   2.114 -32.431  1.00  0.00    -0.238 OA
HETATM   12  H   UNL     1     -10.111   1.565 -35.529  1.00  0.00     0.171 HD
BRANCH  10  13
HETATM   13  O   UNL     1      -9.261   0.425 -33.821  1.00  0.00    -0.299 OA
BRANCH  13  14
HETATM   14  C   UNL     1      -8.182   0.434 -34.765  1.00  0.00     0.219 C 
BRANCH  14  15
HETATM   15  C   UNL     1      -6.886  -0.015 -34.133  1.00  0.00    -0.033 A 
HETATM   16  C   UNL     1      -6.482  -1.354 -34.197  1.00  0.00     0.009 A 
HETATM   17  C   UNL     1      -5.269  -1.757 -33.633  1.00  0.00     0.002 A 
HETATM   18  C   UNL     1      -4.437  -0.824 -33.009  1.00  0.00     0.017 A 
HETATM   19  C   UNL     1      -4.823   0.520 -32.955  1.00  0.00     0.033 A 
HETATM   20  C   UNL     1      -6.051   0.916 -33.501  1.00  0.00     0.026 A 
BRANCH  19  21
HETATM   21  C   UNL     1      -3.991   1.561 -32.308  1.00  0.00     0.257 C 
HETATM   22  N   UNL     1      -4.229   2.917 -32.679  1.00  0.00    -0.303 N 
HETATM   23  H   UNL     1      -4.929   3.152 -33.361  1.00  0.00     0.171 HD
HETATM   24  O   UNL     1      -3.113   1.288 -31.513  1.00  0.00    -0.267 OA
BRANCH  22  25
HETATM   25  C   UNL     1      -3.582   3.944 -32.138  1.00  0.00     0.152 A 
HETATM   26  N   UNL     1      -2.249   4.089 -32.298  1.00  0.00    -0.339 N 
HETATM   27  C   UNL     1      -1.730   5.177 -31.631  1.00  0.00     0.024 A 
HETATM   28  H   UNL     1      -1.714   3.423 -32.852  1.00  0.00     0.168 HD
HETATM   29  C   UNL     1      -0.269   5.438 -31.600  1.00  0.00     0.060 C 
HETATM   30  C   UNL     1      -2.670   5.924 -30.974  1.00  0.00     0.011 A 
HETATM   31  C   UNL     1       0.028   6.832 -31.001  1.00  0.00     0.039 C 
HETATM   32  C   UNL     1      -0.882   7.249 -29.817  1.00  0.00     0.191 C 
HETATM   33  C   UNL     1      -2.388   7.180 -30.207  1.00  0.00     0.081 C 
HETATM   34  S   UNL     1      -4.221   5.259 -31.178  1.00  0.00    -0.056 SA
BRANCH  32  35
HETATM   35  N   UNL     1      -0.654   6.379 -28.588  1.00  0.00    -0.070 N 
HETATM   36  H   UNL     1      -0.927   5.401 -28.761  1.00  0.00     0.277 HD
HETATM   37  H   UNL     1      -1.307   6.712 -27.858  1.00  0.00     0.277 HD
BRANCH  35  38
HETATM   38  C   UNL     1       0.733   6.421 -27.984  1.00  0.00     0.241 C 
BRANCH  38  39
HETATM   39  C   UNL     1       0.713   7.295 -26.743  1.00  0.00     0.144 C 
BRANCH  39  40
HETATM   40  C   UNL     1       1.535   8.534 -27.008  1.00  0.00     0.389 C 
HETATM   41  F   UNL     1       2.633   8.534 -26.229  1.00  0.00    -0.171 F 
HETATM   42  F   UNL     1       0.807   9.629 -26.713  1.00  0.00    -0.171 F 
HETATM   43  F   UNL     1       1.908   8.595 -28.295  1.00  0.00    -0.171 F 
ENDBRANCH  39  40
ENDBRANCH  38  39
ENDBRANCH  35  38
ENDBRANCH  32  35
ENDBRANCH  22  25
ENDBRANCH  19  21
ENDBRANCH  14  15
ENDBRANCH  13  14
ENDBRANCH  10  13
ENDBRANCH   1   9
TORSDOF 10
ENDMDL
MODEL 3
REMARK VINA RESULT:      -9.0      6.323     13.451
REMARK  10 active torsions:
REMARK  status: ('A' for Active; 'I' for Inactive)
REMARK    1  A    between atoms: C_2  and  C_5 
REMARK    2  A    between atoms: C_5  and  C_6 
REMARK    3  A    between atoms: C_6  and  N_7 
REMARK    4  A    between atoms: N_7  and  C_10 
REMARK    5  A    between atoms: C_16  and  N_17 
REMARK       I    between atoms: N_17  and  C_18 
REMARK    6  A    between atoms: C_18  and  C_20 
REMARK    7  A    between atoms: C_24  and  C_25 
REMARK    8  A    between atoms: C_25  and  O_26 
REMARK    9  A    between atoms: O_26  and  C_27 
REMARK       I    between atoms: C_27  and  N_29 
REMARK   10  A    between atoms: N_29  and  C_30 
ROOT
HETATM    1  C   UNL     1       0.777   8.957 -25.354  1.00  0.00     0.036 A 
HETATM    2  C   UNL     1       2.092   8.641 -25.706  1.00  0.00     0.031 A 
HETATM    3  C   UNL     1       3.155   8.992 -24.865  1.00  0.00     0.025 A 
HETATM    4  C   UNL     1       2.912   9.657 -23.661  1.00  0.00     0.044 A 
HETATM    5  C   UNL     1       1.600   9.970 -23.300  1.00  0.00     0.025 A 
HETATM    6  C   UNL     1       0.540   9.624 -24.145  1.00  0.00     0.031 A 
HETATM    7  C   UNL     1       4.006  10.018 -22.808  1.00  0.00     0.099 C 
HETATM    8  N   UNL     1       4.903  10.313 -22.133  1.00  0.00    -0.191 NA
ENDROOT
BRANCH   1   9
HETATM    9  N   UNL     1      -0.337   8.654 -26.152  1.00  0.00    -0.303 N 
HETATM   10  C   UNL     1      -0.885   7.432 -26.418  1.00  0.00     0.365 C 
HETATM   11  O   UNL     1      -0.536   6.342 -25.988  1.00  0.00    -0.238 OA
HETATM   12  H   UNL     1      -0.838   9.424 -26.576  1.00  0.00     0.171 HD
BRANCH  10  13
HETATM   13  O   UNL     1      -1.927   7.616 -27.273  1.00  0.00    -0.299 OA
BRANCH  13  14
HETATM   14  C   UNL     1      -1.624   8.334 -28.476  1.00  0.00     0.219 C 
BRANCH  14  15
HETATM   15  C   UNL     1      -1.076   7.420 -29.547  1.00  0.00    -0.033 A 
HETATM   16  C   UNL     1       0.258   7.519 -29.962  1.00  0.00     0.009 A 
HETATM   17  C   UNL     1       0.764   6.653 -30.934  1.00  0.00     0.002 A 
HETATM   18  C   UNL     1      -0.052   5.667 -31.495  1.00  0.00     0.017 A 
HETATM   19  C   UNL     1      -1.381   5.549 -31.075  1.00  0.00     0.033 A 
HETATM   20  C   UNL     1      -1.892   6.434 -30.117  1.00  0.00     0.026 A 
BRANCH  19  21
HETATM   21  C   UNL     1      -2.302   4.529 -31.628  1.00  0.00     0.257 C 
HETATM   22  N   UNL     1      -3.571   4.375 -30.994  1.00  0.00    -0.303 N 
HETATM   23  H   UNL     1      -3.822   4.933 -30.196  1.00  0.00     0.171 HD
HETATM   24  O   UNL     1      -1.995   3.819 -32.566  1.00  0.00    -0.267 OA
BRANCH  22  25
HETATM   25  C   UNL     1      -4.500   3.528 -31.422  1.00  0.00     0.152 A 
HETATM   26  N   UNL     1      -4.611   2.290 -30.894  1.00  0.00    -0.339 N 
HETATM   27  C   UNL     1      -5.592   1.525 -31.487  1.00  0.00     0.024 A 
HETATM   28  H   UNL     1      -3.995   1.986 -30.143  1.00  0.00     0.168 HD
HETATM   29  C   UNL     1      -5.790   0.102 -31.115  1.00  0.00     0.060 C 
HETATM   30  C   UNL     1      -6.292   2.181 -32.463  1.00  0.00     0.011 A 
HETATM   31  C   UNL     1      -7.090  -0.453 -31.739  1.00  0.00     0.039 C 
HETATM   32  C   UNL     1      -7.400   0.046 -33.174  1.00  0.00     0.191 C 
HETATM   33  C   UNL     1      -7.437   1.601 -33.237  1.00  0.00     0.081 C 
HETATM   34  S   UNL     1      -5.716   3.769 -32.657  1.00  0.00    -0.056 SA
BRANCH  32  35
HETATM   35  N   UNL     1      -6.382  -0.462 -34.186  1.00  0.00    -0.070 N 
HETATM   36  H   UNL     1      -5.445  -0.552 -33.768  1.00  0.00     0.277 HD
HETATM   37  H   UNL     1      -6.282   0.273 -34.907  1.00  0.00     0.277 HD
BRANCH  35  38
HETATM   38  C   UNL     1      -6.740  -1.740 -34.914  1.00  0.00     0.241 C 
BRANCH  38  39
HETATM   39  C   UNL     1      -5.636  -2.760 -34.708  1.00  0.00     0.144 C 
BRANCH  39  40
HETATM   40  C   UNL     1      -6.230  -4.146 -34.809  1.00  0.00     0.389 C 
HETATM   41  F   UNL     1      -6.411  -4.477 -36.101  1.00  0.00    -0.171 F 
HETATM   42  F   UNL     1      -7.430  -4.167 -34.195  1.00  0.00    -0.171 F 
HETATM   43  F   UNL     1      -5.430  -5.053 -34.229  1.00  0.00    -0.171 F 
ENDBRANCH  39  40
ENDBRANCH  38  39
ENDBRANCH  35  38
ENDBRANCH  32  35
ENDBRANCH  22  25
ENDBRANCH  19  21
ENDBRANCH  14  15
ENDBRANCH  13  14
ENDBRANCH  10  13
ENDBRANCH   1   9
TORSDOF 10
ENDMDL
MODEL 4
REMARK VINA RESULT:      -9.0      5.686     13.311
REMARK  10 active torsions:
REMARK  status: ('A' for Active; 'I' for Inactive)
REMARK    1  A    between atoms: C_2  and  C_5 
REMARK    2  A    between atoms: C_5  and  C_6 
REMARK    3  A    between atoms: C_6  and  N_7 
REMARK    4  A    between atoms: N_7  and  C_10 
REMARK    5  A    between atoms: C_16  and  N_17 
REMARK       I    between atoms: N_17  and  C_18 
REMARK    6  A    between atoms: C_18  and  C_20 
REMARK    7  A    between atoms: C_24  and  C_25 
REMARK    8  A    between atoms: C_25  and  O_26 
REMARK    9  A    between atoms: O_26  and  C_27 
REMARK       I    between atoms: C_27  and  N_29 
REMARK   10  A    between atoms: N_29  and  C_30 
ROOT
HETATM    1  C   UNL     1       0.431   8.782 -25.652  1.00  0.00     0.036 A 
HETATM    2  C   UNL     1       1.754   8.446 -25.949  1.00  0.00     0.031 A 
HETATM    3  C   UNL     1       2.805   8.942 -25.168  1.00  0.00     0.025 A 
HETATM    4  C   UNL     1       2.541   9.775 -24.077  1.00  0.00     0.044 A 
HETATM    5  C   UNL     1       1.221  10.109 -23.771  1.00  0.00     0.025 A 
HETATM    6  C   UNL     1       0.172   9.618 -24.557  1.00  0.00     0.031 A 
HETATM    7  C   UNL     1       3.621  10.284 -23.286  1.00  0.00     0.099 C 
HETATM    8  N   UNL     1       4.508  10.696 -22.661  1.00  0.00    -0.191 NA
ENDROOT
BRANCH   1   9
HETATM    9  N   UNL     1      -0.672   8.338 -26.398  1.00  0.00    -0.303 N 
HETATM   10  C   UNL     1      -1.088   7.057 -26.619  1.00  0.00     0.365 C 
HETATM   11  O   UNL     1      -0.602   6.023 -26.184  1.00  0.00    -0.238 OA
HETATM   12  H   UNL     1      -1.272   9.037 -26.815  1.00  0.00     0.171 HD
BRANCH  10  13
HETATM   13  O   UNL     1      -2.176   7.103 -27.434  1.00  0.00    -0.299 OA
BRANCH  13  14
HETATM   14  C   UNL     1      -2.020   7.867 -28.637  1.00  0.00     0.219 C 
BRANCH  14  15
HETATM   15  C   UNL     1      -1.367   7.055 -29.731  1.00  0.00    -0.033 A 
HETATM   16  C   UNL     1      -0.023   7.252 -30.068  1.00  0.00     0.009 A 
HETATM   17  C   UNL     1       0.580   6.479 -31.063  1.00  0.00     0.002 A 
HETATM   18  C   UNL     1      -0.149   5.488 -31.726  1.00  0.00     0.017 A 
HETATM   19  C   UNL     1      -1.489   5.272 -31.385  1.00  0.00     0.033 A 
HETATM   20  C   UNL     1      -2.096   6.064 -30.403  1.00  0.00     0.026 A 
BRANCH  19  21
HETATM   21  C   UNL     1      -2.321   4.240 -32.047  1.00  0.00     0.257 C 
HETATM   22  N   UNL     1      -3.250   3.524 -31.236  1.00  0.00    -0.303 N 
HETATM   23  H   UNL     1      -3.326   3.708 -30.250  1.00  0.00     0.171 HD
HETATM   24  O   UNL     1      -2.210   3.979 -33.229  1.00  0.00    -0.267 OA
BRANCH  22  25
HETATM   25  C   UNL     1      -4.082   2.608 -31.718  1.00  0.00     0.152 A 
HETATM   26  N   UNL     1      -4.765   2.822 -32.863  1.00  0.00    -0.339 N 
HETATM   27  C   UNL     1      -5.621   1.793 -33.193  1.00  0.00     0.024 A 
HETATM   28  H   UNL     1      -4.643   3.683 -33.391  1.00  0.00     0.168 HD
HETATM   29  C   UNL     1      -6.535   1.894 -34.358  1.00  0.00     0.060 C 
HETATM   30  C   UNL     1      -5.580   0.738 -32.323  1.00  0.00     0.011 A 
HETATM   31  C   UNL     1      -7.205   0.532 -34.651  1.00  0.00     0.039 C 
HETATM   32  C   UNL     1      -7.598  -0.294 -33.399  1.00  0.00     0.191 C 
HETATM   33  C   UNL     1      -6.373  -0.526 -32.465  1.00  0.00     0.081 C 
HETATM   34  S   UNL     1      -4.471   1.030 -31.068  1.00  0.00    -0.056 SA
BRANCH  32  35
HETATM   35  N   UNL     1      -8.704   0.379 -32.597  1.00  0.00    -0.070 N 
HETATM   36  H   UNL     1      -8.590   1.403 -32.580  1.00  0.00     0.277 HD
HETATM   37  H   UNL     1      -8.587   0.082 -31.613  1.00  0.00     0.277 HD
BRANCH  35  38
HETATM   38  C   UNL     1     -10.124   0.031 -32.990  1.00  0.00     0.241 C 
BRANCH  38  39
HETATM   39  C   UNL     1     -10.922   1.310 -33.168  1.00  0.00     0.144 C 
BRANCH  39  40
HETATM   40  C   UNL     1     -12.283   0.959 -33.722  1.00  0.00     0.389 C 
HETATM   41  F   UNL     1     -13.212   1.799 -33.228  1.00  0.00    -0.171 F 
HETATM   42  F   UNL     1     -12.609  -0.296 -33.354  1.00  0.00    -0.171 F 
HETATM   43  F   UNL     1     -12.289   1.034 -35.062  1.00  0.00    -0.171 F 
ENDBRANCH  39  40
ENDBRANCH  38  39
ENDBRANCH  35  38
ENDBRANCH  32  35
ENDBRANCH  22  25
ENDBRANCH  19  21
ENDBRANCH  14  15
ENDBRANCH  13  14
ENDBRANCH  10  13
ENDBRANCH   1   9
TORSDOF 10
ENDMDL
MODEL 5
REMARK VINA RESULT:      -8.9      2.636      3.384
REMARK  10 active torsions:
REMARK  status: ('A' for Active; 'I' for Inactive)
REMARK    1  A    between atoms: C_2  and  C_5 
REMARK    2  A    between atoms: C_5  and  C_6 
REMARK    3  A    between atoms: C_6  and  N_7 
REMARK    4  A    between atoms: N_7  and  C_10 
REMARK    5  A    between atoms: C_16  and  N_17 
REMARK       I    between atoms: N_17  and  C_18 
REMARK    6  A    between atoms: C_18  and  C_20 
REMARK    7  A    between atoms: C_24  and  C_25 
REMARK    8  A    between atoms: C_25  and  O_26 
REMARK    9  A    between atoms: O_26  and  C_27 
REMARK       I    between atoms: C_27  and  N_29 
REMARK   10  A    between atoms: N_29  and  C_30 
ROOT
HETATM    1  C   UNL     1      -9.128   3.180 -30.815  1.00  0.00     0.036 A 
HETATM    2  C   UNL     1     -10.329   3.889 -30.904  1.00  0.00     0.031 A 
HETATM    3  C   UNL     1     -10.430   5.181 -30.373  1.00  0.00     0.025 A 
HETATM    4  C   UNL     1      -9.328   5.777 -29.753  1.00  0.00     0.044 A 
HETATM    5  C   UNL     1      -8.125   5.076 -29.668  1.00  0.00     0.025 A 
HETATM    6  C   UNL     1      -8.028   3.782 -30.193  1.00  0.00     0.031 A 
HETATM    7  C   UNL     1      -9.441   7.097 -29.207  1.00  0.00     0.099 C 
HETATM    8  N   UNL     1      -9.551   8.163 -28.759  1.00  0.00    -0.191 NA
ENDROOT
BRANCH   1   9
HETATM    9  N   UNL     1      -8.956   1.877 -31.309  1.00  0.00    -0.303 N 
HETATM   10  C   UNL     1      -9.143   1.418 -32.580  1.00  0.00     0.365 C 
HETATM   11  O   UNL     1      -9.472   2.056 -33.570  1.00  0.00    -0.238 OA
HETATM   12  H   UNL     1      -8.622   1.169 -30.667  1.00  0.00     0.171 HD
BRANCH  10  13
HETATM   13  O   UNL     1      -8.898   0.080 -32.584  1.00  0.00    -0.299 OA
BRANCH  13  14
HETATM   14  C   UNL     1      -8.308  -0.440 -33.783  1.00  0.00     0.219 C 
BRANCH  14  15
HETATM   15  C   UNL     1      -6.825  -0.676 -33.617  1.00  0.00    -0.033 A 
HETATM   16  C   UNL     1      -6.227  -1.850 -34.089  1.00  0.00     0.009 A 
HETATM   17  C   UNL     1      -4.851  -2.049 -33.955  1.00  0.00     0.002 A 
HETATM   18  C   UNL     1      -4.051  -1.071 -33.358  1.00  0.00     0.017 A 
HETATM   19  C   UNL     1      -4.637   0.114 -32.897  1.00  0.00     0.033 A 
HETATM   20  C   UNL     1      -6.020   0.300 -33.012  1.00  0.00     0.026 A 
BRANCH  19  21
HETATM   21  C   UNL     1      -3.850   1.191 -32.252  1.00  0.00     0.257 C 
HETATM   22  N   UNL     1      -4.199   2.538 -32.568  1.00  0.00    -0.303 N 
HETATM   23  H   UNL     1      -4.943   2.743 -33.211  1.00  0.00     0.171 HD
HETATM   24  O   UNL     1      -2.920   0.957 -31.505  1.00  0.00    -0.267 OA
BRANCH  22  25
HETATM   25  C   UNL     1      -3.600   3.591 -32.022  1.00  0.00     0.152 A 
HETATM   26  N   UNL     1      -2.314   3.887 -32.309  1.00  0.00    -0.339 N 
HETATM   27  C   UNL     1      -1.834   4.980 -31.619  1.00  0.00     0.024 A 
HETATM   28  H   UNL     1      -1.781   3.318 -32.963  1.00  0.00     0.168 HD
HETATM   29  C   UNL     1      -0.412   5.392 -31.721  1.00  0.00     0.060 C 
HETATM   30  C   UNL     1      -2.765   5.579 -30.814  1.00  0.00     0.011 A 
HETATM   31  C   UNL     1      -0.190   6.769 -31.053  1.00  0.00     0.039 C 
HETATM   32  C   UNL     1      -1.000   7.011 -29.753  1.00  0.00     0.191 C 
HETATM   33  C   UNL     1      -2.525   6.807 -29.989  1.00  0.00     0.081 C 
HETATM   34  S   UNL     1      -4.256   4.767 -30.904  1.00  0.00    -0.056 SA
BRANCH  32  35
HETATM   35  N   UNL     1      -0.551   6.093 -28.624  1.00  0.00    -0.070 N 
HETATM   36  H   UNL     1      -0.438   5.122 -28.947  1.00  0.00     0.277 HD
HETATM   37  H   UNL     1      -1.327   6.055 -27.940  1.00  0.00     0.277 HD
BRANCH  35  38
HETATM   38  C   UNL     1       0.682   6.522 -27.859  1.00  0.00     0.241 C 
BRANCH  38  39
HETATM   39  C   UNL     1       0.367   7.775 -27.062  1.00  0.00     0.144 C 
BRANCH  39  40
HETATM   40  C   UNL     1       1.433   8.809 -27.341  1.00  0.00     0.389 C 
HETATM   41  F   UNL     1       2.445   8.676 -26.464  1.00  0.00    -0.171 F 
HETATM   42  F   UNL     1       0.910  10.043 -27.200  1.00  0.00    -0.171 F 
HETATM   43  F   UNL     1       1.910   8.680 -28.588  1.00  0.00    -0.171 F 
ENDBRANCH  39  40
ENDBRANCH  38  39
ENDBRANCH  35  38
ENDBRANCH  32  35
ENDBRANCH  22  25
ENDBRANCH  19  21
ENDBRANCH  14  15
ENDBRANCH  13  14
ENDBRANCH  10  13
ENDBRANCH   1   9
TORSDOF 10
ENDMDL
MODEL 6
REMARK VINA RESULT:      -8.8      5.767     12.935
REMARK  10 active torsions:
REMARK  status: ('A' for Active; 'I' for Inactive)
REMARK    1  A    between atoms: C_2  and  C_5 
REMARK    2  A    between atoms: C_5  and  C_6 
REMARK    3  A    between atoms: C_6  and  N_7 
REMARK    4  A    between atoms: N_7  and  C_10 
REMARK    5  A    between atoms: C_16  and  N_17 
REMARK       I    between atoms: N_17  and  C_18 
REMARK    6  A    between atoms: C_18  and  C_20 
REMARK    7  A    between atoms: C_24  and  C_25 
REMARK    8  A    between atoms: C_25  and  O_26 
REMARK    9  A    between atoms: O_26  and  C_27 
REMARK       I    between atoms: C_27  and  N_29 
REMARK   10  A    between atoms: N_29  and  C_30 
ROOT
HETATM    1  C   UNL     1      -0.369   8.909 -27.847  1.00  0.00     0.036 A 
HETATM    2  C   UNL     1       0.912   8.418 -28.111  1.00  0.00     0.031 A 
HETATM    3  C   UNL     1       1.901   8.449 -27.120  1.00  0.00     0.025 A 
HETATM    4  C   UNL     1       1.615   8.964 -25.854  1.00  0.00     0.044 A 
HETATM    5  C   UNL     1       0.335   9.450 -25.582  1.00  0.00     0.025 A 
HETATM    6  C   UNL     1      -0.650   9.425 -26.575  1.00  0.00     0.031 A 
HETATM    7  C   UNL     1       2.634   8.997 -24.846  1.00  0.00     0.099 C 
HETATM    8  N   UNL     1       3.473   9.027 -24.045  1.00  0.00    -0.191 NA
ENDROOT
BRANCH   1   9
HETATM    9  N   UNL     1      -1.407   8.928 -28.793  1.00  0.00    -0.303 N 
HETATM   10  C   UNL     1      -2.167   7.887 -29.241  1.00  0.00     0.365 C 
HETATM   11  O   UNL     1      -2.125   6.718 -28.887  1.00  0.00    -0.238 OA
HETATM   12  H   UNL     1      -1.666   9.821 -29.191  1.00  0.00     0.171 HD
BRANCH  10  13
HETATM   13  O   UNL     1      -3.020   8.366 -30.187  1.00  0.00    -0.299 OA
BRANCH  13  14
HETATM   14  C   UNL     1      -2.410   8.817 -31.403  1.00  0.00     0.219 C 
BRANCH  14  15
HETATM   15  C   UNL     1      -2.307   7.705 -32.420  1.00  0.00    -0.033 A 
HETATM   16  C   UNL     1      -1.131   7.510 -33.155  1.00  0.00     0.009 A 
HETATM   17  C   UNL     1      -1.035   6.463 -34.074  1.00  0.00     0.002 A 
HETATM   18  C   UNL     1      -2.109   5.589 -34.263  1.00  0.00     0.017 A 
HETATM   19  C   UNL     1      -3.283   5.766 -33.522  1.00  0.00     0.033 A 
HETATM   20  C   UNL     1      -3.384   6.830 -32.618  1.00  0.00     0.026 A 
BRANCH  19  21
HETATM   21  C   UNL     1      -4.460   4.879 -33.673  1.00  0.00     0.257 C 
HETATM   22  N   UNL     1      -4.733   3.963 -32.614  1.00  0.00    -0.303 N 
HETATM   23  H   UNL     1      -4.140   3.918 -31.803  1.00  0.00     0.171 HD
HETATM   24  O   UNL     1      -5.160   4.893 -34.667  1.00  0.00    -0.267 OA
BRANCH  22  25
HETATM   25  C   UNL     1      -5.782   3.147 -32.610  1.00  0.00     0.152 A 
HETATM   26  N   UNL     1      -5.784   2.013 -33.342  1.00  0.00    -0.339 N 
HETATM   27  C   UNL     1      -6.968   1.311 -33.263  1.00  0.00     0.024 A 
HETATM   28  H   UNL     1      -4.975   1.749 -33.900  1.00  0.00     0.168 HD
HETATM   29  C   UNL     1      -7.199   0.095 -34.083  1.00  0.00     0.060 C 
HETATM   30  C   UNL     1      -7.892   1.874 -32.426  1.00  0.00     0.011 A 
HETATM   31  C   UNL     1      -8.488  -0.632 -33.636  1.00  0.00     0.039 C 
HETATM   32  C   UNL     1      -9.665   0.296 -33.235  1.00  0.00     0.191 C 
HETATM   33  C   UNL     1      -9.242   1.299 -32.122  1.00  0.00     0.081 C 
HETATM   34  S   UNL     1      -7.288   3.305 -31.733  1.00  0.00    -0.056 SA
BRANCH  32  35
HETATM   35  N   UNL     1     -10.202   1.081 -34.425  1.00  0.00    -0.070 N 
HETATM   36  H   UNL     1     -10.383   0.468 -35.232  1.00  0.00     0.277 HD
HETATM   37  H   UNL     1      -9.443   1.713 -34.736  1.00  0.00     0.277 HD
BRANCH  35  38
HETATM   38  C   UNL     1     -11.412   1.951 -34.164  1.00  0.00     0.241 C 
BRANCH  38  39
HETATM   39  C   UNL     1     -12.589   1.427 -34.967  1.00  0.00     0.144 C 
BRANCH  39  40
HETATM   40  C   UNL     1     -13.527   0.697 -34.035  1.00  0.00     0.389 C 
HETATM   41  F   UNL     1     -12.995  -0.488 -33.680  1.00  0.00    -0.171 F 
HETATM   42  F   UNL     1     -14.696   0.464 -34.664  1.00  0.00    -0.171 F 
HETATM   43  F   UNL     1     -13.764   1.421 -32.931  1.00  0.00    -0.171 F 
ENDBRANCH  39  40
ENDBRANCH  38  39
ENDBRANCH  35  38
ENDBRANCH  32  35
ENDBRANCH  22  25
ENDBRANCH  19  21
ENDBRANCH  14  15
ENDBRANCH  13  14
ENDBRANCH  10  13
ENDBRANCH   1   9
TORSDOF 10
ENDMDL
MODEL 7
REMARK VINA RESULT:      -8.6      5.363     10.979
REMARK  10 active torsions:
REMARK  status: ('A' for Active; 'I' for Inactive)
REMARK    1  A    between atoms: C_2  and  C_5 
REMARK    2  A    between atoms: C_5  and  C_6 
REMARK    3  A    between atoms: C_6  and  N_7 
REMARK    4  A    between atoms: N_7  and  C_10 
REMARK    5  A    between atoms: C_16  and  N_17 
REMARK       I    between atoms: N_17  and  C_18 
REMARK    6  A    between atoms: C_18  and  C_20 
REMARK    7  A    between atoms: C_24  and  C_25 
REMARK    8  A    between atoms: C_25  and  O_26 
REMARK    9  A    between atoms: O_26  and  C_27 
REMARK       I    between atoms: C_27  and  N_29 
REMARK   10  A    between atoms: N_29  and  C_30 
ROOT
HETATM    1  C   UNL     1      -0.814   6.395 -29.985  1.00  0.00     0.036 A 
HETATM    2  C   UNL     1      -1.436   7.322 -30.824  1.00  0.00     0.031 A 
HETATM    3  C   UNL     1      -1.601   7.044 -32.187  1.00  0.00     0.025 A 
HETATM    4  C   UNL     1      -1.151   5.834 -32.720  1.00  0.00     0.044 A 
HETATM    5  C   UNL     1      -0.534   4.901 -31.884  1.00  0.00     0.025 A 
HETATM    6  C   UNL     1      -0.364   5.183 -30.524  1.00  0.00     0.031 A 
HETATM    7  C   UNL     1      -1.318   5.559 -34.117  1.00  0.00     0.099 C 
HETATM    8  N   UNL     1      -1.451   5.356 -35.252  1.00  0.00    -0.191 NA
ENDROOT
BRANCH   1   9
HETATM    9  N   UNL     1      -0.597   6.609 -28.613  1.00  0.00    -0.303 N 
HETATM   10  C   UNL     1       0.348   7.390 -28.014  1.00  0.00     0.365 C 
HETATM   11  O   UNL     1       1.189   8.097 -28.550  1.00  0.00    -0.238 OA
HETATM   12  H   UNL     1      -1.227   6.160 -27.961  1.00  0.00     0.171 HD
BRANCH  10  13
HETATM   13  O   UNL     1       0.208   7.260 -26.667  1.00  0.00    -0.299 OA
BRANCH  13  14
HETATM   14  C   UNL     1      -0.232   8.433 -25.972  1.00  0.00     0.219 C 
BRANCH  14  15
HETATM   15  C   UNL     1      -1.707   8.371 -25.652  1.00  0.00    -0.033 A 
HETATM   16  C   UNL     1      -2.222   8.996 -24.510  1.00  0.00     0.009 A 
HETATM   17  C   UNL     1      -3.591   8.955 -24.236  1.00  0.00     0.002 A 
HETATM   18  C   UNL     1      -4.466   8.300 -25.106  1.00  0.00     0.017 A 
HETATM   19  C   UNL     1      -3.964   7.686 -26.258  1.00  0.00     0.033 A 
HETATM   20  C   UNL     1      -2.588   7.709 -26.518  1.00  0.00     0.026 A 
BRANCH  19  21
HETATM   21  C   UNL     1      -4.834   6.972 -27.223  1.00  0.00     0.257 C 
HETATM   22  N   UNL     1      -4.207   6.375 -28.356  1.00  0.00    -0.303 N 
HETATM   23  H   UNL     1      -3.214   6.448 -28.497  1.00  0.00     0.171 HD
HETATM   24  O   UNL     1      -6.040   6.913 -27.087  1.00  0.00    -0.267 OA
BRANCH  22  25
HETATM   25  C   UNL     1      -4.870   5.671 -29.267  1.00  0.00     0.152 A 
HETATM   26  N   UNL     1      -5.362   4.448 -28.979  1.00  0.00    -0.339 N 
HETATM   27  C   UNL     1      -5.977   3.836 -30.051  1.00  0.00     0.024 A 
HETATM   28  H   UNL     1      -5.251   4.046 -28.051  1.00  0.00     0.168 HD
HETATM   29  C   UNL     1      -6.483   2.444 -29.957  1.00  0.00     0.060 C 
HETATM   30  C   UNL     1      -6.009   4.603 -31.183  1.00  0.00     0.011 A 
HETATM   31  C   UNL     1      -7.333   2.084 -31.197  1.00  0.00     0.039 C 
HETATM   32  C   UNL     1      -6.814   2.655 -32.542  1.00  0.00     0.191 C 
HETATM   33  C   UNL     1      -6.651   4.202 -32.476  1.00  0.00     0.081 C 
HETATM   34  S   UNL     1      -5.254   6.103 -30.919  1.00  0.00    -0.056 SA
BRANCH  32  35
HETATM   35  N   UNL     1      -5.481   2.039 -32.946  1.00  0.00    -0.070 N 
HETATM   36  H   UNL     1      -4.688   2.535 -32.515  1.00  0.00     0.277 HD
HETATM   37  H   UNL     1      -5.372   2.197 -33.963  1.00  0.00     0.277 HD
BRANCH  35  38
HETATM   38  C   UNL     1      -5.334   0.550 -32.719  1.00  0.00     0.241 C 
BRANCH  38  39
HETATM   39  C   UNL     1      -3.859   0.194 -32.666  1.00  0.00     0.144 C 
BRANCH  39  40
HETATM   40  C   UNL     1      -3.352   0.433 -31.264  1.00  0.00     0.389 C 
HETATM   41  F   UNL     1      -3.037   1.733 -31.103  1.00  0.00    -0.171 F 
HETATM   42  F   UNL     1      -2.240  -0.299 -31.056  1.00  0.00    -0.171 F 
HETATM   43  F   UNL     1      -4.275   0.088 -30.354  1.00  0.00    -0.171 F 
ENDBRANCH  39  40
ENDBRANCH  38  39
ENDBRANCH  35  38
ENDBRANCH  32  35
ENDBRANCH  22  25
ENDBRANCH  19  21
ENDBRANCH  14  15
ENDBRANCH  13  14
ENDBRANCH  10  13
ENDBRANCH   1   9
TORSDOF 10
ENDMDL
MODEL 8
REMARK VINA RESULT:      -8.5      6.370     14.618
REMARK  10 active torsions:
REMARK  status: ('A' for Active; 'I' for Inactive)
REMARK    1  A    between atoms: C_2  and  C_5 
REMARK    2  A    between atoms: C_5  and  C_6 
REMARK    3  A    between atoms: C_6  and  N_7 
REMARK    4  A    between atoms: N_7  and  C_10 
REMARK    5  A    between atoms: C_16  and  N_17 
REMARK       I    between atoms: N_17  and  C_18 
REMARK    6  A    between atoms: C_18  and  C_20 
REMARK    7  A    between atoms: C_24  and  C_25 
REMARK    8  A    between atoms: C_25  and  O_26 
REMARK    9  A    between atoms: O_26  and  C_27 
REMARK       I    between atoms: C_27  and  N_29 
REMARK   10  A    between atoms: N_29  and  C_30 
ROOT
HETATM    1  C   UNL     1       3.411   9.877 -23.779  1.00  0.00     0.036 A 
HETATM    2  C   UNL     1       4.412  10.651 -23.188  1.00  0.00     0.031 A 
HETATM    3  C   UNL     1       5.070  10.200 -22.037  1.00  0.00     0.025 A 
HETATM    4  C   UNL     1       4.736   8.968 -21.471  1.00  0.00     0.044 A 
HETATM    5  C   UNL     1       3.741   8.187 -22.060  1.00  0.00     0.025 A 
HETATM    6  C   UNL     1       3.080   8.642 -23.207  1.00  0.00     0.031 A 
HETATM    7  C   UNL     1       5.410   8.515 -20.289  1.00  0.00     0.099 C 
HETATM    8  N   UNL     1       5.957   8.168 -19.326  1.00  0.00    -0.191 NA
ENDROOT
BRANCH   1   9
HETATM    9  N   UNL     1       2.696  10.269 -24.922  1.00  0.00    -0.303 N 
HETATM   10  C   UNL     1       1.405  10.702 -25.010  1.00  0.00     0.365 C 
HETATM   11  O   UNL     1       0.605  10.871 -24.101  1.00  0.00    -0.238 OA
HETATM   12  H   UNL     1       3.185  10.267 -25.808  1.00  0.00     0.171 HD
BRANCH  10  13
HETATM   13  O   UNL     1       1.126  10.930 -26.322  1.00  0.00    -0.299 OA
BRANCH  13  14
HETATM   14  C   UNL     1      -0.194  10.568 -26.749  1.00  0.00     0.219 C 
BRANCH  14  15
HETATM   15  C   UNL     1      -0.178   9.336 -27.623  1.00  0.00    -0.033 A 
HETATM   16  C   UNL     1       1.021   8.670 -27.906  1.00  0.00     0.009 A 
HETATM   17  C   UNL     1       1.024   7.517 -28.693  1.00  0.00     0.002 A 
HETATM   18  C   UNL     1      -0.173   7.005 -29.199  1.00  0.00     0.017 A 
HETATM   19  C   UNL     1      -1.379   7.653 -28.909  1.00  0.00     0.033 A 
HETATM   20  C   UNL     1      -1.376   8.822 -28.138  1.00  0.00     0.026 A 
BRANCH  19  21
HETATM   21  C   UNL     1      -2.685   7.166 -29.414  1.00  0.00     0.257 C 
HETATM   22  N   UNL     1      -2.668   6.083 -30.341  1.00  0.00    -0.303 N 
HETATM   23  H   UNL     1      -1.801   5.676 -30.646  1.00  0.00     0.171 HD
HETATM   24  O   UNL     1      -3.738   7.677 -29.086  1.00  0.00    -0.267 OA
BRANCH  22  25
HETATM   25  C   UNL     1      -3.771   5.528 -30.831  1.00  0.00     0.152 A 
HETATM   26  N   UNL     1      -4.540   4.719 -30.072  1.00  0.00    -0.339 N 
HETATM   27  C   UNL     1      -5.617   4.188 -30.750  1.00  0.00     0.024 A 
HETATM   28  H   UNL     1      -4.300   4.531 -29.101  1.00  0.00     0.168 HD
HETATM   29  C   UNL     1      -6.514   3.193 -30.114  1.00  0.00     0.060 C 
HETATM   30  C   UNL     1      -5.723   4.619 -32.045  1.00  0.00     0.011 A 
HETATM   31  C   UNL     1      -7.765   2.943 -30.987  1.00  0.00     0.039 C 
HETATM   32  C   UNL     1      -7.510   2.923 -32.516  1.00  0.00     0.191 C 
HETATM   33  C   UNL     1      -6.819   4.235 -32.992  1.00  0.00     0.081 C 
HETATM   34  S   UNL     1      -4.460   5.689 -32.432  1.00  0.00    -0.056 SA
BRANCH  32  35
HETATM   35  N   UNL     1      -6.652   1.737 -32.935  1.00  0.00    -0.070 N 
HETATM   36  H   UNL     1      -5.719   1.771 -32.501  1.00  0.00     0.277 HD
HETATM   37  H   UNL     1      -6.476   1.837 -33.950  1.00  0.00     0.277 HD
BRANCH  35  38
HETATM   38  C   UNL     1      -7.258   0.365 -32.732  1.00  0.00     0.241 C 
BRANCH  38  39
HETATM   39  C   UNL     1      -6.171  -0.686 -32.851  1.00  0.00     0.144 C 
BRANCH  39  40
HETATM   40  C   UNL     1      -6.347  -1.423 -34.157  1.00  0.00     0.389 C 
HETATM   41  F   UNL     1      -6.823  -0.586 -35.098  1.00  0.00    -0.171 F 
HETATM   42  F   UNL     1      -7.235  -2.424 -33.994  1.00  0.00    -0.171 F 
HETATM   43  F   UNL     1      -5.182  -1.940 -34.576  1.00  0.00    -0.171 F 
ENDBRANCH  39  40
ENDBRANCH  38  39
ENDBRANCH  35  38
ENDBRANCH  32  35
ENDBRANCH  22  25
ENDBRANCH  19  21
ENDBRANCH  14  15
ENDBRANCH  13  14
ENDBRANCH  10  13
ENDBRANCH   1   9
TORSDOF 10
ENDMDL
MODEL 9
REMARK VINA RESULT:      -8.4      5.841     11.602
REMARK  10 active torsions:
REMARK  status: ('A' for Active; 'I' for Inactive)
REMARK    1  A    between atoms: C_2  and  C_5 
REMARK    2  A    between atoms: C_5  and  C_6 
REMARK    3  A    between atoms: C_6  and  N_7 
REMARK    4  A    between atoms: N_7  and  C_10 
REMARK    5  A    between atoms: C_16  and  N_17 
REMARK       I    between atoms: N_17  and  C_18 
REMARK    6  A    between atoms: C_18  and  C_20 
REMARK    7  A    between atoms: C_24  and  C_25 
REMARK    8  A    between atoms: C_25  and  O_26 
REMARK    9  A    between atoms: O_26  and  C_27 
REMARK       I    between atoms: C_27  and  N_29 
REMARK   10  A    between atoms: N_29  and  C_30 
ROOT
HETATM    1  C   UNL     1      -2.144   8.077 -27.206  1.00  0.00     0.036 A 
HETATM    2  C   UNL     1      -2.178   9.228 -26.414  1.00  0.00     0.031 A 
HETATM    3  C   UNL     1      -3.396   9.714 -25.923  1.00  0.00     0.025 A 
HETATM    4  C   UNL     1      -4.590   9.049 -26.214  1.00  0.00     0.044 A 
HETATM    5  C   UNL     1      -4.561   7.895 -26.999  1.00  0.00     0.025 A 
HETATM    6  C   UNL     1      -3.343   7.414 -27.495  1.00  0.00     0.031 A 
HETATM    7  C   UNL     1      -5.833   9.555 -25.713  1.00  0.00     0.099 C 
HETATM    8  N   UNL     1      -6.833   9.984 -25.309  1.00  0.00    -0.191 NA
ENDROOT
BRANCH   1   9
HETATM    9  N   UNL     1      -0.965   7.539 -27.747  1.00  0.00    -0.303 N 
HETATM   10  C   UNL     1      -0.200   6.515 -27.269  1.00  0.00     0.365 C 
HETATM   11  O   UNL     1      -0.399   5.826 -26.279  1.00  0.00    -0.238 OA
HETATM   12  H   UNL     1      -0.629   7.923 -28.622  1.00  0.00     0.171 HD
BRANCH  10  13
HETATM   13  O   UNL     1       0.870   6.368 -28.097  1.00  0.00    -0.299 OA
BRANCH  13  14
HETATM   14  C   UNL     1       0.799   5.268 -29.014  1.00  0.00     0.219 C 
BRANCH  14  15
HETATM   15  C   UNL     1       0.059   5.643 -30.276  1.00  0.00    -0.033 A 
HETATM   16  C   UNL     1       0.497   6.702 -31.079  1.00  0.00     0.009 A 
HETATM   17  C   UNL     1      -0.178   7.025 -32.258  1.00  0.00     0.002 A 
HETATM   18  C   UNL     1      -1.293   6.285 -32.658  1.00  0.00     0.017 A 
HETATM   19  C   UNL     1      -1.730   5.214 -31.871  1.00  0.00     0.033 A 
HETATM   20  C   UNL     1      -1.065   4.907 -30.677  1.00  0.00     0.026 A 
BRANCH  19  21
HETATM   21  C   UNL     1      -2.906   4.388 -32.234  1.00  0.00     0.257 C 
HETATM   22  N   UNL     1      -3.342   3.414 -31.288  1.00  0.00    -0.303 N 
HETATM   23  H   UNL     1      -2.860   3.288 -30.415  1.00  0.00     0.171 HD
HETATM   24  O   UNL     1      -3.472   4.501 -33.304  1.00  0.00    -0.267 OA
BRANCH  22  25
HETATM   25  C   UNL     1      -4.409   2.644 -31.476  1.00  0.00     0.152 A 
HETATM   26  N   UNL     1      -4.606   2.001 -32.646  1.00  0.00    -0.339 N 
HETATM   27  C   UNL     1      -5.785   1.288 -32.690  1.00  0.00     0.024 A 
HETATM   28  H   UNL     1      -3.932   2.078 -33.405  1.00  0.00     0.168 HD
HETATM   29  C   UNL     1      -6.227   0.605 -33.931  1.00  0.00     0.060 C 
HETATM   30  C   UNL     1      -6.503   1.333 -31.526  1.00  0.00     0.011 A 
HETATM   31  C   UNL     1      -7.440  -0.312 -33.651  1.00  0.00     0.039 C 
HETATM   32  C   UNL     1      -8.472   0.249 -32.639  1.00  0.00     0.191 C 
HETATM   33  C   UNL     1      -7.796   0.616 -31.285  1.00  0.00     0.081 C 
HETATM   34  S   UNL     1      -5.710   2.285 -30.362  1.00  0.00    -0.056 SA
BRANCH  32  35
HETATM   35  N   UNL     1      -9.188   1.480 -33.179  1.00  0.00    -0.070 N 
HETATM   36  H   UNL     1      -8.523   2.173 -33.549  1.00  0.00     0.277 HD
HETATM   37  H   UNL     1      -9.635   1.947 -32.371  1.00  0.00     0.277 HD
BRANCH  35  38
HETATM   38  C   UNL     1     -10.281   1.229 -34.195  1.00  0.00     0.241 C 
BRANCH  38  39
HETATM   39  C   UNL     1     -11.621   1.614 -33.596  1.00  0.00     0.144 C 
BRANCH  39  40
HETATM   40  C   UNL     1     -12.708   1.306 -34.598  1.00  0.00     0.389 C 
HETATM   41  F   UNL     1     -13.720   2.184 -34.465  1.00  0.00    -0.171 F 
HETATM   42  F   UNL     1     -13.191   0.068 -34.374  1.00  0.00    -0.171 F 
HETATM   43  F   UNL     1     -12.234   1.367 -35.852  1.00  0.00    -0.171 F 
ENDBRANCH  39  40
ENDBRANCH  38  39
ENDBRANCH  35  38
ENDBRANCH  32  35
ENDBRANCH  22  25
ENDBRANCH  19  21
ENDBRANCH  14  15
ENDBRANCH  13  14
ENDBRANCH  10  13
ENDBRANCH   1   9
TORSDOF 10
ENDMDL
MODEL 10
REMARK VINA RESULT:      -8.4      5.815     11.275
REMARK  10 active torsions:
REMARK  status: ('A' for Active; 'I' for Inactive)
REMARK    1  A    between atoms: C_2  and  C_5 
REMARK    2  A    between atoms: C_5  and  C_6 
REMARK    3  A    between atoms: C_6  and  N_7 
REMARK    4  A    between atoms: N_7  and  C_10 
REMARK    5  A    between atoms: C_16  and  N_17 
REMARK       I    between atoms: N_17  and  C_18 
REMARK    6  A    between atoms: C_18  and  C_20 
REMARK    7  A    between atoms: C_24  and  C_25 
REMARK    8  A    between atoms: C_25  and  O_26 
REMARK    9  A    between atoms: O_26  and  C_27 
REMARK       I    between atoms: C_27  and  N_29 
REMARK   10  A    between atoms: N_29  and  C_30 
ROOT
HETATM    1  C   UNL     1      -2.359   8.356 -27.175  1.00  0.00     0.036 A 
HETATM    2  C   UNL     1      -2.404   9.218 -26.077  1.00  0.00     0.031 A 
HETATM    3  C   UNL     1      -3.633   9.669 -25.581  1.00  0.00     0.025 A 
HETATM    4  C   UNL     1      -4.829   9.256 -26.174  1.00  0.00     0.044 A 
HETATM    5  C   UNL     1      -4.790   8.389 -27.268  1.00  0.00     0.025 A 
HETATM    6  C   UNL     1      -3.560   7.945 -27.767  1.00  0.00     0.031 A 
HETATM    7  C   UNL     1      -6.083   9.726 -25.664  1.00  0.00     0.099 C 
HETATM    8  N   UNL     1      -7.090  10.124 -25.246  1.00  0.00    -0.191 NA
ENDROOT
BRANCH   1   9
HETATM    9  N   UNL     1      -1.166   7.875 -27.739  1.00  0.00    -0.303 N 
HETATM   10  C   UNL     1      -0.438   6.778 -27.381  1.00  0.00     0.365 C 
HETATM   11  O   UNL     1      -0.691   5.959 -26.508  1.00  0.00    -0.238 OA
HETATM   12  H   UNL     1      -0.787   8.371 -28.536  1.00  0.00     0.171 HD
BRANCH  10  13
HETATM   13  O   UNL     1       0.664   6.726 -28.177  1.00  0.00    -0.299 OA
BRANCH  13  14
HETATM   14  C   UNL     1       0.756   5.583 -29.037  1.00  0.00     0.219 C 
BRANCH  14  15
HETATM   15  C   UNL     1      -0.015   5.788 -30.320  1.00  0.00    -0.033 A 
HETATM   16  C   UNL     1       0.318   6.826 -31.200  1.00  0.00     0.009 A 
HETATM   17  C   UNL     1      -0.383   6.992 -32.396  1.00  0.00     0.002 A 
HETATM   18  C   UNL     1      -1.417   6.117 -32.737  1.00  0.00     0.017 A 
HETATM   19  C   UNL     1      -1.747   5.067 -31.872  1.00  0.00     0.033 A 
HETATM   20  C   UNL     1      -1.057   4.917 -30.662  1.00  0.00     0.026 A 
BRANCH  19  21
HETATM   21  C   UNL     1      -2.833   4.104 -32.169  1.00  0.00     0.257 C 
HETATM   22  N   UNL     1      -4.163   4.614 -32.236  1.00  0.00    -0.303 N 
HETATM   23  H   UNL     1      -4.353   5.588 -32.077  1.00  0.00     0.171 HD
HETATM   24  O   UNL     1      -2.622   2.916 -32.321  1.00  0.00    -0.267 OA
BRANCH  22  25
HETATM   25  C   UNL     1      -5.216   3.861 -32.539  1.00  0.00     0.152 A 
HETATM   26  N   UNL     1      -5.519   2.765 -31.812  1.00  0.00    -0.339 N 
HETATM   27  C   UNL     1      -6.611   2.072 -32.292  1.00  0.00     0.024 A 
HETATM   28  H   UNL     1      -4.957   2.500 -31.006  1.00  0.00     0.168 HD
HETATM   29  C   UNL     1      -7.030   0.782 -31.690  1.00  0.00     0.060 C 
HETATM   30  C   UNL     1      -7.200   2.653 -33.381  1.00  0.00     0.011 A 
HETATM   31  C   UNL     1      -8.404   0.339 -32.244  1.00  0.00     0.039 C 
HETATM   32  C   UNL     1      -8.634   0.629 -33.750  1.00  0.00     0.191 C 
HETATM   33  C   UNL     1      -8.424   2.137 -34.075  1.00  0.00     0.081 C 
HETATM   34  S   UNL     1      -6.381   4.076 -33.826  1.00  0.00    -0.056 SA
BRANCH  32  35
HETATM   35  N   UNL     1      -7.712  -0.197 -34.636  1.00  0.00    -0.070 N 
HETATM   36  H   UNL     1      -6.801   0.265 -34.769  1.00  0.00     0.277 HD
HETATM   37  H   UNL     1      -8.139  -0.218 -35.579  1.00  0.00     0.277 HD
BRANCH  35  38
HETATM   38  C   UNL     1      -7.497  -1.637 -34.224  1.00  0.00     0.241 C 
BRANCH  38  39
HETATM   39  C   UNL     1      -6.015  -1.961 -34.287  1.00  0.00     0.144 C 
BRANCH  39  40
HETATM   40  C   UNL     1      -5.840  -3.315 -34.933  1.00  0.00     0.389 C 
HETATM   41  F   UNL     1      -5.122  -3.197 -36.065  1.00  0.00    -0.171 F 
HETATM   42  F   UNL     1      -7.049  -3.822 -35.250  1.00  0.00    -0.171 F 
HETATM   43  F   UNL     1      -5.218  -4.165 -34.103  1.00  0.00    -0.171 F 
ENDBRANCH  39  40
ENDBRANCH  38  39
ENDBRANCH  35  38
ENDBRANCH  32  35
ENDBRANCH  22  25
ENDBRANCH  19  21
ENDBRANCH  14  15
ENDBRANCH  13  14
ENDBRANCH  10  13
ENDBRANCH   1   9
TORSDOF 10
ENDMDL
