MODEL 1
REMARK VINA RESULT:      -7.8      0.000      0.000
REMARK  5 active torsions:
REMARK  status: ('A' for Active; 'I' for Inactive)
REMARK    1  A    between atoms: C_2  and  O_3 
REMARK    2  A    between atoms: C_2  and  C_5 
REMARK    3  A    between atoms: C_7  and  N_8 
REMARK    4  A    between atoms: N_8  and  C_9 
REMARK    5  A    between atoms: C_9  and  C_10 
ROOT
HETATM    1  N   UNL     1      -5.303   1.874 -32.290  1.00  0.00    -0.289 NA
HETATM    2  H   UNL     1      -4.310   1.646 -32.332  1.00  0.00     0.128 HD
ENDROOT
BRANCH   1   3
HETATM    3  C   UNL     1      -6.000   1.157 -33.278  1.00  0.00     0.009 A 
HETATM    4  C   UNL     1      -5.576  -0.148 -33.581  1.00  0.00     0.033 A 
HETATM    5  C   UNL     1      -6.258  -0.962 -34.508  1.00  0.00    -0.028 A 
HETATM    6  C   UNL     1      -7.394  -0.441 -35.136  1.00  0.00     0.010 A 
HETATM    7  C   UNL     1      -7.866   0.828 -34.802  1.00  0.00     0.002 A 
HETATM    8  C   UNL     1      -7.186   1.608 -33.865  1.00  0.00     0.023 A 
BRANCH   5   9
HETATM    9  C   UNL     1      -5.719  -2.345 -34.823  1.00  0.00     0.149 C 
HETATM   10  C   UNL     1      -4.481  -2.720 -34.007  1.00  0.00     0.045 C 
BRANCH   9  11
HETATM   11  O   UNL     1      -6.783  -3.269 -34.578  1.00  0.00    -0.386 OA
HETATM   12  C   UNL     1      -6.626  -4.504 -35.261  1.00  0.00     0.202 C 
ENDBRANCH   9  11
ENDBRANCH   5   9
ENDBRANCH   1   3
BRANCH   1  13
HETATM   13  C   UNL     1      -5.483   3.331 -32.227  1.00  0.00     0.133 C 
BRANCH  13  14
HETATM   14  C   UNL     1      -4.427   4.097 -32.994  1.00  0.00    -0.016 A 
HETATM   15  C   UNL     1      -3.123   4.370 -32.546  1.00  0.00     0.069 A 
HETATM   16  C   UNL     1      -2.163   5.036 -33.297  1.00  0.00     0.012 A 
HETATM   17  N   UNL     1      -2.505   4.085 -31.353  1.00  0.00    -0.277 N 
HETATM   18  C   UNL     1      -1.021   5.071 -32.465  1.00  0.00     0.152 A 
HETATM   19  C   UNL     1      -2.488   5.484 -34.587  1.00  0.00     0.015 A 
HETATM   20  N   UNL     1      -1.222   4.486 -31.282  1.00  0.00    -0.186 NA
HETATM   21  C   UNL     1      -3.776   5.238 -35.074  1.00  0.00     0.002 A 
HETATM   22  C   UNL     1      -4.717   4.560 -34.296  1.00  0.00     0.011 A 
HETATM   23  H   UNL     1      -2.936   3.620 -30.559  1.00  0.00     0.189 HD
ENDBRANCH  13  14
ENDBRANCH   1  13
TORSDOF 5
ENDMDL
MODEL 2
REMARK VINA RESULT:      -7.7      4.639      6.942
REMARK  5 active torsions:
REMARK  status: ('A' for Active; 'I' for Inactive)
REMARK    1  A    between atoms: C_2  and  O_3 
REMARK    2  A    between atoms: C_2  and  C_5 
REMARK    3  A    between atoms: C_7  and  N_8 
REMARK    4  A    between atoms: N_8  and  C_9 
REMARK    5  A    between atoms: C_9  and  C_10 
ROOT
HETATM    1  N   UNL     1      -9.119   0.527 -32.332  1.00  0.00    -0.289 NA
HETATM    2  H   UNL     1      -9.519   0.426 -31.400  1.00  0.00     0.128 HD
ENDROOT
BRANCH   1   3
HETATM    3  C   UNL     1      -7.822  -0.016 -32.357  1.00  0.00     0.009 A 
HETATM    4  C   UNL     1      -7.459  -0.831 -33.443  1.00  0.00     0.033 A 
HETATM    5  C   UNL     1      -6.160  -1.360 -33.582  1.00  0.00    -0.028 A 
HETATM    6  C   UNL     1      -5.212  -1.053 -32.601  1.00  0.00     0.010 A 
HETATM    7  C   UNL     1      -5.536  -0.197 -31.549  1.00  0.00     0.002 A 
HETATM    8  C   UNL     1      -6.824   0.333 -31.444  1.00  0.00     0.023 A 
BRANCH   5   9
HETATM    9  C   UNL     1      -5.848  -2.270 -34.756  1.00  0.00     0.149 C 
HETATM   10  C   UNL     1      -4.499  -2.981 -34.637  1.00  0.00     0.045 C 
BRANCH   9  11
HETATM   11  O   UNL     1      -6.914  -3.220 -34.837  1.00  0.00    -0.386 OA
HETATM   12  C   UNL     1      -6.494  -4.503 -35.279  1.00  0.00     0.202 C 
ENDBRANCH   9  11
ENDBRANCH   5   9
ENDBRANCH   1   3
BRANCH   1  13
HETATM   13  C   UNL     1      -9.310   1.900 -32.817  1.00  0.00     0.133 C 
BRANCH  13  14
HETATM   14  C   UNL     1     -10.510   2.051 -33.727  1.00  0.00    -0.016 A 
HETATM   15  C   UNL     1     -11.610   1.178 -33.785  1.00  0.00     0.069 A 
HETATM   16  C   UNL     1     -12.719   1.372 -34.600  1.00  0.00     0.012 A 
HETATM   17  N   UNL     1     -11.861   0.003 -33.120  1.00  0.00    -0.277 N 
HETATM   18  C   UNL     1     -13.561   0.272 -34.323  1.00  0.00     0.152 A 
HETATM   19  C   UNL     1     -12.769   2.500 -35.435  1.00  0.00     0.015 A 
HETATM   20  N   UNL     1     -13.047  -0.562 -33.416  1.00  0.00    -0.186 NA
HETATM   21  C   UNL     1     -11.695   3.394 -35.413  1.00  0.00     0.002 A 
HETATM   22  C   UNL     1     -10.597   3.174 -34.578  1.00  0.00     0.011 A 
HETATM   23  H   UNL     1     -11.236  -0.448 -32.458  1.00  0.00     0.189 HD
ENDBRANCH  13  14
ENDBRANCH   1  13
TORSDOF 5
ENDMDL
MODEL 3
REMARK VINA RESULT:      -7.6      1.335      2.235
REMARK  5 active torsions:
REMARK  status: ('A' for Active; 'I' for Inactive)
REMARK    1  A    between atoms: C_2  and  O_3 
REMARK    2  A    between atoms: C_2  and  C_5 
REMARK    3  A    between atoms: C_7  and  N_8 
REMARK    4  A    between atoms: N_8  and  C_9 
REMARK    5  A    between atoms: C_9  and  C_10 
ROOT
HETATM    1  N   UNL     1      -4.689   2.383 -31.383  1.00  0.00    -0.289 NA
HETATM    2  H   UNL     1      -3.858   2.784 -30.949  1.00  0.00     0.128 HD
ENDROOT
BRANCH   1   3
HETATM    3  C   UNL     1      -4.443   1.044 -31.737  1.00  0.00     0.009 A 
HETATM    4  C   UNL     1      -5.330   0.415 -32.627  1.00  0.00     0.033 A 
HETATM    5  C   UNL     1      -5.122  -0.901 -33.087  1.00  0.00    -0.028 A 
HETATM    6  C   UNL     1      -3.990  -1.588 -32.638  1.00  0.00     0.010 A 
HETATM    7  C   UNL     1      -3.066  -0.959 -31.804  1.00  0.00     0.002 A 
HETATM    8  C   UNL     1      -3.283   0.354 -31.378  1.00  0.00     0.023 A 
BRANCH   5   9
HETATM    9  C   UNL     1      -6.144  -1.537 -34.012  1.00  0.00     0.149 C 
HETATM   10  C   UNL     1      -6.800  -0.545 -34.973  1.00  0.00     0.045 C 
BRANCH   9  11
HETATM   11  O   UNL     1      -5.463  -2.566 -34.735  1.00  0.00    -0.386 OA
HETATM   12  C   UNL     1      -6.257  -3.724 -34.951  1.00  0.00     0.202 C 
ENDBRANCH   9  11
ENDBRANCH   5   9
ENDBRANCH   1   3
BRANCH   1  13
HETATM   13  C   UNL     1      -5.209   3.294 -32.412  1.00  0.00     0.133 C 
BRANCH  13  14
HETATM   14  C   UNL     1      -4.130   4.120 -33.078  1.00  0.00    -0.016 A 
HETATM   15  C   UNL     1      -2.869   4.416 -32.533  1.00  0.00     0.069 A 
HETATM   16  C   UNL     1      -1.883   5.139 -33.193  1.00  0.00     0.012 A 
HETATM   17  N   UNL     1      -2.323   4.106 -31.312  1.00  0.00    -0.277 N 
HETATM   18  C   UNL     1      -0.802   5.179 -32.285  1.00  0.00     0.152 A 
HETATM   19  C   UNL     1      -2.137   5.625 -34.486  1.00  0.00     0.015 A 
HETATM   20  N   UNL     1      -1.061   4.544 -31.140  1.00  0.00    -0.186 NA
HETATM   21  C   UNL     1      -3.380   5.358 -35.068  1.00  0.00     0.002 A 
HETATM   22  C   UNL     1      -4.348   4.622 -34.380  1.00  0.00     0.011 A 
HETATM   23  H   UNL     1      -2.789   3.599 -30.566  1.00  0.00     0.189 HD
ENDBRANCH  13  14
ENDBRANCH   1  13
TORSDOF 5
ENDMDL
MODEL 4
REMARK VINA RESULT:      -7.5      4.473      6.602
REMARK  5 active torsions:
REMARK  status: ('A' for Active; 'I' for Inactive)
REMARK    1  A    between atoms: C_2  and  O_3 
REMARK    2  A    between atoms: C_2  and  C_5 
REMARK    3  A    between atoms: C_7  and  N_8 
REMARK    4  A    between atoms: N_8  and  C_9 
REMARK    5  A    between atoms: C_9  and  C_10 
ROOT
HETATM    1  N   UNL     1      -8.993   0.710 -32.327  1.00  0.00    -0.289 NA
HETATM    2  H   UNL     1      -8.993   1.617 -32.793  1.00  0.00     0.128 HD
ENDROOT
BRANCH   1   3
HETATM    3  C   UNL     1      -7.705   0.148 -32.371  1.00  0.00     0.009 A 
HETATM    4  C   UNL     1      -7.396  -0.734 -33.421  1.00  0.00     0.033 A 
HETATM    5  C   UNL     1      -6.110  -1.288 -33.580  1.00  0.00    -0.028 A 
HETATM    6  C   UNL     1      -5.119  -0.937 -32.657  1.00  0.00     0.010 A 
HETATM    7  C   UNL     1      -5.390  -0.016 -31.646  1.00  0.00     0.002 A 
HETATM    8  C   UNL     1      -6.666   0.538 -31.521  1.00  0.00     0.023 A 
BRANCH   5   9
HETATM    9  C   UNL     1      -5.858  -2.270 -34.708  1.00  0.00     0.149 C 
HETATM   10  C   UNL     1      -4.526  -3.013 -34.587  1.00  0.00     0.045 C 
BRANCH   9  11
HETATM   11  O   UNL     1      -6.951  -3.192 -34.707  1.00  0.00    -0.386 OA
HETATM   12  C   UNL     1      -6.618  -4.463 -35.247  1.00  0.00     0.202 C 
ENDBRANCH   9  11
ENDBRANCH   5   9
ENDBRANCH   1   3
BRANCH   1  13
HETATM   13  C   UNL     1     -10.125  -0.098 -32.800  1.00  0.00     0.133 C 
BRANCH  13  14
HETATM   14  C   UNL     1     -11.176   0.713 -33.527  1.00  0.00    -0.016 A 
HETATM   15  C   UNL     1     -10.973   1.966 -34.130  1.00  0.00     0.069 A 
HETATM   16  C   UNL     1     -11.950   2.662 -34.830  1.00  0.00     0.012 A 
HETATM   17  N   UNL     1      -9.861   2.770 -34.179  1.00  0.00    -0.277 N 
HETATM   18  C   UNL     1     -11.306   3.843 -35.262  1.00  0.00     0.152 A 
HETATM   19  C   UNL     1     -13.234   2.107 -34.955  1.00  0.00     0.015 A 
HETATM   20  N   UNL     1     -10.030   3.910 -34.874  1.00  0.00    -0.186 NA
HETATM   21  C   UNL     1     -13.483   0.863 -34.368  1.00  0.00     0.002 A 
HETATM   22  C   UNL     1     -12.477   0.185 -33.674  1.00  0.00     0.011 A 
HETATM   23  H   UNL     1      -8.967   2.571 -33.740  1.00  0.00     0.189 HD
ENDBRANCH  13  14
ENDBRANCH   1  13
TORSDOF 5
ENDMDL
MODEL 5
REMARK VINA RESULT:      -7.3      2.763      6.804
REMARK  5 active torsions:
REMARK  status: ('A' for Active; 'I' for Inactive)
REMARK    1  A    between atoms: C_2  and  O_3 
REMARK    2  A    between atoms: C_2  and  C_5 
REMARK    3  A    between atoms: C_7  and  N_8 
REMARK    4  A    between atoms: N_8  and  C_9 
REMARK    5  A    between atoms: C_9  and  C_10 
ROOT
HETATM    1  N   UNL     1      -5.357   3.150 -32.446  1.00  0.00    -0.289 NA
HETATM    2  H   UNL     1      -5.776   3.653 -31.665  1.00  0.00     0.128 HD
ENDROOT
BRANCH   1   3
HETATM    3  C   UNL     1      -4.485   4.001 -33.149  1.00  0.00     0.009 A 
HETATM    4  C   UNL     1      -3.214   4.252 -32.606  1.00  0.00     0.033 A 
HETATM    5  C   UNL     1      -2.254   5.036 -33.276  1.00  0.00    -0.028 A 
HETATM    6  C   UNL     1      -2.590   5.572 -34.523  1.00  0.00     0.010 A 
HETATM    7  C   UNL     1      -3.823   5.282 -35.107  1.00  0.00     0.002 A 
HETATM    8  C   UNL     1      -4.751   4.485 -34.433  1.00  0.00     0.023 A 
BRANCH   5   9
HETATM    9  C   UNL     1      -0.917   5.306 -32.611  1.00  0.00     0.149 C 
HETATM   10  C   UNL     1      -0.635   6.792 -32.384  1.00  0.00     0.045 C 
BRANCH   9  11
HETATM   11  O   UNL     1      -0.923   4.599 -31.368  1.00  0.00    -0.386 OA
HETATM   12  C   UNL     1      -0.122   5.210 -30.367  1.00  0.00     0.202 C 
ENDBRANCH   9  11
ENDBRANCH   5   9
ENDBRANCH   1   3
BRANCH   1  13
HETATM   13  C   UNL     1      -6.396   2.437 -33.201  1.00  0.00     0.133 C 
BRANCH  13  14
HETATM   14  C   UNL     1      -6.054   0.986 -33.463  1.00  0.00    -0.016 A 
HETATM   15  C   UNL     1      -5.090   0.232 -32.771  1.00  0.00     0.069 A 
HETATM   16  C   UNL     1      -4.835  -1.112 -33.007  1.00  0.00     0.012 A 
HETATM   17  N   UNL     1      -4.217   0.590 -31.773  1.00  0.00    -0.277 N 
HETATM   18  C   UNL     1      -3.816  -1.448 -32.087  1.00  0.00     0.152 A 
HETATM   19  C   UNL     1      -5.565  -1.788 -33.998  1.00  0.00     0.015 A 
HETATM   20  N   UNL     1      -3.441  -0.416 -31.327  1.00  0.00    -0.186 NA
HETATM   21  C   UNL     1      -6.532  -1.077 -34.715  1.00  0.00     0.002 A 
HETATM   22  C   UNL     1      -6.770   0.274 -34.450  1.00  0.00     0.011 A 
HETATM   23  H   UNL     1      -4.121   1.520 -31.375  1.00  0.00     0.189 HD
ENDBRANCH  13  14
ENDBRANCH   1  13
TORSDOF 5
ENDMDL
MODEL 6
REMARK VINA RESULT:      -7.3      3.967      7.326
REMARK  5 active torsions:
REMARK  status: ('A' for Active; 'I' for Inactive)
REMARK    1  A    between atoms: C_2  and  O_3 
REMARK    2  A    between atoms: C_2  and  C_5 
REMARK    3  A    between atoms: C_7  and  N_8 
REMARK    4  A    between atoms: N_8  and  C_9 
REMARK    5  A    between atoms: C_9  and  C_10 
ROOT
HETATM    1  N   UNL     1      -8.681  -0.240 -33.219  1.00  0.00    -0.289 NA
HETATM    2  H   UNL     1      -9.037  -0.689 -32.376  1.00  0.00     0.128 HD
ENDROOT
BRANCH   1   3
HETATM    3  C   UNL     1      -7.372  -0.681 -33.480  1.00  0.00     0.009 A 
HETATM    4  C   UNL     1      -6.334  -0.222 -32.652  1.00  0.00     0.033 A 
HETATM    5  C   UNL     1      -5.005  -0.665 -32.800  1.00  0.00    -0.028 A 
HETATM    6  C   UNL     1      -4.725  -1.596 -33.806  1.00  0.00     0.010 A 
HETATM    7  C   UNL     1      -5.752  -2.110 -34.597  1.00  0.00     0.002 A 
HETATM    8  C   UNL     1      -7.066  -1.671 -34.418  1.00  0.00     0.023 A 
BRANCH   5   9
HETATM    9  C   UNL     1      -3.924  -0.093 -31.900  1.00  0.00     0.149 C 
HETATM   10  C   UNL     1      -2.664  -0.957 -31.832  1.00  0.00     0.045 C 
BRANCH   9  11
HETATM   11  O   UNL     1      -3.616   1.210 -32.402  1.00  0.00    -0.386 OA
HETATM   12  C   UNL     1      -3.671   2.224 -31.409  1.00  0.00     0.202 C 
ENDBRANCH   9  11
ENDBRANCH   5   9
ENDBRANCH   1   3
BRANCH   1  13
HETATM   13  C   UNL     1      -8.934   1.206 -33.164  1.00  0.00     0.133 C 
BRANCH  13  14
HETATM   14  C   UNL     1     -10.220   1.615 -33.849  1.00  0.00    -0.016 A 
HETATM   15  C   UNL     1     -11.435   0.910 -33.800  1.00  0.00     0.069 A 
HETATM   16  C   UNL     1     -12.611   1.339 -34.403  1.00  0.00     0.012 A 
HETATM   17  N   UNL     1     -11.757  -0.285 -33.205  1.00  0.00    -0.277 N 
HETATM   18  C   UNL     1     -13.558   0.340 -34.087  1.00  0.00     0.152 A 
HETATM   19  C   UNL     1     -12.615   2.546 -35.120  1.00  0.00     0.015 A 
HETATM   20  N   UNL     1     -13.046  -0.649 -33.350  1.00  0.00    -0.186 NA
HETATM   21  C   UNL     1     -11.428   3.280 -35.198  1.00  0.00     0.002 A 
HETATM   22  C   UNL     1     -10.263   2.824 -34.576  1.00  0.00     0.011 A 
HETATM   23  H   UNL     1     -11.116  -0.885 -32.695  1.00  0.00     0.189 HD
ENDBRANCH  13  14
ENDBRANCH   1  13
TORSDOF 5
ENDMDL
MODEL 7
REMARK VINA RESULT:      -7.2      2.973      7.206
REMARK  5 active torsions:
REMARK  status: ('A' for Active; 'I' for Inactive)
REMARK    1  A    between atoms: C_2  and  O_3 
REMARK    2  A    between atoms: C_2  and  C_5 
REMARK    3  A    between atoms: C_7  and  N_8 
REMARK    4  A    between atoms: N_8  and  C_9 
REMARK    5  A    between atoms: C_9  and  C_10 
ROOT
HETATM    1  N   UNL     1      -4.349   0.984 -31.488  1.00  0.00    -0.289 NA
HETATM    2  H   UNL     1      -5.352   0.802 -31.516  1.00  0.00     0.128 HD
ENDROOT
BRANCH   1   3
HETATM    3  C   UNL     1      -4.115   2.370 -31.474  1.00  0.00     0.009 A 
HETATM    4  C   UNL     1      -3.165   2.897 -32.366  1.00  0.00     0.033 A 
HETATM    5  C   UNL     1      -2.918   4.281 -32.466  1.00  0.00    -0.028 A 
HETATM    6  C   UNL     1      -3.651   5.146 -31.647  1.00  0.00     0.010 A 
HETATM    7  C   UNL     1      -4.641   4.647 -30.801  1.00  0.00     0.002 A 
HETATM    8  C   UNL     1      -4.884   3.273 -30.734  1.00  0.00     0.023 A 
BRANCH   5   9
HETATM    9  C   UNL     1      -1.845   4.778 -33.417  1.00  0.00     0.149 C 
HETATM   10  C   UNL     1      -2.387   5.203 -34.783  1.00  0.00     0.045 C 
BRANCH   9  11
HETATM   11  O   UNL     1      -1.195   5.875 -32.770  1.00  0.00    -0.386 OA
HETATM   12  C   UNL     1      -1.212   7.072 -33.535  1.00  0.00     0.202 C 
ENDBRANCH   9  11
ENDBRANCH   5   9
ENDBRANCH   1   3
BRANCH   1  13
HETATM   13  C   UNL     1      -3.661   0.169 -32.498  1.00  0.00     0.133 C 
BRANCH  13  14
HETATM   14  C   UNL     1      -4.604  -0.674 -33.329  1.00  0.00    -0.016 A 
HETATM   15  C   UNL     1      -5.770  -0.215 -33.967  1.00  0.00     0.069 A 
HETATM   16  C   UNL     1      -6.588  -1.008 -34.762  1.00  0.00     0.012 A 
HETATM   17  N   UNL     1      -6.364   1.022 -33.970  1.00  0.00    -0.277 N 
HETATM   18  C   UNL     1      -7.615  -0.139 -35.194  1.00  0.00     0.152 A 
HETATM   19  C   UNL     1      -6.259  -2.359 -34.954  1.00  0.00     0.015 A 
HETATM   20  N   UNL     1      -7.479   1.102 -34.720  1.00  0.00    -0.186 NA
HETATM   21  C   UNL     1      -5.110  -2.861 -34.336  1.00  0.00     0.002 A 
HETATM   22  C   UNL     1      -4.304  -2.037 -33.547  1.00  0.00     0.011 A 
HETATM   23  H   UNL     1      -6.035   1.839 -33.462  1.00  0.00     0.189 HD
ENDBRANCH  13  14
ENDBRANCH   1  13
TORSDOF 5
ENDMDL
MODEL 8
REMARK VINA RESULT:      -7.1      4.602      6.701
REMARK  5 active torsions:
REMARK  status: ('A' for Active; 'I' for Inactive)
REMARK    1  A    between atoms: C_2  and  O_3 
REMARK    2  A    between atoms: C_2  and  C_5 
REMARK    3  A    between atoms: C_7  and  N_8 
REMARK    4  A    between atoms: N_8  and  C_9 
REMARK    5  A    between atoms: C_9  and  C_10 
ROOT
HETATM    1  N   UNL     1      -9.003  -0.116 -33.354  1.00  0.00    -0.289 NA
HETATM    2  H   UNL     1      -8.842  -0.753 -34.133  1.00  0.00     0.128 HD
ENDROOT
BRANCH   1   3
HETATM    3  C   UNL     1      -9.828   0.945 -33.767  1.00  0.00     0.009 A 
HETATM    4  C   UNL     1     -11.217   0.816 -33.601  1.00  0.00     0.033 A 
HETATM    5  C   UNL     1     -12.111   1.856 -33.924  1.00  0.00    -0.028 A 
HETATM    6  C   UNL     1     -11.583   3.052 -34.421  1.00  0.00     0.010 A 
HETATM    7  C   UNL     1     -10.203   3.222 -34.534  1.00  0.00     0.002 A 
HETATM    8  C   UNL     1      -9.335   2.183 -34.187  1.00  0.00     0.023 A 
BRANCH   5   9
HETATM    9  C   UNL     1     -13.603   1.633 -33.764  1.00  0.00     0.149 C 
HETATM   10  C   UNL     1     -14.003   0.157 -33.749  1.00  0.00     0.045 C 
BRANCH   9  11
HETATM   11  O   UNL     1     -13.989   2.272 -32.545  1.00  0.00    -0.386 OA
HETATM   12  C   UNL     1     -15.358   2.082 -32.216  1.00  0.00     0.202 C 
ENDBRANCH   9  11
ENDBRANCH   5   9
ENDBRANCH   1   3
BRANCH   1  13
HETATM   13  C   UNL     1      -7.731   0.203 -32.693  1.00  0.00     0.133 C 
BRANCH  13  14
HETATM   14  C   UNL     1      -6.586  -0.681 -33.141  1.00  0.00    -0.016 A 
HETATM   15  C   UNL     1      -5.323  -0.760 -32.529  1.00  0.00     0.069 A 
HETATM   16  C   UNL     1      -4.311  -1.618 -32.938  1.00  0.00     0.012 A 
HETATM   17  N   UNL     1      -4.795  -0.069 -31.466  1.00  0.00    -0.277 N 
HETATM   18  C   UNL     1      -3.247  -1.366 -32.043  1.00  0.00     0.152 A 
HETATM   19  C   UNL     1      -4.531  -2.469 -34.033  1.00  0.00     0.015 A 
HETATM   20  N   UNL     1      -3.540  -0.429 -31.138  1.00  0.00    -0.186 NA
HETATM   21  C   UNL     1      -5.772  -2.422 -34.676  1.00  0.00     0.002 A 
HETATM   22  C   UNL     1      -6.772  -1.551 -34.236  1.00  0.00     0.011 A 
HETATM   23  H   UNL     1      -5.266   0.663 -30.942  1.00  0.00     0.189 HD
ENDBRANCH  13  14
ENDBRANCH   1  13
TORSDOF 5
ENDMDL
MODEL 9
REMARK VINA RESULT:      -7.1     15.461     16.764
REMARK  5 active torsions:
REMARK  status: ('A' for Active; 'I' for Inactive)
REMARK    1  A    between atoms: C_2  and  O_3 
REMARK    2  A    between atoms: C_2  and  C_5 
REMARK    3  A    between atoms: C_7  and  N_8 
REMARK    4  A    between atoms: N_8  and  C_9 
REMARK    5  A    between atoms: C_9  and  C_10 
ROOT
HETATM    1  N   UNL     1      -4.875 -12.231 -37.421  1.00  0.00    -0.289 NA
HETATM    2  H   UNL     1      -5.467 -12.018 -36.619  1.00  0.00     0.128 HD
ENDROOT
BRANCH   1   3
HETATM    3  C   UNL     1      -5.667 -12.389 -38.572  1.00  0.00     0.009 A 
HETATM    4  C   UNL     1      -7.060 -12.489 -38.416  1.00  0.00     0.033 A 
HETATM    5  C   UNL     1      -7.933 -12.580 -39.518  1.00  0.00    -0.028 A 
HETATM    6  C   UNL     1      -7.381 -12.567 -40.803  1.00  0.00     0.010 A 
HETATM    7  C   UNL     1      -6.007 -12.407 -40.980  1.00  0.00     0.002 A 
HETATM    8  C   UNL     1      -5.163 -12.296 -39.872  1.00  0.00     0.023 A 
BRANCH   5   9
HETATM    9  C   UNL     1      -9.424 -12.732 -39.277  1.00  0.00     0.149 C 
HETATM   10  C   UNL     1     -10.288 -11.978 -40.289  1.00  0.00     0.045 C 
BRANCH   9  11
HETATM   11  O   UNL     1      -9.709 -14.133 -39.316  1.00  0.00    -0.386 OA
HETATM   12  C   UNL     1     -10.473 -14.522 -40.448  1.00  0.00     0.202 C 
ENDBRANCH   9  11
ENDBRANCH   5   9
ENDBRANCH   1   3
BRANCH   1  13
HETATM   13  C   UNL     1      -3.924 -13.297 -37.076  1.00  0.00     0.133 C 
BRANCH  13  14
HETATM   14  C   UNL     1      -4.499 -14.326 -36.126  1.00  0.00    -0.016 A 
HETATM   15  C   UNL     1      -5.568 -14.115 -35.238  1.00  0.00     0.069 A 
HETATM   16  C   UNL     1      -6.102 -15.097 -34.413  1.00  0.00     0.012 A 
HETATM   17  N   UNL     1      -6.300 -12.986 -34.965  1.00  0.00    -0.277 N 
HETATM   18  C   UNL     1      -7.147 -14.448 -33.717  1.00  0.00     0.152 A 
HETATM   19  C   UNL     1      -5.556 -16.390 -34.441  1.00  0.00     0.015 A 
HETATM   20  N   UNL     1      -7.277 -13.163 -34.055  1.00  0.00    -0.186 NA
HETATM   21  C   UNL     1      -4.489 -16.645 -35.307  1.00  0.00     0.002 A 
HETATM   22  C   UNL     1      -3.978 -15.638 -36.129  1.00  0.00     0.011 A 
HETATM   23  H   UNL     1      -6.154 -12.070 -35.380  1.00  0.00     0.189 HD
ENDBRANCH  13  14
ENDBRANCH   1  13
TORSDOF 5
ENDMDL
MODEL 10
REMARK VINA RESULT:      -7.0      3.945      7.273
REMARK  5 active torsions:
REMARK  status: ('A' for Active; 'I' for Inactive)
REMARK    1  A    between atoms: C_2  and  O_3 
REMARK    2  A    between atoms: C_2  and  C_5 
REMARK    3  A    between atoms: C_7  and  N_8 
REMARK    4  A    between atoms: N_8  and  C_9 
REMARK    5  A    between atoms: C_9  and  C_10 
ROOT
HETATM    1  N   UNL     1      -8.759  -0.460 -33.233  1.00  0.00    -0.289 NA
HETATM    2  H   UNL     1      -9.055  -0.805 -32.321  1.00  0.00     0.128 HD
ENDROOT
BRANCH   1   3
HETATM    3  C   UNL     1      -7.422  -0.824 -33.472  1.00  0.00     0.009 A 
HETATM    4  C   UNL     1      -6.423  -0.277 -32.649  1.00  0.00     0.033 A 
HETATM    5  C   UNL     1      -5.067  -0.640 -32.775  1.00  0.00    -0.028 A 
HETATM    6  C   UNL     1      -4.720  -1.578 -33.753  1.00  0.00     0.010 A 
HETATM    7  C   UNL     1      -5.705  -2.177 -34.537  1.00  0.00     0.002 A 
HETATM    8  C   UNL     1      -7.046  -1.818 -34.380  1.00  0.00     0.023 A 
BRANCH   5   9
HETATM    9  C   UNL     1      -4.033   0.024 -31.884  1.00  0.00     0.149 C 
HETATM   10  C   UNL     1      -2.748  -0.791 -31.726  1.00  0.00     0.045 C 
BRANCH   9  11
HETATM   11  O   UNL     1      -3.752   1.303 -32.458  1.00  0.00    -0.386 OA
HETATM   12  C   UNL     1      -3.450   2.300 -31.493  1.00  0.00     0.202 C 
ENDBRANCH   9  11
ENDBRANCH   5   9
ENDBRANCH   1   3
BRANCH   1  13
HETATM   13  C   UNL     1      -9.136   0.952 -33.383  1.00  0.00     0.133 C 
BRANCH  13  14
HETATM   14  C   UNL     1     -10.586   1.145 -33.773  1.00  0.00    -0.016 A 
HETATM   15  C   UNL     1     -11.092   2.199 -34.555  1.00  0.00     0.069 A 
HETATM   16  C   UNL     1     -12.423   2.319 -34.934  1.00  0.00     0.012 A 
HETATM   17  N   UNL     1     -10.468   3.294 -35.098  1.00  0.00    -0.277 N 
HETATM   18  C   UNL     1     -12.467   3.501 -35.707  1.00  0.00     0.152 A 
HETATM   19  C   UNL     1     -13.347   1.347 -34.519  1.00  0.00     0.015 A 
HETATM   20  N   UNL     1     -11.276   4.095 -35.817  1.00  0.00    -0.186 NA
HETATM   21  C   UNL     1     -12.889   0.283 -33.737  1.00  0.00     0.002 A 
HETATM   22  C   UNL     1     -11.543   0.186 -33.377  1.00  0.00     0.011 A 
HETATM   23  H   UNL     1      -9.485   3.530 -34.991  1.00  0.00     0.189 HD
ENDBRANCH  13  14
ENDBRANCH   1  13
TORSDOF 5
ENDMDL
