MODEL 1
REMARK VINA RESULT:      -9.7      0.000      0.000
REMARK  6 active torsions:
REMARK  status: ('A' for Active; 'I' for Inactive)
REMARK    1  A    between atoms: C_7  and  S_8 
REMARK    2  A    between atoms: S_8  and  C_9 
REMARK    3  A    between atoms: C_9  and  C_10 
REMARK    4  A    between atoms: C_18  and  C_19 
REMARK    5  A    between atoms: C_29  and  C_30 
REMARK    6  A    between atoms: C_30  and  O_31 
ROOT
HETATM    1  C   UNL     1      -9.116   5.316 -32.790  1.00  0.00     0.070 C 
HETATM    2  C   UNL     1      -7.757   4.677 -32.924  1.00  0.00     0.037 C 
HETATM    3  N   UNL     1      -6.874   5.318 -33.789  1.00  0.00    -0.192 N 
HETATM    4  C   UNL     1      -5.568   4.993 -33.861  1.00  0.00     0.726 A 
HETATM    5  N   UNL     1      -5.127   3.846 -33.259  1.00  0.00    -0.082 N 
HETATM    6  N   UNL     1      -3.782   3.754 -33.306  1.00  0.00    -0.128 NA
HETATM    7  C   UNL     1      -3.482   4.847 -34.020  1.00  0.00     0.226 A 
HETATM    8  N   UNL     1      -4.553   5.629 -34.380  1.00  0.00    -0.035 NA
HETATM    9  C   UNL     1      -6.006   2.903 -32.556  1.00  0.00     0.204 C 
HETATM   10  C   UNL     1      -7.367   3.546 -32.283  1.00  0.00     0.070 C 
HETATM   11  H   UNL     1      -7.158   6.224 -34.154  1.00  0.00     0.184 HD
ENDROOT
BRANCH   9  12
HETATM   12  C   UNL     1      -6.074   1.595 -33.360  1.00  0.00    -0.017 A 
HETATM   13  C   UNL     1      -5.284   0.450 -33.022  1.00  0.00    -0.017 A 
HETATM   14  C   UNL     1      -5.424  -0.728 -33.805  1.00  0.00    -0.025 A 
HETATM   15  C   UNL     1      -4.350   0.399 -31.957  1.00  0.00     0.013 A 
HETATM   16  C   UNL     1      -4.681  -1.880 -33.499  1.00  0.00     0.012 A 
HETATM   17  C   UNL     1      -6.300  -0.751 -34.897  1.00  0.00     0.012 A 
HETATM   18  C   UNL     1      -3.783  -1.896 -32.435  1.00  0.00     0.001 A 
HETATM   19  C   UNL     1      -3.613  -0.755 -31.668  1.00  0.00     0.001 A 
HETATM   20  C   UNL     1      -7.037   0.373 -35.245  1.00  0.00     0.002 A 
HETATM   21  C   UNL     1      -6.922   1.534 -34.490  1.00  0.00     0.010 A 
ENDBRANCH   9  12
BRANCH  10  22
HETATM   22  C   UNL     1      -8.156   2.877 -31.226  1.00  0.00     0.293 C 
HETATM   23  O   UNL     1      -7.989   3.062 -30.033  1.00  0.00    -0.259 OA
BRANCH  22  24
HETATM   24  O   UNL     1      -9.146   2.136 -31.784  1.00  0.00    -0.323 OA
HETATM   25  C   UNL     1      -9.024   0.728 -31.575  1.00  0.00     0.213 C 
ENDBRANCH  22  24
ENDBRANCH  10  22
BRANCH   7  26
HETATM   26  S   UNL     1      -1.854   5.312 -34.421  1.00  0.00    -0.083 SA
BRANCH  26  27
HETATM   27  C   UNL     1      -1.708   6.894 -33.548  1.00  0.00     0.123 C 
BRANCH  27  28
HETATM   28  C   UNL     1      -1.073   6.704 -32.189  1.00  0.00    -0.027 A 
HETATM   29  C   UNL     1      -1.232   7.621 -31.137  1.00  0.00     0.041 A 
HETATM   30 CL   UNL     1      -2.211   9.037 -31.292  1.00  0.00    -0.084 Cl
HETATM   31  C   UNL     1      -0.589   7.416 -29.910  1.00  0.00     0.024 A 
HETATM   32  C   UNL     1       0.226   6.301 -29.721  1.00  0.00     0.002 A 
HETATM   33  C   UNL     1       0.400   5.387 -30.755  1.00  0.00     0.001 A 
HETATM   34  C   UNL     1      -0.242   5.587 -31.979  1.00  0.00     0.009 A 
ENDBRANCH  27  28
ENDBRANCH  26  27
ENDBRANCH   7  26
TORSDOF 6
ENDMDL
MODEL 2
REMARK VINA RESULT:      -9.4      3.392      6.704
REMARK  6 active torsions:
REMARK  status: ('A' for Active; 'I' for Inactive)
REMARK    1  A    between atoms: C_7  and  S_8 
REMARK    2  A    between atoms: S_8  and  C_9 
REMARK    3  A    between atoms: C_9  and  C_10 
REMARK    4  A    between atoms: C_18  and  C_19 
REMARK    5  A    between atoms: C_29  and  C_30 
REMARK    6  A    between atoms: C_30  and  O_31 
ROOT
HETATM    1  C   UNL     1      -3.506   6.954 -31.780  1.00  0.00     0.070 C 
HETATM    2  C   UNL     1      -4.586   6.070 -32.353  1.00  0.00     0.037 C 
HETATM    3  N   UNL     1      -5.893   6.484 -32.111  1.00  0.00    -0.192 N 
HETATM    4  C   UNL     1      -6.954   5.922 -32.721  1.00  0.00     0.726 A 
HETATM    5  N   UNL     1      -6.790   4.754 -33.413  1.00  0.00    -0.082 N 
HETATM    6  N   UNL     1      -7.915   4.415 -34.077  1.00  0.00    -0.128 NA
HETATM    7  C   UNL     1      -8.743   5.389 -33.676  1.00  0.00     0.226 A 
HETATM    8  N   UNL     1      -8.189   6.329 -32.842  1.00  0.00    -0.035 NA
HETATM    9  C   UNL     1      -5.514   4.032 -33.506  1.00  0.00     0.204 C 
HETATM   10  C   UNL     1      -4.362   4.928 -33.053  1.00  0.00     0.070 C 
HETATM   11  H   UNL     1      -6.018   7.402 -31.691  1.00  0.00     0.184 HD
ENDROOT
BRANCH   9  12
HETATM   12  C   UNL     1      -5.633   2.712 -32.730  1.00  0.00    -0.017 A 
HETATM   13  C   UNL     1      -6.088   1.503 -33.347  1.00  0.00    -0.017 A 
HETATM   14  C   UNL     1      -6.148   0.320 -32.561  1.00  0.00    -0.025 A 
HETATM   15  C   UNL     1      -6.502   1.391 -34.699  1.00  0.00     0.013 A 
HETATM   16  C   UNL     1      -6.573  -0.893 -33.130  1.00  0.00     0.012 A 
HETATM   17  C   UNL     1      -5.791   0.350 -31.208  1.00  0.00     0.012 A 
HETATM   18  C   UNL     1      -6.957  -0.966 -34.466  1.00  0.00     0.001 A 
HETATM   19  C   UNL     1      -6.926   0.177 -35.249  1.00  0.00     0.001 A 
HETATM   20  C   UNL     1      -5.386   1.533 -30.603  1.00  0.00     0.002 A 
HETATM   21  C   UNL     1      -5.313   2.701 -31.353  1.00  0.00     0.010 A 
ENDBRANCH   9  12
BRANCH  10  22
HETATM   22  C   UNL     1      -3.027   4.482 -33.506  1.00  0.00     0.293 C 
HETATM   23  O   UNL     1      -2.331   3.690 -32.893  1.00  0.00    -0.259 OA
BRANCH  22  24
HETATM   24  O   UNL     1      -2.760   4.988 -34.735  1.00  0.00    -0.323 OA
HETATM   25  C   UNL     1      -1.390   5.332 -34.951  1.00  0.00     0.213 C 
ENDBRANCH  22  24
ENDBRANCH  10  22
BRANCH   7  26
HETATM   26  S   UNL     1     -10.394   5.522 -34.212  1.00  0.00    -0.083 SA
BRANCH  26  27
HETATM   27  C   UNL     1     -11.268   4.619 -32.906  1.00  0.00     0.123 C 
BRANCH  27  28
HETATM   28  C   UNL     1     -10.780   3.191 -32.818  1.00  0.00    -0.027 A 
HETATM   29  C   UNL     1      -9.911   2.742 -31.810  1.00  0.00     0.041 A 
HETATM   30 CL   UNL     1      -9.353   3.782 -30.547  1.00  0.00    -0.084 Cl
HETATM   31  C   UNL     1      -9.457   1.418 -31.798  1.00  0.00     0.024 A 
HETATM   32  C   UNL     1      -9.858   0.528 -32.794  1.00  0.00     0.002 A 
HETATM   33  C   UNL     1     -10.713   0.959 -33.804  1.00  0.00     0.001 A 
HETATM   34  C   UNL     1     -11.169   2.278 -33.817  1.00  0.00     0.009 A 
ENDBRANCH  27  28
ENDBRANCH  26  27
ENDBRANCH   7  26
TORSDOF 6
ENDMDL
MODEL 3
REMARK VINA RESULT:      -9.3      3.987      7.786
REMARK  6 active torsions:
REMARK  status: ('A' for Active; 'I' for Inactive)
REMARK    1  A    between atoms: C_7  and  S_8 
REMARK    2  A    between atoms: S_8  and  C_9 
REMARK    3  A    between atoms: C_9  and  C_10 
REMARK    4  A    between atoms: C_18  and  C_19 
REMARK    5  A    between atoms: C_29  and  C_30 
REMARK    6  A    between atoms: C_30  and  O_31 
ROOT
HETATM    1  C   UNL     1      -3.973   6.020 -30.536  1.00  0.00     0.070 C 
HETATM    2  C   UNL     1      -5.011   5.149 -31.198  1.00  0.00     0.037 C 
HETATM    3  N   UNL     1      -6.288   5.210 -30.646  1.00  0.00    -0.192 N 
HETATM    4  C   UNL     1      -7.361   4.655 -31.242  1.00  0.00     0.726 A 
HETATM    5  N   UNL     1      -7.177   3.796 -32.290  1.00  0.00    -0.082 N 
HETATM    6  N   UNL     1      -8.354   3.453 -32.855  1.00  0.00    -0.128 NA
HETATM    7  C   UNL     1      -9.212   4.085 -32.044  1.00  0.00     0.226 A 
HETATM    8  N   UNL     1      -8.639   4.829 -31.042  1.00  0.00    -0.035 NA
HETATM    9  C   UNL     1      -5.858   3.398 -32.798  1.00  0.00     0.204 C 
HETATM   10  C   UNL     1      -4.774   4.329 -32.254  1.00  0.00     0.070 C 
HETATM   11  H   UNL     1      -6.453   5.922 -29.938  1.00  0.00     0.184 HD
ENDROOT
BRANCH   9  12
HETATM   12  C   UNL     1      -5.633   1.911 -32.482  1.00  0.00    -0.017 A 
HETATM   13  C   UNL     1      -6.058   0.870 -33.367  1.00  0.00    -0.017 A 
HETATM   14  C   UNL     1      -5.791  -0.479 -33.008  1.00  0.00    -0.025 A 
HETATM   15  C   UNL     1      -6.747   1.078 -34.589  1.00  0.00     0.013 A 
HETATM   16  C   UNL     1      -6.176  -1.532 -33.854  1.00  0.00     0.012 A 
HETATM   17  C   UNL     1      -5.147  -0.775 -31.801  1.00  0.00     0.012 A 
HETATM   18  C   UNL     1      -6.838  -1.286 -35.054  1.00  0.00     0.001 A 
HETATM   19  C   UNL     1      -7.128   0.019 -35.419  1.00  0.00     0.001 A 
HETATM   20  C   UNL     1      -4.768   0.235 -30.927  1.00  0.00     0.002 A 
HETATM   21  C   UNL     1      -5.013   1.562 -31.260  1.00  0.00     0.010 A 
ENDBRANCH   9  12
BRANCH  10  22
HETATM   22  C   UNL     1      -3.509   4.305 -33.018  1.00  0.00     0.293 C 
HETATM   23  O   UNL     1      -2.504   3.720 -32.651  1.00  0.00    -0.259 OA
BRANCH  22  24
HETATM   24  O   UNL     1      -3.677   4.920 -34.216  1.00  0.00    -0.323 OA
HETATM   25  C   UNL     1      -2.621   5.812 -34.578  1.00  0.00     0.213 C 
ENDBRANCH  22  24
ENDBRANCH  10  22
BRANCH   7  26
HETATM   26  S   UNL     1     -10.939   4.044 -32.259  1.00  0.00    -0.083 SA
BRANCH  26  27
HETATM   27  C   UNL     1     -11.078   3.249 -33.882  1.00  0.00     0.123 C 
BRANCH  27  28
HETATM   28  C   UNL     1     -12.054   2.094 -33.836  1.00  0.00    -0.027 A 
HETATM   29  C   UNL     1     -11.669   0.784 -33.504  1.00  0.00     0.041 A 
HETATM   30 CL   UNL     1     -10.044   0.384 -33.074  1.00  0.00    -0.084 Cl
HETATM   31  C   UNL     1     -12.606  -0.257 -33.514  1.00  0.00     0.024 A 
HETATM   32  C   UNL     1     -13.932  -0.006 -33.864  1.00  0.00     0.002 A 
HETATM   33  C   UNL     1     -14.327   1.284 -34.202  1.00  0.00     0.001 A 
HETATM   34  C   UNL     1     -13.396   2.325 -34.190  1.00  0.00     0.009 A 
ENDBRANCH  27  28
ENDBRANCH  26  27
ENDBRANCH   7  26
TORSDOF 6
ENDMDL
MODEL 4
REMARK VINA RESULT:      -8.9      3.465      7.397
REMARK  6 active torsions:
REMARK  status: ('A' for Active; 'I' for Inactive)
REMARK    1  A    between atoms: C_7  and  S_8 
REMARK    2  A    between atoms: S_8  and  C_9 
REMARK    3  A    between atoms: C_9  and  C_10 
REMARK    4  A    between atoms: C_18  and  C_19 
REMARK    5  A    between atoms: C_29  and  C_30 
REMARK    6  A    between atoms: C_30  and  O_31 
ROOT
HETATM    1  C   UNL     1     -10.665   3.538 -31.452  1.00  0.00     0.070 C 
HETATM    2  C   UNL     1      -9.222   3.244 -31.776  1.00  0.00     0.037 C 
HETATM    3  N   UNL     1      -8.659   2.169 -31.092  1.00  0.00    -0.192 N 
HETATM    4  C   UNL     1      -7.456   1.656 -31.414  1.00  0.00     0.726 A 
HETATM    5  N   UNL     1      -6.640   2.344 -32.270  1.00  0.00    -0.082 N 
HETATM    6  N   UNL     1      -5.548   1.621 -32.594  1.00  0.00    -0.128 NA
HETATM    7  C   UNL     1      -5.736   0.533 -31.834  1.00  0.00     0.226 A 
HETATM    8  N   UNL     1      -6.894   0.522 -31.096  1.00  0.00    -0.035 NA
HETATM    9  C   UNL     1      -6.977   3.653 -32.844  1.00  0.00     0.204 C 
HETATM   10  C   UNL     1      -8.465   3.951 -32.654  1.00  0.00     0.070 C 
HETATM   11  H   UNL     1      -9.288   1.592 -30.538  1.00  0.00     0.184 HD
ENDROOT
BRANCH   9  12
HETATM   12  C   UNL     1      -6.038   4.713 -32.249  1.00  0.00    -0.017 A 
HETATM   13  C   UNL     1      -4.902   5.213 -32.962  1.00  0.00    -0.017 A 
HETATM   14  C   UNL     1      -4.097   6.209 -32.346  1.00  0.00    -0.025 A 
HETATM   15  C   UNL     1      -4.502   4.779 -34.252  1.00  0.00     0.013 A 
HETATM   16  C   UNL     1      -2.982   6.740 -33.017  1.00  0.00     0.012 A 
HETATM   17  C   UNL     1      -4.401   6.668 -31.059  1.00  0.00     0.012 A 
HETATM   18  C   UNL     1      -2.630   6.299 -34.289  1.00  0.00     0.001 A 
HETATM   19  C   UNL     1      -3.387   5.314 -34.905  1.00  0.00     0.001 A 
HETATM   20  C   UNL     1      -5.482   6.154 -30.354  1.00  0.00     0.002 A 
HETATM   21  C   UNL     1      -6.287   5.184 -30.939  1.00  0.00     0.010 A 
ENDBRANCH   9  12
BRANCH  10  22
HETATM   22  C   UNL     1      -8.996   5.000 -33.549  1.00  0.00     0.293 C 
HETATM   23  O   UNL     1      -8.955   6.193 -33.299  1.00  0.00    -0.259 OA
BRANCH  22  24
HETATM   24  O   UNL     1      -9.419   4.448 -34.713  1.00  0.00    -0.323 OA
HETATM   25  C   UNL     1     -10.679   4.935 -35.180  1.00  0.00     0.213 C 
ENDBRANCH  22  24
ENDBRANCH  10  22
BRANCH   7  26
HETATM   26  S   UNL     1      -4.642  -0.821 -31.815  1.00  0.00    -0.083 SA
BRANCH  26  27
HETATM   27  C   UNL     1      -4.315  -1.042 -33.585  1.00  0.00     0.123 C 
BRANCH  27  28
HETATM   28  C   UNL     1      -4.903  -2.343 -34.084  1.00  0.00    -0.027 A 
HETATM   29  C   UNL     1      -6.183  -2.432 -34.654  1.00  0.00     0.041 A 
HETATM   30 CL   UNL     1      -7.190  -1.045 -34.877  1.00  0.00    -0.084 Cl
HETATM   31  C   UNL     1      -6.695  -3.669 -35.063  1.00  0.00     0.024 A 
HETATM   32  C   UNL     1      -5.941  -4.831 -34.901  1.00  0.00     0.002 A 
HETATM   33  C   UNL     1      -4.675  -4.760 -34.331  1.00  0.00     0.001 A 
HETATM   34  C   UNL     1      -4.160  -3.528 -33.925  1.00  0.00     0.009 A 
ENDBRANCH  27  28
ENDBRANCH  26  27
ENDBRANCH   7  26
TORSDOF 6
ENDMDL
MODEL 5
REMARK VINA RESULT:      -8.9      3.520      6.703
REMARK  6 active torsions:
REMARK  status: ('A' for Active; 'I' for Inactive)
REMARK    1  A    between atoms: C_7  and  S_8 
REMARK    2  A    between atoms: S_8  and  C_9 
REMARK    3  A    between atoms: C_9  and  C_10 
REMARK    4  A    between atoms: C_18  and  C_19 
REMARK    5  A    between atoms: C_29  and  C_30 
REMARK    6  A    between atoms: C_30  and  O_31 
ROOT
HETATM    1  C   UNL     1     -11.222   3.548 -32.172  1.00  0.00     0.070 C 
HETATM    2  C   UNL     1      -9.948   2.920 -32.679  1.00  0.00     0.037 C 
HETATM    3  N   UNL     1      -9.854   1.540 -32.520  1.00  0.00    -0.192 N 
HETATM    4  C   UNL     1      -8.880   0.811 -33.098  1.00  0.00     0.726 A 
HETATM    5  N   UNL     1      -7.805   1.447 -33.656  1.00  0.00    -0.082 N 
HETATM    6  N   UNL     1      -7.007   0.579 -34.312  1.00  0.00    -0.128 NA
HETATM    7  C   UNL     1      -7.625  -0.579 -34.042  1.00  0.00     0.226 A 
HETATM    8  N   UNL     1      -8.774  -0.475 -33.298  1.00  0.00    -0.035 NA
HETATM    9  C   UNL     1      -7.617   2.903 -33.634  1.00  0.00     0.204 C 
HETATM   10  C   UNL     1      -8.920   3.603 -33.246  1.00  0.00     0.070 C 
HETATM   11  H   UNL     1     -10.688   1.051 -32.205  1.00  0.00     0.184 HD
ENDROOT
BRANCH   9  12
HETATM   12  C   UNL     1      -6.424   3.236 -32.725  1.00  0.00    -0.017 A 
HETATM   13  C   UNL     1      -5.288   3.969 -33.195  1.00  0.00    -0.017 A 
HETATM   14  C   UNL     1      -4.237   4.253 -32.282  1.00  0.00    -0.025 A 
HETATM   15  C   UNL     1      -5.119   4.433 -34.524  1.00  0.00     0.013 A 
HETATM   16  C   UNL     1      -3.111   4.984 -32.695  1.00  0.00     0.012 A 
HETATM   17  C   UNL     1      -4.308   3.801 -30.959  1.00  0.00     0.012 A 
HETATM   18  C   UNL     1      -2.988   5.436 -34.007  1.00  0.00     0.001 A 
HETATM   19  C   UNL     1      -3.990   5.156 -34.922  1.00  0.00     0.001 A 
HETATM   20  C   UNL     1      -5.394   3.058 -30.516  1.00  0.00     0.002 A 
HETATM   21  C   UNL     1      -6.437   2.773 -31.389  1.00  0.00     0.010 A 
ENDBRANCH   9  12
BRANCH  10  22
HETATM   22  C   UNL     1      -8.976   5.034 -33.609  1.00  0.00     0.293 C 
HETATM   23  O   UNL     1      -8.754   5.944 -32.827  1.00  0.00    -0.259 OA
BRANCH  22  24
HETATM   24  O   UNL     1      -9.192   5.168 -34.942  1.00  0.00    -0.323 OA
HETATM   25  C   UNL     1     -10.546   5.452 -35.299  1.00  0.00     0.213 C 
ENDBRANCH  22  24
ENDBRANCH  10  22
BRANCH   7  26
HETATM   26  S   UNL     1      -7.073  -2.119 -34.638  1.00  0.00    -0.083 SA
BRANCH  26  27
HETATM   27  C   UNL     1      -5.316  -1.782 -34.929  1.00  0.00     0.123 C 
BRANCH  27  28
HETATM   28  C   UNL     1      -4.465  -2.360 -33.820  1.00  0.00    -0.027 A 
HETATM   29  C   UNL     1      -3.917  -1.576 -32.791  1.00  0.00     0.041 A 
HETATM   30 CL   UNL     1      -4.205   0.124 -32.678  1.00  0.00    -0.084 Cl
HETATM   31  C   UNL     1      -3.102  -2.156 -31.812  1.00  0.00     0.024 A 
HETATM   32  C   UNL     1      -2.819  -3.521 -31.851  1.00  0.00     0.002 A 
HETATM   33  C   UNL     1      -3.348  -4.309 -32.867  1.00  0.00     0.001 A 
HETATM   34  C   UNL     1      -4.162  -3.735 -33.844  1.00  0.00     0.009 A 
ENDBRANCH  27  28
ENDBRANCH  26  27
ENDBRANCH   7  26
TORSDOF 6
ENDMDL
MODEL 6
REMARK VINA RESULT:      -8.8      3.341      7.258
REMARK  6 active torsions:
REMARK  status: ('A' for Active; 'I' for Inactive)
REMARK    1  A    between atoms: C_7  and  S_8 
REMARK    2  A    between atoms: S_8  and  C_9 
REMARK    3  A    between atoms: C_9  and  C_10 
REMARK    4  A    between atoms: C_18  and  C_19 
REMARK    5  A    between atoms: C_29  and  C_30 
REMARK    6  A    between atoms: C_30  and  O_31 
ROOT
HETATM    1  C   UNL     1      -8.688   4.831 -29.894  1.00  0.00     0.070 C 
HETATM    2  C   UNL     1      -7.412   4.298 -30.496  1.00  0.00     0.037 C 
HETATM    3  N   UNL     1      -6.882   3.168 -29.879  1.00  0.00    -0.192 N 
HETATM    4  C   UNL     1      -5.870   2.459 -30.415  1.00  0.00     0.726 A 
HETATM    5  N   UNL     1      -5.166   2.982 -31.465  1.00  0.00    -0.082 N 
HETATM    6  N   UNL     1      -4.293   2.083 -31.966  1.00  0.00    -0.128 NA
HETATM    7  C   UNL     1      -4.472   1.063 -31.117  1.00  0.00     0.226 A 
HETATM    8  N   UNL     1      -5.429   1.259 -30.152  1.00  0.00    -0.035 NA
HETATM    9  C   UNL     1      -5.419   4.310 -32.037  1.00  0.00     0.204 C 
HETATM   10  C   UNL     1      -6.767   4.849 -31.556  1.00  0.00     0.070 C 
HETATM   11  H   UNL     1      -7.454   2.716 -29.169  1.00  0.00     0.184 HD
ENDROOT
BRANCH   9  12
HETATM   12  C   UNL     1      -4.224   5.222 -31.721  1.00  0.00    -0.017 A 
HETATM   13  C   UNL     1      -3.176   5.462 -32.667  1.00  0.00    -0.017 A 
HETATM   14  C   UNL     1      -2.117   6.337 -32.302  1.00  0.00    -0.025 A 
HETATM   15  C   UNL     1      -3.103   4.878 -33.957  1.00  0.00     0.013 A 
HETATM   16  C   UNL     1      -1.077   6.614 -33.205  1.00  0.00     0.012 A 
HETATM   17  C   UNL     1      -2.094   6.928 -31.034  1.00  0.00     0.012 A 
HETATM   18  C   UNL     1      -1.048   6.032 -34.470  1.00  0.00     0.001 A 
HETATM   19  C   UNL     1      -2.059   5.160 -34.844  1.00  0.00     0.001 A 
HETATM   20  C   UNL     1      -3.092   6.664 -30.104  1.00  0.00     0.002 A 
HETATM   21  C   UNL     1      -4.141   5.817 -30.442  1.00  0.00     0.010 A 
ENDBRANCH   9  12
BRANCH  10  22
HETATM   22  C   UNL     1      -7.317   5.943 -32.384  1.00  0.00     0.293 C 
HETATM   23  O   UNL     1      -7.442   7.093 -31.996  1.00  0.00    -0.259 OA
BRANCH  22  24
HETATM   24  O   UNL     1      -7.544   5.503 -33.646  1.00  0.00    -0.323 OA
HETATM   25  C   UNL     1      -8.888   5.090 -33.900  1.00  0.00     0.213 C 
ENDBRANCH  22  24
ENDBRANCH  10  22
BRANCH   7  26
HETATM   26  S   UNL     1      -3.617  -0.449 -31.243  1.00  0.00    -0.083 SA
BRANCH  26  27
HETATM   27  C   UNL     1      -3.417  -0.597 -33.039  1.00  0.00     0.123 C 
BRANCH  27  28
HETATM   28  C   UNL     1      -4.607  -1.297 -33.658  1.00  0.00    -0.027 A 
HETATM   29  C   UNL     1      -4.684  -2.693 -33.795  1.00  0.00     0.041 A 
HETATM   30 CL   UNL     1      -3.436  -3.744 -33.225  1.00  0.00    -0.084 Cl
HETATM   31  C   UNL     1      -5.792  -3.287 -34.412  1.00  0.00     0.024 A 
HETATM   32  C   UNL     1      -6.829  -2.497 -34.906  1.00  0.00     0.002 A 
HETATM   33  C   UNL     1      -6.764  -1.113 -34.785  1.00  0.00     0.001 A 
HETATM   34  C   UNL     1      -5.663  -0.517 -34.167  1.00  0.00     0.009 A 
ENDBRANCH  27  28
ENDBRANCH  26  27
ENDBRANCH   7  26
TORSDOF 6
ENDMDL
MODEL 7
REMARK VINA RESULT:      -8.6      3.972      7.620
REMARK  6 active torsions:
REMARK  status: ('A' for Active; 'I' for Inactive)
REMARK    1  A    between atoms: C_7  and  S_8 
REMARK    2  A    between atoms: S_8  and  C_9 
REMARK    3  A    between atoms: C_9  and  C_10 
REMARK    4  A    between atoms: C_18  and  C_19 
REMARK    5  A    between atoms: C_29  and  C_30 
REMARK    6  A    between atoms: C_30  and  O_31 
ROOT
HETATM    1  C   UNL     1      -2.995   5.948 -30.585  1.00  0.00     0.070 C 
HETATM    2  C   UNL     1      -4.168   5.095 -31.000  1.00  0.00     0.037 C 
HETATM    3  N   UNL     1      -5.258   5.110 -30.134  1.00  0.00    -0.192 N 
HETATM    4  C   UNL     1      -6.448   4.568 -30.460  1.00  0.00     0.726 A 
HETATM    5  N   UNL     1      -6.540   3.764 -31.563  1.00  0.00    -0.082 N 
HETATM    6  N   UNL     1      -7.822   3.431 -31.821  1.00  0.00    -0.128 NA
HETATM    7  C   UNL     1      -8.443   4.010 -30.784  1.00  0.00     0.226 A 
HETATM    8  N   UNL     1      -7.631   4.714 -29.929  1.00  0.00    -0.035 NA
HETATM    9  C   UNL     1      -5.397   3.410 -32.413  1.00  0.00     0.204 C 
HETATM   10  C   UNL     1      -4.211   4.330 -32.121  1.00  0.00     0.070 C 
HETATM   11  H   UNL     1      -5.236   5.784 -29.373  1.00  0.00     0.184 HD
ENDROOT
BRANCH   9  12
HETATM   12  C   UNL     1      -5.095   1.914 -32.242  1.00  0.00    -0.017 A 
HETATM   13  C   UNL     1      -5.617   0.923 -33.133  1.00  0.00    -0.017 A 
HETATM   14  C   UNL     1      -5.270  -0.438 -32.915  1.00  0.00    -0.025 A 
HETATM   15  C   UNL     1      -6.475   1.193 -34.229  1.00  0.00     0.013 A 
HETATM   16  C   UNL     1      -5.746  -1.442 -33.775  1.00  0.00     0.012 A 
HETATM   17  C   UNL     1      -4.455  -0.796 -31.834  1.00  0.00     0.012 A 
HETATM   18  C   UNL     1      -6.576  -1.135 -34.850  1.00  0.00     0.001 A 
HETATM   19  C   UNL     1      -6.944   0.182 -35.074  1.00  0.00     0.001 A 
HETATM   20  C   UNL     1      -3.981   0.164 -30.949  1.00  0.00     0.002 A 
HETATM   21  C   UNL     1      -4.301   1.502 -31.146  1.00  0.00     0.010 A 
ENDBRANCH   9  12
BRANCH  10  22
HETATM   22  C   UNL     1      -3.186   4.362 -33.186  1.00  0.00     0.293 C 
HETATM   23  O   UNL     1      -2.400   3.455 -33.401  1.00  0.00    -0.259 OA
BRANCH  22  24
HETATM   24  O   UNL     1      -3.333   5.480 -33.941  1.00  0.00    -0.323 OA
HETATM   25  C   UNL     1      -3.866   5.250 -35.246  1.00  0.00     0.213 C 
ENDBRANCH  22  24
ENDBRANCH  10  22
BRANCH   7  26
HETATM   26  S   UNL     1     -10.167   3.954 -30.548  1.00  0.00    -0.083 SA
BRANCH  26  27
HETATM   27  C   UNL     1     -10.768   4.228 -32.237  1.00  0.00     0.123 C 
BRANCH  27  28
HETATM   28  C   UNL     1     -11.990   3.382 -32.518  1.00  0.00    -0.027 A 
HETATM   29  C   UNL     1     -12.001   2.354 -33.475  1.00  0.00     0.041 A 
HETATM   30 CL   UNL     1     -10.597   1.934 -34.391  1.00  0.00    -0.084 Cl
HETATM   31  C   UNL     1     -13.172   1.628 -33.724  1.00  0.00     0.024 A 
HETATM   32  C   UNL     1     -14.345   1.923 -33.030  1.00  0.00     0.002 A 
HETATM   33  C   UNL     1     -14.351   2.943 -32.084  1.00  0.00     0.001 A 
HETATM   34  C   UNL     1     -13.185   3.668 -31.831  1.00  0.00     0.009 A 
ENDBRANCH  27  28
ENDBRANCH  26  27
ENDBRANCH   7  26
TORSDOF 6
ENDMDL
MODEL 8
REMARK VINA RESULT:      -8.5      3.476      7.342
REMARK  6 active torsions:
REMARK  status: ('A' for Active; 'I' for Inactive)
REMARK    1  A    between atoms: C_7  and  S_8 
REMARK    2  A    between atoms: S_8  and  C_9 
REMARK    3  A    between atoms: C_9  and  C_10 
REMARK    4  A    between atoms: C_18  and  C_19 
REMARK    5  A    between atoms: C_29  and  C_30 
REMARK    6  A    between atoms: C_30  and  O_31 
ROOT
HETATM    1  C   UNL     1      -5.200   6.656 -28.453  1.00  0.00     0.070 C 
HETATM    2  C   UNL     1      -5.369   5.691 -29.600  1.00  0.00     0.037 C 
HETATM    3  N   UNL     1      -5.187   4.346 -29.286  1.00  0.00    -0.192 N 
HETATM    4  C   UNL     1      -5.499   3.355 -30.143  1.00  0.00     0.726 A 
HETATM    5  N   UNL     1      -5.772   3.657 -31.449  1.00  0.00    -0.082 N 
HETATM    6  N   UNL     1      -6.205   2.571 -32.123  1.00  0.00    -0.128 NA
HETATM    7  C   UNL     1      -6.093   1.630 -31.176  1.00  0.00     0.226 A 
HETATM    8  N   UNL     1      -5.661   2.074 -29.950  1.00  0.00    -0.035 NA
HETATM    9  C   UNL     1      -5.710   5.015 -32.003  1.00  0.00     0.204 C 
HETATM   10  C   UNL     1      -5.663   6.048 -30.876  1.00  0.00     0.070 C 
HETATM   11  H   UNL     1      -5.089   4.109 -28.302  1.00  0.00     0.184 HD
ENDROOT
BRANCH   9  12
HETATM   12  C   UNL     1      -4.532   5.096 -32.986  1.00  0.00    -0.017 A 
HETATM   13  C   UNL     1      -3.178   5.233 -32.544  1.00  0.00    -0.017 A 
HETATM   14  C   UNL     1      -2.145   5.278 -33.520  1.00  0.00    -0.025 A 
HETATM   15  C   UNL     1      -2.776   5.339 -31.188  1.00  0.00     0.013 A 
HETATM   16  C   UNL     1      -0.801   5.395 -33.131  1.00  0.00     0.012 A 
HETATM   17  C   UNL     1      -2.458   5.215 -34.883  1.00  0.00     0.012 A 
HETATM   18  C   UNL     1      -0.445   5.482 -31.788  1.00  0.00     0.001 A 
HETATM   19  C   UNL     1      -1.433   5.459 -30.817  1.00  0.00     0.001 A 
HETATM   20  C   UNL     1      -3.776   5.120 -35.310  1.00  0.00     0.002 A 
HETATM   21  C   UNL     1      -4.802   5.067 -34.374  1.00  0.00     0.010 A 
ENDBRANCH   9  12
BRANCH  10  22
HETATM   22  C   UNL     1      -6.034   7.418 -31.289  1.00  0.00     0.293 C 
HETATM   23  O   UNL     1      -7.182   7.827 -31.336  1.00  0.00    -0.259 OA
BRANCH  22  24
HETATM   24  O   UNL     1      -4.917   8.163 -31.487  1.00  0.00    -0.323 OA
HETATM   25  C   UNL     1      -4.935   9.442 -30.849  1.00  0.00     0.213 C 
ENDBRANCH  22  24
ENDBRANCH  10  22
BRANCH   7  26
HETATM   26  S   UNL     1      -6.526  -0.037 -31.428  1.00  0.00    -0.083 SA
BRANCH  26  27
HETATM   27  C   UNL     1      -6.680  -0.098 -33.234  1.00  0.00     0.123 C 
BRANCH  27  28
HETATM   28  C   UNL     1      -6.190  -1.423 -33.773  1.00  0.00    -0.027 A 
HETATM   29  C   UNL     1      -4.827  -1.750 -33.872  1.00  0.00     0.041 A 
HETATM   30 CL   UNL     1      -3.583  -0.674 -33.341  1.00  0.00    -0.084 Cl
HETATM   31  C   UNL     1      -4.427  -2.976 -34.416  1.00  0.00     0.024 A 
HETATM   32  C   UNL     1      -5.379  -3.886 -34.875  1.00  0.00     0.002 A 
HETATM   33  C   UNL     1      -6.732  -3.574 -34.791  1.00  0.00     0.001 A 
HETATM   34  C   UNL     1      -7.134  -2.354 -34.246  1.00  0.00     0.009 A 
ENDBRANCH  27  28
ENDBRANCH  26  27
ENDBRANCH   7  26
TORSDOF 6
ENDMDL
MODEL 9
REMARK VINA RESULT:      -8.4      2.069      4.670
REMARK  6 active torsions:
REMARK  status: ('A' for Active; 'I' for Inactive)
REMARK    1  A    between atoms: C_7  and  S_8 
REMARK    2  A    between atoms: S_8  and  C_9 
REMARK    3  A    between atoms: C_9  and  C_10 
REMARK    4  A    between atoms: C_18  and  C_19 
REMARK    5  A    between atoms: C_29  and  C_30 
REMARK    6  A    between atoms: C_30  and  O_31 
ROOT
HETATM    1  C   UNL     1      -3.778  -1.045 -31.716  1.00  0.00     0.070 C 
HETATM    2  C   UNL     1      -4.218   0.347 -32.094  1.00  0.00     0.037 C 
HETATM    3  N   UNL     1      -3.337   1.369 -31.750  1.00  0.00    -0.192 N 
HETATM    4  C   UNL     1      -3.487   2.632 -32.194  1.00  0.00     0.726 A 
HETATM    5  N   UNL     1      -4.659   2.998 -32.797  1.00  0.00    -0.082 N 
HETATM    6  N   UNL     1      -4.580   4.245 -33.306  1.00  0.00    -0.128 NA
HETATM    7  C   UNL     1      -3.353   4.601 -32.904  1.00  0.00     0.226 A 
HETATM    8  N   UNL     1      -2.655   3.638 -32.218  1.00  0.00    -0.035 NA
HETATM    9  C   UNL     1      -5.807   2.097 -32.964  1.00  0.00     0.204 C 
HETATM   10  C   UNL     1      -5.388   0.648 -32.713  1.00  0.00     0.070 C 
HETATM   11  H   UNL     1      -2.422   1.095 -31.399  1.00  0.00     0.184 HD
ENDROOT
BRANCH   9  12
HETATM   12  C   UNL     1      -6.956   2.588 -32.069  1.00  0.00    -0.017 A 
HETATM   13  C   UNL     1      -8.286   2.768 -32.566  1.00  0.00    -0.017 A 
HETATM   14  C   UNL     1      -9.295   3.205 -31.666  1.00  0.00    -0.025 A 
HETATM   15  C   UNL     1      -8.682   2.554 -33.911  1.00  0.00     0.013 A 
HETATM   16  C   UNL     1     -10.617   3.380 -32.106  1.00  0.00     0.012 A 
HETATM   17  C   UNL     1      -8.981   3.474 -30.328  1.00  0.00     0.012 A 
HETATM   18  C   UNL     1     -10.971   3.144 -33.432  1.00  0.00     0.001 A 
HETATM   19  C   UNL     1     -10.003   2.736 -34.336  1.00  0.00     0.001 A 
HETATM   20  C   UNL     1      -7.681   3.334 -29.858  1.00  0.00     0.002 A 
HETATM   21  C   UNL     1      -6.680   2.902 -30.719  1.00  0.00     0.010 A 
ENDBRANCH   9  12
BRANCH  10  22
HETATM   22  C   UNL     1      -6.317  -0.360 -33.265  1.00  0.00     0.293 C 
HETATM   23  O   UNL     1      -7.375  -0.668 -32.743  1.00  0.00    -0.259 OA
BRANCH  22  24
HETATM   24  O   UNL     1      -5.874  -0.789 -34.474  1.00  0.00    -0.323 OA
HETATM   25  C   UNL     1      -5.884  -2.208 -34.641  1.00  0.00     0.213 C 
ENDBRANCH  22  24
ENDBRANCH  10  22
BRANCH   7  26
HETATM   26  S   UNL     1      -2.635   6.144 -33.272  1.00  0.00    -0.083 SA
BRANCH  26  27
HETATM   27  C   UNL     1      -0.936   5.895 -32.691  1.00  0.00     0.123 C 
BRANCH  27  28
HETATM   28  C   UNL     1      -0.713   6.585 -31.364  1.00  0.00    -0.027 A 
HETATM   29  C   UNL     1       0.251   6.159 -30.435  1.00  0.00     0.041 A 
HETATM   30 CL   UNL     1       1.305   4.826 -30.750  1.00  0.00    -0.084 Cl
HETATM   31  C   UNL     1       0.389   6.810 -29.204  1.00  0.00     0.024 A 
HETATM   32  C   UNL     1      -0.437   7.886 -28.880  1.00  0.00     0.002 A 
HETATM   33  C   UNL     1      -1.402   8.315 -29.786  1.00  0.00     0.001 A 
HETATM   34  C   UNL     1      -1.540   7.670 -31.016  1.00  0.00     0.009 A 
ENDBRANCH  27  28
ENDBRANCH  26  27
ENDBRANCH   7  26
TORSDOF 6
ENDMDL
MODEL 10
REMARK VINA RESULT:      -8.4      3.612      8.269
REMARK  6 active torsions:
REMARK  status: ('A' for Active; 'I' for Inactive)
REMARK    1  A    between atoms: C_7  and  S_8 
REMARK    2  A    between atoms: S_8  and  C_9 
REMARK    3  A    between atoms: C_9  and  C_10 
REMARK    4  A    between atoms: C_18  and  C_19 
REMARK    5  A    between atoms: C_29  and  C_30 
REMARK    6  A    between atoms: C_30  and  O_31 
ROOT
HETATM    1  C   UNL     1      -1.520   5.194 -34.867  1.00  0.00     0.070 C 
HETATM    2  C   UNL     1      -2.376   5.081 -33.630  1.00  0.00     0.037 C 
HETATM    3  N   UNL     1      -3.642   4.534 -33.823  1.00  0.00    -0.192 N 
HETATM    4  C   UNL     1      -4.441   4.181 -32.798  1.00  0.00     0.726 A 
HETATM    5  N   UNL     1      -4.126   4.585 -31.530  1.00  0.00    -0.082 N 
HETATM    6  N   UNL     1      -4.946   4.023 -30.618  1.00  0.00    -0.128 NA
HETATM    7  C   UNL     1      -5.783   3.349 -31.418  1.00  0.00     0.226 A 
HETATM    8  N   UNL     1      -5.506   3.426 -32.761  1.00  0.00    -0.035 NA
HETATM    9  C   UNL     1      -2.969   5.429 -31.206  1.00  0.00     0.204 C 
HETATM   10  C   UNL     1      -2.000   5.480 -32.388  1.00  0.00     0.070 C 
HETATM   11  H   UNL     1      -3.841   4.137 -34.738  1.00  0.00     0.184 HD
ENDROOT
BRANCH   9  12
HETATM   12  C   UNL     1      -3.473   6.804 -30.741  1.00  0.00    -0.017 A 
HETATM   13  C   UNL     1      -2.896   7.490 -29.624  1.00  0.00    -0.017 A 
HETATM   14  C   UNL     1      -3.408   8.768 -29.274  1.00  0.00    -0.025 A 
HETATM   15  C   UNL     1      -1.845   6.983 -28.820  1.00  0.00     0.013 A 
HETATM   16  C   UNL     1      -2.862   9.484 -28.196  1.00  0.00     0.012 A 
HETATM   17  C   UNL     1      -4.470   9.327 -29.995  1.00  0.00     0.012 A 
HETATM   18  C   UNL     1      -1.819   8.959 -27.438  1.00  0.00     0.001 A 
HETATM   19  C   UNL     1      -1.314   7.706 -27.746  1.00  0.00     0.001 A 
HETATM   20  C   UNL     1      -5.052   8.642 -31.054  1.00  0.00     0.002 A 
HETATM   21  C   UNL     1      -4.564   7.394 -31.419  1.00  0.00     0.010 A 
ENDBRANCH   9  12
BRANCH  10  22
HETATM   22  C   UNL     1      -0.633   5.920 -32.038  1.00  0.00     0.293 C 
HETATM   23  O   UNL     1      -0.265   7.083 -32.064  1.00  0.00    -0.259 OA
BRANCH  22  24
HETATM   24  O   UNL     1       0.092   4.869 -31.582  1.00  0.00    -0.323 OA
HETATM   25  C   UNL     1       0.771   5.105 -30.347  1.00  0.00     0.213 C 
ENDBRANCH  22  24
ENDBRANCH  10  22
BRANCH   7  26
HETATM   26  S   UNL     1      -7.100   2.378 -30.824  1.00  0.00    -0.083 SA
BRANCH  26  27
HETATM   27  C   UNL     1      -6.251   0.822 -30.440  1.00  0.00     0.123 C 
BRANCH  27  28
HETATM   28  C   UNL     1      -6.055  -0.008 -31.689  1.00  0.00    -0.027 A 
HETATM   29  C   UNL     1      -4.807  -0.528 -32.070  1.00  0.00     0.041 A 
HETATM   30 CL   UNL     1      -3.385  -0.301 -31.115  1.00  0.00    -0.084 Cl
HETATM   31  C   UNL     1      -4.673  -1.257 -33.258  1.00  0.00     0.024 A 
HETATM   32  C   UNL     1      -5.777  -1.467 -34.083  1.00  0.00     0.002 A 
HETATM   33  C   UNL     1      -7.018  -0.952 -33.723  1.00  0.00     0.001 A 
HETATM   34  C   UNL     1      -7.156  -0.227 -32.538  1.00  0.00     0.009 A 
ENDBRANCH  27  28
ENDBRANCH  26  27
ENDBRANCH   7  26
TORSDOF 6
ENDMDL
