MODEL 1
REMARK VINA RESULT:      -9.8      0.000      0.000
REMARK  9 active torsions:
REMARK  status: ('A' for Active; 'I' for Inactive)
REMARK    1  A    between atoms: C_7  and  C_8 
REMARK    2  A    between atoms: C_9  and  O_10 
REMARK    3  A    between atoms: C_13  and  N_14 
REMARK    4  A    between atoms: N_14  and  C_15 
REMARK    5  A    between atoms: C_15  and  N_16 
REMARK       I    between atoms: N_16  and  C_17 
REMARK    6  A    between atoms: C_17  and  C_18 
REMARK    7  A    between atoms: C_20  and  O_21 
REMARK    8  A    between atoms: O_21  and  C_22 
REMARK    9  A    between atoms: C_22  and  C_23 
ROOT
HETATM    1  C   UNL     1      -8.224   1.868 -32.635  1.00  0.00     0.052 A 
HETATM    2  C   UNL     1      -8.974   1.781 -31.455  1.00  0.00     0.080 A 
HETATM    3  C   UNL     1      -9.398   2.935 -30.788  1.00  0.00     0.040 A 
HETATM    4  C   UNL     1      -9.075   4.197 -31.295  1.00  0.00     0.032 A 
HETATM    5  C   UNL     1      -8.395   4.309 -32.506  1.00  0.00     0.035 A 
HETATM    6  C   UNL     1      -7.976   3.150 -33.163  1.00  0.00     0.048 A 
ENDROOT
BRANCH   5   7
HETATM    7  N   UNL     1      -8.027   5.589 -32.962  1.00  0.00    -0.333 N 
HETATM    8  H   UNL     1      -8.587   5.974 -33.722  1.00  0.00     0.168 HD
BRANCH   7   9
HETATM    9  C   UNL     1      -7.087   6.436 -32.432  1.00  0.00     0.179 C 
HETATM   10  S   UNL     1      -7.363   7.919 -31.703  1.00  0.00    -0.040 SA
BRANCH   9  11
HETATM   11  N   UNL     1      -5.781   6.017 -32.511  1.00  0.00    -0.299 N 
HETATM   12  C   UNL     1      -5.118   5.552 -33.637  1.00  0.00     0.257 C 
HETATM   13  O   UNL     1      -5.653   4.997 -34.588  1.00  0.00    -0.267 OA
HETATM   14  H   UNL     1      -5.223   6.414 -31.766  1.00  0.00     0.171 HD
BRANCH  12  15
HETATM   15  C   UNL     1      -3.653   5.785 -33.617  1.00  0.00     0.035 A 
HETATM   16  C   UNL     1      -3.072   6.634 -32.666  1.00  0.00     0.053 A 
HETATM   17  C   UNL     1      -1.716   6.947 -32.753  1.00  0.00     0.069 A 
HETATM   18  C   UNL     1      -0.948   6.384 -33.777  1.00  0.00     0.037 A 
HETATM   19  C   UNL     1      -1.519   5.510 -34.704  1.00  0.00     0.004 A 
HETATM   20  C   UNL     1      -2.877   5.205 -34.625  1.00  0.00     0.017 A 
BRANCH  17  21
HETATM   21  O   UNL     1      -1.036   7.799 -31.928  1.00  0.00    -0.351 OA
BRANCH  21  22
HETATM   22  C   UNL     1      -1.056   7.516 -30.528  1.00  0.00     0.179 C 
BRANCH  22  23
HETATM   23  C   UNL     1       0.330   7.037 -30.068  1.00  0.00     0.002 C 
HETATM   24  C   UNL     1       0.743   7.692 -28.751  1.00  0.00     0.011 C 
HETATM   25  C   UNL     1       0.367   5.514 -29.932  1.00  0.00     0.011 C 
ENDBRANCH  22  23
ENDBRANCH  21  22
ENDBRANCH  17  21
ENDBRANCH  12  15
ENDBRANCH   9  11
ENDBRANCH   7   9
ENDBRANCH   5   7
BRANCH   1  26
HETATM   26  C   UNL     1      -7.597   0.706 -33.269  1.00  0.00     0.183 A 
HETATM   27  O   UNL     1      -6.229   0.624 -33.133  1.00  0.00    -0.288 OA
HETATM   28  C   UNL     1      -5.911  -0.614 -33.606  1.00  0.00     0.112 A 
HETATM   29  C   UNL     1      -7.086  -1.211 -34.029  1.00  0.00     0.094 A 
HETATM   30  C   UNL     1      -4.650  -1.207 -33.633  1.00  0.00    -0.025 A 
HETATM   31  C   UNL     1      -7.043  -2.519 -34.525  1.00  0.00     0.041 A 
HETATM   32  N   UNL     1      -8.143  -0.361 -33.829  1.00  0.00    -0.221 NA
HETATM   33  C   UNL     1      -5.801  -3.181 -34.568  1.00  0.00    -0.059 A 
HETATM   34  C   UNL     1      -5.730  -4.612 -35.019  1.00  0.00     0.048 C 
HETATM   35  C   UNL     1      -4.637  -2.530 -34.117  1.00  0.00     0.016 A 
HETATM   36  C   UNL     1      -3.406  -0.550 -33.130  1.00  0.00     0.051 C 
ENDBRANCH   1  26
BRANCH   2  37
HETATM   37  O   UNL     1      -9.301   0.559 -30.937  1.00  0.00    -0.360 OA
HETATM   38  H   UNL     1      -9.996   0.659 -30.268  1.00  0.00     0.217 HD
ENDBRANCH   2  37
TORSDOF 9
ENDMDL
MODEL 2
REMARK VINA RESULT:      -9.5      2.866      6.618
REMARK  9 active torsions:
REMARK  status: ('A' for Active; 'I' for Inactive)
REMARK    1  A    between atoms: C_7  and  C_8 
REMARK    2  A    between atoms: C_9  and  O_10 
REMARK    3  A    between atoms: C_13  and  N_14 
REMARK    4  A    between atoms: N_14  and  C_15 
REMARK    5  A    between atoms: C_15  and  N_16 
REMARK       I    between atoms: N_16  and  C_17 
REMARK    6  A    between atoms: C_17  and  C_18 
REMARK    7  A    between atoms: C_20  and  O_21 
REMARK    8  A    between atoms: O_21  and  C_22 
REMARK    9  A    between atoms: C_22  and  C_23 
ROOT
HETATM    1  C   UNL     1      -7.160   5.092 -32.648  1.00  0.00     0.052 A 
HETATM    2  C   UNL     1      -7.254   5.629 -31.358  1.00  0.00     0.080 A 
HETATM    3  C   UNL     1      -6.188   6.343 -30.799  1.00  0.00     0.040 A 
HETATM    4  C   UNL     1      -5.010   6.529 -31.529  1.00  0.00     0.032 A 
HETATM    5  C   UNL     1      -4.921   6.069 -32.840  1.00  0.00     0.035 A 
HETATM    6  C   UNL     1      -5.991   5.357 -33.388  1.00  0.00     0.048 A 
ENDROOT
BRANCH   5   7
HETATM    7  N   UNL     1      -3.702   6.214 -33.530  1.00  0.00    -0.333 N 
HETATM    8  H   UNL     1      -3.450   7.163 -33.803  1.00  0.00     0.168 HD
BRANCH   7   9
HETATM    9  C   UNL     1      -2.752   5.256 -33.773  1.00  0.00     0.179 C 
HETATM   10  S   UNL     1      -1.302   5.458 -34.589  1.00  0.00    -0.040 SA
BRANCH   9  11
HETATM   11  N   UNL     1      -3.024   3.997 -33.295  1.00  0.00    -0.299 N 
HETATM   12  C   UNL     1      -2.776   3.515 -32.018  1.00  0.00     0.257 C 
HETATM   13  O   UNL     1      -1.888   3.915 -31.276  1.00  0.00    -0.267 OA
HETATM   14  H   UNL     1      -3.755   3.550 -33.834  1.00  0.00     0.171 HD
BRANCH  12  15
HETATM   15  C   UNL     1      -3.699   2.436 -31.588  1.00  0.00     0.035 A 
HETATM   16  C   UNL     1      -3.616   1.153 -32.146  1.00  0.00     0.053 A 
HETATM   17  C   UNL     1      -4.580   0.197 -31.831  1.00  0.00     0.069 A 
HETATM   18  C   UNL     1      -5.604   0.526 -30.937  1.00  0.00     0.037 A 
HETATM   19  C   UNL     1      -5.667   1.794 -30.353  1.00  0.00     0.004 A 
HETATM   20  C   UNL     1      -4.710   2.754 -30.677  1.00  0.00     0.017 A 
BRANCH  17  21
HETATM   21  O   UNL     1      -4.650  -1.069 -32.341  1.00  0.00    -0.351 OA
BRANCH  21  22
HETATM   22  C   UNL     1      -4.892  -1.201 -33.743  1.00  0.00     0.179 C 
BRANCH  22  23
HETATM   23  C   UNL     1      -6.402  -1.313 -34.010  1.00  0.00     0.002 C 
HETATM   24  C   UNL     1      -6.890  -0.213 -34.951  1.00  0.00     0.011 C 
HETATM   25  C   UNL     1      -6.759  -2.687 -34.577  1.00  0.00     0.011 C 
ENDBRANCH  22  23
ENDBRANCH  21  22
ENDBRANCH  17  21
ENDBRANCH  12  15
ENDBRANCH   9  11
ENDBRANCH   7   9
ENDBRANCH   5   7
BRANCH   1  26
HETATM   26  C   UNL     1      -8.162   4.182 -33.208  1.00  0.00     0.183 A 
HETATM   27  O   UNL     1      -8.184   2.917 -32.662  1.00  0.00    -0.288 OA
HETATM   28  C   UNL     1      -9.306   2.340 -33.178  1.00  0.00     0.112 A 
HETATM   29  C   UNL     1      -9.893   3.262 -34.026  1.00  0.00     0.094 A 
HETATM   30  C   UNL     1      -9.810   1.073 -32.889  1.00  0.00    -0.025 A 
HETATM   31  C   UNL     1     -11.097   2.931 -34.660  1.00  0.00     0.041 A 
HETATM   32  N   UNL     1      -9.152   4.416 -34.053  1.00  0.00    -0.221 NA
HETATM   33  C   UNL     1     -11.668   1.670 -34.402  1.00  0.00    -0.059 A 
HETATM   34  C   UNL     1     -12.997   1.313 -35.001  1.00  0.00     0.048 C 
HETATM   35  C   UNL     1     -11.031   0.773 -33.522  1.00  0.00     0.016 A 
HETATM   36  C   UNL     1      -9.172   0.117 -31.935  1.00  0.00     0.051 C 
ENDBRANCH   1  26
BRANCH   2  37
HETATM   37  O   UNL     1      -8.394   5.459 -30.624  1.00  0.00    -0.360 OA
HETATM   38  H   UNL     1      -8.227   4.846 -29.891  1.00  0.00     0.217 HD
ENDBRANCH   2  37
TORSDOF 9
ENDMDL
MODEL 3
REMARK VINA RESULT:      -9.5      3.145      7.477
REMARK  9 active torsions:
REMARK  status: ('A' for Active; 'I' for Inactive)
REMARK    1  A    between atoms: C_7  and  C_8 
REMARK    2  A    between atoms: C_9  and  O_10 
REMARK    3  A    between atoms: C_13  and  N_14 
REMARK    4  A    between atoms: N_14  and  C_15 
REMARK    5  A    between atoms: C_15  and  N_16 
REMARK       I    between atoms: N_16  and  C_17 
REMARK    6  A    between atoms: C_17  and  C_18 
REMARK    7  A    between atoms: C_20  and  O_21 
REMARK    8  A    between atoms: O_21  and  C_22 
REMARK    9  A    between atoms: C_22  and  C_23 
ROOT
HETATM    1  C   UNL     1      -4.595   2.148 -31.063  1.00  0.00     0.052 A 
HETATM    2  C   UNL     1      -3.718   3.126 -31.550  1.00  0.00     0.080 A 
HETATM    3  C   UNL     1      -3.877   4.471 -31.197  1.00  0.00     0.040 A 
HETATM    4  C   UNL     1      -4.919   4.854 -30.349  1.00  0.00     0.032 A 
HETATM    5  C   UNL     1      -5.757   3.891 -29.793  1.00  0.00     0.035 A 
HETATM    6  C   UNL     1      -5.590   2.552 -30.153  1.00  0.00     0.048 A 
ENDROOT
BRANCH   5   7
HETATM    7  N   UNL     1      -6.837   4.311 -28.993  1.00  0.00    -0.333 N 
HETATM    8  H   UNL     1      -6.689   4.280 -27.985  1.00  0.00     0.168 HD
BRANCH   7   9
HETATM    9  C   UNL     1      -8.020   4.873 -29.399  1.00  0.00     0.179 C 
HETATM   10  S   UNL     1      -8.615   6.383 -28.983  1.00  0.00    -0.040 SA
BRANCH   9  11
HETATM   11  N   UNL     1      -8.797   4.110 -30.238  1.00  0.00    -0.299 N 
HETATM   12  C   UNL     1      -8.740   4.069 -31.623  1.00  0.00     0.257 C 
HETATM   13  O   UNL     1      -8.368   4.989 -32.340  1.00  0.00    -0.267 OA
HETATM   14  H   UNL     1      -9.172   3.303 -29.757  1.00  0.00     0.171 HD
BRANCH  12  15
HETATM   15  C   UNL     1      -9.177   2.778 -32.209  1.00  0.00     0.035 A 
HETATM   16  C   UNL     1     -10.083   2.743 -33.277  1.00  0.00     0.053 A 
HETATM   17  C   UNL     1     -10.588   1.520 -33.719  1.00  0.00     0.069 A 
HETATM   18  C   UNL     1     -10.157   0.340 -33.103  1.00  0.00     0.037 A 
HETATM   19  C   UNL     1      -9.227   0.372 -32.062  1.00  0.00     0.004 A 
HETATM   20  C   UNL     1      -8.732   1.595 -31.613  1.00  0.00     0.017 A 
BRANCH  17  21
HETATM   21  O   UNL     1     -11.512   1.345 -34.709  1.00  0.00    -0.351 OA
BRANCH  21  22
HETATM   22  C   UNL     1     -12.573   2.298 -34.796  1.00  0.00     0.179 C 
BRANCH  22  23
HETATM   23  C   UNL     1     -13.846   1.731 -34.146  1.00  0.00     0.002 C 
HETATM   24  C   UNL     1     -13.800   0.207 -34.053  1.00  0.00     0.011 C 
HETATM   25  C   UNL     1     -14.070   2.337 -32.760  1.00  0.00     0.011 C 
ENDBRANCH  22  23
ENDBRANCH  21  22
ENDBRANCH  17  21
ENDBRANCH  12  15
ENDBRANCH   9  11
ENDBRANCH   7   9
ENDBRANCH   5   7
BRANCH   1  26
HETATM   26  C   UNL     1      -4.593   0.764 -31.544  1.00  0.00     0.183 A 
HETATM   27  O   UNL     1      -5.503   0.483 -32.539  1.00  0.00    -0.288 OA
HETATM   28  C   UNL     1      -5.175  -0.772 -32.959  1.00  0.00     0.112 A 
HETATM   29  C   UNL     1      -4.108  -1.200 -32.189  1.00  0.00     0.094 A 
HETATM   30  C   UNL     1      -5.763  -1.494 -33.997  1.00  0.00    -0.025 A 
HETATM   31  C   UNL     1      -3.545  -2.456 -32.448  1.00  0.00     0.041 A 
HETATM   32  N   UNL     1      -3.761  -0.230 -31.285  1.00  0.00    -0.221 NA
HETATM   33  C   UNL     1      -4.083  -3.232 -33.492  1.00  0.00    -0.059 A 
HETATM   34  C   UNL     1      -3.454  -4.547 -33.849  1.00  0.00     0.048 C 
HETATM   35  C   UNL     1      -5.164  -2.743 -34.251  1.00  0.00     0.016 A 
HETATM   36  C   UNL     1      -6.888  -0.983 -34.837  1.00  0.00     0.051 C 
ENDBRANCH   1  26
BRANCH   2  37
HETATM   37  O   UNL     1      -2.693   2.776 -32.382  1.00  0.00    -0.360 OA
HETATM   38  H   UNL     1      -3.022   2.675 -33.289  1.00  0.00     0.217 HD
ENDBRANCH   2  37
TORSDOF 9
ENDMDL
MODEL 4
REMARK VINA RESULT:      -9.4      2.010      9.478
REMARK  9 active torsions:
REMARK  status: ('A' for Active; 'I' for Inactive)
REMARK    1  A    between atoms: C_7  and  C_8 
REMARK    2  A    between atoms: C_9  and  O_10 
REMARK    3  A    between atoms: C_13  and  N_14 
REMARK    4  A    between atoms: N_14  and  C_15 
REMARK    5  A    between atoms: C_15  and  N_16 
REMARK       I    between atoms: N_16  and  C_17 
REMARK    6  A    between atoms: C_17  and  C_18 
REMARK    7  A    between atoms: C_20  and  O_21 
REMARK    8  A    between atoms: O_21  and  C_22 
REMARK    9  A    between atoms: C_22  and  C_23 
ROOT
HETATM    1  C   UNL     1      -2.864   6.439 -32.882  1.00  0.00     0.052 A 
HETATM    2  C   UNL     1      -2.406   6.078 -34.156  1.00  0.00     0.080 A 
HETATM    3  C   UNL     1      -3.226   5.366 -35.038  1.00  0.00     0.040 A 
HETATM    4  C   UNL     1      -4.521   5.006 -34.655  1.00  0.00     0.032 A 
HETATM    5  C   UNL     1      -5.025   5.417 -33.424  1.00  0.00     0.035 A 
HETATM    6  C   UNL     1      -4.197   6.127 -32.550  1.00  0.00     0.048 A 
ENDROOT
BRANCH   5   7
HETATM    7  N   UNL     1      -6.308   4.986 -33.037  1.00  0.00    -0.333 N 
HETATM    8  H   UNL     1      -7.054   5.125 -33.718  1.00  0.00     0.168 HD
BRANCH   7   9
HETATM    9  C   UNL     1      -6.660   4.292 -31.908  1.00  0.00     0.179 C 
HETATM   10  S   UNL     1      -7.554   4.863 -30.611  1.00  0.00    -0.040 SA
BRANCH   9  11
HETATM   11  N   UNL     1      -6.230   2.989 -31.838  1.00  0.00    -0.299 N 
HETATM   12  C   UNL     1      -6.162   2.074 -32.879  1.00  0.00     0.257 C 
HETATM   13  O   UNL     1      -6.878   2.084 -33.871  1.00  0.00    -0.267 OA
HETATM   14  H   UNL     1      -5.619   2.847 -31.045  1.00  0.00     0.171 HD
BRANCH  12  15
HETATM   15  C   UNL     1      -5.117   1.035 -32.705  1.00  0.00     0.035 A 
HETATM   16  C   UNL     1      -5.099  -0.109 -33.514  1.00  0.00     0.053 A 
HETATM   17  C   UNL     1      -4.196  -1.135 -33.241  1.00  0.00     0.069 A 
HETATM   18  C   UNL     1      -3.299  -0.994 -32.177  1.00  0.00     0.037 A 
HETATM   19  C   UNL     1      -3.294   0.162 -31.392  1.00  0.00     0.004 A 
HETATM   20  C   UNL     1      -4.204   1.183 -31.657  1.00  0.00     0.017 A 
BRANCH  17  21
HETATM   21  O   UNL     1      -4.105  -2.322 -33.912  1.00  0.00    -0.351 OA
BRANCH  21  22
HETATM   22  C   UNL     1      -5.180  -2.668 -34.787  1.00  0.00     0.179 C 
BRANCH  22  23
HETATM   23  C   UNL     1      -5.706  -4.072 -34.448  1.00  0.00     0.002 C 
HETATM   24  C   UNL     1      -6.613  -4.615 -35.551  1.00  0.00     0.011 C 
HETATM   25  C   UNL     1      -4.552  -5.042 -34.190  1.00  0.00     0.011 C 
ENDBRANCH  22  23
ENDBRANCH  21  22
ENDBRANCH  17  21
ENDBRANCH  12  15
ENDBRANCH   9  11
ENDBRANCH   7   9
ENDBRANCH   5   7
BRANCH   1  26
HETATM   26  C   UNL     1      -1.993   7.014 -31.855  1.00  0.00     0.183 A 
HETATM   27  O   UNL     1      -2.573   7.978 -31.059  1.00  0.00    -0.288 OA
HETATM   28  C   UNL     1      -1.661   8.200 -30.071  1.00  0.00     0.112 A 
HETATM   29  C   UNL     1      -0.568   7.390 -30.325  1.00  0.00     0.094 A 
HETATM   30  C   UNL     1      -1.797   9.052 -28.975  1.00  0.00    -0.025 A 
HETATM   31  C   UNL     1       0.505   7.396 -29.426  1.00  0.00     0.041 A 
HETATM   32  N   UNL     1      -0.781   6.658 -31.465  1.00  0.00    -0.221 NA
HETATM   33  C   UNL     1       0.427   8.225 -28.291  1.00  0.00    -0.059 A 
HETATM   34  C   UNL     1       1.523   8.197 -27.266  1.00  0.00     0.048 C 
HETATM   35  C   UNL     1      -0.713   9.023 -28.077  1.00  0.00     0.016 A 
HETATM   36  C   UNL     1      -3.009   9.884 -28.709  1.00  0.00     0.051 C 
ENDBRANCH   1  26
BRANCH   2  37
HETATM   37  O   UNL     1      -1.143   6.418 -34.553  1.00  0.00    -0.360 OA
HETATM   38  H   UNL     1      -0.535   5.681 -34.386  1.00  0.00     0.217 HD
ENDBRANCH   2  37
TORSDOF 9
ENDMDL
MODEL 5
REMARK VINA RESULT:      -9.4      1.824      2.157
REMARK  9 active torsions:
REMARK  status: ('A' for Active; 'I' for Inactive)
REMARK    1  A    between atoms: C_7  and  C_8 
REMARK    2  A    between atoms: C_9  and  O_10 
REMARK    3  A    between atoms: C_13  and  N_14 
REMARK    4  A    between atoms: N_14  and  C_15 
REMARK    5  A    between atoms: C_15  and  N_16 
REMARK       I    between atoms: N_16  and  C_17 
REMARK    6  A    between atoms: C_17  and  C_18 
REMARK    7  A    between atoms: C_20  and  O_21 
REMARK    8  A    between atoms: O_21  and  C_22 
REMARK    9  A    between atoms: C_22  and  C_23 
ROOT
HETATM    1  C   UNL     1      -7.742   1.744 -31.744  1.00  0.00     0.052 A 
HETATM    2  C   UNL     1      -9.091   2.079 -31.570  1.00  0.00     0.080 A 
HETATM    3  C   UNL     1      -9.479   3.011 -30.601  1.00  0.00     0.040 A 
HETATM    4  C   UNL     1      -8.518   3.621 -29.791  1.00  0.00     0.032 A 
HETATM    5  C   UNL     1      -7.165   3.361 -29.995  1.00  0.00     0.035 A 
HETATM    6  C   UNL     1      -6.789   2.428 -30.965  1.00  0.00     0.048 A 
ENDROOT
BRANCH   5   7
HETATM    7  N   UNL     1      -6.223   3.940 -29.124  1.00  0.00    -0.333 N 
HETATM    8  H   UNL     1      -5.918   3.362 -28.342  1.00  0.00     0.168 HD
BRANCH   7   9
HETATM    9  C   UNL     1      -5.571   5.138 -29.262  1.00  0.00     0.179 C 
HETATM   10  S   UNL     1      -5.969   6.593 -28.533  1.00  0.00    -0.040 SA
BRANCH   9  11
HETATM   11  N   UNL     1      -4.476   5.140 -30.091  1.00  0.00    -0.299 N 
HETATM   12  C   UNL     1      -4.334   5.824 -31.290  1.00  0.00     0.257 C 
HETATM   13  O   UNL     1      -5.255   6.134 -32.035  1.00  0.00    -0.267 OA
HETATM   14  H   UNL     1      -3.633   4.894 -29.587  1.00  0.00     0.171 HD
BRANCH  12  15
HETATM   15  C   UNL     1      -2.933   6.175 -31.626  1.00  0.00     0.035 A 
HETATM   16  C   UNL     1      -1.891   5.917 -30.725  1.00  0.00     0.053 A 
HETATM   17  C   UNL     1      -0.605   6.382 -31.001  1.00  0.00     0.069 A 
HETATM   18  C   UNL     1      -0.370   7.076 -32.192  1.00  0.00     0.037 A 
HETATM   19  C   UNL     1      -1.401   7.302 -33.107  1.00  0.00     0.004 A 
HETATM   20  C   UNL     1      -2.688   6.849 -32.826  1.00  0.00     0.017 A 
BRANCH  17  21
HETATM   21  O   UNL     1       0.486   6.248 -30.190  1.00  0.00    -0.351 OA
BRANCH  21  22
HETATM   22  C   UNL     1       0.315   6.541 -28.802  1.00  0.00     0.179 C 
BRANCH  22  23
HETATM   23  C   UNL     1       0.312   8.062 -28.580  1.00  0.00     0.002 C 
HETATM   24  C   UNL     1      -0.971   8.528 -27.893  1.00  0.00     0.011 C 
HETATM   25  C   UNL     1       1.533   8.500 -27.769  1.00  0.00     0.011 C 
ENDBRANCH  22  23
ENDBRANCH  21  22
ENDBRANCH  17  21
ENDBRANCH  12  15
ENDBRANCH   9  11
ENDBRANCH   7   9
ENDBRANCH   5   7
BRANCH   1  26
HETATM   26  C   UNL     1      -7.298   0.646 -32.606  1.00  0.00     0.183 A 
HETATM   27  O   UNL     1      -5.948   0.374 -32.569  1.00  0.00    -0.288 OA
HETATM   28  C   UNL     1      -5.813  -0.789 -33.266  1.00  0.00     0.112 A 
HETATM   29  C   UNL     1      -7.072  -1.152 -33.713  1.00  0.00     0.094 A 
HETATM   30  C   UNL     1      -4.642  -1.518 -33.471  1.00  0.00    -0.025 A 
HETATM   31  C   UNL     1      -7.219  -2.346 -34.429  1.00  0.00     0.041 A 
HETATM   32  N   UNL     1      -8.000  -0.228 -33.307  1.00  0.00    -0.221 NA
HETATM   33  C   UNL     1      -6.078  -3.137 -34.660  1.00  0.00    -0.059 A 
HETATM   34  C   UNL     1      -6.212  -4.462 -35.354  1.00  0.00     0.048 C 
HETATM   35  C   UNL     1      -4.822  -2.725 -34.175  1.00  0.00     0.016 A 
HETATM   36  C   UNL     1      -3.305  -1.119 -32.938  1.00  0.00     0.051 C 
ENDBRANCH   1  26
BRANCH   2  37
HETATM   37  O   UNL     1     -10.050   1.494 -32.349  1.00  0.00    -0.360 OA
HETATM   38  H   UNL     1      -9.826   1.603 -33.286  1.00  0.00     0.217 HD
ENDBRANCH   2  37
TORSDOF 9
ENDMDL
MODEL 6
REMARK VINA RESULT:      -9.0      2.235      9.646
REMARK  9 active torsions:
REMARK  status: ('A' for Active; 'I' for Inactive)
REMARK    1  A    between atoms: C_7  and  C_8 
REMARK    2  A    between atoms: C_9  and  O_10 
REMARK    3  A    between atoms: C_13  and  N_14 
REMARK    4  A    between atoms: N_14  and  C_15 
REMARK    5  A    between atoms: C_15  and  N_16 
REMARK       I    between atoms: N_16  and  C_17 
REMARK    6  A    between atoms: C_17  and  C_18 
REMARK    7  A    between atoms: C_20  and  O_21 
REMARK    8  A    between atoms: O_21  and  C_22 
REMARK    9  A    between atoms: C_22  and  C_23 
ROOT
HETATM    1  C   UNL     1      -2.037   6.175 -31.376  1.00  0.00     0.052 A 
HETATM    2  C   UNL     1      -1.465   5.123 -32.102  1.00  0.00     0.080 A 
HETATM    3  C   UNL     1      -2.222   4.394 -33.027  1.00  0.00     0.040 A 
HETATM    4  C   UNL     1      -3.566   4.712 -33.237  1.00  0.00     0.032 A 
HETATM    5  C   UNL     1      -4.137   5.802 -32.583  1.00  0.00     0.035 A 
HETATM    6  C   UNL     1      -3.372   6.521 -31.662  1.00  0.00     0.048 A 
ENDROOT
BRANCH   5   7
HETATM    7  N   UNL     1      -5.509   6.061 -32.765  1.00  0.00    -0.333 N 
HETATM    8  H   UNL     1      -5.773   6.479 -33.656  1.00  0.00     0.168 HD
BRANCH   7   9
HETATM    9  C   UNL     1      -6.550   5.709 -31.944  1.00  0.00     0.179 C 
HETATM   10  S   UNL     1      -7.553   6.743 -31.089  1.00  0.00    -0.040 SA
BRANCH   9  11
HETATM   11  N   UNL     1      -6.789   4.363 -31.812  1.00  0.00    -0.299 N 
HETATM   12  C   UNL     1      -6.961   3.439 -32.833  1.00  0.00     0.257 C 
HETATM   13  O   UNL     1      -7.396   3.697 -33.948  1.00  0.00    -0.267 OA
HETATM   14  H   UNL     1      -6.471   4.019 -30.915  1.00  0.00     0.171 HD
BRANCH  12  15
HETATM   15  C   UNL     1      -6.565   2.056 -32.472  1.00  0.00     0.035 A 
HETATM   16  C   UNL     1      -6.872   0.978 -33.313  1.00  0.00     0.053 A 
HETATM   17  C   UNL     1      -6.616  -0.326 -32.889  1.00  0.00     0.069 A 
HETATM   18  C   UNL     1      -6.028  -0.535 -31.637  1.00  0.00     0.037 A 
HETATM   19  C   UNL     1      -5.690   0.541 -30.814  1.00  0.00     0.004 A 
HETATM   20  C   UNL     1      -5.957   1.843 -31.232  1.00  0.00     0.017 A 
BRANCH  17  21
HETATM   21  O   UNL     1      -6.912  -1.466 -33.581  1.00  0.00    -0.351 OA
BRANCH  21  22
HETATM   22  C   UNL     1      -6.353  -1.607 -34.888  1.00  0.00     0.179 C 
BRANCH  22  23
HETATM   23  C   UNL     1      -5.720  -2.999 -35.044  1.00  0.00     0.002 C 
HETATM   24  C   UNL     1      -4.482  -3.156 -34.162  1.00  0.00     0.011 C 
HETATM   25  C   UNL     1      -6.733  -4.101 -34.731  1.00  0.00     0.011 C 
ENDBRANCH  22  23
ENDBRANCH  21  22
ENDBRANCH  17  21
ENDBRANCH  12  15
ENDBRANCH   9  11
ENDBRANCH   7   9
ENDBRANCH   5   7
BRANCH   1  26
HETATM   26  C   UNL     1      -1.352   6.845 -30.268  1.00  0.00     0.183 A 
HETATM   27  O   UNL     1      -2.014   6.817 -29.060  1.00  0.00    -0.288 OA
HETATM   28  C   UNL     1      -1.109   7.301 -28.163  1.00  0.00     0.112 A 
HETATM   29  C   UNL     1       0.039   7.622 -28.865  1.00  0.00     0.094 A 
HETATM   30  C   UNL     1      -1.273   7.421 -26.784  1.00  0.00    -0.025 A 
HETATM   31  C   UNL     1       1.150   8.106 -28.163  1.00  0.00     0.041 A 
HETATM   32  N   UNL     1      -0.131   7.348 -30.197  1.00  0.00    -0.221 NA
HETATM   33  C   UNL     1       1.056   8.240 -26.765  1.00  0.00    -0.059 A 
HETATM   34  C   UNL     1       2.253   8.680 -25.972  1.00  0.00     0.048 C 
HETATM   35  C   UNL     1      -0.135   7.890 -26.100  1.00  0.00     0.016 A 
HETATM   36  C   UNL     1      -2.514   7.026 -26.052  1.00  0.00     0.051 C 
ENDBRANCH   1  26
BRANCH   2  37
HETATM   37  O   UNL     1      -0.153   4.791 -31.913  1.00  0.00    -0.360 OA
HETATM   38  H   UNL     1       0.362   5.586 -31.702  1.00  0.00     0.217 HD
ENDBRANCH   2  37
TORSDOF 9
ENDMDL
MODEL 7
REMARK VINA RESULT:      -8.7      2.087      8.358
REMARK  9 active torsions:
REMARK  status: ('A' for Active; 'I' for Inactive)
REMARK    1  A    between atoms: C_7  and  C_8 
REMARK    2  A    between atoms: C_9  and  O_10 
REMARK    3  A    between atoms: C_13  and  N_14 
REMARK    4  A    between atoms: N_14  and  C_15 
REMARK    5  A    between atoms: C_15  and  N_16 
REMARK       I    between atoms: N_16  and  C_17 
REMARK    6  A    between atoms: C_17  and  C_18 
REMARK    7  A    between atoms: C_20  and  O_21 
REMARK    8  A    between atoms: O_21  and  C_22 
REMARK    9  A    between atoms: C_22  and  C_23 
ROOT
HETATM    1  C   UNL     1      -3.500   6.039 -32.385  1.00  0.00     0.052 A 
HETATM    2  C   UNL     1      -2.950   5.319 -33.453  1.00  0.00     0.080 A 
HETATM    3  C   UNL     1      -3.770   4.750 -34.433  1.00  0.00     0.040 A 
HETATM    4  C   UNL     1      -5.158   4.896 -34.357  1.00  0.00     0.032 A 
HETATM    5  C   UNL     1      -5.724   5.669 -33.347  1.00  0.00     0.035 A 
HETATM    6  C   UNL     1      -4.895   6.232 -32.373  1.00  0.00     0.048 A 
ENDROOT
BRANCH   5   7
HETATM    7  N   UNL     1      -7.127   5.747 -33.256  1.00  0.00    -0.333 N 
HETATM    8  H   UNL     1      -7.598   6.255 -34.003  1.00  0.00     0.168 HD
BRANCH   7   9
HETATM    9  C   UNL     1      -7.950   5.122 -32.355  1.00  0.00     0.179 C 
HETATM   10  S   UNL     1      -8.887   5.848 -31.172  1.00  0.00    -0.040 SA
BRANCH   9  11
HETATM   11  N   UNL     1      -8.007   3.751 -32.436  1.00  0.00    -0.299 N 
HETATM   12  C   UNL     1      -8.419   2.994 -33.523  1.00  0.00     0.257 C 
HETATM   13  O   UNL     1      -9.218   3.362 -34.374  1.00  0.00    -0.267 OA
HETATM   14  H   UNL     1      -7.381   3.318 -31.770  1.00  0.00     0.171 HD
BRANCH  12  15
HETATM   15  C   UNL     1      -7.800   1.648 -33.593  1.00  0.00     0.035 A 
HETATM   16  C   UNL     1      -7.060   1.139 -32.517  1.00  0.00     0.053 A 
HETATM   17  C   UNL     1      -6.371  -0.065 -32.658  1.00  0.00     0.069 A 
HETATM   18  C   UNL     1      -6.453  -0.763 -33.867  1.00  0.00     0.037 A 
HETATM   19  C   UNL     1      -7.219  -0.274 -34.927  1.00  0.00     0.004 A 
HETATM   20  C   UNL     1      -7.898   0.935 -34.792  1.00  0.00     0.017 A 
BRANCH  17  21
HETATM   21  O   UNL     1      -5.573  -0.646 -31.713  1.00  0.00    -0.351 OA
BRANCH  21  22
HETATM   22  C   UNL     1      -4.954   0.213 -30.755  1.00  0.00     0.179 C 
BRANCH  22  23
HETATM   23  C   UNL     1      -3.499   0.498 -31.163  1.00  0.00     0.002 C 
HETATM   24  C   UNL     1      -2.890  -0.674 -31.930  1.00  0.00     0.011 C 
HETATM   25  C   UNL     1      -3.404   1.778 -31.995  1.00  0.00     0.011 C 
ENDBRANCH  22  23
ENDBRANCH  21  22
ENDBRANCH  17  21
ENDBRANCH  12  15
ENDBRANCH   9  11
ENDBRANCH   7   9
ENDBRANCH   5   7
BRANCH   1  26
HETATM   26  C   UNL     1      -2.711   6.492 -31.237  1.00  0.00     0.183 A 
HETATM   27  O   UNL     1      -1.667   5.669 -30.876  1.00  0.00    -0.288 OA
HETATM   28  C   UNL     1      -0.972   6.386 -29.948  1.00  0.00     0.112 A 
HETATM   29  C   UNL     1      -1.635   7.588 -29.771  1.00  0.00     0.094 A 
HETATM   30  C   UNL     1       0.213   6.016 -29.312  1.00  0.00    -0.025 A 
HETATM   31  C   UNL     1      -1.098   8.536 -28.891  1.00  0.00     0.041 A 
HETATM   32  N   UNL     1      -2.743   7.636 -30.576  1.00  0.00    -0.221 NA
HETATM   33  C   UNL     1       0.104   8.231 -28.225  1.00  0.00    -0.059 A 
HETATM   34  C   UNL     1       0.749   9.255 -27.336  1.00  0.00     0.048 C 
HETATM   35  C   UNL     1       0.742   6.995 -28.449  1.00  0.00     0.016 A 
HETATM   36  C   UNL     1       0.926   4.726 -29.557  1.00  0.00     0.051 C 
ENDBRANCH   1  26
BRANCH   2  37
HETATM   37  O   UNL     1      -1.596   5.161 -33.549  1.00  0.00    -0.360 OA
HETATM   38  H   UNL     1      -1.252   5.692 -34.284  1.00  0.00     0.217 HD
ENDBRANCH   2  37
TORSDOF 9
ENDMDL
MODEL 8
REMARK VINA RESULT:      -8.7      2.983      4.161
REMARK  9 active torsions:
REMARK  status: ('A' for Active; 'I' for Inactive)
REMARK    1  A    between atoms: C_7  and  C_8 
REMARK    2  A    between atoms: C_9  and  O_10 
REMARK    3  A    between atoms: C_13  and  N_14 
REMARK    4  A    between atoms: N_14  and  C_15 
REMARK    5  A    between atoms: C_15  and  N_16 
REMARK       I    between atoms: N_16  and  C_17 
REMARK    6  A    between atoms: C_17  and  C_18 
REMARK    7  A    between atoms: C_20  and  O_21 
REMARK    8  A    between atoms: O_21  and  C_22 
REMARK    9  A    between atoms: C_22  and  C_23 
ROOT
HETATM    1  C   UNL     1      -7.433   1.957 -31.760  1.00  0.00     0.052 A 
HETATM    2  C   UNL     1      -8.733   2.166 -31.284  1.00  0.00     0.080 A 
HETATM    3  C   UNL     1      -9.000   3.163 -30.340  1.00  0.00     0.040 A 
HETATM    4  C   UNL     1      -7.964   3.968 -29.858  1.00  0.00     0.032 A 
HETATM    5  C   UNL     1      -6.677   3.829 -30.371  1.00  0.00     0.035 A 
HETATM    6  C   UNL     1      -6.422   2.830 -31.313  1.00  0.00     0.048 A 
ENDROOT
BRANCH   5   7
HETATM    7  N   UNL     1      -5.640   4.609 -29.823  1.00  0.00    -0.333 N 
HETATM    8  H   UNL     1      -5.165   4.218 -29.010  1.00  0.00     0.168 HD
BRANCH   7   9
HETATM    9  C   UNL     1      -5.107   5.771 -30.317  1.00  0.00     0.179 C 
HETATM   10  S   UNL     1      -4.957   6.207 -31.928  1.00  0.00    -0.040 SA
BRANCH   9  11
HETATM   11  N   UNL     1      -4.647   6.671 -29.386  1.00  0.00    -0.299 N 
HETATM   12  C   UNL     1      -5.199   6.945 -28.143  1.00  0.00     0.257 C 
HETATM   13  O   UNL     1      -6.383   6.819 -27.856  1.00  0.00    -0.267 OA
HETATM   14  H   UNL     1      -3.663   6.864 -29.517  1.00  0.00     0.171 HD
BRANCH  12  15
HETATM   15  C   UNL     1      -4.218   7.419 -27.136  1.00  0.00     0.035 A 
HETATM   16  C   UNL     1      -2.842   7.249 -27.336  1.00  0.00     0.053 A 
HETATM   17  C   UNL     1      -1.948   7.573 -26.317  1.00  0.00     0.069 A 
HETATM   18  C   UNL     1      -2.440   8.092 -25.115  1.00  0.00     0.037 A 
HETATM   19  C   UNL     1      -3.809   8.295 -24.928  1.00  0.00     0.004 A 
HETATM   20  C   UNL     1      -4.704   7.960 -25.942  1.00  0.00     0.017 A 
BRANCH  17  21
HETATM   21  O   UNL     1      -0.592   7.408 -26.357  1.00  0.00    -0.351 OA
BRANCH  21  22
HETATM   22  C   UNL     1      -0.076   6.409 -27.239  1.00  0.00     0.179 C 
BRANCH  22  23
HETATM   23  C   UNL     1       0.869   7.051 -28.267  1.00  0.00     0.002 C 
HETATM   24  C   UNL     1       0.198   7.206 -29.630  1.00  0.00     0.011 C 
HETATM   25  C   UNL     1       1.378   8.406 -27.773  1.00  0.00     0.011 C 
ENDBRANCH  22  23
ENDBRANCH  21  22
ENDBRANCH  17  21
ENDBRANCH  12  15
ENDBRANCH   9  11
ENDBRANCH   7   9
ENDBRANCH   5   7
BRANCH   1  26
HETATM   26  C   UNL     1      -7.064   0.815 -32.599  1.00  0.00     0.183 A 
HETATM   27  O   UNL     1      -5.755   0.399 -32.490  1.00  0.00    -0.288 OA
HETATM   28  C   UNL     1      -5.710  -0.774 -33.183  1.00  0.00     0.112 A 
HETATM   29  C   UNL     1      -6.974  -1.000 -33.698  1.00  0.00     0.094 A 
HETATM   30  C   UNL     1      -4.615  -1.626 -33.326  1.00  0.00    -0.025 A 
HETATM   31  C   UNL     1      -7.211  -2.174 -34.424  1.00  0.00     0.041 A 
HETATM   32  N   UNL     1      -7.817   0.019 -33.339  1.00  0.00    -0.221 NA
HETATM   33  C   UNL     1      -6.151  -3.085 -34.595  1.00  0.00    -0.059 A 
HETATM   34  C   UNL     1      -6.391  -4.389 -35.299  1.00  0.00     0.048 C 
HETATM   35  C   UNL     1      -4.886  -2.808 -34.042  1.00  0.00     0.016 A 
HETATM   36  C   UNL     1      -3.273  -1.372 -32.721  1.00  0.00     0.051 C 
ENDBRANCH   1  26
BRANCH   2  37
HETATM   37  O   UNL     1      -9.763   1.391 -31.738  1.00  0.00    -0.360 OA
HETATM   38  H   UNL     1     -10.155   0.897 -31.001  1.00  0.00     0.217 HD
ENDBRANCH   2  37
TORSDOF 9
ENDMDL
MODEL 9
REMARK VINA RESULT:      -8.7      2.990      7.517
REMARK  9 active torsions:
REMARK  status: ('A' for Active; 'I' for Inactive)
REMARK    1  A    between atoms: C_7  and  C_8 
REMARK    2  A    between atoms: C_9  and  O_10 
REMARK    3  A    between atoms: C_13  and  N_14 
REMARK    4  A    between atoms: N_14  and  C_15 
REMARK    5  A    between atoms: C_15  and  N_16 
REMARK       I    between atoms: N_16  and  C_17 
REMARK    6  A    between atoms: C_17  and  C_18 
REMARK    7  A    between atoms: C_20  and  O_21 
REMARK    8  A    between atoms: O_21  and  C_22 
REMARK    9  A    between atoms: C_22  and  C_23 
ROOT
HETATM    1  C   UNL     1      -4.697   3.622 -31.783  1.00  0.00     0.052 A 
HETATM    2  C   UNL     1      -3.464   4.263 -31.611  1.00  0.00     0.080 A 
HETATM    3  C   UNL     1      -3.397   5.563 -31.096  1.00  0.00     0.040 A 
HETATM    4  C   UNL     1      -4.569   6.240 -30.746  1.00  0.00     0.032 A 
HETATM    5  C   UNL     1      -5.801   5.596 -30.839  1.00  0.00     0.035 A 
HETATM    6  C   UNL     1      -5.856   4.299 -31.355  1.00  0.00     0.048 A 
ENDROOT
BRANCH   5   7
HETATM    7  N   UNL     1      -6.970   6.322 -30.541  1.00  0.00    -0.333 N 
HETATM    8  H   UNL     1      -7.086   7.208 -31.031  1.00  0.00     0.168 HD
BRANCH   7   9
HETATM    9  C   UNL     1      -8.031   5.930 -29.766  1.00  0.00     0.179 C 
HETATM   10  S   UNL     1      -8.562   6.645 -28.347  1.00  0.00    -0.040 SA
BRANCH   9  11
HETATM   11  N   UNL     1      -8.730   4.832 -30.206  1.00  0.00    -0.299 N 
HETATM   12  C   UNL     1      -9.423   4.704 -31.401  1.00  0.00     0.257 C 
HETATM   13  O   UNL     1      -9.929   5.630 -32.022  1.00  0.00    -0.267 OA
HETATM   14  H   UNL     1      -8.402   3.985 -29.758  1.00  0.00     0.171 HD
BRANCH  12  15
HETATM   15  C   UNL     1      -9.515   3.311 -31.902  1.00  0.00     0.035 A 
HETATM   16  C   UNL     1     -10.401   2.976 -32.935  1.00  0.00     0.053 A 
HETATM   17  C   UNL     1     -10.573   1.639 -33.293  1.00  0.00     0.069 A 
HETATM   18  C   UNL     1      -9.834   0.653 -32.632  1.00  0.00     0.037 A 
HETATM   19  C   UNL     1      -8.925   0.990 -31.627  1.00  0.00     0.004 A 
HETATM   20  C   UNL     1      -8.761   2.325 -31.260  1.00  0.00     0.017 A 
BRANCH  17  21
HETATM   21  O   UNL     1     -11.438   1.168 -34.240  1.00  0.00    -0.351 OA
BRANCH  21  22
HETATM   22  C   UNL     1     -12.756   1.719 -34.260  1.00  0.00     0.179 C 
BRANCH  22  23
HETATM   23  C   UNL     1     -13.747   0.741 -33.610  1.00  0.00     0.002 C 
HETATM   24  C   UNL     1     -15.106   0.769 -34.307  1.00  0.00     0.011 C 
HETATM   25  C   UNL     1     -13.188  -0.683 -33.605  1.00  0.00     0.011 C 
ENDBRANCH  22  23
ENDBRANCH  21  22
ENDBRANCH  17  21
ENDBRANCH  12  15
ENDBRANCH   9  11
ENDBRANCH   7   9
ENDBRANCH   5   7
BRANCH   1  26
HETATM   26  C   UNL     1      -4.841   2.346 -32.488  1.00  0.00     0.183 A 
HETATM   27  O   UNL     1      -3.922   1.377 -32.150  1.00  0.00    -0.288 OA
HETATM   28  C   UNL     1      -4.377   0.246 -32.759  1.00  0.00     0.112 A 
HETATM   29  C   UNL     1      -5.526   0.583 -33.454  1.00  0.00     0.094 A 
HETATM   30  C   UNL     1      -3.828  -1.033 -32.679  1.00  0.00    -0.025 A 
HETATM   31  C   UNL     1      -6.222  -0.419 -34.141  1.00  0.00     0.041 A 
HETATM   32  N   UNL     1      -5.799   1.917 -33.291  1.00  0.00    -0.221 NA
HETATM   33  C   UNL     1      -5.729  -1.736 -34.091  1.00  0.00    -0.059 A 
HETATM   34  C   UNL     1      -6.493  -2.848 -34.748  1.00  0.00     0.048 C 
HETATM   35  C   UNL     1      -4.559  -2.025 -33.361  1.00  0.00     0.016 A 
HETATM   36  C   UNL     1      -2.609  -1.371 -31.886  1.00  0.00     0.051 C 
ENDBRANCH   1  26
BRANCH   2  37
HETATM   37  O   UNL     1      -2.304   3.624 -31.947  1.00  0.00    -0.360 OA
HETATM   38  H   UNL     1      -2.492   2.702 -32.182  1.00  0.00     0.217 HD
ENDBRANCH   2  37
TORSDOF 9
ENDMDL
MODEL 10
REMARK VINA RESULT:      -8.6      3.155      7.701
REMARK  9 active torsions:
REMARK  status: ('A' for Active; 'I' for Inactive)
REMARK    1  A    between atoms: C_7  and  C_8 
REMARK    2  A    between atoms: C_9  and  O_10 
REMARK    3  A    between atoms: C_13  and  N_14 
REMARK    4  A    between atoms: N_14  and  C_15 
REMARK    5  A    between atoms: C_15  and  N_16 
REMARK       I    between atoms: N_16  and  C_17 
REMARK    6  A    between atoms: C_17  and  C_18 
REMARK    7  A    between atoms: C_20  and  O_21 
REMARK    8  A    between atoms: O_21  and  C_22 
REMARK    9  A    between atoms: C_22  and  C_23 
ROOT
HETATM    1  C   UNL     1      -4.788   3.179 -32.102  1.00  0.00     0.052 A 
HETATM    2  C   UNL     1      -3.611   3.739 -31.590  1.00  0.00     0.080 A 
HETATM    3  C   UNL     1      -3.469   5.126 -31.469  1.00  0.00     0.040 A 
HETATM    4  C   UNL     1      -4.510   5.973 -31.859  1.00  0.00     0.032 A 
HETATM    5  C   UNL     1      -5.718   5.438 -32.300  1.00  0.00     0.035 A 
HETATM    6  C   UNL     1      -5.847   4.053 -32.419  1.00  0.00     0.048 A 
ENDROOT
BRANCH   5   7
HETATM    7  N   UNL     1      -6.725   6.315 -32.747  1.00  0.00    -0.333 N 
HETATM    8  H   UNL     1      -6.582   6.733 -33.665  1.00  0.00     0.168 HD
BRANCH   7   9
HETATM    9  C   UNL     1      -7.933   6.581 -32.157  1.00  0.00     0.179 C 
HETATM   10  S   UNL     1      -8.256   7.755 -31.005  1.00  0.00    -0.040 SA
BRANCH   9  11
HETATM   11  N   UNL     1      -8.989   5.797 -32.555  1.00  0.00    -0.299 N 
HETATM   12  C   UNL     1      -9.164   5.194 -33.792  1.00  0.00     0.257 C 
HETATM   13  O   UNL     1      -8.705   5.611 -34.848  1.00  0.00    -0.267 OA
HETATM   14  H   UNL     1      -9.462   5.387 -31.760  1.00  0.00     0.171 HD
BRANCH  12  15
HETATM   15  C   UNL     1      -9.977   3.954 -33.753  1.00  0.00     0.035 A 
HETATM   16  C   UNL     1     -11.377   4.012 -33.751  1.00  0.00     0.053 A 
HETATM   17  C   UNL     1     -12.119   2.845 -33.572  1.00  0.00     0.069 A 
HETATM   18  C   UNL     1     -11.450   1.625 -33.424  1.00  0.00     0.037 A 
HETATM   19  C   UNL     1     -10.055   1.563 -33.461  1.00  0.00     0.004 A 
HETATM   20  C   UNL     1      -9.313   2.731 -33.628  1.00  0.00     0.017 A 
BRANCH  17  21
HETATM   21  O   UNL     1     -13.481   2.765 -33.497  1.00  0.00    -0.351 OA
BRANCH  21  22
HETATM   22  C   UNL     1     -14.123   3.460 -32.427  1.00  0.00     0.179 C 
BRANCH  22  23
HETATM   23  C   UNL     1     -15.439   2.757 -32.056  1.00  0.00     0.002 C 
HETATM   24  C   UNL     1     -16.600   3.746 -31.965  1.00  0.00     0.011 C 
HETATM   25  C   UNL     1     -15.769   1.648 -33.057  1.00  0.00     0.011 C 
ENDBRANCH  22  23
ENDBRANCH  21  22
ENDBRANCH  17  21
ENDBRANCH  12  15
ENDBRANCH   9  11
ENDBRANCH   7   9
ENDBRANCH   5   7
BRANCH   1  26
HETATM   26  C   UNL     1      -4.920   1.757 -32.427  1.00  0.00     0.183 A 
HETATM   27  O   UNL     1      -5.918   1.445 -33.324  1.00  0.00    -0.288 OA
HETATM   28  C   UNL     1      -5.711   0.132 -33.623  1.00  0.00     0.112 A 
HETATM   29  C   UNL     1      -4.625  -0.296 -32.880  1.00  0.00     0.094 A 
HETATM   30  C   UNL     1      -6.423  -0.647 -34.535  1.00  0.00    -0.025 A 
HETATM   31  C   UNL     1      -4.173  -1.613 -33.035  1.00  0.00     0.041 A 
HETATM   32  N   UNL     1      -4.144   0.734 -32.113  1.00  0.00    -0.221 NA
HETATM   33  C   UNL     1      -4.840  -2.449 -33.950  1.00  0.00    -0.059 A 
HETATM   34  C   UNL     1      -4.333  -3.840 -34.200  1.00  0.00     0.048 C 
HETATM   35  C   UNL     1      -5.935  -1.959 -34.687  1.00  0.00     0.016 A 
HETATM   36  C   UNL     1      -7.566  -0.141 -35.352  1.00  0.00     0.051 C 
ENDBRANCH   1  26
BRANCH   2  37
HETATM   37  O   UNL     1      -2.578   2.932 -31.204  1.00  0.00    -0.360 OA
HETATM   38  H   UNL     1      -2.694   2.045 -31.578  1.00  0.00     0.217 HD
ENDBRANCH   2  37
TORSDOF 9
ENDMDL
