MODEL 1
REMARK VINA RESULT:      -8.8      0.000      0.000
REMARK  9 active torsions:
REMARK  status: ('A' for Active; 'I' for Inactive)
REMARK    1  A    between atoms: C_5  and  C_6 
REMARK    2  A    between atoms: C_8  and  N_9 
REMARK       I    between atoms: N_9  and  C_10 
REMARK    3  A    between atoms: C_10  and  C_11 
REMARK    4  A    between atoms: C_11  and  N_12 
REMARK    5  A    between atoms: N_12  and  C_14 
REMARK    6  A    between atoms: C_14  and  C_15 
REMARK       I    between atoms: C_15  and  N_16 
REMARK    7  A    between atoms: N_16  and  C_17 
REMARK    8  A    between atoms: C_20  and  O_21 
REMARK    9  A    between atoms: O_21  and  C_22 
ROOT
HETATM    1  N   UNL     1      -9.172   3.941 -32.674  1.00  0.00    -0.058 N 
HETATM    2  H   UNL     1      -8.759   3.464 -33.484  1.00  0.00     0.280 HD
HETATM    3  C   UNL     1     -10.476   4.501 -33.199  1.00  0.00     0.270 C 
ENDROOT
BRANCH   1   4
HETATM    4  C   UNL     1      -8.162   5.030 -32.295  1.00  0.00     0.337 C 
BRANCH   4   5
HETATM    5  C   UNL     1      -6.677   4.656 -32.370  1.00  0.00     0.248 C 
HETATM    6  N   UNL     1      -5.973   5.338 -33.346  1.00  0.00    -0.326 N 
HETATM    7  H   UNL     1      -6.483   5.841 -34.059  1.00  0.00     0.169 HD
HETATM    8  O   UNL     1      -6.239   3.803 -31.604  1.00  0.00    -0.271 OA
BRANCH   6   9
HETATM    9  C   UNL     1      -4.571   5.344 -33.531  1.00  0.00     0.035 A 
HETATM   10  C   UNL     1      -3.647   5.574 -32.507  1.00  0.00     0.043 A 
HETATM   11  C   UNL     1      -2.264   5.634 -32.772  1.00  0.00    -0.005 A 
HETATM   12  C   UNL     1      -1.827   5.428 -34.088  1.00  0.00     0.014 A 
HETATM   13  C   UNL     1      -2.742   5.189 -35.114  1.00  0.00     0.003 A 
HETATM   14  C   UNL     1      -4.107   5.160 -34.837  1.00  0.00     0.029 A 
BRANCH  11  15
HETATM   15  C   UNL     1      -1.334   5.928 -31.678  1.00  0.00     0.074 A 
HETATM   16  C   UNL     1      -1.142   7.174 -31.112  1.00  0.00     0.084 A 
HETATM   17  S   UNL     1       0.025   7.089 -29.857  1.00  0.00    -0.085 SA
HETATM   18  C   UNL     1       0.189   5.406 -30.143  1.00  0.00     0.071 A 
HETATM   19  C   UNL     1       1.143   4.596 -29.338  1.00  0.00     0.078 C 
HETATM   20  N   UNL     1      -0.564   4.920 -31.108  1.00  0.00    -0.245 NA
ENDBRANCH  11  15
ENDBRANCH   6   9
ENDBRANCH   4   5
ENDBRANCH   1   4
BRANCH   1  21
HETATM   21  C   UNL     1      -9.353   2.855 -31.612  1.00  0.00     0.337 C 
BRANCH  21  22
HETATM   22  C   UNL     1      -8.871   1.456 -32.011  1.00  0.00     0.248 C 
HETATM   23  N   UNL     1      -7.788   1.453 -32.875  1.00  0.00    -0.326 N 
HETATM   24  H   UNL     1      -7.508   2.325 -33.314  1.00  0.00     0.169 HD
HETATM   25  O   UNL     1      -9.416   0.469 -31.531  1.00  0.00    -0.271 OA
BRANCH  23  26
HETATM   26  C   UNL     1      -7.112   0.309 -33.366  1.00  0.00     0.034 A 
HETATM   27  C   UNL     1      -6.108  -0.365 -32.673  1.00  0.00     0.032 A 
HETATM   28  C   UNL     1      -5.507  -1.503 -33.225  1.00  0.00     0.039 A 
HETATM   29  C   UNL     1      -5.896  -1.990 -34.473  1.00  0.00     0.078 A 
HETATM   30  C   UNL     1      -6.881  -1.304 -35.181  1.00  0.00     0.039 A 
HETATM   31  C   UNL     1      -7.482  -0.163 -34.631  1.00  0.00     0.032 A 
BRANCH  29  32
HETATM   32  O   UNL     1      -5.240  -3.118 -34.870  1.00  0.00    -0.255 OA
BRANCH  32  33
HETATM   33  C   UNL     1      -5.958  -4.341 -34.853  1.00  0.00     0.530 C 
HETATM   34  F   UNL     1      -6.178  -4.795 -36.106  1.00  0.00    -0.144 F 
HETATM   35  F   UNL     1      -5.288  -5.278 -34.148  1.00  0.00    -0.144 F 
HETATM   36  F   UNL     1      -7.153  -4.138 -34.259  1.00  0.00    -0.144 F 
ENDBRANCH  32  33
ENDBRANCH  29  32
ENDBRANCH  23  26
ENDBRANCH  21  22
ENDBRANCH   1  21
TORSDOF 9
ENDMDL
MODEL 2
REMARK VINA RESULT:      -8.6      2.490      3.478
REMARK  9 active torsions:
REMARK  status: ('A' for Active; 'I' for Inactive)
REMARK    1  A    between atoms: C_5  and  C_6 
REMARK    2  A    between atoms: C_8  and  N_9 
REMARK       I    between atoms: N_9  and  C_10 
REMARK    3  A    between atoms: C_10  and  C_11 
REMARK    4  A    between atoms: C_11  and  N_12 
REMARK    5  A    between atoms: N_12  and  C_14 
REMARK    6  A    between atoms: C_14  and  C_15 
REMARK       I    between atoms: C_15  and  N_16 
REMARK    7  A    between atoms: N_16  and  C_17 
REMARK    8  A    between atoms: C_20  and  O_21 
REMARK    9  A    between atoms: O_21  and  C_22 
ROOT
HETATM    1  N   UNL     1     -10.668   3.313 -34.853  1.00  0.00    -0.058 N 
HETATM    2  H   UNL     1      -9.881   3.281 -35.512  1.00  0.00     0.280 HD
HETATM    3  C   UNL     1     -11.754   4.047 -35.608  1.00  0.00     0.270 C 
ENDROOT
BRANCH   1   4
HETATM    4  C   UNL     1     -10.145   4.096 -33.643  1.00  0.00     0.337 C 
BRANCH   4   5
HETATM    5  C   UNL     1      -8.636   4.041 -33.380  1.00  0.00     0.248 C 
HETATM    6  N   UNL     1      -8.296   3.486 -32.160  1.00  0.00    -0.326 N 
HETATM    7  H   UNL     1      -9.014   3.366 -31.458  1.00  0.00     0.169 HD
HETATM    8  O   UNL     1      -7.868   4.489 -34.227  1.00  0.00    -0.271 OA
BRANCH   6   9
HETATM    9  C   UNL     1      -6.998   3.136 -31.720  1.00  0.00     0.035 A 
HETATM   10  C   UNL     1      -5.829   3.777 -32.142  1.00  0.00     0.043 A 
HETATM   11  C   UNL     1      -4.560   3.334 -31.716  1.00  0.00    -0.005 A 
HETATM   12  C   UNL     1      -4.494   2.247 -30.833  1.00  0.00     0.014 A 
HETATM   13  C   UNL     1      -5.656   1.608 -30.401  1.00  0.00     0.003 A 
HETATM   14  C   UNL     1      -6.900   2.044 -30.852  1.00  0.00     0.029 A 
BRANCH  11  15
HETATM   15  C   UNL     1      -3.359   4.002 -32.223  1.00  0.00     0.074 A 
HETATM   16  C   UNL     1      -3.197   4.480 -33.510  1.00  0.00     0.084 A 
HETATM   17  S   UNL     1      -1.651   5.200 -33.693  1.00  0.00    -0.085 SA
HETATM   18  C   UNL     1      -1.304   4.838 -32.053  1.00  0.00     0.071 A 
HETATM   19  C   UNL     1       0.012   5.207 -31.464  1.00  0.00     0.078 C 
HETATM   20  N   UNL     1      -2.262   4.219 -31.396  1.00  0.00    -0.245 NA
ENDBRANCH  11  15
ENDBRANCH   6   9
ENDBRANCH   4   5
ENDBRANCH   1   4
BRANCH   1  21
HETATM   21  C   UNL     1     -11.007   1.852 -34.556  1.00  0.00     0.337 C 
BRANCH  21  22
HETATM   22  C   UNL     1      -9.880   1.028 -33.923  1.00  0.00     0.248 C 
HETATM   23  N   UNL     1      -8.851   0.712 -34.794  1.00  0.00    -0.326 N 
HETATM   24  H   UNL     1      -8.979   0.878 -35.788  1.00  0.00     0.169 HD
HETATM   25  O   UNL     1      -9.932   0.748 -32.732  1.00  0.00    -0.271 OA
BRANCH  23  26
HETATM   26  C   UNL     1      -7.667   0.005 -34.469  1.00  0.00     0.034 A 
HETATM   27  C   UNL     1      -7.566  -1.385 -34.442  1.00  0.00     0.032 A 
HETATM   28  C   UNL     1      -6.348  -2.002 -34.131  1.00  0.00     0.039 A 
HETATM   29  C   UNL     1      -5.210  -1.246 -33.845  1.00  0.00     0.078 A 
HETATM   30  C   UNL     1      -5.313   0.143 -33.845  1.00  0.00     0.039 A 
HETATM   31  C   UNL     1      -6.532   0.763 -34.154  1.00  0.00     0.032 A 
BRANCH  29  32
HETATM   32  O   UNL     1      -4.093  -1.983 -33.585  1.00  0.00    -0.255 OA
BRANCH  32  33
HETATM   33  C   UNL     1      -3.487  -1.838 -32.310  1.00  0.00     0.530 C 
HETATM   34  F   UNL     1      -2.964  -3.008 -31.883  1.00  0.00    -0.144 F 
HETATM   35  F   UNL     1      -2.517  -0.900 -32.346  1.00  0.00    -0.144 F 
HETATM   36  F   UNL     1      -4.426  -1.444 -31.423  1.00  0.00    -0.144 F 
ENDBRANCH  32  33
ENDBRANCH  29  32
ENDBRANCH  23  26
ENDBRANCH  21  22
ENDBRANCH   1  21
TORSDOF 9
ENDMDL
MODEL 3
REMARK VINA RESULT:      -8.6      3.506      6.884
REMARK  9 active torsions:
REMARK  status: ('A' for Active; 'I' for Inactive)
REMARK    1  A    between atoms: C_5  and  C_6 
REMARK    2  A    between atoms: C_8  and  N_9 
REMARK       I    between atoms: N_9  and  C_10 
REMARK    3  A    between atoms: C_10  and  C_11 
REMARK    4  A    between atoms: C_11  and  N_12 
REMARK    5  A    between atoms: N_12  and  C_14 
REMARK    6  A    between atoms: C_14  and  C_15 
REMARK       I    between atoms: C_15  and  N_16 
REMARK    7  A    between atoms: N_16  and  C_17 
REMARK    8  A    between atoms: C_20  and  O_21 
REMARK    9  A    between atoms: O_21  and  C_22 
ROOT
HETATM    1  N   UNL     1      -2.489   6.378 -32.776  1.00  0.00    -0.058 N 
HETATM    2  H   UNL     1      -2.666   5.981 -33.706  1.00  0.00     0.280 HD
HETATM    3  C   UNL     1      -1.391   7.393 -33.010  1.00  0.00     0.270 C 
ENDROOT
BRANCH   1   4
HETATM    4  C   UNL     1      -2.037   5.195 -31.914  1.00  0.00     0.337 C 
BRANCH   4   5
HETATM    5  C   UNL     1      -2.725   3.848 -32.168  1.00  0.00     0.248 C 
HETATM    6  N   UNL     1      -3.328   3.304 -31.049  1.00  0.00    -0.326 N 
HETATM    7  H   UNL     1      -3.103   3.680 -30.138  1.00  0.00     0.169 HD
HETATM    8  O   UNL     1      -2.680   3.360 -33.293  1.00  0.00    -0.271 OA
BRANCH   6   9
HETATM    9  C   UNL     1      -4.185   2.180 -31.011  1.00  0.00     0.035 A 
HETATM   10  C   UNL     1      -3.944   0.987 -31.700  1.00  0.00     0.043 A 
HETATM   11  C   UNL     1      -4.874  -0.072 -31.673  1.00  0.00    -0.005 A 
HETATM   12  C   UNL     1      -6.043   0.085 -30.914  1.00  0.00     0.014 A 
HETATM   13  C   UNL     1      -6.286   1.268 -30.217  1.00  0.00     0.003 A 
HETATM   14  C   UNL     1      -5.367   2.314 -30.276  1.00  0.00     0.029 A 
BRANCH  11  15
HETATM   15  C   UNL     1      -4.605  -1.284 -32.450  1.00  0.00     0.074 A 
HETATM   16  C   UNL     1      -3.587  -2.184 -32.193  1.00  0.00     0.084 A 
HETATM   17  S   UNL     1      -3.621  -3.469 -33.329  1.00  0.00    -0.085 SA
HETATM   18  C   UNL     1      -4.988  -2.752 -34.077  1.00  0.00     0.071 A 
HETATM   19  C   UNL     1      -5.615  -3.390 -35.267  1.00  0.00     0.078 C 
HETATM   20  N   UNL     1      -5.405  -1.627 -33.535  1.00  0.00    -0.245 NA
ENDBRANCH  11  15
ENDBRANCH   6   9
ENDBRANCH   4   5
ENDBRANCH   1   4
BRANCH   1  21
HETATM   21  C   UNL     1      -3.817   7.000 -32.342  1.00  0.00     0.337 C 
BRANCH  21  22
HETATM   22  C   UNL     1      -4.977   6.016 -32.157  1.00  0.00     0.248 C 
HETATM   23  N   UNL     1      -5.395   5.405 -33.328  1.00  0.00    -0.326 N 
HETATM   24  H   UNL     1      -5.051   5.757 -34.215  1.00  0.00     0.169 HD
HETATM   25  O   UNL     1      -5.417   5.805 -31.033  1.00  0.00    -0.271 OA
BRANCH  23  26
HETATM   26  C   UNL     1      -6.409   4.423 -33.443  1.00  0.00     0.034 A 
HETATM   27  C   UNL     1      -7.752   4.644 -33.145  1.00  0.00     0.032 A 
HETATM   28  C   UNL     1      -8.693   3.620 -33.309  1.00  0.00     0.039 A 
HETATM   29  C   UNL     1      -8.314   2.361 -33.776  1.00  0.00     0.078 A 
HETATM   30  C   UNL     1      -6.969   2.127 -34.051  1.00  0.00     0.039 A 
HETATM   31  C   UNL     1      -6.024   3.150 -33.884  1.00  0.00     0.032 A 
BRANCH  29  32
HETATM   32  O   UNL     1      -9.341   1.474 -33.908  1.00  0.00    -0.255 OA
BRANCH  32  33
HETATM   33  C   UNL     1      -9.467   0.457 -32.927  1.00  0.00     0.530 C 
HETATM   34  F   UNL     1      -9.263   0.949 -31.687  1.00  0.00    -0.144 F 
HETATM   35  F   UNL     1     -10.689  -0.115 -32.987  1.00  0.00    -0.144 F 
HETATM   36  F   UNL     1      -8.541  -0.496 -33.165  1.00  0.00    -0.144 F 
ENDBRANCH  32  33
ENDBRANCH  29  32
ENDBRANCH  23  26
ENDBRANCH  21  22
ENDBRANCH   1  21
TORSDOF 9
ENDMDL
MODEL 4
REMARK VINA RESULT:      -8.5      1.556      2.074
REMARK  9 active torsions:
REMARK  status: ('A' for Active; 'I' for Inactive)
REMARK    1  A    between atoms: C_5  and  C_6 
REMARK    2  A    between atoms: C_8  and  N_9 
REMARK       I    between atoms: N_9  and  C_10 
REMARK    3  A    between atoms: C_10  and  C_11 
REMARK    4  A    between atoms: C_11  and  N_12 
REMARK    5  A    between atoms: N_12  and  C_14 
REMARK    6  A    between atoms: C_14  and  C_15 
REMARK       I    between atoms: C_15  and  N_16 
REMARK    7  A    between atoms: N_16  and  C_17 
REMARK    8  A    between atoms: C_20  and  O_21 
REMARK    9  A    between atoms: O_21  and  C_22 
ROOT
HETATM    1  N   UNL     1      -8.095   3.517 -31.868  1.00  0.00    -0.058 N 
HETATM    2  H   UNL     1      -8.861   4.166 -31.655  1.00  0.00     0.280 HD
HETATM    3  C   UNL     1      -7.126   3.699 -30.719  1.00  0.00     0.270 C 
ENDROOT
BRANCH   1   4
HETATM    4  C   UNL     1      -7.529   3.994 -33.210  1.00  0.00     0.337 C 
BRANCH   4   5
HETATM    5  C   UNL     1      -6.010   3.897 -33.396  1.00  0.00     0.248 C 
HETATM    6  N   UNL     1      -5.372   5.122 -33.462  1.00  0.00    -0.326 N 
HETATM    7  H   UNL     1      -5.923   5.957 -33.604  1.00  0.00     0.169 HD
HETATM    8  O   UNL     1      -5.492   2.789 -33.488  1.00  0.00    -0.271 OA
BRANCH   6   9
HETATM    9  C   UNL     1      -3.976   5.352 -33.445  1.00  0.00     0.035 A 
HETATM   10  C   UNL     1      -3.228   5.545 -32.279  1.00  0.00     0.043 A 
HETATM   11  C   UNL     1      -1.850   5.837 -32.336  1.00  0.00    -0.005 A 
HETATM   12  C   UNL     1      -1.233   5.903 -33.594  1.00  0.00     0.014 A 
HETATM   13  C   UNL     1      -1.971   5.704 -34.760  1.00  0.00     0.003 A 
HETATM   14  C   UNL     1      -3.337   5.442 -34.685  1.00  0.00     0.029 A 
BRANCH  11  15
HETATM   15  C   UNL     1      -1.115   6.081 -31.092  1.00  0.00     0.074 A 
HETATM   16  C   UNL     1      -0.280   5.173 -30.470  1.00  0.00     0.084 A 
HETATM   17  S   UNL     1       0.391   5.852 -29.045  1.00  0.00    -0.085 SA
HETATM   18  C   UNL     1      -0.463   7.307 -29.354  1.00  0.00     0.071 A 
HETATM   19  C   UNL     1      -0.349   8.459 -28.419  1.00  0.00     0.078 C 
HETATM   20  N   UNL     1      -1.208   7.306 -30.440  1.00  0.00    -0.245 NA
ENDBRANCH  11  15
ENDBRANCH   6   9
ENDBRANCH   4   5
ENDBRANCH   1   4
BRANCH   1  21
HETATM   21  C   UNL     1      -8.737   2.130 -31.914  1.00  0.00     0.337 C 
BRANCH  21  22
HETATM   22  C   UNL     1      -7.759   0.952 -31.975  1.00  0.00     0.248 C 
HETATM   23  N   UNL     1      -7.435   0.551 -33.261  1.00  0.00    -0.326 N 
HETATM   24  H   UNL     1      -7.971   0.919 -34.041  1.00  0.00     0.169 HD
HETATM   25  O   UNL     1      -7.310   0.484 -30.936  1.00  0.00    -0.271 OA
BRANCH  23  26
HETATM   26  C   UNL     1      -6.523  -0.475 -33.613  1.00  0.00     0.034 A 
HETATM   27  C   UNL     1      -5.153  -0.425 -33.365  1.00  0.00     0.032 A 
HETATM   28  C   UNL     1      -4.327  -1.497 -33.727  1.00  0.00     0.039 A 
HETATM   29  C   UNL     1      -4.852  -2.635 -34.339  1.00  0.00     0.078 A 
HETATM   30  C   UNL     1      -6.217  -2.679 -34.614  1.00  0.00     0.039 A 
HETATM   31  C   UNL     1      -7.045  -1.606 -34.254  1.00  0.00     0.032 A 
BRANCH  29  32
HETATM   32  O   UNL     1      -3.933  -3.605 -34.613  1.00  0.00    -0.255 OA
BRANCH  32  33
HETATM   33  C   UNL     1      -3.724  -4.613 -33.636  1.00  0.00     0.530 C 
HETATM   34  F   UNL     1      -3.571  -4.075 -32.407  1.00  0.00    -0.144 F 
HETATM   35  F   UNL     1      -4.756  -5.483 -33.620  1.00  0.00    -0.144 F 
HETATM   36  F   UNL     1      -2.599  -5.293 -33.944  1.00  0.00    -0.144 F 
ENDBRANCH  32  33
ENDBRANCH  29  32
ENDBRANCH  23  26
ENDBRANCH  21  22
ENDBRANCH   1  21
TORSDOF 9
ENDMDL
MODEL 5
REMARK VINA RESULT:      -8.4      3.543      7.036
REMARK  9 active torsions:
REMARK  status: ('A' for Active; 'I' for Inactive)
REMARK    1  A    between atoms: C_5  and  C_6 
REMARK    2  A    between atoms: C_8  and  N_9 
REMARK       I    between atoms: N_9  and  C_10 
REMARK    3  A    between atoms: C_10  and  C_11 
REMARK    4  A    between atoms: C_11  and  N_12 
REMARK    5  A    between atoms: N_12  and  C_14 
REMARK    6  A    between atoms: C_14  and  C_15 
REMARK       I    between atoms: C_15  and  N_16 
REMARK    7  A    between atoms: N_16  and  C_17 
REMARK    8  A    between atoms: C_20  and  O_21 
REMARK    9  A    between atoms: O_21  and  C_22 
ROOT
HETATM    1  N   UNL     1      -4.000   5.479 -30.457  1.00  0.00    -0.058 N 
HETATM    2  H   UNL     1      -4.365   4.782 -29.798  1.00  0.00     0.280 HD
HETATM    3  C   UNL     1      -3.679   6.676 -29.588  1.00  0.00     0.270 C 
ENDROOT
BRANCH   1   4
HETATM    4  C   UNL     1      -5.147   5.741 -31.439  1.00  0.00     0.337 C 
BRANCH   4   5
HETATM    5  C   UNL     1      -6.105   4.576 -31.715  1.00  0.00     0.248 C 
HETATM    6  N   UNL     1      -6.429   4.418 -33.050  1.00  0.00    -0.326 N 
HETATM    7  H   UNL     1      -6.217   5.164 -33.699  1.00  0.00     0.169 HD
HETATM    8  O   UNL     1      -6.513   3.905 -30.772  1.00  0.00    -0.271 OA
BRANCH   6   9
HETATM    9  C   UNL     1      -7.131   3.336 -33.629  1.00  0.00     0.035 A 
HETATM   10  C   UNL     1      -8.525   3.230 -33.654  1.00  0.00     0.043 A 
HETATM   11  C   UNL     1      -9.161   2.090 -34.187  1.00  0.00    -0.005 A 
HETATM   12  C   UNL     1      -8.363   1.069 -34.721  1.00  0.00     0.014 A 
HETATM   13  C   UNL     1      -6.972   1.171 -34.708  1.00  0.00     0.003 A 
HETATM   14  C   UNL     1      -6.361   2.293 -34.153  1.00  0.00     0.029 A 
BRANCH  11  15
HETATM   15  C   UNL     1     -10.623   1.998 -34.147  1.00  0.00     0.074 A 
HETATM   16  C   UNL     1     -11.492   3.043 -34.399  1.00  0.00     0.084 A 
HETATM   17  S   UNL     1     -13.119   2.518 -34.256  1.00  0.00    -0.085 SA
HETATM   18  C   UNL     1     -12.561   0.940 -33.880  1.00  0.00     0.071 A 
HETATM   19  C   UNL     1     -13.531  -0.153 -33.596  1.00  0.00     0.078 C 
HETATM   20  N   UNL     1     -11.253   0.794 -33.853  1.00  0.00    -0.245 NA
ENDBRANCH  11  15
ENDBRANCH   6   9
ENDBRANCH   4   5
ENDBRANCH   1   4
BRANCH   1  21
HETATM   21  C   UNL     1      -2.767   4.833 -31.091  1.00  0.00     0.337 C 
BRANCH  21  22
HETATM   22  C   UNL     1      -3.040   3.596 -31.954  1.00  0.00     0.248 C 
HETATM   23  N   UNL     1      -3.567   2.522 -31.256  1.00  0.00    -0.326 N 
HETATM   24  H   UNL     1      -3.572   2.550 -30.241  1.00  0.00     0.169 HD
HETATM   25  O   UNL     1      -2.829   3.642 -33.160  1.00  0.00    -0.271 OA
BRANCH  23  26
HETATM   26  C   UNL     1      -3.958   1.276 -31.806  1.00  0.00     0.034 A 
HETATM   27  C   UNL     1      -3.261   0.612 -32.813  1.00  0.00     0.032 A 
HETATM   28  C   UNL     1      -3.707  -0.630 -33.284  1.00  0.00     0.039 A 
HETATM   29  C   UNL     1      -4.851  -1.230 -32.759  1.00  0.00     0.078 A 
HETATM   30  C   UNL     1      -5.566  -0.558 -31.770  1.00  0.00     0.039 A 
HETATM   31  C   UNL     1      -5.122   0.686 -31.299  1.00  0.00     0.032 A 
BRANCH  29  32
HETATM   32  O   UNL     1      -5.150  -2.447 -33.297  1.00  0.00    -0.255 OA
BRANCH  32  33
HETATM   33  C   UNL     1      -6.174  -2.503 -34.278  1.00  0.00     0.530 C 
HETATM   34  F   UNL     1      -7.346  -2.048 -33.784  1.00  0.00    -0.144 F 
HETATM   35  F   UNL     1      -5.834  -1.779 -35.365  1.00  0.00    -0.144 F 
HETATM   36  F   UNL     1      -6.344  -3.787 -34.658  1.00  0.00    -0.144 F 
ENDBRANCH  32  33
ENDBRANCH  29  32
ENDBRANCH  23  26
ENDBRANCH  21  22
ENDBRANCH   1  21
TORSDOF 9
ENDMDL
MODEL 6
REMARK VINA RESULT:      -8.4      4.018      7.724
REMARK  9 active torsions:
REMARK  status: ('A' for Active; 'I' for Inactive)
REMARK    1  A    between atoms: C_5  and  C_6 
REMARK    2  A    between atoms: C_8  and  N_9 
REMARK       I    between atoms: N_9  and  C_10 
REMARK    3  A    between atoms: C_10  and  C_11 
REMARK    4  A    between atoms: C_11  and  N_12 
REMARK    5  A    between atoms: N_12  and  C_14 
REMARK    6  A    between atoms: C_14  and  C_15 
REMARK       I    between atoms: C_15  and  N_16 
REMARK    7  A    between atoms: N_16  and  C_17 
REMARK    8  A    between atoms: C_20  and  O_21 
REMARK    9  A    between atoms: O_21  and  C_22 
ROOT
HETATM    1  N   UNL     1      -6.096   3.946 -30.911  1.00  0.00    -0.058 N 
HETATM    2  H   UNL     1      -6.672   3.101 -31.003  1.00  0.00     0.280 HD
HETATM    3  C   UNL     1      -6.510   4.531 -29.578  1.00  0.00     0.270 C 
ENDROOT
BRANCH   1   4
HETATM    4  C   UNL     1      -6.488   4.828 -32.101  1.00  0.00     0.337 C 
BRANCH   4   5
HETATM    5  C   UNL     1      -7.627   4.324 -32.994  1.00  0.00     0.248 C 
HETATM    6  N   UNL     1      -8.458   3.404 -32.381  1.00  0.00    -0.326 N 
HETATM    7  H   UNL     1      -8.160   2.970 -31.517  1.00  0.00     0.169 HD
HETATM    8  O   UNL     1      -7.708   4.739 -34.146  1.00  0.00    -0.271 OA
BRANCH   6   9
HETATM    9  C   UNL     1      -9.684   2.906 -32.880  1.00  0.00     0.035 A 
HETATM   10  C   UNL     1     -10.939   3.406 -32.518  1.00  0.00     0.043 A 
HETATM   11  C   UNL     1     -12.126   2.819 -33.001  1.00  0.00    -0.005 A 
HETATM   12  C   UNL     1     -12.024   1.732 -33.880  1.00  0.00     0.014 A 
HETATM   13  C   UNL     1     -10.776   1.232 -34.253  1.00  0.00     0.003 A 
HETATM   14  C   UNL     1      -9.614   1.809 -33.745  1.00  0.00     0.029 A 
BRANCH  11  15
HETATM   15  C   UNL     1     -13.420   3.344 -32.556  1.00  0.00     0.074 A 
HETATM   16  C   UNL     1     -13.639   4.624 -32.082  1.00  0.00     0.084 A 
HETATM   17  S   UNL     1     -15.291   4.839 -31.674  1.00  0.00    -0.085 SA
HETATM   18  C   UNL     1     -15.606   3.225 -32.162  1.00  0.00     0.071 A 
HETATM   19  C   UNL     1     -16.982   2.665 -32.064  1.00  0.00     0.078 C 
HETATM   20  N   UNL     1     -14.563   2.552 -32.599  1.00  0.00    -0.245 NA
ENDBRANCH  11  15
ENDBRANCH   6   9
ENDBRANCH   4   5
ENDBRANCH   1   4
BRANCH   1  21
HETATM   21  C   UNL     1      -4.648   3.456 -30.942  1.00  0.00     0.337 C 
BRANCH  21  22
HETATM   22  C   UNL     1      -4.359   2.311 -31.920  1.00  0.00     0.248 C 
HETATM   23  N   UNL     1      -5.359   1.354 -31.984  1.00  0.00    -0.326 N 
HETATM   24  H   UNL     1      -6.098   1.369 -31.288  1.00  0.00     0.169 HD
HETATM   25  O   UNL     1      -3.333   2.331 -32.588  1.00  0.00    -0.271 OA
BRANCH  23  26
HETATM   26  C   UNL     1      -5.379   0.220 -32.832  1.00  0.00     0.034 A 
HETATM   27  C   UNL     1      -4.502  -0.857 -32.721  1.00  0.00     0.032 A 
HETATM   28  C   UNL     1      -4.606  -1.950 -33.590  1.00  0.00     0.039 A 
HETATM   29  C   UNL     1      -5.587  -1.990 -34.582  1.00  0.00     0.078 A 
HETATM   30  C   UNL     1      -6.449  -0.904 -34.714  1.00  0.00     0.039 A 
HETATM   31  C   UNL     1      -6.344   0.192 -33.846  1.00  0.00     0.032 A 
BRANCH  29  32
HETATM   32  O   UNL     1      -5.583  -3.126 -35.336  1.00  0.00    -0.255 OA
BRANCH  32  33
HETATM   33  C   UNL     1      -6.419  -4.197 -34.925  1.00  0.00     0.530 C 
HETATM   34  F   UNL     1      -7.031  -4.770 -35.983  1.00  0.00    -0.144 F 
HETATM   35  F   UNL     1      -5.707  -5.130 -34.258  1.00  0.00    -0.144 F 
HETATM   36  F   UNL     1      -7.369  -3.714 -34.095  1.00  0.00    -0.144 F 
ENDBRANCH  32  33
ENDBRANCH  29  32
ENDBRANCH  23  26
ENDBRANCH  21  22
ENDBRANCH   1  21
TORSDOF 9
ENDMDL
MODEL 7
REMARK VINA RESULT:      -8.4      1.676      2.127
REMARK  9 active torsions:
REMARK  status: ('A' for Active; 'I' for Inactive)
REMARK    1  A    between atoms: C_5  and  C_6 
REMARK    2  A    between atoms: C_8  and  N_9 
REMARK       I    between atoms: N_9  and  C_10 
REMARK    3  A    between atoms: C_10  and  C_11 
REMARK    4  A    between atoms: C_11  and  N_12 
REMARK    5  A    between atoms: N_12  and  C_14 
REMARK    6  A    between atoms: C_14  and  C_15 
REMARK       I    between atoms: C_15  and  N_16 
REMARK    7  A    between atoms: N_16  and  C_17 
REMARK    8  A    between atoms: C_20  and  O_21 
REMARK    9  A    between atoms: O_21  and  C_22 
ROOT
HETATM    1  N   UNL     1     -10.092   4.355 -33.302  1.00  0.00    -0.058 N 
HETATM    2  H   UNL     1      -9.692   3.974 -34.167  1.00  0.00     0.280 HD
HETATM    3  C   UNL     1     -11.406   4.965 -33.738  1.00  0.00     0.270 C 
ENDROOT
BRANCH   1   4
HETATM    4  C   UNL     1      -9.078   5.399 -32.819  1.00  0.00     0.337 C 
BRANCH   4   5
HETATM    5  C   UNL     1      -7.597   5.096 -33.072  1.00  0.00     0.248 C 
HETATM    6  N   UNL     1      -6.870   4.842 -31.923  1.00  0.00    -0.326 N 
HETATM    7  H   UNL     1      -7.271   5.078 -31.026  1.00  0.00     0.169 HD
HETATM    8  O   UNL     1      -7.174   5.117 -34.224  1.00  0.00    -0.271 OA
BRANCH   6   9
HETATM    9  C   UNL     1      -5.543   4.358 -31.851  1.00  0.00     0.035 A 
HETATM   10  C   UNL     1      -4.441   5.143 -31.497  1.00  0.00     0.043 A 
HETATM   11  C   UNL     1      -3.134   4.614 -31.509  1.00  0.00    -0.005 A 
HETATM   12  C   UNL     1      -2.962   3.267 -31.860  1.00  0.00     0.014 A 
HETATM   13  C   UNL     1      -4.058   2.476 -32.206  1.00  0.00     0.003 A 
HETATM   14  C   UNL     1      -5.339   3.023 -32.213  1.00  0.00     0.029 A 
BRANCH  11  15
HETATM   15  C   UNL     1      -2.003   5.485 -31.180  1.00  0.00     0.074 A 
HETATM   16  C   UNL     1      -0.784   5.486 -31.832  1.00  0.00     0.084 A 
HETATM   17  S   UNL     1       0.262   6.659 -31.145  1.00  0.00    -0.085 SA
HETATM   18  C   UNL     1      -0.973   7.093 -30.038  1.00  0.00     0.071 A 
HETATM   19  C   UNL     1      -0.735   8.156 -29.025  1.00  0.00     0.078 C 
HETATM   20  N   UNL     1      -2.098   6.417 -30.153  1.00  0.00    -0.245 NA
ENDBRANCH  11  15
ENDBRANCH   6   9
ENDBRANCH   4   5
ENDBRANCH   1   4
BRANCH   1  21
HETATM   21  C   UNL     1     -10.252   3.156 -32.367  1.00  0.00     0.337 C 
BRANCH  21  22
HETATM   22  C   UNL     1      -9.811   1.806 -32.943  1.00  0.00     0.248 C 
HETATM   23  N   UNL     1      -8.441   1.679 -33.106  1.00  0.00    -0.326 N 
HETATM   24  H   UNL     1      -7.857   2.504 -33.012  1.00  0.00     0.169 HD
HETATM   25  O   UNL     1     -10.650   0.944 -33.173  1.00  0.00    -0.271 OA
BRANCH  23  26
HETATM   26  C   UNL     1      -7.756   0.529 -33.571  1.00  0.00     0.034 A 
HETATM   27  C   UNL     1      -7.798   0.071 -34.886  1.00  0.00     0.032 A 
HETATM   28  C   UNL     1      -7.071  -1.065 -35.265  1.00  0.00     0.039 A 
HETATM   29  C   UNL     1      -6.289  -1.760 -34.342  1.00  0.00     0.078 A 
HETATM   30  C   UNL     1      -6.265  -1.321 -33.020  1.00  0.00     0.039 A 
HETATM   31  C   UNL     1      -6.994  -0.186 -32.638  1.00  0.00     0.032 A 
BRANCH  29  32
HETATM   32  O   UNL     1      -5.620  -2.830 -34.859  1.00  0.00    -0.255 OA
BRANCH  32  33
HETATM   33  C   UNL     1      -6.266  -4.093 -34.828  1.00  0.00     0.530 C 
HETATM   34  F   UNL     1      -5.482  -5.026 -34.248  1.00  0.00    -0.144 F 
HETATM   35  F   UNL     1      -7.437  -4.013 -34.161  1.00  0.00    -0.144 F 
HETATM   36  F   UNL     1      -6.524  -4.482 -36.095  1.00  0.00    -0.144 F 
ENDBRANCH  32  33
ENDBRANCH  29  32
ENDBRANCH  23  26
ENDBRANCH  21  22
ENDBRANCH   1  21
TORSDOF 9
ENDMDL
MODEL 8
REMARK VINA RESULT:      -8.4      1.655      2.355
REMARK  9 active torsions:
REMARK  status: ('A' for Active; 'I' for Inactive)
REMARK    1  A    between atoms: C_5  and  C_6 
REMARK    2  A    between atoms: C_8  and  N_9 
REMARK       I    between atoms: N_9  and  C_10 
REMARK    3  A    between atoms: C_10  and  C_11 
REMARK    4  A    between atoms: C_11  and  N_12 
REMARK    5  A    between atoms: N_12  and  C_14 
REMARK    6  A    between atoms: C_14  and  C_15 
REMARK       I    between atoms: C_15  and  N_16 
REMARK    7  A    between atoms: N_16  and  C_17 
REMARK    8  A    between atoms: C_20  and  O_21 
REMARK    9  A    between atoms: O_21  and  C_22 
ROOT
HETATM    1  N   UNL     1      -7.895   4.576 -32.477  1.00  0.00    -0.058 N 
HETATM    2  H   UNL     1      -8.420   3.948 -33.096  1.00  0.00     0.280 HD
HETATM    3  C   UNL     1      -8.965   5.376 -31.766  1.00  0.00     0.270 C 
ENDROOT
BRANCH   1   4
HETATM    4  C   UNL     1      -7.032   5.430 -33.413  1.00  0.00     0.337 C 
BRANCH   4   5
HETATM    5  C   UNL     1      -5.804   6.111 -32.797  1.00  0.00     0.248 C 
HETATM    6  N   UNL     1      -4.601   5.522 -33.142  1.00  0.00    -0.326 N 
HETATM    7  H   UNL     1      -4.606   4.604 -33.564  1.00  0.00     0.169 HD
HETATM    8  O   UNL     1      -5.968   7.078 -32.059  1.00  0.00    -0.271 OA
BRANCH   6   9
HETATM    9  C   UNL     1      -3.306   6.028 -32.883  1.00  0.00     0.035 A 
HETATM   10  C   UNL     1      -2.746   6.134 -31.606  1.00  0.00     0.043 A 
HETATM   11  C   UNL     1      -1.475   6.711 -31.412  1.00  0.00    -0.005 A 
HETATM   12  C   UNL     1      -0.764   7.155 -32.536  1.00  0.00     0.014 A 
HETATM   13  C   UNL     1      -1.312   7.046 -33.814  1.00  0.00     0.003 A 
HETATM   14  C   UNL     1      -2.581   6.496 -33.984  1.00  0.00     0.029 A 
BRANCH  11  15
HETATM   15  C   UNL     1      -0.949   6.847 -30.051  1.00  0.00     0.074 A 
HETATM   16  C   UNL     1       0.392   6.850 -29.714  1.00  0.00     0.084 A 
HETATM   17  S   UNL     1       0.584   7.040 -28.020  1.00  0.00    -0.085 SA
HETATM   18  C   UNL     1      -1.121   7.116 -27.850  1.00  0.00     0.071 A 
HETATM   19  C   UNL     1      -1.735   7.282 -26.504  1.00  0.00     0.078 C 
HETATM   20  N   UNL     1      -1.806   7.005 -28.968  1.00  0.00    -0.245 NA
ENDBRANCH  11  15
ENDBRANCH   6   9
ENDBRANCH   4   5
ENDBRANCH   1   4
BRANCH   1  21
HETATM   21  C   UNL     1      -7.097   3.659 -31.549  1.00  0.00     0.337 C 
BRANCH  21  22
HETATM   22  C   UNL     1      -6.366   2.500 -32.236  1.00  0.00     0.248 C 
HETATM   23  N   UNL     1      -7.179   1.423 -32.550  1.00  0.00    -0.326 N 
HETATM   24  H   UNL     1      -8.118   1.389 -32.167  1.00  0.00     0.169 HD
HETATM   25  O   UNL     1      -5.173   2.606 -32.495  1.00  0.00    -0.271 OA
BRANCH  23  26
HETATM   26  C   UNL     1      -6.781   0.244 -33.227  1.00  0.00     0.034 A 
HETATM   27  C   UNL     1      -7.282  -0.156 -34.465  1.00  0.00     0.032 A 
HETATM   28  C   UNL     1      -6.816  -1.328 -35.073  1.00  0.00     0.039 A 
HETATM   29  C   UNL     1      -5.843  -2.119 -34.462  1.00  0.00     0.078 A 
HETATM   30  C   UNL     1      -5.358  -1.737 -33.213  1.00  0.00     0.039 A 
HETATM   31  C   UNL     1      -5.825  -0.565 -32.601  1.00  0.00     0.032 A 
BRANCH  29  32
HETATM   32  O   UNL     1      -5.470  -3.215 -35.183  1.00  0.00    -0.255 OA
BRANCH  32  33
HETATM   33  C   UNL     1      -6.132  -4.441 -34.913  1.00  0.00     0.530 C 
HETATM   34  F   UNL     1      -5.333  -5.284 -34.224  1.00  0.00    -0.144 F 
HETATM   35  F   UNL     1      -7.267  -4.226 -34.214  1.00  0.00    -0.144 F 
HETATM   36  F   UNL     1      -6.458  -5.026 -36.084  1.00  0.00    -0.144 F 
ENDBRANCH  32  33
ENDBRANCH  29  32
ENDBRANCH  23  26
ENDBRANCH  21  22
ENDBRANCH   1  21
TORSDOF 9
ENDMDL
MODEL 9
REMARK VINA RESULT:      -8.4      3.722      6.564
REMARK  9 active torsions:
REMARK  status: ('A' for Active; 'I' for Inactive)
REMARK    1  A    between atoms: C_5  and  C_6 
REMARK    2  A    between atoms: C_8  and  N_9 
REMARK       I    between atoms: N_9  and  C_10 
REMARK    3  A    between atoms: C_10  and  C_11 
REMARK    4  A    between atoms: C_11  and  N_12 
REMARK    5  A    between atoms: N_12  and  C_14 
REMARK    6  A    between atoms: C_14  and  C_15 
REMARK       I    between atoms: C_15  and  N_16 
REMARK    7  A    between atoms: N_16  and  C_17 
REMARK    8  A    between atoms: C_20  and  O_21 
REMARK    9  A    between atoms: O_21  and  C_22 
ROOT
HETATM    1  N   UNL     1      -3.709  -1.945 -32.240  1.00  0.00    -0.058 N 
HETATM    2  H   UNL     1      -4.514  -1.946 -31.603  1.00  0.00     0.280 HD
HETATM    3  C   UNL     1      -3.013  -3.259 -31.960  1.00  0.00     0.270 C 
ENDROOT
BRANCH   1   4
HETATM    4  C   UNL     1      -2.876  -0.726 -31.828  1.00  0.00     0.337 C 
BRANCH   4   5
HETATM    5  C   UNL     1      -3.638   0.577 -31.560  1.00  0.00     0.248 C 
HETATM    6  N   UNL     1      -3.233   1.638 -32.349  1.00  0.00    -0.326 N 
HETATM    7  H   UNL     1      -2.365   1.567 -32.862  1.00  0.00     0.169 HD
HETATM    8  O   UNL     1      -4.503   0.592 -30.690  1.00  0.00    -0.271 OA
BRANCH   6   9
HETATM    9  C   UNL     1      -3.864   2.899 -32.461  1.00  0.00     0.035 A 
HETATM   10  C   UNL     1      -5.249   3.079 -32.530  1.00  0.00     0.043 A 
HETATM   11  C   UNL     1      -5.810   4.360 -32.709  1.00  0.00    -0.005 A 
HETATM   12  C   UNL     1      -4.948   5.462 -32.789  1.00  0.00     0.014 A 
HETATM   13  C   UNL     1      -3.565   5.292 -32.713  1.00  0.00     0.003 A 
HETATM   14  C   UNL     1      -3.028   4.016 -32.561  1.00  0.00     0.029 A 
BRANCH  11  15
HETATM   15  C   UNL     1      -7.265   4.497 -32.827  1.00  0.00     0.074 A 
HETATM   16  C   UNL     1      -8.150   4.520 -31.765  1.00  0.00     0.084 A 
HETATM   17  S   UNL     1      -9.759   4.702 -32.330  1.00  0.00    -0.085 SA
HETATM   18  C   UNL     1      -9.173   4.748 -33.941  1.00  0.00     0.071 A 
HETATM   19  C   UNL     1     -10.119   4.894 -35.081  1.00  0.00     0.078 C 
HETATM   20  N   UNL     1      -7.869   4.632 -34.072  1.00  0.00    -0.245 NA
ENDBRANCH  11  15
ENDBRANCH   6   9
ENDBRANCH   4   5
ENDBRANCH   1   4
BRANCH   1  21
HETATM   21  C   UNL     1      -4.303  -1.853 -33.646  1.00  0.00     0.337 C 
BRANCH  21  22
HETATM   22  C   UNL     1      -5.817  -1.617 -33.709  1.00  0.00     0.248 C 
HETATM   23  N   UNL     1      -6.213  -0.360 -33.281  1.00  0.00    -0.326 N 
HETATM   24  H   UNL     1      -5.538   0.233 -32.808  1.00  0.00     0.169 HD
HETATM   25  O   UNL     1      -6.547  -2.494 -34.152  1.00  0.00    -0.271 OA
BRANCH  23  26
HETATM   26  C   UNL     1      -7.537   0.143 -33.277  1.00  0.00     0.034 A 
HETATM   27  C   UNL     1      -8.313   0.296 -32.130  1.00  0.00     0.032 A 
HETATM   28  C   UNL     1      -9.608   0.823 -32.214  1.00  0.00     0.039 A 
HETATM   29  C   UNL     1     -10.149   1.211 -33.440  1.00  0.00     0.078 A 
HETATM   30  C   UNL     1      -9.387   1.036 -34.593  1.00  0.00     0.039 A 
HETATM   31  C   UNL     1      -8.091   0.505 -34.511  1.00  0.00     0.032 A 
BRANCH  29  32
HETATM   32  O   UNL     1     -11.409   1.728 -33.365  1.00  0.00    -0.255 OA
BRANCH  32  33
HETATM   33  C   UNL     1     -12.491   0.895 -33.748  1.00  0.00     0.530 C 
HETATM   34  F   UNL     1     -12.643   0.880 -35.090  1.00  0.00    -0.144 F 
HETATM   35  F   UNL     1     -12.302  -0.366 -33.304  1.00  0.00    -0.144 F 
HETATM   36  F   UNL     1     -13.626   1.373 -33.197  1.00  0.00    -0.144 F 
ENDBRANCH  32  33
ENDBRANCH  29  32
ENDBRANCH  23  26
ENDBRANCH  21  22
ENDBRANCH   1  21
TORSDOF 9
ENDMDL
MODEL 10
REMARK VINA RESULT:      -8.2      4.482      7.367
REMARK  9 active torsions:
REMARK  status: ('A' for Active; 'I' for Inactive)
REMARK    1  A    between atoms: C_5  and  C_6 
REMARK    2  A    between atoms: C_8  and  N_9 
REMARK       I    between atoms: N_9  and  C_10 
REMARK    3  A    between atoms: C_10  and  C_11 
REMARK    4  A    between atoms: C_11  and  N_12 
REMARK    5  A    between atoms: N_12  and  C_14 
REMARK    6  A    between atoms: C_14  and  C_15 
REMARK       I    between atoms: C_15  and  N_16 
REMARK    7  A    between atoms: N_16  and  C_17 
REMARK    8  A    between atoms: C_20  and  O_21 
REMARK    9  A    between atoms: O_21  and  C_22 
ROOT
HETATM    1  N   UNL     1      -5.007   5.321 -30.907  1.00  0.00    -0.058 N 
HETATM    2  H   UNL     1      -4.926   5.626 -31.883  1.00  0.00     0.280 HD
HETATM    3  C   UNL     1      -4.196   6.338 -30.133  1.00  0.00     0.270 C 
ENDROOT
BRANCH   1   4
HETATM    4  C   UNL     1      -4.395   3.916 -30.873  1.00  0.00     0.337 C 
BRANCH   4   5
HETATM    5  C   UNL     1      -4.534   3.068 -32.143  1.00  0.00     0.248 C 
HETATM    6  N   UNL     1      -5.466   2.051 -32.041  1.00  0.00    -0.326 N 
HETATM    7  H   UNL     1      -5.815   1.793 -31.128  1.00  0.00     0.169 HD
HETATM    8  O   UNL     1      -3.828   3.328 -33.112  1.00  0.00    -0.271 OA
BRANCH   6   9
HETATM    9  C   UNL     1      -5.943   1.231 -33.090  1.00  0.00     0.035 A 
HETATM   10  C   UNL     1      -5.669  -0.136 -33.203  1.00  0.00     0.043 A 
HETATM   11  C   UNL     1      -6.120  -0.881 -34.310  1.00  0.00    -0.005 A 
HETATM   12  C   UNL     1      -6.877  -0.227 -35.292  1.00  0.00     0.014 A 
HETATM   13  C   UNL     1      -7.162   1.134 -35.183  1.00  0.00     0.003 A 
HETATM   14  C   UNL     1      -6.686   1.860 -34.093  1.00  0.00     0.029 A 
BRANCH  11  15
HETATM   15  C   UNL     1      -5.767  -2.300 -34.414  1.00  0.00     0.074 A 
HETATM   16  C   UNL     1      -6.582  -3.286 -34.937  1.00  0.00     0.084 A 
HETATM   17  S   UNL     1      -5.794  -4.808 -34.881  1.00  0.00    -0.085 SA
HETATM   18  C   UNL     1      -4.423  -4.056 -34.177  1.00  0.00     0.071 A 
HETATM   19  C   UNL     1      -3.227  -4.864 -33.813  1.00  0.00     0.078 C 
HETATM   20  N   UNL     1      -4.527  -2.759 -33.984  1.00  0.00    -0.245 NA
ENDBRANCH  11  15
ENDBRANCH   6   9
ENDBRANCH   4   5
ENDBRANCH   1   4
BRANCH   1  21
HETATM   21  C   UNL     1      -6.503   5.362 -30.592  1.00  0.00     0.337 C 
BRANCH  21  22
HETATM   22  C   UNL     1      -7.425   4.841 -31.701  1.00  0.00     0.248 C 
HETATM   23  N   UNL     1      -8.271   3.820 -31.301  1.00  0.00    -0.326 N 
HETATM   24  H   UNL     1      -8.116   3.376 -30.402  1.00  0.00     0.169 HD
HETATM   25  O   UNL     1      -7.392   5.363 -32.808  1.00  0.00    -0.271 OA
BRANCH  23  26
HETATM   26  C   UNL     1      -9.255   3.187 -32.101  1.00  0.00     0.034 A 
HETATM   27  C   UNL     1     -10.135   3.865 -32.942  1.00  0.00     0.032 A 
HETATM   28  C   UNL     1     -11.064   3.158 -33.716  1.00  0.00     0.039 A 
HETATM   29  C   UNL     1     -11.130   1.765 -33.667  1.00  0.00     0.078 A 
HETATM   30  C   UNL     1     -10.270   1.085 -32.808  1.00  0.00     0.039 A 
HETATM   31  C   UNL     1      -9.340   1.791 -32.031  1.00  0.00     0.032 A 
BRANCH  29  32
HETATM   32  O   UNL     1     -12.065   1.213 -34.492  1.00  0.00    -0.255 OA
BRANCH  32  33
HETATM   33  C   UNL     1     -13.246   0.695 -33.900  1.00  0.00     0.530 C 
HETATM   34  F   UNL     1     -13.100  -0.611 -33.585  1.00  0.00    -0.144 F 
HETATM   35  F   UNL     1     -13.567   1.391 -32.788  1.00  0.00    -0.144 F 
HETATM   36  F   UNL     1     -14.262   0.809 -34.781  1.00  0.00    -0.144 F 
ENDBRANCH  32  33
ENDBRANCH  29  32
ENDBRANCH  23  26
ENDBRANCH  21  22
ENDBRANCH   1  21
TORSDOF 9
ENDMDL
