MODEL 1
REMARK VINA RESULT:      -9.3      0.000      0.000
REMARK  8 active torsions:
REMARK  status: ('A' for Active; 'I' for Inactive)
REMARK    1  A    between atoms: C_2  and  S_3 
REMARK    2  A    between atoms: C_2  and  C_24 
REMARK    3  A    between atoms: S_3  and  C_4 
REMARK    4  A    between atoms: N_5  and  C_6 
REMARK    5  A    between atoms: C_13  and  C_14 
REMARK    6  A    between atoms: C_14  and  N_15 
REMARK       I    between atoms: C_24  and  N_25 
REMARK    7  A    between atoms: N_25  and  C_26 
REMARK    8  A    between atoms: C_29  and  C_30 
REMARK       I    between atoms: C_30  and  N_31 
ROOT
HETATM    1  C   UNL     1      -5.305   4.640 -30.940  1.00  0.00     0.197 A 
HETATM    2  N   UNL     1      -4.192   5.462 -30.971  1.00  0.00    -0.274 N 
HETATM    3  C   UNL     1      -4.236   6.124 -29.749  1.00  0.00     0.161 A 
HETATM    4  N   UNL     1      -5.279   5.709 -29.055  1.00  0.00    -0.132 NA
HETATM    5  N   UNL     1      -5.920   4.755 -29.785  1.00  0.00    -0.122 NA
ENDROOT
BRANCH   1   6
HETATM    6  S   UNL     1      -5.687   3.398 -32.084  1.00  0.00    -0.076 SA
BRANCH   6   7
HETATM    7  C   UNL     1      -6.871   2.317 -31.206  1.00  0.00     0.143 C 
HETATM    8  C   UNL     1      -8.295   2.810 -31.438  1.00  0.00     0.031 C 
BRANCH   7   9
HETATM    9  C   UNL     1      -6.712   0.833 -31.534  1.00  0.00     0.236 C 
HETATM   10  N   UNL     1      -6.344   0.561 -32.839  1.00  0.00    -0.326 N 
HETATM   11  H   UNL     1      -5.884   1.318 -33.334  1.00  0.00     0.169 HD
HETATM   12  O   UNL     1      -6.834  -0.006 -30.640  1.00  0.00    -0.272 OA
BRANCH  10  13
HETATM   13  C   UNL     1      -6.153  -0.726 -33.381  1.00  0.00     0.034 A 
HETATM   14  C   UNL     1      -7.190  -1.485 -33.929  1.00  0.00     0.030 A 
HETATM   15  C   UNL     1      -6.939  -2.767 -34.434  1.00  0.00     0.019 A 
HETATM   16  C   UNL     1      -5.647  -3.296 -34.384  1.00  0.00     0.032 A 
HETATM   17  C   UNL     1      -4.605  -2.534 -33.847  1.00  0.00     0.019 A 
HETATM   18  C   UNL     1      -4.854  -1.247 -33.368  1.00  0.00     0.030 A 
BRANCH  16  19
HETATM   19  C   UNL     1      -5.346  -4.675 -34.840  1.00  0.00     0.249 C 
HETATM   20  N   UNL     1      -4.260  -5.293 -34.289  1.00  0.00    -0.366 N 
HETATM   21  H   UNL     1      -3.810  -4.952 -33.451  1.00  0.00     0.159 HD
HETATM   22  H   UNL     1      -4.133  -6.272 -34.519  1.00  0.00     0.159 HD
HETATM   23  O   UNL     1      -6.058  -5.238 -35.662  1.00  0.00    -0.268 OA
ENDBRANCH  16  19
ENDBRANCH  10  13
ENDBRANCH   7   9
ENDBRANCH   6   7
ENDBRANCH   1   6
BRANCH   2  24
HETATM   24  C   UNL     1      -3.226   5.619 -31.995  1.00  0.00     0.043 A 
HETATM   25  C   UNL     1      -3.364   6.648 -32.937  1.00  0.00     0.033 A 
HETATM   26  C   UNL     1      -2.415   6.789 -33.952  1.00  0.00     0.044 A 
HETATM   27  C   UNL     1      -1.344   5.908 -34.022  1.00  0.00     0.116 A 
HETATM   28  F   UNL     1      -0.439   6.042 -35.000  1.00  0.00    -0.206 F 
HETATM   29  C   UNL     1      -1.197   4.885 -33.092  1.00  0.00     0.044 A 
HETATM   30  C   UNL     1      -2.139   4.736 -32.072  1.00  0.00     0.033 A 
ENDBRANCH   2  24
BRANCH   3  31
HETATM   31  C   UNL     1      -3.365   7.257 -29.333  1.00  0.00     0.315 C 
BRANCH  31  32
HETATM   32  N   UNL     1      -1.973   6.786 -28.917  1.00  0.00    -0.064 N 
HETATM   33  H   UNL     1      -1.986   5.766 -29.079  1.00  0.00     0.280 HD
HETATM   34  C   UNL     1      -0.885   7.340 -29.811  1.00  0.00     0.235 C 
HETATM   35  C   UNL     1       0.447   6.703 -29.442  1.00  0.00     0.028 C 
HETATM   36  C   UNL     1       0.777   6.911 -27.968  1.00  0.00     0.003 C 
HETATM   37  C   UNL     1      -0.356   6.413 -27.077  1.00  0.00     0.028 C 
HETATM   38  C   UNL     1      -1.694   7.030 -27.459  1.00  0.00     0.235 C 
ENDBRANCH  31  32
ENDBRANCH   3  31
TORSDOF 8
ENDMDL
MODEL 2
REMARK VINA RESULT:      -9.2      2.021      2.902
REMARK  8 active torsions:
REMARK  status: ('A' for Active; 'I' for Inactive)
REMARK    1  A    between atoms: C_2  and  S_3 
REMARK    2  A    between atoms: C_2  and  C_24 
REMARK    3  A    between atoms: S_3  and  C_4 
REMARK    4  A    between atoms: N_5  and  C_6 
REMARK    5  A    between atoms: C_13  and  C_14 
REMARK    6  A    between atoms: C_14  and  N_15 
REMARK       I    between atoms: C_24  and  N_25 
REMARK    7  A    between atoms: N_25  and  C_26 
REMARK    8  A    between atoms: C_29  and  C_30 
REMARK       I    between atoms: C_30  and  N_31 
ROOT
HETATM    1  C   UNL     1      -4.627   3.435 -30.863  1.00  0.00     0.197 A 
HETATM    2  N   UNL     1      -4.010   4.665 -31.003  1.00  0.00    -0.274 N 
HETATM    3  C   UNL     1      -2.757   4.351 -31.518  1.00  0.00     0.161 A 
HETATM    4  N   UNL     1      -2.658   3.045 -31.681  1.00  0.00    -0.132 NA
HETATM    5  N   UNL     1      -3.840   2.482 -31.308  1.00  0.00    -0.122 NA
ENDROOT
BRANCH   1   6
HETATM    6  S   UNL     1      -6.292   3.167 -30.472  1.00  0.00    -0.076 SA
BRANCH   6   7
HETATM    7  C   UNL     1      -7.062   2.685 -32.057  1.00  0.00     0.143 C 
HETATM    8  C   UNL     1      -6.438   3.477 -33.201  1.00  0.00     0.031 C 
BRANCH   7   9
HETATM    9  C   UNL     1      -7.045   1.179 -32.319  1.00  0.00     0.236 C 
HETATM   10  N   UNL     1      -6.094   0.757 -33.230  1.00  0.00    -0.326 N 
HETATM   11  H   UNL     1      -5.303   1.379 -33.360  1.00  0.00     0.169 HD
HETATM   12  O   UNL     1      -7.790   0.439 -31.675  1.00  0.00    -0.272 OA
BRANCH  10  13
HETATM   13  C   UNL     1      -5.896  -0.575 -33.645  1.00  0.00     0.034 A 
HETATM   14  C   UNL     1      -6.848  -1.299 -34.368  1.00  0.00     0.030 A 
HETATM   15  C   UNL     1      -6.600  -2.627 -34.733  1.00  0.00     0.019 A 
HETATM   16  C   UNL     1      -5.397  -3.239 -34.367  1.00  0.00     0.032 A 
HETATM   17  C   UNL     1      -4.438  -2.514 -33.654  1.00  0.00     0.019 A 
HETATM   18  C   UNL     1      -4.679  -1.181 -33.314  1.00  0.00     0.030 A 
BRANCH  16  19
HETATM   19  C   UNL     1      -5.120  -4.664 -34.669  1.00  0.00     0.249 C 
HETATM   20  N   UNL     1      -3.982  -5.205 -34.141  1.00  0.00    -0.366 N 
HETATM   21  H   UNL     1      -3.466  -4.759 -33.395  1.00  0.00     0.159 HD
HETATM   22  H   UNL     1      -3.863  -6.205 -34.254  1.00  0.00     0.159 HD
HETATM   23  O   UNL     1      -5.893  -5.329 -35.347  1.00  0.00    -0.268 OA
ENDBRANCH  16  19
ENDBRANCH  10  13
ENDBRANCH   7   9
ENDBRANCH   6   7
ENDBRANCH   1   6
BRANCH   2  24
HETATM   24  C   UNL     1      -4.509   5.954 -30.694  1.00  0.00     0.043 A 
HETATM   25  C   UNL     1      -4.945   6.803 -31.722  1.00  0.00     0.033 A 
HETATM   26  C   UNL     1      -5.423   8.078 -31.412  1.00  0.00     0.044 A 
HETATM   27  C   UNL     1      -5.462   8.497 -30.089  1.00  0.00     0.116 A 
HETATM   28  F   UNL     1      -5.915   9.721 -29.794  1.00  0.00    -0.206 F 
HETATM   29  C   UNL     1      -5.033   7.663 -29.061  1.00  0.00     0.044 A 
HETATM   30  C   UNL     1      -4.555   6.385 -29.361  1.00  0.00     0.033 A 
ENDBRANCH   2  24
BRANCH   3  31
HETATM   31  C   UNL     1      -1.620   5.294 -31.697  1.00  0.00     0.315 C 
BRANCH  31  32
HETATM   32  N   UNL     1      -1.126   5.854 -30.365  1.00  0.00    -0.064 N 
HETATM   33  H   UNL     1      -1.816   5.519 -29.672  1.00  0.00     0.280 HD
HETATM   34  C   UNL     1       0.207   5.271 -29.950  1.00  0.00     0.235 C 
HETATM   35  C   UNL     1       0.554   5.747 -28.547  1.00  0.00     0.028 C 
HETATM   36  C   UNL     1       0.561   7.269 -28.460  1.00  0.00     0.003 C 
HETATM   37  C   UNL     1      -0.761   7.853 -28.945  1.00  0.00     0.028 C 
HETATM   38  C   UNL     1      -1.124   7.359 -30.339  1.00  0.00     0.235 C 
ENDBRANCH  31  32
ENDBRANCH   3  31
TORSDOF 8
ENDMDL
MODEL 3
REMARK VINA RESULT:      -9.0      2.551      3.650
REMARK  8 active torsions:
REMARK  status: ('A' for Active; 'I' for Inactive)
REMARK    1  A    between atoms: C_2  and  S_3 
REMARK    2  A    between atoms: C_2  and  C_24 
REMARK    3  A    between atoms: S_3  and  C_4 
REMARK    4  A    between atoms: N_5  and  C_6 
REMARK    5  A    between atoms: C_13  and  C_14 
REMARK    6  A    between atoms: C_14  and  N_15 
REMARK       I    between atoms: C_24  and  N_25 
REMARK    7  A    between atoms: N_25  and  C_26 
REMARK    8  A    between atoms: C_29  and  C_30 
REMARK       I    between atoms: C_30  and  N_31 
ROOT
HETATM    1  C   UNL     1      -4.522   5.544 -33.723  1.00  0.00     0.197 A 
HETATM    2  N   UNL     1      -4.161   6.357 -32.663  1.00  0.00    -0.274 N 
HETATM    3  C   UNL     1      -2.973   6.944 -33.085  1.00  0.00     0.161 A 
HETATM    4  N   UNL     1      -2.674   6.521 -34.299  1.00  0.00    -0.132 NA
HETATM    5  N   UNL     1      -3.662   5.678 -34.708  1.00  0.00    -0.122 NA
ENDROOT
BRANCH   1   6
HETATM    6  S   UNL     1      -6.028   4.710 -33.902  1.00  0.00    -0.076 SA
BRANCH   6   7
HETATM    7  C   UNL     1      -5.872   3.247 -32.818  1.00  0.00     0.143 C 
HETATM    8  C   UNL     1      -6.820   3.376 -31.631  1.00  0.00     0.031 C 
BRANCH   7   9
HETATM    9  C   UNL     1      -6.038   1.916 -33.551  1.00  0.00     0.236 C 
HETATM   10  N   UNL     1      -5.554   0.813 -32.871  1.00  0.00    -0.326 N 
HETATM   11  H   UNL     1      -5.472   0.917 -31.865  1.00  0.00     0.169 HD
HETATM   12  O   UNL     1      -6.641   1.881 -34.624  1.00  0.00    -0.272 OA
BRANCH  10  13
HETATM   13  C   UNL     1      -5.578  -0.513 -33.346  1.00  0.00     0.034 A 
HETATM   14  C   UNL     1      -4.426  -1.285 -33.515  1.00  0.00     0.030 A 
HETATM   15  C   UNL     1      -4.515  -2.591 -34.011  1.00  0.00     0.019 A 
HETATM   16  C   UNL     1      -5.761  -3.127 -34.348  1.00  0.00     0.032 A 
HETATM   17  C   UNL     1      -6.917  -2.362 -34.169  1.00  0.00     0.019 A 
HETATM   18  C   UNL     1      -6.827  -1.068 -33.650  1.00  0.00     0.030 A 
BRANCH  16  19
HETATM   19  C   UNL     1      -5.898  -4.478 -34.943  1.00  0.00     0.249 C 
HETATM   20  N   UNL     1      -7.026  -4.730 -35.671  1.00  0.00    -0.366 N 
HETATM   21  H   UNL     1      -7.633  -3.992 -36.000  1.00  0.00     0.159 HD
HETATM   22  H   UNL     1      -7.055  -5.612 -36.169  1.00  0.00     0.159 HD
HETATM   23  O   UNL     1      -5.023  -5.323 -34.801  1.00  0.00    -0.268 OA
ENDBRANCH  16  19
ENDBRANCH  10  13
ENDBRANCH   7   9
ENDBRANCH   6   7
ENDBRANCH   1   6
BRANCH   2  24
HETATM   24  C   UNL     1      -4.822   6.556 -31.427  1.00  0.00     0.043 A 
HETATM   25  C   UNL     1      -4.503   5.752 -30.323  1.00  0.00     0.033 A 
HETATM   26  C   UNL     1      -5.168   5.945 -29.110  1.00  0.00     0.044 A 
HETATM   27  C   UNL     1      -6.141   6.930 -29.006  1.00  0.00     0.116 A 
HETATM   28  F   UNL     1      -6.780   7.109 -27.844  1.00  0.00    -0.206 F 
HETATM   29  C   UNL     1      -6.464   7.734 -30.093  1.00  0.00     0.044 A 
HETATM   30  C   UNL     1      -5.804   7.551 -31.311  1.00  0.00     0.033 A 
ENDBRANCH   2  24
BRANCH   3  31
HETATM   31  C   UNL     1      -2.063   7.779 -32.255  1.00  0.00     0.315 C 
BRANCH  31  32
HETATM   32  N   UNL     1      -1.428   6.978 -31.120  1.00  0.00    -0.064 N 
HETATM   33  H   UNL     1      -2.107   6.225 -30.923  1.00  0.00     0.280 HD
HETATM   34  C   UNL     1      -0.148   6.291 -31.543  1.00  0.00     0.235 C 
HETATM   35  C   UNL     1       0.337   5.387 -30.419  1.00  0.00     0.028 C 
HETATM   36  C   UNL     1       0.524   6.161 -29.120  1.00  0.00     0.003 C 
HETATM   37  C   UNL     1      -0.749   6.907 -28.737  1.00  0.00     0.028 C 
HETATM   38  C   UNL     1      -1.251   7.795 -29.868  1.00  0.00     0.235 C 
ENDBRANCH  31  32
ENDBRANCH   3  31
TORSDOF 8
ENDMDL
MODEL 4
REMARK VINA RESULT:      -8.9      3.891     10.522
REMARK  8 active torsions:
REMARK  status: ('A' for Active; 'I' for Inactive)
REMARK    1  A    between atoms: C_2  and  S_3 
REMARK    2  A    between atoms: C_2  and  C_24 
REMARK    3  A    between atoms: S_3  and  C_4 
REMARK    4  A    between atoms: N_5  and  C_6 
REMARK    5  A    between atoms: C_13  and  C_14 
REMARK    6  A    between atoms: C_14  and  N_15 
REMARK       I    between atoms: C_24  and  N_25 
REMARK    7  A    between atoms: N_25  and  C_26 
REMARK    8  A    between atoms: C_29  and  C_30 
REMARK       I    between atoms: C_30  and  N_31 
ROOT
HETATM    1  C   UNL     1      -3.739   2.894 -31.476  1.00  0.00     0.197 A 
HETATM    2  N   UNL     1      -4.882   2.115 -31.442  1.00  0.00    -0.274 N 
HETATM    3  C   UNL     1      -4.397   0.821 -31.289  1.00  0.00     0.161 A 
HETATM    4  N   UNL     1      -3.079   0.845 -31.221  1.00  0.00    -0.132 NA
HETATM    5  N   UNL     1      -2.675   2.143 -31.299  1.00  0.00    -0.122 NA
ENDROOT
BRANCH   1   6
HETATM    6  S   UNL     1      -3.681   4.623 -31.430  1.00  0.00    -0.076 SA
BRANCH   6   7
HETATM    7  C   UNL     1      -1.898   5.022 -31.454  1.00  0.00     0.143 C 
HETATM    8  C   UNL     1      -1.454   5.335 -32.879  1.00  0.00     0.031 C 
BRANCH   7   9
HETATM    9  C   UNL     1      -1.497   6.119 -30.468  1.00  0.00     0.236 C 
HETATM   10  N   UNL     1      -0.441   5.797 -29.636  1.00  0.00    -0.326 N 
HETATM   11  H   UNL     1       0.174   5.062 -29.970  1.00  0.00     0.169 HD
HETATM   12  O   UNL     1      -2.055   7.216 -30.516  1.00  0.00    -0.272 OA
BRANCH  10  13
HETATM   13  C   UNL     1       0.097   6.634 -28.639  1.00  0.00     0.034 A 
HETATM   14  C   UNL     1       0.904   7.739 -28.923  1.00  0.00     0.030 A 
HETATM   15  C   UNL     1       1.425   8.521 -27.885  1.00  0.00     0.019 A 
HETATM   16  C   UNL     1       1.147   8.192 -26.556  1.00  0.00     0.032 A 
HETATM   17  C   UNL     1       0.331   7.094 -26.268  1.00  0.00     0.019 A 
HETATM   18  C   UNL     1      -0.209   6.332 -27.307  1.00  0.00     0.030 A 
BRANCH  16  19
HETATM   19  C   UNL     1       1.735   8.947 -25.423  1.00  0.00     0.249 C 
HETATM   20  N   UNL     1       3.053   9.293 -25.519  1.00  0.00    -0.366 N 
HETATM   21  H   UNL     1       3.559   9.261 -26.393  1.00  0.00     0.159 HD
HETATM   22  H   UNL     1       3.412   9.906 -24.797  1.00  0.00     0.159 HD
HETATM   23  O   UNL     1       1.057   9.261 -24.453  1.00  0.00    -0.268 OA
ENDBRANCH  16  19
ENDBRANCH  10  13
ENDBRANCH   7   9
ENDBRANCH   6   7
ENDBRANCH   1   6
BRANCH   2  24
HETATM   24  C   UNL     1      -6.237   2.514 -31.547  1.00  0.00     0.043 A 
HETATM   25  C   UNL     1      -6.970   2.817 -30.390  1.00  0.00     0.033 A 
HETATM   26  C   UNL     1      -8.310   3.196 -30.499  1.00  0.00     0.044 A 
HETATM   27  C   UNL     1      -8.906   3.270 -31.751  1.00  0.00     0.116 A 
HETATM   28  F   UNL     1     -10.192   3.628 -31.852  1.00  0.00    -0.206 F 
HETATM   29  C   UNL     1      -8.188   2.973 -32.904  1.00  0.00     0.044 A 
HETATM   30  C   UNL     1      -6.847   2.594 -32.807  1.00  0.00     0.033 A 
ENDBRANCH   2  24
BRANCH   3  31
HETATM   31  C   UNL     1      -5.197  -0.432 -31.368  1.00  0.00     0.315 C 
BRANCH  31  32
HETATM   32  N   UNL     1      -5.290  -0.962 -32.798  1.00  0.00    -0.064 N 
HETATM   33  H   UNL     1      -4.853  -0.225 -33.376  1.00  0.00     0.280 HD
HETATM   34  C   UNL     1      -4.462  -2.210 -33.007  1.00  0.00     0.235 C 
HETATM   35  C   UNL     1      -4.472  -2.584 -34.482  1.00  0.00     0.028 C 
HETATM   36  C   UNL     1      -5.893  -2.765 -35.003  1.00  0.00     0.003 C 
HETATM   37  C   UNL     1      -6.741  -1.528 -34.726  1.00  0.00     0.028 C 
HETATM   38  C   UNL     1      -6.714  -1.137 -33.254  1.00  0.00     0.235 C 
ENDBRANCH  31  32
ENDBRANCH   3  31
TORSDOF 8
ENDMDL
MODEL 5
REMARK VINA RESULT:      -8.8      2.175      3.129
REMARK  8 active torsions:
REMARK  status: ('A' for Active; 'I' for Inactive)
REMARK    1  A    between atoms: C_2  and  S_3 
REMARK    2  A    between atoms: C_2  and  C_24 
REMARK    3  A    between atoms: S_3  and  C_4 
REMARK    4  A    between atoms: N_5  and  C_6 
REMARK    5  A    between atoms: C_13  and  C_14 
REMARK    6  A    between atoms: C_14  and  N_15 
REMARK       I    between atoms: C_24  and  N_25 
REMARK    7  A    between atoms: N_25  and  C_26 
REMARK    8  A    between atoms: C_29  and  C_30 
REMARK       I    between atoms: C_30  and  N_31 
ROOT
HETATM    1  C   UNL     1      -3.510   4.144 -31.609  1.00  0.00     0.197 A 
HETATM    2  N   UNL     1      -3.346   5.408 -31.071  1.00  0.00    -0.274 N 
HETATM    3  C   UNL     1      -1.966   5.546 -30.966  1.00  0.00     0.161 A 
HETATM    4  N   UNL     1      -1.373   4.459 -31.423  1.00  0.00    -0.132 NA
HETATM    5  N   UNL     1      -2.339   3.603 -31.859  1.00  0.00    -0.122 NA
ENDROOT
BRANCH   1   6
HETATM    6  S   UNL     1      -4.995   3.466 -32.185  1.00  0.00    -0.076 SA
BRANCH   6   7
HETATM    7  C   UNL     1      -5.554   2.374 -30.831  1.00  0.00     0.143 C 
HETATM    8  C   UNL     1      -6.838   2.920 -30.217  1.00  0.00     0.031 C 
BRANCH   7   9
HETATM    9  C   UNL     1      -5.686   0.906 -31.237  1.00  0.00     0.236 C 
HETATM   10  N   UNL     1      -5.476   0.652 -32.580  1.00  0.00    -0.326 N 
HETATM   11  H   UNL     1      -4.929   1.346 -33.078  1.00  0.00     0.169 HD
HETATM   12  O   UNL     1      -5.884   0.050 -30.374  1.00  0.00    -0.272 OA
BRANCH  10  13
HETATM   13  C   UNL     1      -5.557  -0.614 -33.193  1.00  0.00     0.034 A 
HETATM   14  C   UNL     1      -6.729  -1.106 -33.775  1.00  0.00     0.030 A 
HETATM   15  C   UNL     1      -6.751  -2.382 -34.351  1.00  0.00     0.019 A 
HETATM   16  C   UNL     1      -5.600  -3.174 -34.339  1.00  0.00     0.032 A 
HETATM   17  C   UNL     1      -4.424  -2.680 -33.768  1.00  0.00     0.019 A 
HETATM   18  C   UNL     1      -4.397  -1.397 -33.217  1.00  0.00     0.030 A 
BRANCH  16  19
HETATM   19  C   UNL     1      -5.596  -4.558 -34.872  1.00  0.00     0.249 C 
HETATM   20  N   UNL     1      -4.575  -5.377 -34.478  1.00  0.00    -0.366 N 
HETATM   21  H   UNL     1      -3.980  -5.159 -33.691  1.00  0.00     0.159 HD
HETATM   22  H   UNL     1      -4.645  -6.349 -34.753  1.00  0.00     0.159 HD
HETATM   23  O   UNL     1      -6.483  -4.951 -35.618  1.00  0.00    -0.268 OA
ENDBRANCH  16  19
ENDBRANCH  10  13
ENDBRANCH   7   9
ENDBRANCH   6   7
ENDBRANCH   1   6
BRANCH   2  24
HETATM   24  C   UNL     1      -4.331   6.353 -30.696  1.00  0.00     0.043 A 
HETATM   25  C   UNL     1      -5.074   6.165 -29.522  1.00  0.00     0.033 A 
HETATM   26  C   UNL     1      -6.053   7.095 -29.166  1.00  0.00     0.044 A 
HETATM   27  C   UNL     1      -6.286   8.197 -29.977  1.00  0.00     0.116 A 
HETATM   28  F   UNL     1      -7.229   9.084 -29.636  1.00  0.00    -0.206 F 
HETATM   29  C   UNL     1      -5.554   8.394 -31.143  1.00  0.00     0.044 A 
HETATM   30  C   UNL     1      -4.571   7.471 -31.508  1.00  0.00     0.033 A 
ENDBRANCH   2  24
BRANCH   3  31
HETATM   31  C   UNL     1      -1.244   6.654 -30.284  1.00  0.00     0.315 C 
BRANCH  31  32
HETATM   32  N   UNL     1      -1.449   6.626 -28.771  1.00  0.00    -0.064 N 
HETATM   33  H   UNL     1      -2.084   5.826 -28.611  1.00  0.00     0.280 HD
HETATM   34  C   UNL     1      -0.175   6.310 -28.020  1.00  0.00     0.235 C 
HETATM   35  C   UNL     1      -0.487   6.137 -26.541  1.00  0.00     0.028 C 
HETATM   36  C   UNL     1      -1.180   7.369 -25.969  1.00  0.00     0.003 C 
HETATM   37  C   UNL     1      -2.425   7.722 -26.774  1.00  0.00     0.028 C 
HETATM   38  C   UNL     1      -2.121   7.872 -28.258  1.00  0.00     0.235 C 
ENDBRANCH  31  32
ENDBRANCH   3  31
TORSDOF 8
ENDMDL
MODEL 6
REMARK VINA RESULT:      -8.8      3.733      6.148
REMARK  8 active torsions:
REMARK  status: ('A' for Active; 'I' for Inactive)
REMARK    1  A    between atoms: C_2  and  S_3 
REMARK    2  A    between atoms: C_2  and  C_24 
REMARK    3  A    between atoms: S_3  and  C_4 
REMARK    4  A    between atoms: N_5  and  C_6 
REMARK    5  A    between atoms: C_13  and  C_14 
REMARK    6  A    between atoms: C_14  and  N_15 
REMARK       I    between atoms: C_24  and  N_25 
REMARK    7  A    between atoms: N_25  and  C_26 
REMARK    8  A    between atoms: C_29  and  C_30 
REMARK       I    between atoms: C_30  and  N_31 
ROOT
HETATM    1  C   UNL     1      -4.554   0.971 -31.374  1.00  0.00     0.197 A 
HETATM    2  N   UNL     1      -4.920   2.305 -31.370  1.00  0.00    -0.274 N 
HETATM    3  C   UNL     1      -3.707   2.981 -31.298  1.00  0.00     0.161 A 
HETATM    4  N   UNL     1      -2.714   2.113 -31.280  1.00  0.00    -0.132 NA
HETATM    5  N   UNL     1      -3.244   0.862 -31.367  1.00  0.00    -0.122 NA
ENDROOT
BRANCH   1   6
HETATM    6  S   UNL     1      -5.602  -0.374 -31.669  1.00  0.00    -0.076 SA
BRANCH   6   7
HETATM    7  C   UNL     1      -5.629  -0.542 -33.488  1.00  0.00     0.143 C 
HETATM    8  C   UNL     1      -5.198  -1.949 -33.887  1.00  0.00     0.031 C 
BRANCH   7   9
HETATM    9  C   UNL     1      -6.959  -0.141 -34.126  1.00  0.00     0.236 C 
HETATM   10  N   UNL     1      -7.883   0.404 -33.253  1.00  0.00    -0.326 N 
HETATM   11  H   UNL     1      -7.501   0.805 -32.403  1.00  0.00     0.169 HD
HETATM   12  O   UNL     1      -7.106  -0.243 -35.345  1.00  0.00    -0.272 OA
BRANCH  10  13
HETATM   13  C   UNL     1      -9.179   0.833 -33.600  1.00  0.00     0.034 A 
HETATM   14  C   UNL     1      -9.424   1.949 -34.405  1.00  0.00     0.030 A 
HETATM   15  C   UNL     1     -10.736   2.337 -34.697  1.00  0.00     0.019 A 
HETATM   16  C   UNL     1     -11.812   1.611 -34.176  1.00  0.00     0.032 A 
HETATM   17  C   UNL     1     -11.570   0.488 -33.380  1.00  0.00     0.019 A 
HETATM   18  C   UNL     1     -10.259   0.089 -33.112  1.00  0.00     0.030 A 
BRANCH  16  19
HETATM   19  C   UNL     1     -13.218   2.026 -34.399  1.00  0.00     0.249 C 
HETATM   20  N   UNL     1     -13.540   3.323 -34.115  1.00  0.00    -0.366 N 
HETATM   21  H   UNL     1     -12.839   4.039 -33.987  1.00  0.00     0.159 HD
HETATM   22  H   UNL     1     -14.470   3.626 -34.380  1.00  0.00     0.159 HD
HETATM   23  O   UNL     1     -14.047   1.239 -34.838  1.00  0.00    -0.268 OA
ENDBRANCH  16  19
ENDBRANCH  10  13
ENDBRANCH   7   9
ENDBRANCH   6   7
ENDBRANCH   1   6
BRANCH   2  24
HETATM   24  C   UNL     1      -6.216   2.874 -31.417  1.00  0.00     0.043 A 
HETATM   25  C   UNL     1      -6.576   3.712 -32.483  1.00  0.00     0.033 A 
HETATM   26  C   UNL     1      -7.851   4.281 -32.516  1.00  0.00     0.044 A 
HETATM   27  C   UNL     1      -8.752   4.016 -31.493  1.00  0.00     0.116 A 
HETATM   28  F   UNL     1      -9.971   4.567 -31.524  1.00  0.00    -0.206 F 
HETATM   29  C   UNL     1      -8.405   3.186 -30.432  1.00  0.00     0.044 A 
HETATM   30  C   UNL     1      -7.134   2.610 -30.390  1.00  0.00     0.033 A 
ENDBRANCH   2  24
BRANCH   3  31
HETATM   31  C   UNL     1      -3.529   4.445 -31.091  1.00  0.00     0.315 C 
BRANCH  31  32
HETATM   32  N   UNL     1      -2.474   5.031 -32.026  1.00  0.00    -0.064 N 
HETATM   33  H   UNL     1      -1.657   4.407 -31.918  1.00  0.00     0.280 HD
HETATM   34  C   UNL     1      -2.879   4.944 -33.482  1.00  0.00     0.235 C 
HETATM   35  C   UNL     1      -1.719   5.393 -34.358  1.00  0.00     0.028 C 
HETATM   36  C   UNL     1      -1.253   6.797 -33.992  1.00  0.00     0.003 C 
HETATM   37  C   UNL     1      -0.912   6.894 -32.510  1.00  0.00     0.028 C 
HETATM   38  C   UNL     1      -2.062   6.423 -31.629  1.00  0.00     0.235 C 
ENDBRANCH  31  32
ENDBRANCH   3  31
TORSDOF 8
ENDMDL
MODEL 7
REMARK VINA RESULT:      -8.7      3.580      6.879
REMARK  8 active torsions:
REMARK  status: ('A' for Active; 'I' for Inactive)
REMARK    1  A    between atoms: C_2  and  S_3 
REMARK    2  A    between atoms: C_2  and  C_24 
REMARK    3  A    between atoms: S_3  and  C_4 
REMARK    4  A    between atoms: N_5  and  C_6 
REMARK    5  A    between atoms: C_13  and  C_14 
REMARK    6  A    between atoms: C_14  and  N_15 
REMARK       I    between atoms: C_24  and  N_25 
REMARK    7  A    between atoms: N_25  and  C_26 
REMARK    8  A    between atoms: C_29  and  C_30 
REMARK       I    between atoms: C_30  and  N_31 
ROOT
HETATM    1  C   UNL     1      -5.656   3.779 -30.577  1.00  0.00     0.197 A 
HETATM    2  N   UNL     1      -4.877   3.253 -31.592  1.00  0.00    -0.274 N 
HETATM    3  C   UNL     1      -5.172   1.894 -31.566  1.00  0.00     0.161 A 
HETATM    4  N   UNL     1      -6.063   1.650 -30.624  1.00  0.00    -0.132 NA
HETATM    5  N   UNL     1      -6.391   2.834 -30.036  1.00  0.00    -0.122 NA
ENDROOT
BRANCH   1   6
HETATM    6  S   UNL     1      -5.902   5.460 -30.247  1.00  0.00    -0.076 SA
BRANCH   6   7
HETATM    7  C   UNL     1      -7.714   5.634 -30.090  1.00  0.00     0.143 C 
HETATM    8  C   UNL     1      -8.077   7.094 -29.839  1.00  0.00     0.031 C 
BRANCH   7   9
HETATM    9  C   UNL     1      -8.496   5.036 -31.259  1.00  0.00     0.236 C 
HETATM   10  N   UNL     1      -9.291   3.952 -30.935  1.00  0.00    -0.326 N 
HETATM   11  H   UNL     1      -9.558   3.880 -29.959  1.00  0.00     0.169 HD
HETATM   12  O   UNL     1      -8.444   5.574 -32.366  1.00  0.00    -0.272 OA
BRANCH  10  13
HETATM   13  C   UNL     1     -10.088   3.225 -31.840  1.00  0.00     0.034 A 
HETATM   14  C   UNL     1      -9.642   2.077 -32.499  1.00  0.00     0.030 A 
HETATM   15  C   UNL     1     -10.477   1.410 -33.405  1.00  0.00     0.019 A 
HETATM   16  C   UNL     1     -11.761   1.898 -33.659  1.00  0.00     0.032 A 
HETATM   17  C   UNL     1     -12.215   3.040 -32.993  1.00  0.00     0.019 A 
HETATM   18  C   UNL     1     -11.389   3.688 -32.072  1.00  0.00     0.030 A 
BRANCH  16  19
HETATM   19  C   UNL     1     -12.654   1.268 -34.662  1.00  0.00     0.249 C 
HETATM   20  N   UNL     1     -13.497   0.288 -34.221  1.00  0.00    -0.366 N 
HETATM   21  H   UNL     1     -13.693   0.144 -33.240  1.00  0.00     0.159 HD
HETATM   22  H   UNL     1     -14.181  -0.052 -34.886  1.00  0.00     0.159 HD
HETATM   23  O   UNL     1     -12.645   1.630 -35.832  1.00  0.00    -0.268 OA
ENDBRANCH  16  19
ENDBRANCH  10  13
ENDBRANCH   7   9
ENDBRANCH   6   7
ENDBRANCH   1   6
BRANCH   2  24
HETATM   24  C   UNL     1      -3.977   3.916 -32.461  1.00  0.00     0.043 A 
HETATM   25  C   UNL     1      -2.624   4.036 -32.111  1.00  0.00     0.033 A 
HETATM   26  C   UNL     1      -1.744   4.703 -32.967  1.00  0.00     0.044 A 
HETATM   27  C   UNL     1      -2.215   5.245 -34.155  1.00  0.00     0.116 A 
HETATM   28  F   UNL     1      -1.371   5.888 -34.971  1.00  0.00    -0.206 F 
HETATM   29  C   UNL     1      -3.554   5.130 -34.513  1.00  0.00     0.044 A 
HETATM   30  C   UNL     1      -4.442   4.464 -33.665  1.00  0.00     0.033 A 
ENDBRANCH   2  24
BRANCH   3  31
HETATM   31  C   UNL     1      -4.477   0.830 -32.340  1.00  0.00     0.315 C 
BRANCH  31  32
HETATM   32  N   UNL     1      -5.349   0.279 -33.466  1.00  0.00    -0.064 N 
HETATM   33  H   UNL     1      -4.683   0.055 -34.223  1.00  0.00     0.280 HD
HETATM   34  C   UNL     1      -6.019  -1.026 -33.094  1.00  0.00     0.235 C 
HETATM   35  C   UNL     1      -6.734  -1.594 -34.311  1.00  0.00     0.028 C 
HETATM   36  C   UNL     1      -7.735  -0.598 -34.886  1.00  0.00     0.003 C 
HETATM   37  C   UNL     1      -7.066   0.737 -35.194  1.00  0.00     0.028 C 
HETATM   38  C   UNL     1      -6.329   1.297 -33.985  1.00  0.00     0.235 C 
ENDBRANCH  31  32
ENDBRANCH   3  31
TORSDOF 8
ENDMDL
MODEL 8
REMARK VINA RESULT:      -8.6      4.268      7.172
REMARK  8 active torsions:
REMARK  status: ('A' for Active; 'I' for Inactive)
REMARK    1  A    between atoms: C_2  and  S_3 
REMARK    2  A    between atoms: C_2  and  C_24 
REMARK    3  A    between atoms: S_3  and  C_4 
REMARK    4  A    between atoms: N_5  and  C_6 
REMARK    5  A    between atoms: C_13  and  C_14 
REMARK    6  A    between atoms: C_14  and  N_15 
REMARK       I    between atoms: C_24  and  N_25 
REMARK    7  A    between atoms: N_25  and  C_26 
REMARK    8  A    between atoms: C_29  and  C_30 
REMARK       I    between atoms: C_30  and  N_31 
ROOT
HETATM    1  C   UNL     1      -6.650   4.847 -32.653  1.00  0.00     0.197 A 
HETATM    2  N   UNL     1      -7.980   4.467 -32.591  1.00  0.00    -0.274 N 
HETATM    3  C   UNL     1      -8.655   5.662 -32.361  1.00  0.00     0.161 A 
HETATM    4  N   UNL     1      -7.792   6.659 -32.312  1.00  0.00    -0.132 NA
HETATM    5  N   UNL     1      -6.547   6.152 -32.532  1.00  0.00    -0.122 NA
ENDROOT
BRANCH   1   6
HETATM    6  S   UNL     1      -5.325   3.844 -33.135  1.00  0.00    -0.076 SA
BRANCH   6   7
HETATM    7  C   UNL     1      -5.020   2.765 -31.692  1.00  0.00     0.143 C 
HETATM    8  C   UNL     1      -5.716   3.334 -30.461  1.00  0.00     0.031 C 
BRANCH   7   9
HETATM    9  C   UNL     1      -5.376   1.298 -31.932  1.00  0.00     0.236 C 
HETATM   10  N   UNL     1      -5.101   0.833 -33.205  1.00  0.00    -0.326 N 
HETATM   11  H   UNL     1      -4.398   1.353 -33.721  1.00  0.00     0.169 HD
HETATM   12  O   UNL     1      -5.796   0.612 -31.000  1.00  0.00    -0.272 OA
BRANCH  10  13
HETATM   13  C   UNL     1      -5.354  -0.473 -33.669  1.00  0.00     0.034 A 
HETATM   14  C   UNL     1      -6.594  -0.879 -34.169  1.00  0.00     0.030 A 
HETATM   15  C   UNL     1      -6.788  -2.198 -34.596  1.00  0.00     0.019 A 
HETATM   16  C   UNL     1      -5.741  -3.120 -34.514  1.00  0.00     0.032 A 
HETATM   17  C   UNL     1      -4.496  -2.714 -34.025  1.00  0.00     0.019 A 
HETATM   18  C   UNL     1      -4.298  -1.391 -33.624  1.00  0.00     0.030 A 
BRANCH  16  19
HETATM   19  C   UNL     1      -5.920  -4.544 -34.886  1.00  0.00     0.249 C 
HETATM   20  N   UNL     1      -7.050  -4.872 -35.581  1.00  0.00    -0.366 N 
HETATM   21  H   UNL     1      -7.628  -4.177 -36.033  1.00  0.00     0.159 HD
HETATM   22  H   UNL     1      -7.106  -5.821 -35.930  1.00  0.00     0.159 HD
HETATM   23  O   UNL     1      -5.077  -5.384 -34.598  1.00  0.00    -0.268 OA
ENDBRANCH  16  19
ENDBRANCH  10  13
ENDBRANCH   7   9
ENDBRANCH   6   7
ENDBRANCH   1   6
BRANCH   2  24
HETATM   24  C   UNL     1      -8.545   3.176 -32.717  1.00  0.00     0.043 A 
HETATM   25  C   UNL     1      -8.788   2.400 -31.574  1.00  0.00     0.033 A 
HETATM   26  C   UNL     1      -9.333   1.122 -31.707  1.00  0.00     0.044 A 
HETATM   27  C   UNL     1      -9.630   0.626 -32.970  1.00  0.00     0.116 A 
HETATM   28  F   UNL     1     -10.148  -0.602 -33.095  1.00  0.00    -0.206 F 
HETATM   29  C   UNL     1      -9.395   1.387 -34.110  1.00  0.00     0.044 A 
HETATM   30  C   UNL     1      -8.851   2.668 -33.988  1.00  0.00     0.033 A 
ENDBRANCH   2  24
BRANCH   3  31
HETATM   31  C   UNL     1     -10.101   5.804 -32.038  1.00  0.00     0.315 C 
BRANCH  31  32
HETATM   32  N   UNL     1     -10.979   5.689 -33.282  1.00  0.00    -0.064 N 
HETATM   33  H   UNL     1     -10.331   5.392 -34.030  1.00  0.00     0.280 HD
HETATM   34  C   UNL     1     -12.013   4.591 -33.160  1.00  0.00     0.235 C 
HETATM   35  C   UNL     1     -12.737   4.428 -34.488  1.00  0.00     0.028 C 
HETATM   36  C   UNL     1     -13.367   5.738 -34.947  1.00  0.00     0.003 C 
HETATM   37  C   UNL     1     -12.331   6.855 -35.001  1.00  0.00     0.028 C 
HETATM   38  C   UNL     1     -11.587   7.006 -33.681  1.00  0.00     0.235 C 
ENDBRANCH  31  32
ENDBRANCH   3  31
TORSDOF 8
ENDMDL
MODEL 9
REMARK VINA RESULT:      -8.6      4.666      8.489
REMARK  8 active torsions:
REMARK  status: ('A' for Active; 'I' for Inactive)
REMARK    1  A    between atoms: C_2  and  S_3 
REMARK    2  A    between atoms: C_2  and  C_24 
REMARK    3  A    between atoms: S_3  and  C_4 
REMARK    4  A    between atoms: N_5  and  C_6 
REMARK    5  A    between atoms: C_13  and  C_14 
REMARK    6  A    between atoms: C_14  and  N_15 
REMARK       I    between atoms: C_24  and  N_25 
REMARK    7  A    between atoms: N_25  and  C_26 
REMARK    8  A    between atoms: C_29  and  C_30 
REMARK       I    between atoms: C_30  and  N_31 
ROOT
HETATM    1  C   UNL     1      -9.145   2.837 -33.225  1.00  0.00     0.197 A 
HETATM    2  N   UNL     1     -10.181   3.507 -33.851  1.00  0.00    -0.274 N 
HETATM    3  C   UNL     1     -11.035   2.489 -34.261  1.00  0.00     0.161 A 
HETATM    4  N   UNL     1     -10.546   1.321 -33.888  1.00  0.00    -0.132 NA
HETATM    5  N   UNL     1      -9.387   1.546 -33.209  1.00  0.00    -0.122 NA
ENDROOT
BRANCH   1   6
HETATM    6  S   UNL     1      -7.870   3.561 -32.306  1.00  0.00    -0.076 SA
BRANCH   6   7
HETATM    7  C   UNL     1      -6.354   3.186 -33.255  1.00  0.00     0.143 C 
HETATM    8  C   UNL     1      -5.265   4.199 -32.918  1.00  0.00     0.031 C 
BRANCH   7   9
HETATM    9  C   UNL     1      -5.870   1.744 -33.101  1.00  0.00     0.236 C 
HETATM   10  N   UNL     1      -6.273   0.885 -34.107  1.00  0.00    -0.326 N 
HETATM   11  H   UNL     1      -6.523   1.324 -34.987  1.00  0.00     0.169 HD
HETATM   12  O   UNL     1      -5.113   1.450 -32.175  1.00  0.00    -0.272 OA
BRANCH  10  13
HETATM   13  C   UNL     1      -5.968  -0.489 -34.176  1.00  0.00     0.034 A 
HETATM   14  C   UNL     1      -4.704  -1.006 -33.882  1.00  0.00     0.030 A 
HETATM   15  C   UNL     1      -4.457  -2.380 -33.991  1.00  0.00     0.019 A 
HETATM   16  C   UNL     1      -5.478  -3.242 -34.403  1.00  0.00     0.032 A 
HETATM   17  C   UNL     1      -6.747  -2.729 -34.688  1.00  0.00     0.019 A 
HETATM   18  C   UNL     1      -6.996  -1.361 -34.553  1.00  0.00     0.030 A 
BRANCH  16  19
HETATM   19  C   UNL     1      -5.245  -4.693 -34.602  1.00  0.00     0.249 C 
HETATM   20  N   UNL     1      -4.185  -5.252 -33.946  1.00  0.00    -0.366 N 
HETATM   21  H   UNL     1      -3.715  -4.787 -33.182  1.00  0.00     0.159 HD
HETATM   22  H   UNL     1      -4.105  -6.261 -33.994  1.00  0.00     0.159 HD
HETATM   23  O   UNL     1      -5.987  -5.361 -35.310  1.00  0.00    -0.268 OA
ENDBRANCH  16  19
ENDBRANCH  10  13
ENDBRANCH   7   9
ENDBRANCH   6   7
ENDBRANCH   1   6
BRANCH   2  24
HETATM   24  C   UNL     1     -10.352   4.899 -34.050  1.00  0.00     0.043 A 
HETATM   25  C   UNL     1     -10.114   5.462 -35.313  1.00  0.00     0.033 A 
HETATM   26  C   UNL     1     -10.271   6.837 -35.499  1.00  0.00     0.044 A 
HETATM   27  C   UNL     1     -10.661   7.637 -34.433  1.00  0.00     0.116 A 
HETATM   28  F   UNL     1     -10.806   8.955 -34.613  1.00  0.00    -0.206 F 
HETATM   29  C   UNL     1     -10.901   7.089 -33.177  1.00  0.00     0.044 A 
HETATM   30  C   UNL     1     -10.749   5.715 -32.981  1.00  0.00     0.033 A 
ENDBRANCH   2  24
BRANCH   3  31
HETATM   31  C   UNL     1     -12.227   2.643 -35.139  1.00  0.00     0.315 C 
BRANCH  31  32
HETATM   32  N   UNL     1     -13.531   2.603 -34.345  1.00  0.00    -0.064 N 
HETATM   33  H   UNL     1     -14.191   3.170 -34.903  1.00  0.00     0.280 HD
HETATM   34  C   UNL     1     -14.125   1.212 -34.277  1.00  0.00     0.235 C 
HETATM   35  C   UNL     1     -15.495   1.278 -33.617  1.00  0.00     0.028 C 
HETATM   36  C   UNL     1     -15.420   1.920 -32.237  1.00  0.00     0.003 C 
HETATM   37  C   UNL     1     -14.758   3.292 -32.305  1.00  0.00     0.028 C 
HETATM   38  C   UNL     1     -13.397   3.234 -32.986  1.00  0.00     0.235 C 
ENDBRANCH  31  32
ENDBRANCH   3  31
TORSDOF 8
ENDMDL
MODEL 10
REMARK VINA RESULT:      -8.5      4.096      7.896
REMARK  8 active torsions:
REMARK  status: ('A' for Active; 'I' for Inactive)
REMARK    1  A    between atoms: C_2  and  S_3 
REMARK    2  A    between atoms: C_2  and  C_24 
REMARK    3  A    between atoms: S_3  and  C_4 
REMARK    4  A    between atoms: N_5  and  C_6 
REMARK    5  A    between atoms: C_13  and  C_14 
REMARK    6  A    between atoms: C_14  and  N_15 
REMARK       I    between atoms: C_24  and  N_25 
REMARK    7  A    between atoms: N_25  and  C_26 
REMARK    8  A    between atoms: C_29  and  C_30 
REMARK       I    between atoms: C_30  and  N_31 
ROOT
HETATM    1  C   UNL     1      -8.179   2.717 -31.440  1.00  0.00     0.197 A 
HETATM    2  N   UNL     1      -9.182   3.626 -31.725  1.00  0.00    -0.274 N 
HETATM    3  C   UNL     1     -10.175   2.849 -32.314  1.00  0.00     0.161 A 
HETATM    4  N   UNL     1      -9.790   1.588 -32.351  1.00  0.00    -0.132 NA
HETATM    5  N   UNL     1      -8.562   1.504 -31.770  1.00  0.00    -0.122 NA
ENDROOT
BRANCH   1   6
HETATM    6  S   UNL     1      -6.759   3.027 -30.500  1.00  0.00    -0.076 SA
BRANCH   6   7
HETATM    7  C   UNL     1      -5.373   2.608 -31.614  1.00  0.00     0.143 C 
HETATM    8  C   UNL     1      -4.081   3.224 -31.091  1.00  0.00     0.031 C 
BRANCH   7   9
HETATM    9  C   UNL     1      -5.231   1.110 -31.887  1.00  0.00     0.236 C 
HETATM   10  N   UNL     1      -5.714   0.694 -33.114  1.00  0.00    -0.326 N 
HETATM   11  H   UNL     1      -5.777   1.412 -33.829  1.00  0.00     0.169 HD
HETATM   12  O   UNL     1      -4.648   0.394 -31.072  1.00  0.00    -0.272 OA
BRANCH  10  13
HETATM   13  C   UNL     1      -5.709  -0.634 -33.585  1.00  0.00     0.034 A 
HETATM   14  C   UNL     1      -6.863  -1.298 -34.008  1.00  0.00     0.030 A 
HETATM   15  C   UNL     1      -6.796  -2.626 -34.446  1.00  0.00     0.019 A 
HETATM   16  C   UNL     1      -5.570  -3.298 -34.453  1.00  0.00     0.032 A 
HETATM   17  C   UNL     1      -4.412  -2.632 -34.041  1.00  0.00     0.019 A 
HETATM   18  C   UNL     1      -4.479  -1.300 -33.630  1.00  0.00     0.030 A 
BRANCH  16  19
HETATM   19  C   UNL     1      -5.462  -4.725 -34.840  1.00  0.00     0.249 C 
HETATM   20  N   UNL     1      -4.412  -5.434 -34.327  1.00  0.00    -0.366 N 
HETATM   21  H   UNL     1      -3.865  -5.101 -33.545  1.00  0.00     0.159 HD
HETATM   22  H   UNL     1      -4.413  -6.432 -34.501  1.00  0.00     0.159 HD
HETATM   23  O   UNL     1      -6.292  -5.247 -35.573  1.00  0.00    -0.268 OA
ENDBRANCH  16  19
ENDBRANCH  10  13
ENDBRANCH   7   9
ENDBRANCH   6   7
ENDBRANCH   1   6
BRANCH   2  24
HETATM   24  C   UNL     1      -9.213   5.023 -31.494  1.00  0.00     0.043 A 
HETATM   25  C   UNL     1      -9.958   5.541 -30.425  1.00  0.00     0.033 A 
HETATM   26  C   UNL     1      -9.995   6.920 -30.211  1.00  0.00     0.044 A 
HETATM   27  C   UNL     1      -9.296   7.769 -31.059  1.00  0.00     0.116 A 
HETATM   28  F   UNL     1      -9.338   9.091 -30.855  1.00  0.00    -0.206 F 
HETATM   29  C   UNL     1      -8.554   7.266 -32.122  1.00  0.00     0.044 A 
HETATM   30  C   UNL     1      -8.508   5.888 -32.344  1.00  0.00     0.033 A 
ENDBRANCH   2  24
BRANCH   3  31
HETATM   31  C   UNL     1     -11.411   3.355 -32.971  1.00  0.00     0.315 C 
BRANCH  31  32
HETATM   32  N   UNL     1     -12.513   2.298 -33.009  1.00  0.00    -0.064 N 
HETATM   33  H   UNL     1     -12.274   1.648 -32.242  1.00  0.00     0.280 HD
HETATM   34  C   UNL     1     -13.873   2.868 -32.670  1.00  0.00     0.235 C 
HETATM   35  C   UNL     1     -14.885   1.736 -32.567  1.00  0.00     0.028 C 
HETATM   36  C   UNL     1     -14.931   0.909 -33.847  1.00  0.00     0.003 C 
HETATM   37  C   UNL     1     -13.544   0.397 -34.219  1.00  0.00     0.028 C 
HETATM   38  C   UNL     1     -12.523   1.524 -34.299  1.00  0.00     0.235 C 
ENDBRANCH  31  32
ENDBRANCH   3  31
TORSDOF 8
ENDMDL
