MODEL 1
REMARK VINA RESULT:      -8.0      0.000      0.000
REMARK  5 active torsions:
REMARK  status: ('A' for Active; 'I' for Inactive)
REMARK    1  A    between atoms: C_2  and  C_3 
REMARK    2  A    between atoms: C_3  and  C_4 
REMARK       I    between atoms: C_4  and  N_5 
REMARK    3  A    between atoms: N_5  and  C_6 
REMARK    4  A    between atoms: C_9  and  N_10 
REMARK       I    between atoms: N_10  and  C_11 
REMARK       I    between atoms: C_11  and  N_12 
REMARK    5  A    between atoms: N_12  and  C_13 
ROOT
HETATM    1  C   UNL     1      -6.375   0.883 -32.012  1.00  0.00     0.043 C 
HETATM    2  C   UNL     1      -5.119   1.282 -31.502  1.00  0.00    -0.008 C 
HETATM    3  C   UNL     1      -4.004   0.296 -31.241  1.00  0.00     0.053 C 
HETATM    4  C   UNL     1      -4.928   2.635 -31.117  1.00  0.00     0.044 C 
HETATM    5  C   UNL     1      -6.002   3.531 -31.142  1.00  0.00     0.030 C 
HETATM    6  C   UNL     1      -7.263   3.102 -31.540  1.00  0.00     0.005 C 
HETATM    7  C   UNL     1      -7.447   1.791 -31.974  1.00  0.00     0.030 C 
ENDROOT
BRANCH   4   8
HETATM    8  N   UNL     1      -3.620   3.067 -30.805  1.00  0.00    -0.308 N 
HETATM    9  C   UNL     1      -2.788   3.971 -31.410  1.00  0.00     0.325 C 
HETATM   10  N   UNL     1      -3.405   4.965 -32.116  1.00  0.00    -0.305 N 
HETATM   11  O   UNL     1      -1.584   3.893 -31.179  1.00  0.00    -0.247 OA
HETATM   12  H   UNL     1      -4.366   5.130 -31.857  1.00  0.00     0.171 HD
HETATM   13  H   UNL     1      -3.140   2.554 -30.075  1.00  0.00     0.170 HD
BRANCH  10  14
HETATM   14  C   UNL     1      -2.771   5.976 -32.818  1.00  0.00     0.086 A 
HETATM   15  C   UNL     1      -1.958   7.073 -32.406  1.00  0.00     0.079 A 
HETATM   16  C   UNL     1      -1.484   7.460 -31.053  1.00  0.00     0.075 C 
HETATM   17  N   UNL     1      -1.552   7.802 -33.458  1.00  0.00    -0.177 NA
HETATM   18  N   UNL     1      -2.091   7.184 -34.513  1.00  0.00    -0.280 N 
HETATM   19  H   UNL     1      -1.923   7.581 -35.431  1.00  0.00     0.189 HD
HETATM   20  C   UNL     1      -2.813   6.068 -34.196  1.00  0.00     0.052 A 
HETATM   21  C   UNL     1      -3.468   5.259 -35.248  1.00  0.00     0.072 C 
ENDBRANCH  10  14
ENDBRANCH   4   8
BRANCH   1  22
HETATM   22  N   UNL     1      -6.685  -0.386 -32.559  1.00  0.00    -0.327 N 
HETATM   23  C   UNL     1      -6.617  -0.755 -33.892  1.00  0.00     0.222 C 
HETATM   24  O   UNL     1      -6.346  -0.026 -34.838  1.00  0.00    -0.273 OA
HETATM   25  H   UNL     1      -7.265  -0.983 -31.982  1.00  0.00     0.169 HD
BRANCH  23  26
HETATM   26  C   UNL     1      -7.005  -2.205 -34.122  1.00  0.00     0.103 C 
BRANCH  26  27
HETATM   27  C   UNL     1      -5.937  -2.965 -34.901  1.00  0.00     0.005 C 
HETATM   28  C   UNL     1      -6.363  -4.386 -35.247  1.00  0.00     0.005 C 
ENDBRANCH  26  27
ENDBRANCH  23  26
ENDBRANCH   1  22
TORSDOF 5
ENDMDL
MODEL 2
REMARK VINA RESULT:      -7.9      5.060      7.844
REMARK  5 active torsions:
REMARK  status: ('A' for Active; 'I' for Inactive)
REMARK    1  A    between atoms: C_2  and  C_3 
REMARK    2  A    between atoms: C_3  and  C_4 
REMARK       I    between atoms: C_4  and  N_5 
REMARK    3  A    between atoms: N_5  and  C_6 
REMARK    4  A    between atoms: C_9  and  N_10 
REMARK       I    between atoms: N_10  and  C_11 
REMARK       I    between atoms: C_11  and  N_12 
REMARK    5  A    between atoms: N_12  and  C_13 
ROOT
HETATM    1  C   UNL     1      -6.922  -0.217 -32.942  1.00  0.00     0.043 C 
HETATM    2  C   UNL     1      -7.557   0.753 -33.749  1.00  0.00    -0.008 C 
HETATM    3  C   UNL     1      -7.423   0.765 -35.254  1.00  0.00     0.053 C 
HETATM    4  C   UNL     1      -8.257   1.820 -33.125  1.00  0.00     0.044 C 
HETATM    5  C   UNL     1      -8.222   1.964 -31.735  1.00  0.00     0.030 C 
HETATM    6  C   UNL     1      -7.500   1.067 -30.955  1.00  0.00     0.005 C 
HETATM    7  C   UNL     1      -6.859  -0.015 -31.553  1.00  0.00     0.030 C 
ENDROOT
BRANCH   4   8
HETATM    8  N   UNL     1      -9.055   2.663 -33.930  1.00  0.00    -0.308 N 
HETATM    9  C   UNL     1     -10.403   2.687 -34.170  1.00  0.00     0.325 C 
HETATM   10  N   UNL     1     -11.192   2.179 -33.175  1.00  0.00    -0.305 N 
HETATM   11  O   UNL     1     -10.799   3.259 -35.182  1.00  0.00    -0.247 OA
HETATM   12  H   UNL     1     -10.754   2.150 -32.267  1.00  0.00     0.171 HD
HETATM   13  H   UNL     1      -8.559   3.302 -34.540  1.00  0.00     0.170 HD
BRANCH  10  14
HETATM   14  C   UNL     1     -12.572   2.088 -33.203  1.00  0.00     0.086 A 
HETATM   15  C   UNL     1     -13.463   0.998 -33.434  1.00  0.00     0.079 A 
HETATM   16  C   UNL     1     -13.177  -0.438 -33.681  1.00  0.00     0.075 C 
HETATM   17  N   UNL     1     -14.745   1.390 -33.356  1.00  0.00    -0.177 NA
HETATM   18  N   UNL     1     -14.673   2.695 -33.079  1.00  0.00    -0.280 N 
HETATM   19  H   UNL     1     -15.543   3.208 -32.989  1.00  0.00     0.189 HD
HETATM   20  C   UNL     1     -13.397   3.168 -32.951  1.00  0.00     0.052 A 
HETATM   21  C   UNL     1     -13.139   4.591 -32.635  1.00  0.00     0.072 C 
ENDBRANCH  10  14
ENDBRANCH   4   8
BRANCH   1  22
HETATM   22  N   UNL     1      -6.301  -1.404 -33.403  1.00  0.00    -0.327 N 
HETATM   23  C   UNL     1      -4.956  -1.586 -33.675  1.00  0.00     0.222 C 
HETATM   24  O   UNL     1      -4.080  -0.730 -33.634  1.00  0.00    -0.273 OA
HETATM   25  H   UNL     1      -6.918  -2.083 -33.832  1.00  0.00     0.169 HD
BRANCH  23  26
HETATM   26  C   UNL     1      -4.634  -2.996 -34.137  1.00  0.00     0.103 C 
BRANCH  26  27
HETATM   27  C   UNL     1      -5.536  -3.441 -35.284  1.00  0.00     0.005 C 
HETATM   28  C   UNL     1      -6.488  -4.560 -34.882  1.00  0.00     0.005 C 
ENDBRANCH  26  27
ENDBRANCH  23  26
ENDBRANCH   1  22
TORSDOF 5
ENDMDL
MODEL 3
REMARK VINA RESULT:      -7.9      2.295      7.620
REMARK  5 active torsions:
REMARK  status: ('A' for Active; 'I' for Inactive)
REMARK    1  A    between atoms: C_2  and  C_3 
REMARK    2  A    between atoms: C_3  and  C_4 
REMARK       I    between atoms: C_4  and  N_5 
REMARK    3  A    between atoms: N_5  and  C_6 
REMARK    4  A    between atoms: C_9  and  N_10 
REMARK       I    between atoms: N_10  and  C_11 
REMARK       I    between atoms: C_11  and  N_12 
REMARK    5  A    between atoms: N_12  and  C_13 
ROOT
HETATM    1  C   UNL     1      -4.103   4.930 -32.978  1.00  0.00     0.043 C 
HETATM    2  C   UNL     1      -4.204   3.701 -32.289  1.00  0.00    -0.008 C 
HETATM    3  C   UNL     1      -3.023   3.068 -31.589  1.00  0.00     0.053 C 
HETATM    4  C   UNL     1      -5.424   2.975 -32.343  1.00  0.00     0.044 C 
HETATM    5  C   UNL     1      -6.470   3.422 -33.158  1.00  0.00     0.030 C 
HETATM    6  C   UNL     1      -6.321   4.575 -33.920  1.00  0.00     0.005 C 
HETATM    7  C   UNL     1      -5.150   5.323 -33.829  1.00  0.00     0.030 C 
ENDROOT
BRANCH   4   8
HETATM    8  N   UNL     1      -5.582   1.860 -31.492  1.00  0.00    -0.308 N 
HETATM    9  C   UNL     1      -5.627   0.515 -31.748  1.00  0.00     0.325 C 
HETATM   10  N   UNL     1      -4.963   0.102 -32.869  1.00  0.00    -0.305 N 
HETATM   11  O   UNL     1      -6.146  -0.216 -30.907  1.00  0.00    -0.247 OA
HETATM   12  H   UNL     1      -4.254   0.741 -33.196  1.00  0.00     0.171 HD
HETATM   13  H   UNL     1      -5.821   2.061 -30.528  1.00  0.00     0.170 HD
BRANCH  10  14
HETATM   14  C   UNL     1      -4.884  -1.200 -33.331  1.00  0.00     0.086 A 
HETATM   15  C   UNL     1      -4.034  -2.295 -32.992  1.00  0.00     0.079 A 
HETATM   16  C   UNL     1      -2.961  -2.394 -31.970  1.00  0.00     0.075 C 
HETATM   17  N   UNL     1      -4.334  -3.387 -33.713  1.00  0.00    -0.177 NA
HETATM   18  N   UNL     1      -5.350  -3.000 -34.489  1.00  0.00    -0.280 N 
HETATM   19  H   UNL     1      -5.734  -3.677 -35.139  1.00  0.00     0.189 HD
HETATM   20  C   UNL     1      -5.742  -1.706 -34.289  1.00  0.00     0.052 A 
HETATM   21  C   UNL     1      -6.862  -1.120 -35.059  1.00  0.00     0.072 C 
ENDBRANCH  10  14
ENDBRANCH   4   8
BRANCH   1  22
HETATM   22  N   UNL     1      -3.012   5.830 -32.916  1.00  0.00    -0.327 N 
HETATM   23  C   UNL     1      -1.960   5.922 -33.811  1.00  0.00     0.222 C 
HETATM   24  O   UNL     1      -1.752   5.191 -34.772  1.00  0.00    -0.273 OA
HETATM   25  H   UNL     1      -2.837   6.245 -32.009  1.00  0.00     0.169 HD
BRANCH  23  26
HETATM   26  C   UNL     1      -0.971   7.015 -33.447  1.00  0.00     0.103 C 
BRANCH  26  27
HETATM   27  C   UNL     1      -0.950   7.289 -31.946  1.00  0.00     0.005 C 
HETATM   28  C   UNL     1       0.292   6.727 -31.265  1.00  0.00     0.005 C 
ENDBRANCH  26  27
ENDBRANCH  23  26
ENDBRANCH   1  22
TORSDOF 5
ENDMDL
MODEL 4
REMARK VINA RESULT:      -7.9      2.144      8.089
REMARK  5 active torsions:
REMARK  status: ('A' for Active; 'I' for Inactive)
REMARK    1  A    between atoms: C_2  and  C_3 
REMARK    2  A    between atoms: C_3  and  C_4 
REMARK       I    between atoms: C_4  and  N_5 
REMARK    3  A    between atoms: N_5  and  C_6 
REMARK    4  A    between atoms: C_9  and  N_10 
REMARK       I    between atoms: N_10  and  C_11 
REMARK       I    between atoms: C_11  and  N_12 
REMARK    5  A    between atoms: N_12  and  C_13 
ROOT
HETATM    1  C   UNL     1      -2.377   5.020 -33.105  1.00  0.00     0.043 C 
HETATM    2  C   UNL     1      -3.341   4.140 -32.565  1.00  0.00    -0.008 C 
HETATM    3  C   UNL     1      -3.067   3.289 -31.347  1.00  0.00     0.053 C 
HETATM    4  C   UNL     1      -4.573   3.962 -33.249  1.00  0.00     0.044 C 
HETATM    5  C   UNL     1      -4.779   4.566 -34.493  1.00  0.00     0.030 C 
HETATM    6  C   UNL     1      -3.779   5.342 -35.070  1.00  0.00     0.005 C 
HETATM    7  C   UNL     1      -2.591   5.569 -34.380  1.00  0.00     0.030 C 
ENDROOT
BRANCH   4   8
HETATM    8  N   UNL     1      -5.604   3.245 -32.602  1.00  0.00    -0.308 N 
HETATM    9  C   UNL     1      -6.152   2.013 -32.846  1.00  0.00     0.325 C 
HETATM   10  N   UNL     1      -5.331   1.111 -33.464  1.00  0.00    -0.305 N 
HETATM   11  O   UNL     1      -7.269   1.778 -32.395  1.00  0.00    -0.247 OA
HETATM   12  H   UNL     1      -4.346   1.313 -33.378  1.00  0.00     0.171 HD
HETATM   13  H   UNL     1      -6.130   3.751 -31.900  1.00  0.00     0.170 HD
BRANCH  10  14
HETATM   14  C   UNL     1      -5.670  -0.182 -33.820  1.00  0.00     0.086 A 
HETATM   15  C   UNL     1      -6.721  -0.718 -34.622  1.00  0.00     0.079 A 
HETATM   16  C   UNL     1      -7.789  -0.027 -35.389  1.00  0.00     0.075 C 
HETATM   17  N   UNL     1      -6.649  -2.057 -34.692  1.00  0.00    -0.177 NA
HETATM   18  N   UNL     1      -5.578  -2.367 -33.956  1.00  0.00    -0.280 N 
HETATM   19  H   UNL     1      -5.340  -3.347 -33.856  1.00  0.00     0.189 HD
HETATM   20  C   UNL     1      -4.934  -1.283 -33.426  1.00  0.00     0.052 A 
HETATM   21  C   UNL     1      -3.722  -1.449 -32.593  1.00  0.00     0.072 C 
ENDBRANCH  10  14
ENDBRANCH   4   8
BRANCH   1  22
HETATM   22  N   UNL     1      -1.164   5.406 -32.483  1.00  0.00    -0.327 N 
HETATM   23  C   UNL     1      -0.924   6.580 -31.788  1.00  0.00     0.222 C 
HETATM   24  O   UNL     1      -1.698   7.520 -31.654  1.00  0.00    -0.273 OA
HETATM   25  H   UNL     1      -0.333   4.925 -32.805  1.00  0.00     0.169 HD
BRANCH  23  26
HETATM   26  C   UNL     1       0.488   6.659 -31.236  1.00  0.00     0.103 C 
BRANCH  26  27
HETATM   27  C   UNL     1       0.503   7.047 -29.761  1.00  0.00     0.005 C 
HETATM   28  C   UNL     1       0.503   5.837 -28.836  1.00  0.00     0.005 C 
ENDBRANCH  26  27
ENDBRANCH  23  26
ENDBRANCH   1  22
TORSDOF 5
ENDMDL
MODEL 5
REMARK VINA RESULT:      -7.7      1.654      1.978
REMARK  5 active torsions:
REMARK  status: ('A' for Active; 'I' for Inactive)
REMARK    1  A    between atoms: C_2  and  C_3 
REMARK    2  A    between atoms: C_3  and  C_4 
REMARK       I    between atoms: C_4  and  N_5 
REMARK    3  A    between atoms: N_5  and  C_6 
REMARK    4  A    between atoms: C_9  and  N_10 
REMARK       I    between atoms: N_10  and  C_11 
REMARK       I    between atoms: C_11  and  N_12 
REMARK    5  A    between atoms: N_12  and  C_13 
ROOT
HETATM    1  C   UNL     1      -6.361   0.728 -32.121  1.00  0.00     0.043 C 
HETATM    2  C   UNL     1      -6.231   2.090 -32.473  1.00  0.00    -0.008 C 
HETATM    3  C   UNL     1      -6.250   2.558 -33.910  1.00  0.00     0.053 C 
HETATM    4  C   UNL     1      -5.962   3.045 -31.456  1.00  0.00     0.044 C 
HETATM    5  C   UNL     1      -5.723   2.624 -30.144  1.00  0.00     0.030 C 
HETATM    6  C   UNL     1      -5.744   1.270 -29.827  1.00  0.00     0.005 C 
HETATM    7  C   UNL     1      -6.063   0.332 -30.806  1.00  0.00     0.030 C 
ENDROOT
BRANCH   4   8
HETATM    8  N   UNL     1      -6.036   4.417 -31.785  1.00  0.00    -0.308 N 
HETATM    9  C   UNL     1      -5.071   5.382 -31.898  1.00  0.00     0.325 C 
HETATM   10  N   UNL     1      -3.820   4.935 -32.222  1.00  0.00    -0.305 N 
HETATM   11  O   UNL     1      -5.418   6.557 -31.819  1.00  0.00    -0.247 OA
HETATM   12  H   UNL     1      -3.800   4.026 -32.660  1.00  0.00     0.171 HD
HETATM   13  H   UNL     1      -6.966   4.815 -31.841  1.00  0.00     0.170 HD
BRANCH  10  14
HETATM   14  C   UNL     1      -2.693   5.722 -32.375  1.00  0.00     0.086 A 
HETATM   15  C   UNL     1      -1.976   6.566 -31.476  1.00  0.00     0.079 A 
HETATM   16  C   UNL     1      -2.198   6.837 -30.033  1.00  0.00     0.075 C 
HETATM   17  N   UNL     1      -0.921   7.138 -32.079  1.00  0.00    -0.177 NA
HETATM   18  N   UNL     1      -0.963   6.669 -33.329  1.00  0.00    -0.280 N 
HETATM   19  H   UNL     1      -0.253   6.988 -33.978  1.00  0.00     0.189 HD
HETATM   20  C   UNL     1      -1.988   5.795 -33.562  1.00  0.00     0.052 A 
HETATM   21  C   UNL     1      -2.173   5.174 -34.892  1.00  0.00     0.072 C 
ENDBRANCH  10  14
ENDBRANCH   4   8
BRANCH   1  22
HETATM   22  N   UNL     1      -6.756  -0.320 -32.987  1.00  0.00    -0.327 N 
HETATM   23  C   UNL     1      -5.924  -1.131 -33.742  1.00  0.00     0.222 C 
HETATM   24  O   UNL     1      -4.707  -1.033 -33.846  1.00  0.00    -0.273 OA
HETATM   25  H   UNL     1      -7.720  -0.295 -33.296  1.00  0.00     0.169 HD
BRANCH  23  26
HETATM   26  C   UNL     1      -6.686  -2.168 -34.548  1.00  0.00     0.103 C 
BRANCH  26  27
HETATM   27  C   UNL     1      -5.779  -3.297 -35.028  1.00  0.00     0.005 C 
HETATM   28  C   UNL     1      -6.550  -4.569 -35.354  1.00  0.00     0.005 C 
ENDBRANCH  26  27
ENDBRANCH  23  26
ENDBRANCH   1  22
TORSDOF 5
ENDMDL
MODEL 6
REMARK VINA RESULT:      -7.7      2.647      8.174
REMARK  5 active torsions:
REMARK  status: ('A' for Active; 'I' for Inactive)
REMARK    1  A    between atoms: C_2  and  C_3 
REMARK    2  A    between atoms: C_3  and  C_4 
REMARK       I    between atoms: C_4  and  N_5 
REMARK    3  A    between atoms: N_5  and  C_6 
REMARK    4  A    between atoms: C_9  and  N_10 
REMARK       I    between atoms: N_10  and  C_11 
REMARK       I    between atoms: C_11  and  N_12 
REMARK    5  A    between atoms: N_12  and  C_13 
ROOT
HETATM    1  C   UNL     1      -1.973   6.020 -32.710  1.00  0.00     0.043 C 
HETATM    2  C   UNL     1      -3.377   5.874 -32.666  1.00  0.00    -0.008 C 
HETATM    3  C   UNL     1      -4.166   6.029 -31.386  1.00  0.00     0.053 C 
HETATM    4  C   UNL     1      -4.066   5.460 -33.837  1.00  0.00     0.044 C 
HETATM    5  C   UNL     1      -3.349   5.098 -34.982  1.00  0.00     0.030 C 
HETATM    6  C   UNL     1      -1.959   5.139 -34.981  1.00  0.00     0.005 C 
HETATM    7  C   UNL     1      -1.278   5.599 -33.856  1.00  0.00     0.030 C 
ENDROOT
BRANCH   4   8
HETATM    8  N   UNL     1      -5.478   5.513 -33.842  1.00  0.00    -0.308 N 
HETATM    9  C   UNL     1      -6.429   4.536 -33.710  1.00  0.00     0.325 C 
HETATM   10  N   UNL     1      -6.049   3.430 -33.003  1.00  0.00    -0.305 N 
HETATM   11  O   UNL     1      -7.561   4.774 -34.123  1.00  0.00    -0.247 OA
HETATM   12  H   UNL     1      -5.263   3.575 -32.387  1.00  0.00     0.171 HD
HETATM   13  H   UNL     1      -5.892   6.401 -34.100  1.00  0.00     0.170 HD
BRANCH  10  14
HETATM   14  C   UNL     1      -6.834   2.317 -32.756  1.00  0.00     0.086 A 
HETATM   15  C   UNL     1      -7.252   1.229 -33.578  1.00  0.00     0.079 A 
HETATM   16  C   UNL     1      -6.927   0.917 -34.993  1.00  0.00     0.075 C 
HETATM   17  N   UNL     1      -8.018   0.365 -32.892  1.00  0.00    -0.177 NA
HETATM   18  N   UNL     1      -8.083   0.887 -31.664  1.00  0.00    -0.280 N 
HETATM   19  H   UNL     1      -8.635   0.396 -30.970  1.00  0.00     0.189 HD
HETATM   20  C   UNL     1      -7.373   2.045 -31.513  1.00  0.00     0.052 A 
HETATM   21  C   UNL     1      -7.331   2.749 -30.211  1.00  0.00     0.072 C 
ENDBRANCH  10  14
ENDBRANCH   4   8
BRANCH   1  22
HETATM   22  N   UNL     1      -1.160   6.547 -31.677  1.00  0.00    -0.327 N 
HETATM   23  C   UNL     1      -0.434   5.828 -30.743  1.00  0.00     0.222 C 
HETATM   24  O   UNL     1      -0.427   4.610 -30.604  1.00  0.00    -0.273 OA
HETATM   25  H   UNL     1      -1.341   7.511 -31.424  1.00  0.00     0.169 HD
BRANCH  23  26
HETATM   26  C   UNL     1       0.343   6.717 -29.789  1.00  0.00     0.103 C 
BRANCH  26  27
HETATM   27  C   UNL     1       0.141   6.307 -28.334  1.00  0.00     0.005 C 
HETATM   28  C   UNL     1       1.029   7.090 -27.375  1.00  0.00     0.005 C 
ENDBRANCH  26  27
ENDBRANCH  23  26
ENDBRANCH   1  22
TORSDOF 5
ENDMDL
MODEL 7
REMARK VINA RESULT:      -7.4      1.994      2.517
REMARK  5 active torsions:
REMARK  status: ('A' for Active; 'I' for Inactive)
REMARK    1  A    between atoms: C_2  and  C_3 
REMARK    2  A    between atoms: C_3  and  C_4 
REMARK       I    between atoms: C_4  and  N_5 
REMARK    3  A    between atoms: N_5  and  C_6 
REMARK    4  A    between atoms: C_9  and  N_10 
REMARK       I    between atoms: N_10  and  C_11 
REMARK       I    between atoms: C_11  and  N_12 
REMARK    5  A    between atoms: N_12  and  C_13 
ROOT
HETATM    1  C   UNL     1      -7.622   3.002 -31.311  1.00  0.00     0.043 C 
HETATM    2  C   UNL     1      -6.221   2.819 -31.301  1.00  0.00    -0.008 C 
HETATM    3  C   UNL     1      -5.539   1.756 -32.130  1.00  0.00     0.053 C 
HETATM    4  C   UNL     1      -5.431   3.583 -30.401  1.00  0.00     0.044 C 
HETATM    5  C   UNL     1      -6.045   4.422 -29.466  1.00  0.00     0.030 C 
HETATM    6  C   UNL     1      -7.432   4.512 -29.409  1.00  0.00     0.005 C 
HETATM    7  C   UNL     1      -8.212   3.810 -30.325  1.00  0.00     0.030 C 
ENDROOT
BRANCH   4   8
HETATM    8  N   UNL     1      -4.025   3.543 -30.539  1.00  0.00    -0.308 N 
HETATM    9  C   UNL     1      -3.169   4.230 -31.358  1.00  0.00     0.325 C 
HETATM   10  N   UNL     1      -3.601   5.459 -31.772  1.00  0.00    -0.305 N 
HETATM   11  O   UNL     1      -2.054   3.754 -31.556  1.00  0.00    -0.247 OA
HETATM   12  H   UNL     1      -4.319   5.868 -31.193  1.00  0.00     0.171 HD
HETATM   13  H   UNL     1      -3.546   2.805 -30.037  1.00  0.00     0.170 HD
BRANCH  10  14
HETATM   14  C   UNL     1      -2.914   6.320 -32.609  1.00  0.00     0.086 A 
HETATM   15  C   UNL     1      -2.099   7.463 -32.360  1.00  0.00     0.079 A 
HETATM   16  C   UNL     1      -1.682   8.081 -31.075  1.00  0.00     0.075 C 
HETATM   17  N   UNL     1      -1.630   7.988 -33.503  1.00  0.00    -0.177 NA
HETATM   18  N   UNL     1      -2.131   7.198 -34.457  1.00  0.00    -0.280 N 
HETATM   19  H   UNL     1      -1.912   7.422 -35.421  1.00  0.00     0.189 HD
HETATM   20  C   UNL     1      -2.889   6.164 -33.983  1.00  0.00     0.052 A 
HETATM   21  C   UNL     1      -3.511   5.188 -34.905  1.00  0.00     0.072 C 
ENDBRANCH  10  14
ENDBRANCH   4   8
BRANCH   1  22
HETATM   22  N   UNL     1      -8.529   2.421 -32.231  1.00  0.00    -0.327 N 
HETATM   23  C   UNL     1      -9.101   1.163 -32.149  1.00  0.00     0.222 C 
HETATM   24  O   UNL     1      -8.865   0.306 -31.306  1.00  0.00    -0.273 OA
HETATM   25  H   UNL     1      -8.544   2.837 -33.154  1.00  0.00     0.169 HD
BRANCH  23  26
HETATM   26  C   UNL     1     -10.044   0.870 -33.302  1.00  0.00     0.103 C 
BRANCH  26  27
HETATM   27  C   UNL     1      -9.371   1.072 -34.656  1.00  0.00     0.005 C 
HETATM   28  C   UNL     1      -8.149   0.183 -34.842  1.00  0.00     0.005 C 
ENDBRANCH  26  27
ENDBRANCH  23  26
ENDBRANCH   1  22
TORSDOF 5
ENDMDL
MODEL 8
REMARK VINA RESULT:      -7.3      3.152      7.164
REMARK  5 active torsions:
REMARK  status: ('A' for Active; 'I' for Inactive)
REMARK    1  A    between atoms: C_2  and  C_3 
REMARK    2  A    between atoms: C_3  and  C_4 
REMARK       I    between atoms: C_4  and  N_5 
REMARK    3  A    between atoms: N_5  and  C_6 
REMARK    4  A    between atoms: C_9  and  N_10 
REMARK       I    between atoms: N_10  and  C_11 
REMARK       I    between atoms: C_11  and  N_12 
REMARK    5  A    between atoms: N_12  and  C_13 
ROOT
HETATM    1  C   UNL     1      -3.834   2.418 -31.022  1.00  0.00     0.043 C 
HETATM    2  C   UNL     1      -5.134   2.673 -30.532  1.00  0.00    -0.008 C 
HETATM    3  C   UNL     1      -5.524   4.004 -29.930  1.00  0.00     0.053 C 
HETATM    4  C   UNL     1      -6.081   1.615 -30.499  1.00  0.00     0.044 C 
HETATM    5  C   UNL     1      -5.694   0.317 -30.846  1.00  0.00     0.030 C 
HETATM    6  C   UNL     1      -4.381   0.053 -31.221  1.00  0.00     0.005 C 
HETATM    7  C   UNL     1      -3.462   1.095 -31.311  1.00  0.00     0.030 C 
ENDROOT
BRANCH   4   8
HETATM    8  N   UNL     1      -7.427   1.925 -30.202  1.00  0.00    -0.308 N 
HETATM    9  C   UNL     1      -8.432   2.455 -30.967  1.00  0.00     0.325 C 
HETATM   10  N   UNL     1      -8.335   2.230 -32.312  1.00  0.00    -0.305 N 
HETATM   11  O   UNL     1      -9.383   2.975 -30.390  1.00  0.00    -0.247 OA
HETATM   12  H   UNL     1      -7.750   1.448 -32.565  1.00  0.00     0.171 HD
HETATM   13  H   UNL     1      -7.698   1.862 -29.228  1.00  0.00     0.170 HD
BRANCH  10  14
HETATM   14  C   UNL     1      -9.222   2.679 -33.275  1.00  0.00     0.086 A 
HETATM   15  C   UNL     1     -10.405   2.114 -33.835  1.00  0.00     0.079 A 
HETATM   16  C   UNL     1     -11.104   0.843 -33.516  1.00  0.00     0.075 C 
HETATM   17  N   UNL     1     -10.948   2.929 -34.754  1.00  0.00    -0.177 NA
HETATM   18  N   UNL     1     -10.133   3.987 -34.777  1.00  0.00    -0.280 N 
HETATM   19  H   UNL     1     -10.349   4.737 -35.424  1.00  0.00     0.189 HD
HETATM   20  C   UNL     1      -9.093   3.908 -33.894  1.00  0.00     0.052 A 
HETATM   21  C   UNL     1      -8.101   5.002 -33.783  1.00  0.00     0.072 C 
ENDBRANCH  10  14
ENDBRANCH   4   8
BRANCH   1  22
HETATM   22  N   UNL     1      -2.824   3.386 -31.242  1.00  0.00    -0.327 N 
HETATM   23  C   UNL     1      -2.645   4.155 -32.380  1.00  0.00     0.222 C 
HETATM   24  O   UNL     1      -3.286   4.078 -33.422  1.00  0.00    -0.273 OA
HETATM   25  H   UNL     1      -2.010   3.314 -30.645  1.00  0.00     0.169 HD
BRANCH  23  26
HETATM   26  C   UNL     1      -1.468   5.107 -32.268  1.00  0.00     0.103 C 
BRANCH  26  27
HETATM   27  C   UNL     1      -0.833   5.069 -30.881  1.00  0.00     0.005 C 
HETATM   28  C   UNL     1       0.655   5.391 -30.908  1.00  0.00     0.005 C 
ENDBRANCH  26  27
ENDBRANCH  23  26
ENDBRANCH   1  22
TORSDOF 5
ENDMDL
MODEL 9
REMARK VINA RESULT:      -7.3      2.974      8.154
REMARK  5 active torsions:
REMARK  status: ('A' for Active; 'I' for Inactive)
REMARK    1  A    between atoms: C_2  and  C_3 
REMARK    2  A    between atoms: C_3  and  C_4 
REMARK       I    between atoms: C_4  and  N_5 
REMARK    3  A    between atoms: N_5  and  C_6 
REMARK    4  A    between atoms: C_9  and  N_10 
REMARK       I    between atoms: N_10  and  C_11 
REMARK       I    between atoms: C_11  and  N_12 
REMARK    5  A    between atoms: N_12  and  C_13 
ROOT
HETATM    1  C   UNL     1      -2.837   5.895 -32.726  1.00  0.00     0.043 C 
HETATM    2  C   UNL     1      -4.244   5.772 -32.691  1.00  0.00    -0.008 C 
HETATM    3  C   UNL     1      -5.037   5.922 -31.413  1.00  0.00     0.053 C 
HETATM    4  C   UNL     1      -4.934   5.388 -33.872  1.00  0.00     0.044 C 
HETATM    5  C   UNL     1      -4.217   5.031 -35.019  1.00  0.00     0.030 C 
HETATM    6  C   UNL     1      -2.827   5.047 -35.010  1.00  0.00     0.005 C 
HETATM    7  C   UNL     1      -2.144   5.478 -33.874  1.00  0.00     0.030 C 
ENDROOT
BRANCH   4   8
HETATM    8  N   UNL     1      -6.344   5.467 -33.883  1.00  0.00    -0.308 N 
HETATM    9  C   UNL     1      -7.313   4.501 -33.811  1.00  0.00     0.325 C 
HETATM   10  N   UNL     1      -6.958   3.351 -33.162  1.00  0.00    -0.305 N 
HETATM   11  O   UNL     1      -8.438   4.780 -34.218  1.00  0.00    -0.247 OA
HETATM   12  H   UNL     1      -6.174   3.449 -32.534  1.00  0.00     0.171 HD
HETATM   13  H   UNL     1      -6.741   6.374 -34.096  1.00  0.00     0.170 HD
BRANCH  10  14
HETATM   14  C   UNL     1      -7.763   2.241 -32.981  1.00  0.00     0.086 A 
HETATM   15  C   UNL     1      -8.762   1.921 -32.014  1.00  0.00     0.079 A 
HETATM   16  C   UNL     1      -9.298   2.727 -30.888  1.00  0.00     0.075 C 
HETATM   17  N   UNL     1      -9.291   0.708 -32.241  1.00  0.00    -0.177 NA
HETATM   18  N   UNL     1      -8.649   0.268 -33.327  1.00  0.00    -0.280 N 
HETATM   19  H   UNL     1      -8.885  -0.655 -33.674  1.00  0.00     0.189 HD
HETATM   20  C   UNL     1      -7.738   1.152 -33.832  1.00  0.00     0.052 A 
HETATM   21  C   UNL     1      -6.946   0.826 -35.039  1.00  0.00     0.072 C 
ENDBRANCH  10  14
ENDBRANCH   4   8
BRANCH   1  22
HETATM   22  N   UNL     1      -2.021   6.392 -31.681  1.00  0.00    -0.327 N 
HETATM   23  C   UNL     1      -1.622   7.704 -31.492  1.00  0.00     0.222 C 
HETATM   24  O   UNL     1      -1.847   8.651 -32.237  1.00  0.00    -0.273 OA
HETATM   25  H   UNL     1      -1.457   5.702 -31.199  1.00  0.00     0.169 HD
BRANCH  23  26
HETATM   26  C   UNL     1      -0.760   7.885 -30.255  1.00  0.00     0.103 C 
BRANCH  26  27
HETATM   27  C   UNL     1       0.381   6.875 -30.202  1.00  0.00     0.005 C 
HETATM   28  C   UNL     1       0.417   6.098 -28.892  1.00  0.00     0.005 C 
ENDBRANCH  26  27
ENDBRANCH  23  26
ENDBRANCH   1  22
TORSDOF 5
ENDMDL
MODEL 10
REMARK VINA RESULT:      -7.3      3.885      7.929
REMARK  5 active torsions:
REMARK  status: ('A' for Active; 'I' for Inactive)
REMARK    1  A    between atoms: C_2  and  C_3 
REMARK    2  A    between atoms: C_3  and  C_4 
REMARK       I    between atoms: C_4  and  N_5 
REMARK    3  A    between atoms: N_5  and  C_6 
REMARK    4  A    between atoms: C_9  and  N_10 
REMARK       I    between atoms: N_10  and  C_11 
REMARK       I    between atoms: C_11  and  N_12 
REMARK    5  A    between atoms: N_12  and  C_13 
ROOT
HETATM    1  C   UNL     1      -5.404   2.480 -32.486  1.00  0.00     0.043 C 
HETATM    2  C   UNL     1      -6.621   2.874 -31.888  1.00  0.00    -0.008 C 
HETATM    3  C   UNL     1      -6.793   4.216 -31.215  1.00  0.00     0.053 C 
HETATM    4  C   UNL     1      -7.689   1.941 -31.815  1.00  0.00     0.044 C 
HETATM    5  C   UNL     1      -7.497   0.620 -32.233  1.00  0.00     0.030 C 
HETATM    6  C   UNL     1      -6.259   0.211 -32.718  1.00  0.00     0.005 C 
HETATM    7  C   UNL     1      -5.224   1.134 -32.846  1.00  0.00     0.030 C 
ENDROOT
BRANCH   4   8
HETATM    8  N   UNL     1      -8.959   2.402 -31.404  1.00  0.00    -0.308 N 
HETATM    9  C   UNL     1     -10.095   2.699 -32.110  1.00  0.00     0.325 C 
HETATM   10  N   UNL     1     -10.248   2.035 -33.295  1.00  0.00    -0.305 N 
HETATM   11  O   UNL     1     -10.928   3.431 -31.581  1.00  0.00    -0.247 OA
HETATM   12  H   UNL     1      -9.712   1.184 -33.371  1.00  0.00     0.171 HD
HETATM   13  H   UNL     1      -9.043   2.681 -30.433  1.00  0.00     0.170 HD
BRANCH  10  14
HETATM   14  C   UNL     1     -11.303   2.185 -34.177  1.00  0.00     0.086 A 
HETATM   15  C   UNL     1     -12.483   1.417 -34.410  1.00  0.00     0.079 A 
HETATM   16  C   UNL     1     -12.986   0.201 -33.722  1.00  0.00     0.075 C 
HETATM   17  N   UNL     1     -13.234   1.958 -35.382  1.00  0.00    -0.177 NA
HETATM   18  N   UNL     1     -12.552   3.044 -35.758  1.00  0.00    -0.280 N 
HETATM   19  H   UNL     1     -12.937   3.609 -36.507  1.00  0.00     0.189 HD
HETATM   20  C   UNL     1     -11.398   3.248 -35.056  1.00  0.00     0.052 A 
HETATM   21  C   UNL     1     -10.528   4.411 -35.338  1.00  0.00     0.072 C 
ENDBRANCH  10  14
ENDBRANCH   4   8
BRANCH   1  22
HETATM   22  N   UNL     1      -4.298   3.324 -32.754  1.00  0.00    -0.327 N 
HETATM   23  C   UNL     1      -3.071   3.311 -32.113  1.00  0.00     0.222 C 
HETATM   24  O   UNL     1      -2.754   2.617 -31.154  1.00  0.00    -0.273 OA
HETATM   25  H   UNL     1      -4.510   4.180 -33.252  1.00  0.00     0.169 HD
BRANCH  23  26
HETATM   26  C   UNL     1      -2.107   4.346 -32.668  1.00  0.00     0.103 C 
BRANCH  26  27
HETATM   27  C   UNL     1      -2.510   4.811 -34.063  1.00  0.00     0.005 C 
HETATM   28  C   UNL     1      -1.330   5.339 -34.869  1.00  0.00     0.005 C 
ENDBRANCH  26  27
ENDBRANCH  23  26
ENDBRANCH   1  22
TORSDOF 5
ENDMDL
