MODEL 1
REMARK VINA RESULT:      -9.7      0.000      0.000
REMARK  6 active torsions:
REMARK  status: ('A' for Active; 'I' for Inactive)
REMARK       I    between atoms: N_2  and  C_3 
REMARK    1  A    between atoms: N_2  and  C_15 
REMARK       I    between atoms: C_3  and  N_4 
REMARK    2  A    between atoms: N_4  and  C_5 
REMARK    3  A    between atoms: C_15  and  C_16 
REMARK    4  A    between atoms: C_16  and  C_17 
REMARK    5  A    between atoms: C_17  and  C_18 
REMARK    6  A    between atoms: C_22  and  C_23 
ROOT
HETATM    1  C   UNL     1      -5.398   2.973 -30.329  1.00  0.00     0.154 C 
HETATM    2  N   UNL     1      -4.732   2.208 -31.378  1.00  0.00    -0.338 N 
HETATM    3  C   UNL     1      -5.383   1.061 -31.839  1.00  0.00     0.322 C 
HETATM    4  N   UNL     1      -4.639   0.266 -32.682  1.00  0.00    -0.309 N 
HETATM    5  O   UNL     1      -6.535   0.809 -31.493  1.00  0.00    -0.247 OA
HETATM    6  H   UNL     1      -3.665   0.490 -32.771  1.00  0.00     0.170 HD
ENDROOT
BRANCH   2   7
HETATM    7  C   UNL     1      -3.365   2.630 -31.697  1.00  0.00     0.127 C 
BRANCH   7   8
HETATM    8  C   UNL     1      -3.258   3.693 -32.800  1.00  0.00     0.026 C 
BRANCH   8   9
HETATM    9  C   UNL     1      -1.934   4.457 -32.860  1.00  0.00     0.060 C 
BRANCH   9  10
HETATM   10  C   UNL     1      -1.653   5.300 -31.666  1.00  0.00     0.030 A 
HETATM   11  N   UNL     1      -2.593   6.148 -31.154  1.00  0.00    -0.282 N 
HETATM   12  H   UNL     1      -3.536   6.314 -31.491  1.00  0.00     0.189 HD
HETATM   13  N   UNL     1      -2.196   6.793 -30.052  1.00  0.00    -0.174 NA
HETATM   14  C   UNL     1      -0.926   6.399 -29.855  1.00  0.00     0.089 A 
HETATM   15  C   UNL     1      -0.545   5.469 -30.865  1.00  0.00     0.060 A 
BRANCH  14  16
HETATM   16  C   UNL     1      -0.136   6.897 -28.722  1.00  0.00    -0.006 A 
HETATM   17  C   UNL     1       0.758   7.966 -28.897  1.00  0.00     0.014 A 
HETATM   18  C   UNL     1       1.509   8.458 -27.827  1.00  0.00     0.001 A 
HETATM   19  C   UNL     1       1.379   7.887 -26.565  1.00  0.00     0.000 A 
HETATM   20  C   UNL     1       0.501   6.823 -26.372  1.00  0.00     0.001 A 
HETATM   21  C   UNL     1      -0.253   6.330 -27.444  1.00  0.00     0.014 A 
ENDBRANCH  14  16
ENDBRANCH   9  10
ENDBRANCH   8   9
ENDBRANCH   7   8
ENDBRANCH   2   7
BRANCH   4  22
HETATM   22  C   UNL     1      -5.046  -0.919 -33.337  1.00  0.00     0.036 A 
HETATM   23  C   UNL     1      -4.310  -2.107 -33.330  1.00  0.00     0.039 A 
HETATM   24  C   UNL     1      -4.808  -3.207 -34.015  1.00  0.00    -0.024 A 
HETATM   25  C   UNL     1      -6.010  -3.151 -34.699  1.00  0.00    -0.026 A 
HETATM   26  C   UNL     1      -4.207  -4.553 -34.183  1.00  0.00     0.207 C 
HETATM   27  C   UNL     1      -6.261  -4.458 -35.354  1.00  0.00     0.207 C 
HETATM   28  C   UNL     1      -6.760  -1.991 -34.721  1.00  0.00     0.012 A 
HETATM   29  O   UNL     1      -5.241  -5.337 -34.825  1.00  0.00    -0.382 OA
HETATM   30  C   UNL     1      -6.274  -0.875 -34.032  1.00  0.00     0.030 A 
ENDBRANCH   4  22
TORSDOF 6
ENDMDL
MODEL 2
REMARK VINA RESULT:      -9.4      1.606      2.521
REMARK  6 active torsions:
REMARK  status: ('A' for Active; 'I' for Inactive)
REMARK       I    between atoms: N_2  and  C_3 
REMARK    1  A    between atoms: N_2  and  C_15 
REMARK       I    between atoms: C_3  and  N_4 
REMARK    2  A    between atoms: N_4  and  C_5 
REMARK    3  A    between atoms: C_15  and  C_16 
REMARK    4  A    between atoms: C_16  and  C_17 
REMARK    5  A    between atoms: C_17  and  C_18 
REMARK    6  A    between atoms: C_22  and  C_23 
ROOT
HETATM    1  C   UNL     1      -7.110   3.264 -31.732  1.00  0.00     0.154 C 
HETATM    2  N   UNL     1      -6.699   2.512 -32.914  1.00  0.00    -0.338 N 
HETATM    3  C   UNL     1      -6.465   1.145 -32.748  1.00  0.00     0.322 C 
HETATM    4  N   UNL     1      -5.895   0.515 -33.832  1.00  0.00    -0.309 N 
HETATM    5  O   UNL     1      -6.756   0.579 -31.697  1.00  0.00    -0.247 OA
HETATM    6  H   UNL     1      -5.562   1.104 -34.573  1.00  0.00     0.170 HD
ENDROOT
BRANCH   2   7
HETATM    7  C   UNL     1      -6.398   3.318 -34.101  1.00  0.00     0.127 C 
BRANCH   7   8
HETATM    8  C   UNL     1      -5.916   4.746 -33.808  1.00  0.00     0.026 C 
BRANCH   8   9
HETATM    9  C   UNL     1      -4.533   5.105 -34.354  1.00  0.00     0.060 C 
BRANCH   9  10
HETATM   10  C   UNL     1      -3.450   5.115 -33.333  1.00  0.00     0.030 A 
HETATM   11  N   UNL     1      -2.589   4.064 -33.195  1.00  0.00    -0.282 N 
HETATM   12  H   UNL     1      -2.572   3.196 -33.721  1.00  0.00     0.189 HD
HETATM   13  N   UNL     1      -1.646   4.256 -32.266  1.00  0.00    -0.174 NA
HETATM   14  C   UNL     1      -1.923   5.457 -31.730  1.00  0.00     0.089 A 
HETATM   15  C   UNL     1      -3.065   6.021 -32.369  1.00  0.00     0.060 A 
BRANCH  14  16
HETATM   16  C   UNL     1      -1.096   6.028 -30.660  1.00  0.00    -0.006 A 
HETATM   17  C   UNL     1      -0.171   5.224 -29.974  1.00  0.00     0.014 A 
HETATM   18  C   UNL     1       0.631   5.755 -28.961  1.00  0.00     0.001 A 
HETATM   19  C   UNL     1       0.518   7.098 -28.616  1.00  0.00     0.000 A 
HETATM   20  C   UNL     1      -0.397   7.911 -29.283  1.00  0.00     0.001 A 
HETATM   21  C   UNL     1      -1.199   7.380 -30.298  1.00  0.00     0.014 A 
ENDBRANCH  14  16
ENDBRANCH   9  10
ENDBRANCH   8   9
ENDBRANCH   7   8
ENDBRANCH   2   7
BRANCH   4  22
HETATM   22  C   UNL     1      -5.591  -0.859 -33.973  1.00  0.00     0.036 A 
HETATM   23  C   UNL     1      -6.427  -1.783 -34.604  1.00  0.00     0.039 A 
HETATM   24  C   UNL     1      -6.025  -3.110 -34.677  1.00  0.00    -0.024 A 
HETATM   25  C   UNL     1      -4.821  -3.532 -34.140  1.00  0.00    -0.026 A 
HETATM   26  C   UNL     1      -6.740  -4.272 -35.258  1.00  0.00     0.207 C 
HETATM   27  C   UNL     1      -4.682  -4.994 -34.340  1.00  0.00     0.207 C 
HETATM   28  C   UNL     1      -3.972  -2.639 -33.513  1.00  0.00     0.012 A 
HETATM   29  O   UNL     1      -5.776  -5.352 -35.217  1.00  0.00    -0.382 OA
HETATM   30  C   UNL     1      -4.362  -1.298 -33.435  1.00  0.00     0.030 A 
ENDBRANCH   4  22
TORSDOF 6
ENDMDL
MODEL 3
REMARK VINA RESULT:      -9.2      3.971      7.272
REMARK  6 active torsions:
REMARK  status: ('A' for Active; 'I' for Inactive)
REMARK       I    between atoms: N_2  and  C_3 
REMARK    1  A    between atoms: N_2  and  C_15 
REMARK       I    between atoms: C_3  and  N_4 
REMARK    2  A    between atoms: N_4  and  C_5 
REMARK    3  A    between atoms: C_15  and  C_16 
REMARK    4  A    between atoms: C_16  and  C_17 
REMARK    5  A    between atoms: C_17  and  C_18 
REMARK    6  A    between atoms: C_22  and  C_23 
ROOT
HETATM    1  C   UNL     1      -4.865   3.044 -30.442  1.00  0.00     0.154 C 
HETATM    2  N   UNL     1      -4.592   2.417 -31.731  1.00  0.00    -0.338 N 
HETATM    3  C   UNL     1      -5.155   1.159 -31.959  1.00  0.00     0.322 C 
HETATM    4  N   UNL     1      -4.718   0.522 -33.099  1.00  0.00    -0.309 N 
HETATM    5  O   UNL     1      -5.975   0.685 -31.176  1.00  0.00    -0.247 OA
HETATM    6  H   UNL     1      -3.938   0.935 -33.576  1.00  0.00     0.170 HD
ENDROOT
BRANCH   2   7
HETATM    7  C   UNL     1      -3.602   3.101 -32.568  1.00  0.00     0.127 C 
BRANCH   7   8
HETATM    8  C   UNL     1      -3.987   4.526 -32.991  1.00  0.00     0.026 C 
BRANCH   8   9
HETATM    9  C   UNL     1      -4.877   4.633 -34.231  1.00  0.00     0.060 C 
BRANCH   9  10
HETATM   10  C   UNL     1      -6.300   4.262 -34.002  1.00  0.00     0.030 A 
HETATM   11  N   UNL     1      -7.210   5.170 -33.542  1.00  0.00    -0.282 N 
HETATM   12  H   UNL     1      -7.056   6.145 -33.305  1.00  0.00     0.189 HD
HETATM   13  N   UNL     1      -8.453   4.687 -33.441  1.00  0.00    -0.174 NA
HETATM   14  C   UNL     1      -8.355   3.394 -33.796  1.00  0.00     0.089 A 
HETATM   15  C   UNL     1      -7.007   3.087 -34.140  1.00  0.00     0.060 A 
BRANCH  14  16
HETATM   16  C   UNL     1      -9.529   2.513 -33.812  1.00  0.00    -0.006 A 
HETATM   17  C   UNL     1     -10.694   2.896 -34.496  1.00  0.00     0.014 A 
HETATM   18  C   UNL     1     -11.815   2.064 -34.531  1.00  0.00     0.001 A 
HETATM   19  C   UNL     1     -11.790   0.835 -33.878  1.00  0.00     0.000 A 
HETATM   20  C   UNL     1     -10.645   0.439 -33.190  1.00  0.00     0.001 A 
HETATM   21  C   UNL     1      -9.521   1.272 -33.157  1.00  0.00     0.014 A 
ENDBRANCH  14  16
ENDBRANCH   9  10
ENDBRANCH   8   9
ENDBRANCH   7   8
ENDBRANCH   2   7
BRANCH   4  22
HETATM   22  C   UNL     1      -5.143  -0.727 -33.608  1.00  0.00     0.036 A 
HETATM   23  C   UNL     1      -4.367  -1.888 -33.574  1.00  0.00     0.039 A 
HETATM   24  C   UNL     1      -4.888  -3.058 -34.112  1.00  0.00    -0.024 A 
HETATM   25  C   UNL     1      -6.151  -3.095 -34.677  1.00  0.00    -0.026 A 
HETATM   26  C   UNL     1      -4.259  -4.396 -34.226  1.00  0.00     0.207 C 
HETATM   27  C   UNL     1      -6.417  -4.460 -35.192  1.00  0.00     0.207 C 
HETATM   28  C   UNL     1      -6.942  -1.962 -34.721  1.00  0.00     0.012 A 
HETATM   29  O   UNL     1      -5.320  -5.261 -34.694  1.00  0.00    -0.382 OA
HETATM   30  C   UNL     1      -6.432  -0.777 -34.180  1.00  0.00     0.030 A 
ENDBRANCH   4  22
TORSDOF 6
ENDMDL
MODEL 4
REMARK VINA RESULT:      -9.1      3.091     11.281
REMARK  6 active torsions:
REMARK  status: ('A' for Active; 'I' for Inactive)
REMARK       I    between atoms: N_2  and  C_3 
REMARK    1  A    between atoms: N_2  and  C_15 
REMARK       I    between atoms: C_3  and  N_4 
REMARK    2  A    between atoms: N_4  and  C_5 
REMARK    3  A    between atoms: C_15  and  C_16 
REMARK    4  A    between atoms: C_16  and  C_17 
REMARK    5  A    between atoms: C_17  and  C_18 
REMARK    6  A    between atoms: C_22  and  C_23 
ROOT
HETATM    1  C   UNL     1      -2.161   4.585 -33.716  1.00  0.00     0.154 C 
HETATM    2  N   UNL     1      -2.258   4.686 -32.264  1.00  0.00    -0.338 N 
HETATM    3  C   UNL     1      -1.550   5.723 -31.650  1.00  0.00     0.322 C 
HETATM    4  N   UNL     1      -1.510   5.668 -30.275  1.00  0.00    -0.309 N 
HETATM    5  O   UNL     1      -1.012   6.601 -32.320  1.00  0.00    -0.247 OA
HETATM    6  H   UNL     1      -1.852   4.827 -29.846  1.00  0.00     0.170 HD
ENDROOT
BRANCH   2   7
HETATM    7  C   UNL     1      -2.941   3.573 -31.597  1.00  0.00     0.127 C 
BRANCH   7   8
HETATM    8  C   UNL     1      -4.470   3.579 -31.732  1.00  0.00     0.026 C 
BRANCH   8   9
HETATM    9  C   UNL     1      -5.193   2.362 -31.152  1.00  0.00     0.060 C 
BRANCH   9  10
HETATM   10  C   UNL     1      -5.446   1.271 -32.132  1.00  0.00     0.030 A 
HETATM   11  N   UNL     1      -5.999   1.523 -33.355  1.00  0.00    -0.282 N 
HETATM   12  H   UNL     1      -6.297   2.416 -33.734  1.00  0.00     0.189 HD
HETATM   13  N   UNL     1      -6.112   0.440 -34.131  1.00  0.00    -0.174 NA
HETATM   14  C   UNL     1      -5.667  -0.579 -33.376  1.00  0.00     0.089 A 
HETATM   15  C   UNL     1      -5.254  -0.093 -32.102  1.00  0.00     0.060 A 
BRANCH  14  16
HETATM   16  C   UNL     1      -5.632  -1.955 -33.888  1.00  0.00    -0.006 A 
HETATM   17  C   UNL     1      -6.782  -2.530 -34.454  1.00  0.00     0.014 A 
HETATM   18  C   UNL     1      -6.762  -3.833 -34.955  1.00  0.00     0.001 A 
HETATM   19  C   UNL     1      -5.592  -4.583 -34.897  1.00  0.00     0.000 A 
HETATM   20  C   UNL     1      -4.442  -4.032 -34.336  1.00  0.00     0.001 A 
HETATM   21  C   UNL     1      -4.461  -2.725 -33.834  1.00  0.00     0.014 A 
ENDBRANCH  14  16
ENDBRANCH   9  10
ENDBRANCH   8   9
ENDBRANCH   7   8
ENDBRANCH   2   7
BRANCH   4  22
HETATM   22  C   UNL     1      -0.916   6.595 -29.389  1.00  0.00     0.036 A 
HETATM   23  C   UNL     1      -1.447   7.856 -29.107  1.00  0.00     0.039 A 
HETATM   24  C   UNL     1      -0.770   8.686 -28.224  1.00  0.00    -0.024 A 
HETATM   25  C   UNL     1       0.411   8.291 -27.620  1.00  0.00    -0.026 A 
HETATM   26  C   UNL     1      -1.106  10.065 -27.793  1.00  0.00     0.207 C 
HETATM   27  C   UNL     1       0.914   9.391 -26.762  1.00  0.00     0.207 C 
HETATM   28  C   UNL     1       0.958   7.049 -27.877  1.00  0.00     0.012 A 
HETATM   29  O   UNL     1      -0.162  10.359 -26.735  1.00  0.00    -0.382 OA
HETATM   30  C   UNL     1       0.286   6.200 -28.763  1.00  0.00     0.030 A 
ENDBRANCH   4  22
TORSDOF 6
ENDMDL
MODEL 5
REMARK VINA RESULT:      -8.9      4.613      8.741
REMARK  6 active torsions:
REMARK  status: ('A' for Active; 'I' for Inactive)
REMARK       I    between atoms: N_2  and  C_3 
REMARK    1  A    between atoms: N_2  and  C_15 
REMARK       I    between atoms: C_3  and  N_4 
REMARK    2  A    between atoms: N_4  and  C_5 
REMARK    3  A    between atoms: C_15  and  C_16 
REMARK    4  A    between atoms: C_16  and  C_17 
REMARK    5  A    between atoms: C_17  and  C_18 
REMARK    6  A    between atoms: C_22  and  C_23 
ROOT
HETATM    1  C   UNL     1      -5.585   4.782 -30.897  1.00  0.00     0.154 C 
HETATM    2  N   UNL     1      -6.031   4.034 -32.068  1.00  0.00    -0.338 N 
HETATM    3  C   UNL     1      -7.378   3.666 -32.112  1.00  0.00     0.322 C 
HETATM    4  N   UNL     1      -7.714   2.802 -33.130  1.00  0.00    -0.309 N 
HETATM    5  O   UNL     1      -8.177   4.099 -31.284  1.00  0.00    -0.247 OA
HETATM    6  H   UNL     1      -6.955   2.397 -33.648  1.00  0.00     0.170 HD
ENDROOT
BRANCH   2   7
HETATM    7  C   UNL     1      -4.970   3.594 -32.978  1.00  0.00     0.127 C 
BRANCH   7   8
HETATM    8  C   UNL     1      -3.697   3.084 -32.287  1.00  0.00     0.026 C 
BRANCH   8   9
HETATM    9  C   UNL     1      -3.898   1.959 -31.270  1.00  0.00     0.060 C 
BRANCH   9  10
HETATM   10  C   UNL     1      -3.930   0.593 -31.859  1.00  0.00     0.030 A 
HETATM   11  N   UNL     1      -2.945  -0.317 -31.606  1.00  0.00    -0.282 N 
HETATM   12  H   UNL     1      -2.115  -0.198 -31.033  1.00  0.00     0.189 HD
HETATM   13  N   UNL     1      -3.152  -1.511 -32.171  1.00  0.00    -0.174 NA
HETATM   14  C   UNL     1      -4.293  -1.372 -32.870  1.00  0.00     0.089 A 
HETATM   15  C   UNL     1      -4.802  -0.052 -32.708  1.00  0.00     0.060 A 
BRANCH  14  16
HETATM   16  C   UNL     1      -4.860  -2.486 -33.640  1.00  0.00    -0.006 A 
HETATM   17  C   UNL     1      -6.113  -2.354 -34.261  1.00  0.00     0.014 A 
HETATM   18  C   UNL     1      -6.661  -3.400 -35.006  1.00  0.00     0.001 A 
HETATM   19  C   UNL     1      -5.965  -4.597 -35.141  1.00  0.00     0.000 A 
HETATM   20  C   UNL     1      -4.722  -4.750 -34.529  1.00  0.00     0.001 A 
HETATM   21  C   UNL     1      -4.172  -3.701 -33.783  1.00  0.00     0.014 A 
ENDBRANCH  14  16
ENDBRANCH   9  10
ENDBRANCH   8   9
ENDBRANCH   7   8
ENDBRANCH   2   7
BRANCH   4  22
HETATM   22  C   UNL     1      -8.996   2.300 -33.451  1.00  0.00     0.036 A 
HETATM   23  C   UNL     1      -9.911   2.962 -34.273  1.00  0.00     0.039 A 
HETATM   24  C   UNL     1     -11.145   2.374 -34.512  1.00  0.00    -0.024 A 
HETATM   25  C   UNL     1     -11.485   1.152 -33.957  1.00  0.00    -0.026 A 
HETATM   26  C   UNL     1     -12.285   2.885 -35.312  1.00  0.00     0.207 C 
HETATM   27  C   UNL     1     -12.867   0.798 -34.362  1.00  0.00     0.207 C 
HETATM   28  C   UNL     1     -10.599   0.473 -33.142  1.00  0.00     0.012 A 
HETATM   29  O   UNL     1     -13.222   1.782 -35.361  1.00  0.00    -0.382 OA
HETATM   30  C   UNL     1      -9.350   1.052 -32.895  1.00  0.00     0.030 A 
ENDBRANCH   4  22
TORSDOF 6
ENDMDL
MODEL 6
REMARK VINA RESULT:      -8.9      2.301      3.777
REMARK  6 active torsions:
REMARK  status: ('A' for Active; 'I' for Inactive)
REMARK       I    between atoms: N_2  and  C_3 
REMARK    1  A    between atoms: N_2  and  C_15 
REMARK       I    between atoms: C_3  and  N_4 
REMARK    2  A    between atoms: N_4  and  C_5 
REMARK    3  A    between atoms: C_15  and  C_16 
REMARK    4  A    between atoms: C_16  and  C_17 
REMARK    5  A    between atoms: C_17  and  C_18 
REMARK    6  A    between atoms: C_22  and  C_23 
ROOT
HETATM    1  C   UNL     1     -10.066   2.134 -32.914  1.00  0.00     0.154 C 
HETATM    2  N   UNL     1      -8.750   1.829 -33.465  1.00  0.00    -0.338 N 
HETATM    3  C   UNL     1      -8.362   0.486 -33.479  1.00  0.00     0.322 C 
HETATM    4  N   UNL     1      -7.048   0.262 -33.823  1.00  0.00    -0.309 N 
HETATM    5  O   UNL     1      -9.162  -0.403 -33.196  1.00  0.00    -0.247 OA
HETATM    6  H   UNL     1      -6.453   1.068 -33.883  1.00  0.00     0.170 HD
ENDROOT
BRANCH   2   7
HETATM    7  C   UNL     1      -7.908   2.989 -33.770  1.00  0.00     0.127 C 
BRANCH   7   8
HETATM    8  C   UNL     1      -7.401   3.760 -32.543  1.00  0.00     0.026 C 
BRANCH   8   9
HETATM    9  C   UNL     1      -6.546   2.957 -31.560  1.00  0.00     0.060 C 
BRANCH   9  10
HETATM   10  C   UNL     1      -5.105   3.329 -31.550  1.00  0.00     0.030 A 
HETATM   11  N   UNL     1      -4.122   2.384 -31.625  1.00  0.00    -0.282 N 
HETATM   12  H   UNL     1      -4.227   1.376 -31.687  1.00  0.00     0.189 HD
HETATM   13  N   UNL     1      -2.885   2.891 -31.655  1.00  0.00    -0.174 NA
HETATM   14  C   UNL     1      -3.050   4.220 -31.542  1.00  0.00     0.089 A 
HETATM   15  C   UNL     1      -4.438   4.531 -31.457  1.00  0.00     0.060 A 
BRANCH  14  16
HETATM   16  C   UNL     1      -1.903   5.137 -31.536  1.00  0.00    -0.006 A 
HETATM   17  C   UNL     1      -0.807   4.896 -30.691  1.00  0.00     0.014 A 
HETATM   18  C   UNL     1       0.296   5.753 -30.683  1.00  0.00     0.001 A 
HETATM   19  C   UNL     1       0.319   6.866 -31.517  1.00  0.00     0.000 A 
HETATM   20  C   UNL     1      -0.761   7.124 -32.358  1.00  0.00     0.001 A 
HETATM   21  C   UNL     1      -1.865   6.266 -32.369  1.00  0.00     0.014 A 
ENDBRANCH  14  16
ENDBRANCH   9  10
ENDBRANCH   8   9
ENDBRANCH   7   8
ENDBRANCH   2   7
BRANCH   4  22
HETATM   22  C   UNL     1      -6.392  -0.982 -33.968  1.00  0.00     0.036 A 
HETATM   23  C   UNL     1      -6.957  -2.094 -34.597  1.00  0.00     0.039 A 
HETATM   24  C   UNL     1      -6.219  -3.268 -34.673  1.00  0.00    -0.024 A 
HETATM   25  C   UNL     1      -4.943  -3.356 -34.144  1.00  0.00    -0.026 A 
HETATM   26  C   UNL     1      -6.603  -4.578 -35.253  1.00  0.00     0.207 C 
HETATM   27  C   UNL     1      -4.423  -4.730 -34.347  1.00  0.00     0.207 C 
HETATM   28  C   UNL     1      -4.357  -2.271 -33.519  1.00  0.00     0.012 A 
HETATM   29  O   UNL     1      -5.388  -5.364 -35.219  1.00  0.00    -0.382 OA
HETATM   30  C   UNL     1      -5.087  -1.081 -33.437  1.00  0.00     0.030 A 
ENDBRANCH   4  22
TORSDOF 6
ENDMDL
MODEL 7
REMARK VINA RESULT:      -8.7      5.878      9.644
REMARK  6 active torsions:
REMARK  status: ('A' for Active; 'I' for Inactive)
REMARK       I    between atoms: N_2  and  C_3 
REMARK    1  A    between atoms: N_2  and  C_15 
REMARK       I    between atoms: C_3  and  N_4 
REMARK    2  A    between atoms: N_4  and  C_5 
REMARK    3  A    between atoms: C_15  and  C_16 
REMARK    4  A    between atoms: C_16  and  C_17 
REMARK    5  A    between atoms: C_17  and  C_18 
REMARK    6  A    between atoms: C_22  and  C_23 
ROOT
HETATM    1  C   UNL     1      -7.264   2.561 -30.679  1.00  0.00     0.154 C 
HETATM    2  N   UNL     1      -8.238   3.106 -31.618  1.00  0.00    -0.338 N 
HETATM    3  C   UNL     1      -9.415   2.378 -31.807  1.00  0.00     0.322 C 
HETATM    4  N   UNL     1     -10.216   2.819 -32.837  1.00  0.00    -0.309 N 
HETATM    5  O   UNL     1      -9.683   1.416 -31.090  1.00  0.00    -0.247 OA
HETATM    6  H   UNL     1      -9.824   3.512 -33.448  1.00  0.00     0.170 HD
ENDROOT
BRANCH   2   7
HETATM    7  C   UNL     1      -7.786   4.263 -32.397  1.00  0.00     0.127 C 
BRANCH   7   8
HETATM    8  C   UNL     1      -7.246   3.930 -33.795  1.00  0.00     0.026 C 
BRANCH   8   9
HETATM    9  C   UNL     1      -5.989   3.059 -33.831  1.00  0.00     0.060 C 
BRANCH   9  10
HETATM   10  C   UNL     1      -6.247   1.613 -34.074  1.00  0.00     0.030 A 
HETATM   11  N   UNL     1      -7.440   1.174 -34.572  1.00  0.00    -0.282 N 
HETATM   12  H   UNL     1      -8.255   1.726 -34.821  1.00  0.00     0.189 HD
HETATM   13  N   UNL     1      -7.488  -0.146 -34.778  1.00  0.00    -0.174 NA
HETATM   14  C   UNL     1      -6.301  -0.609 -34.349  1.00  0.00     0.089 A 
HETATM   15  C   UNL     1      -5.498   0.472 -33.883  1.00  0.00     0.060 A 
BRANCH  14  16
HETATM   16  C   UNL     1      -5.967  -2.038 -34.413  1.00  0.00    -0.006 A 
HETATM   17  C   UNL     1      -6.949  -2.981 -34.754  1.00  0.00     0.014 A 
HETATM   18  C   UNL     1      -6.645  -4.342 -34.830  1.00  0.00     0.001 A 
HETATM   19  C   UNL     1      -5.352  -4.781 -34.562  1.00  0.00     0.000 A 
HETATM   20  C   UNL     1      -4.364  -3.861 -34.217  1.00  0.00     0.001 A 
HETATM   21  C   UNL     1      -4.669  -2.497 -34.143  1.00  0.00     0.014 A 
ENDBRANCH  14  16
ENDBRANCH   9  10
ENDBRANCH   8   9
ENDBRANCH   7   8
ENDBRANCH   2   7
BRANCH   4  22
HETATM   22  C   UNL     1     -11.477   2.315 -33.230  1.00  0.00     0.036 A 
HETATM   23  C   UNL     1     -12.669   2.578 -32.549  1.00  0.00     0.039 A 
HETATM   24  C   UNL     1     -13.849   2.022 -33.025  1.00  0.00    -0.024 A 
HETATM   25  C   UNL     1     -13.867   1.219 -34.152  1.00  0.00    -0.026 A 
HETATM   26  C   UNL     1     -15.220   2.123 -32.469  1.00  0.00     0.207 C 
HETATM   27  C   UNL     1     -15.252   0.749 -34.395  1.00  0.00     0.207 C 
HETATM   28  C   UNL     1     -12.705   0.944 -34.847  1.00  0.00     0.012 A 
HETATM   29  O   UNL     1     -16.066   1.506 -33.469  1.00  0.00    -0.382 OA
HETATM   30  C   UNL     1     -11.508   1.500 -34.382  1.00  0.00     0.030 A 
ENDBRANCH   4  22
TORSDOF 6
ENDMDL
MODEL 8
REMARK VINA RESULT:      -8.7      4.973      7.135
REMARK  6 active torsions:
REMARK  status: ('A' for Active; 'I' for Inactive)
REMARK       I    between atoms: N_2  and  C_3 
REMARK    1  A    between atoms: N_2  and  C_15 
REMARK       I    between atoms: C_3  and  N_4 
REMARK    2  A    between atoms: N_4  and  C_5 
REMARK    3  A    between atoms: C_15  and  C_16 
REMARK    4  A    between atoms: C_16  and  C_17 
REMARK    5  A    between atoms: C_17  and  C_18 
REMARK    6  A    between atoms: C_22  and  C_23 
ROOT
HETATM    1  C   UNL     1      -4.443  -3.161 -34.440  1.00  0.00     0.154 C 
HETATM    2  N   UNL     1      -4.869  -1.889 -33.864  1.00  0.00    -0.338 N 
HETATM    3  C   UNL     1      -6.218  -1.549 -34.001  1.00  0.00     0.322 C 
HETATM    4  N   UNL     1      -6.537  -0.265 -33.619  1.00  0.00    -0.309 N 
HETATM    5  O   UNL     1      -7.031  -2.361 -34.437  1.00  0.00    -0.247 OA
HETATM    6  H   UNL     1      -5.770   0.353 -33.425  1.00  0.00     0.170 HD
ENDROOT
BRANCH   2   7
HETATM    7  C   UNL     1      -3.792  -1.028 -33.369  1.00  0.00     0.127 C 
BRANCH   7   8
HETATM    8  C   UNL     1      -3.579  -1.068 -31.849  1.00  0.00     0.026 C 
BRANCH   8   9
HETATM    9  C   UNL     1      -3.279   0.277 -31.184  1.00  0.00     0.060 C 
BRANCH   9  10
HETATM   10  C   UNL     1      -4.335   1.309 -31.374  1.00  0.00     0.030 A 
HETATM   11  N   UNL     1      -4.257   2.236 -32.374  1.00  0.00    -0.282 N 
HETATM   12  H   UNL     1      -3.524   2.347 -33.067  1.00  0.00     0.189 HD
HETATM   13  N   UNL     1      -5.311   3.055 -32.435  1.00  0.00    -0.174 NA
HETATM   14  C   UNL     1      -6.095   2.694 -31.404  1.00  0.00     0.089 A 
HETATM   15  C   UNL     1      -5.501   1.605 -30.703  1.00  0.00     0.060 A 
BRANCH  14  16
HETATM   16  C   UNL     1      -7.369   3.372 -31.135  1.00  0.00    -0.006 A 
HETATM   17  C   UNL     1      -7.512   4.744 -31.400  1.00  0.00     0.014 A 
HETATM   18  C   UNL     1      -8.721   5.401 -31.160  1.00  0.00     0.001 A 
HETATM   19  C   UNL     1      -9.805   4.696 -30.648  1.00  0.00     0.000 A 
HETATM   20  C   UNL     1      -9.682   3.336 -30.374  1.00  0.00     0.001 A 
HETATM   21  C   UNL     1      -8.471   2.677 -30.616  1.00  0.00     0.014 A 
ENDBRANCH  14  16
ENDBRANCH   9  10
ENDBRANCH   8   9
ENDBRANCH   7   8
ENDBRANCH   2   7
BRANCH   4  22
HETATM   22  C   UNL     1      -7.815   0.339 -33.601  1.00  0.00     0.036 A 
HETATM   23  C   UNL     1      -8.107   1.568 -34.198  1.00  0.00     0.039 A 
HETATM   24  C   UNL     1      -9.400   2.066 -34.108  1.00  0.00    -0.024 A 
HETATM   25  C   UNL     1     -10.398   1.373 -33.446  1.00  0.00    -0.026 A 
HETATM   26  C   UNL     1      -9.946   3.345 -34.623  1.00  0.00     0.207 C 
HETATM   27  C   UNL     1     -11.653   2.163 -33.490  1.00  0.00     0.207 C 
HETATM   28  C   UNL     1     -10.140   0.154 -32.849  1.00  0.00     0.012 A 
HETATM   29  O   UNL     1     -11.374   3.248 -34.405  1.00  0.00    -0.382 OA
HETATM   30  C   UNL     1      -8.843  -0.363 -32.933  1.00  0.00     0.030 A 
ENDBRANCH   4  22
TORSDOF 6
ENDMDL
MODEL 9
REMARK VINA RESULT:      -8.7     16.971     18.859
REMARK  6 active torsions:
REMARK  status: ('A' for Active; 'I' for Inactive)
REMARK       I    between atoms: N_2  and  C_3 
REMARK    1  A    between atoms: N_2  and  C_15 
REMARK       I    between atoms: C_3  and  N_4 
REMARK    2  A    between atoms: N_4  and  C_5 
REMARK    3  A    between atoms: C_15  and  C_16 
REMARK    4  A    between atoms: C_16  and  C_17 
REMARK    5  A    between atoms: C_17  and  C_18 
REMARK    6  A    between atoms: C_22  and  C_23 
ROOT
HETATM    1  C   UNL     1      -2.234 -16.422 -42.932  1.00  0.00     0.154 C 
HETATM    2  N   UNL     1      -2.824 -15.839 -41.732  1.00  0.00    -0.338 N 
HETATM    3  C   UNL     1      -4.108 -15.303 -41.850  1.00  0.00     0.322 C 
HETATM    4  N   UNL     1      -4.548 -14.593 -40.755  1.00  0.00    -0.309 N 
HETATM    5  O   UNL     1      -4.768 -15.468 -42.874  1.00  0.00    -0.247 OA
HETATM    6  H   UNL     1      -3.869 -14.395 -40.043  1.00  0.00     0.170 HD
ENDROOT
BRANCH   2   7
HETATM    7  C   UNL     1      -1.923 -15.716 -40.582  1.00  0.00     0.127 C 
BRANCH   7   8
HETATM    8  C   UNL     1      -0.944 -14.535 -40.651  1.00  0.00     0.026 C 
BRANCH   8   9
HETATM    9  C   UNL     1      -0.660 -13.830 -39.323  1.00  0.00     0.060 C 
BRANCH   9  10
HETATM   10  C   UNL     1      -1.876 -13.392 -38.585  1.00  0.00     0.030 A 
HETATM   11  N   UNL     1      -2.419 -12.153 -38.774  1.00  0.00    -0.282 N 
HETATM   12  H   UNL     1      -2.093 -11.415 -39.389  1.00  0.00     0.189 HD
HETATM   13  N   UNL     1      -3.537 -11.940 -38.071  1.00  0.00    -0.174 NA
HETATM   14  C   UNL     1      -3.713 -13.059 -37.347  1.00  0.00     0.089 A 
HETATM   15  C   UNL     1      -2.673 -13.990 -37.634  1.00  0.00     0.060 A 
BRANCH  14  16
HETATM   16  C   UNL     1      -4.854 -13.210 -36.436  1.00  0.00    -0.006 A 
HETATM   17  C   UNL     1      -6.135 -13.484 -36.942  1.00  0.00     0.014 A 
HETATM   18  C   UNL     1      -7.228 -13.642 -36.087  1.00  0.00     0.001 A 
HETATM   19  C   UNL     1      -7.057 -13.526 -34.711  1.00  0.00     0.000 A 
HETATM   20  C   UNL     1      -5.795 -13.250 -34.190  1.00  0.00     0.001 A 
HETATM   21  C   UNL     1      -4.700 -13.094 -35.046  1.00  0.00     0.014 A 
ENDBRANCH  14  16
ENDBRANCH   9  10
ENDBRANCH   8   9
ENDBRANCH   7   8
ENDBRANCH   2   7
BRANCH   4  22
HETATM   22  C   UNL     1      -5.810 -13.984 -40.569  1.00  0.00     0.036 A 
HETATM   23  C   UNL     1      -6.984 -14.689 -40.291  1.00  0.00     0.039 A 
HETATM   24  C   UNL     1      -8.169 -13.982 -40.134  1.00  0.00    -0.024 A 
HETATM   25  C   UNL     1      -8.209 -12.604 -40.246  1.00  0.00    -0.026 A 
HETATM   26  C   UNL     1      -9.535 -14.496 -39.871  1.00  0.00     0.207 C 
HETATM   27  C   UNL     1      -9.605 -12.138 -40.063  1.00  0.00     0.207 C 
HETATM   28  C   UNL     1      -7.063 -11.880 -40.517  1.00  0.00     0.012 A 
HETATM   29  O   UNL     1     -10.329 -13.311 -39.621  1.00  0.00    -0.382 OA
HETATM   30  C   UNL     1      -5.861 -12.578 -40.674  1.00  0.00     0.030 A 
ENDBRANCH   4  22
TORSDOF 6
ENDMDL
MODEL 10
REMARK VINA RESULT:      -8.6      3.975      5.910
REMARK  6 active torsions:
REMARK  status: ('A' for Active; 'I' for Inactive)
REMARK       I    between atoms: N_2  and  C_3 
REMARK    1  A    between atoms: N_2  and  C_15 
REMARK       I    between atoms: C_3  and  N_4 
REMARK    2  A    between atoms: N_4  and  C_5 
REMARK    3  A    between atoms: C_15  and  C_16 
REMARK    4  A    between atoms: C_16  and  C_17 
REMARK    5  A    between atoms: C_17  and  C_18 
REMARK    6  A    between atoms: C_22  and  C_23 
ROOT
HETATM    1  C   UNL     1     -11.973   2.088 -33.469  1.00  0.00     0.154 C 
HETATM    2  N   UNL     1     -10.636   2.144 -34.051  1.00  0.00    -0.338 N 
HETATM    3  C   UNL     1      -9.762   1.099 -33.739  1.00  0.00     0.322 C 
HETATM    4  N   UNL     1      -8.460   1.287 -34.145  1.00  0.00    -0.309 N 
HETATM    5  O   UNL     1     -10.161   0.102 -33.141  1.00  0.00    -0.247 OA
HETATM    6  H   UNL     1      -8.220   2.200 -34.485  1.00  0.00     0.170 HD
ENDROOT
BRANCH   2   7
HETATM    7  C   UNL     1     -10.303   3.390 -34.748  1.00  0.00     0.127 C 
BRANCH   7   8
HETATM    8  C   UNL     1     -10.353   4.652 -33.875  1.00  0.00     0.026 C 
BRANCH   8   9
HETATM    9  C   UNL     1      -9.749   4.517 -32.476  1.00  0.00     0.060 C 
BRANCH   9  10
HETATM   10  C   UNL     1      -8.262   4.455 -32.450  1.00  0.00     0.030 A 
HETATM   11  N   UNL     1      -7.585   3.986 -31.361  1.00  0.00    -0.282 N 
HETATM   12  H   UNL     1      -7.969   3.647 -30.484  1.00  0.00     0.189 HD
HETATM   13  N   UNL     1      -6.258   3.951 -31.522  1.00  0.00    -0.174 NA
HETATM   14  C   UNL     1      -6.042   4.466 -32.744  1.00  0.00     0.089 A 
HETATM   15  C   UNL     1      -7.283   4.811 -33.352  1.00  0.00     0.060 A 
BRANCH  14  16
HETATM   16  C   UNL     1      -4.685   4.595 -33.292  1.00  0.00    -0.006 A 
HETATM   17  C   UNL     1      -3.576   4.157 -32.551  1.00  0.00     0.014 A 
HETATM   18  C   UNL     1      -2.281   4.263 -33.063  1.00  0.00     0.001 A 
HETATM   19  C   UNL     1      -2.075   4.812 -34.325  1.00  0.00     0.000 A 
HETATM   20  C   UNL     1      -3.162   5.256 -35.074  1.00  0.00     0.001 A 
HETATM   21  C   UNL     1      -4.460   5.149 -34.562  1.00  0.00     0.014 A 
ENDBRANCH  14  16
ENDBRANCH   9  10
ENDBRANCH   8   9
ENDBRANCH   7   8
ENDBRANCH   2   7
BRANCH   4  22
HETATM   22  C   UNL     1      -7.375   0.390 -34.013  1.00  0.00     0.036 A 
HETATM   23  C   UNL     1      -7.292  -0.838 -34.675  1.00  0.00     0.039 A 
HETATM   24  C   UNL     1      -6.179  -1.640 -34.462  1.00  0.00    -0.024 A 
HETATM   25  C   UNL     1      -5.157  -1.250 -33.614  1.00  0.00    -0.026 A 
HETATM   26  C   UNL     1      -5.875  -2.983 -35.014  1.00  0.00     0.207 C 
HETATM   27  C   UNL     1      -4.129  -2.317 -33.563  1.00  0.00     0.207 C 
HETATM   28  C   UNL     1      -5.211  -0.040 -32.948  1.00  0.00     0.012 A 
HETATM   29  O   UNL     1      -4.513  -3.248 -34.602  1.00  0.00    -0.382 OA
HETATM   30  C   UNL     1      -6.325   0.781 -33.155  1.00  0.00     0.030 A 
ENDBRANCH   4  22
TORSDOF 6
ENDMDL
