MODEL 1
REMARK VINA RESULT:      -8.1      0.000      0.000
REMARK  4 active torsions:
REMARK  status: ('A' for Active; 'I' for Inactive)
REMARK    1  A    between atoms: C_2  and  C_3 
REMARK    2  A    between atoms: C_3  and  N_4 
REMARK    3  A    between atoms: C_3  and  C_17 
REMARK       I    between atoms: N_4  and  C_5 
REMARK    4  A    between atoms: C_5  and  C_6 
ROOT
HETATM    1  N   UNL     1      -4.012   1.691 -32.029  1.00  0.00    -0.345 N 
HETATM    2  C   UNL     1      -3.277   0.588 -31.633  1.00  0.00     0.252 C 
HETATM    3  O   UNL     1      -2.376   0.673 -30.804  1.00  0.00    -0.268 OA
HETATM    4  H   UNL     1      -4.874   1.499 -32.526  1.00  0.00     0.163 HD
ENDROOT
BRANCH   1   5
HETATM    5  C   UNL     1      -3.928   2.950 -31.284  1.00  0.00     0.152 C 
BRANCH   5   6
HETATM    6  C   UNL     1      -5.300   3.625 -31.169  1.00  0.00     0.028 C 
HETATM    7  C   UNL     1      -6.384   2.909 -31.963  1.00  0.00     0.007 C 
ENDBRANCH   5   6
BRANCH   5   8
HETATM    8  C   UNL     1      -2.847   3.861 -31.882  1.00  0.00     0.104 A 
HETATM    9  N   UNL     1      -2.669   4.224 -33.164  1.00  0.00    -0.347 N 
HETATM   10  H   UNL     1      -3.252   3.908 -33.935  1.00  0.00     0.167 HD
HETATM   11  C   UNL     1      -1.584   5.085 -33.304  1.00  0.00     0.022 A 
HETATM   12  C   UNL     1      -1.163   5.652 -34.595  1.00  0.00     0.069 C 
HETATM   13  C   UNL     1      -1.077   5.231 -32.037  1.00  0.00     0.114 A 
HETATM   14  N   UNL     1      -1.862   4.477 -31.209  1.00  0.00    -0.352 N 
HETATM   15  H   UNL     1      -1.735   4.313 -30.200  1.00  0.00     0.166 HD
ENDBRANCH   5   8
ENDBRANCH   1   5
BRANCH   2  16
HETATM   16  C   UNL     1      -3.664  -0.720 -32.228  1.00  0.00     0.033 A 
HETATM   17  C   UNL     1      -4.729  -0.730 -33.149  1.00  0.00     0.031 A 
HETATM   18  C   UNL     1      -5.069  -1.943 -33.774  1.00  0.00     0.001 A 
HETATM   19  C   UNL     1      -4.354  -3.086 -33.438  1.00  0.00     0.086 A 
HETATM   20  C   UNL     1      -6.018  -2.355 -34.746  1.00  0.00     0.046 A 
HETATM   21  O   UNL     1      -4.806  -4.153 -34.149  1.00  0.00    -0.315 OA
HETATM   22  C   UNL     1      -3.321  -3.120 -32.506  1.00  0.00     0.039 A 
HETATM   23  C   UNL     1      -5.814  -3.704 -34.950  1.00  0.00     0.050 A 
HETATM   24  C   UNL     1      -6.446  -4.701 -35.838  1.00  0.00     0.077 C 
HETATM   25  C   UNL     1      -2.986  -1.904 -31.898  1.00  0.00     0.020 A 
ENDBRANCH   2  16
TORSDOF 4
ENDMDL
MODEL 2
REMARK VINA RESULT:      -8.0      0.925      1.410
REMARK  4 active torsions:
REMARK  status: ('A' for Active; 'I' for Inactive)
REMARK    1  A    between atoms: C_2  and  C_3 
REMARK    2  A    between atoms: C_3  and  N_4 
REMARK    3  A    between atoms: C_3  and  C_17 
REMARK       I    between atoms: N_4  and  C_5 
REMARK    4  A    between atoms: C_5  and  C_6 
ROOT
HETATM    1  N   UNL     1      -4.210   2.312 -32.574  1.00  0.00    -0.345 N 
HETATM    2  C   UNL     1      -3.563   1.284 -31.912  1.00  0.00     0.252 C 
HETATM    3  O   UNL     1      -2.818   1.492 -30.959  1.00  0.00    -0.268 OA
HETATM    4  H   UNL     1      -4.975   2.042 -33.182  1.00  0.00     0.163 HD
ENDROOT
BRANCH   1   5
HETATM    5  C   UNL     1      -4.245   3.661 -32.002  1.00  0.00     0.152 C 
BRANCH   5   6
HETATM    6  C   UNL     1      -5.384   4.493 -32.603  1.00  0.00     0.028 C 
HETATM    7  C   UNL     1      -5.895   3.937 -33.926  1.00  0.00     0.007 C 
ENDBRANCH   5   6
BRANCH   5   8
HETATM    8  C   UNL     1      -2.870   4.333 -32.118  1.00  0.00     0.104 A 
HETATM    9  N   UNL     1      -1.933   4.499 -31.168  1.00  0.00    -0.347 N 
HETATM   10  H   UNL     1      -2.036   4.195 -30.203  1.00  0.00     0.167 HD
HETATM   11  C   UNL     1      -0.804   5.139 -31.672  1.00  0.00     0.022 A 
HETATM   12  C   UNL     1       0.385   5.440 -30.859  1.00  0.00     0.069 C 
HETATM   13  C   UNL     1      -1.091   5.383 -32.992  1.00  0.00     0.114 A 
HETATM   14  N   UNL     1      -2.343   4.886 -33.221  1.00  0.00    -0.352 N 
HETATM   15  H   UNL     1      -2.894   4.947 -34.091  1.00  0.00     0.166 HD
ENDBRANCH   5   8
ENDBRANCH   1   5
BRANCH   2  16
HETATM   16  C   UNL     1      -3.853  -0.099 -32.382  1.00  0.00     0.033 A 
HETATM   17  C   UNL     1      -4.906  -0.269 -33.301  1.00  0.00     0.031 A 
HETATM   18  C   UNL     1      -5.155  -1.557 -33.810  1.00  0.00     0.001 A 
HETATM   19  C   UNL     1      -4.366  -2.610 -33.367  1.00  0.00     0.086 A 
HETATM   20  C   UNL     1      -6.065  -2.123 -34.741  1.00  0.00     0.046 A 
HETATM   21  O   UNL     1      -4.736  -3.768 -33.975  1.00  0.00    -0.315 OA
HETATM   22  C   UNL     1      -3.341  -2.484 -32.432  1.00  0.00     0.039 A 
HETATM   23  C   UNL     1      -5.765  -3.468 -34.817  1.00  0.00     0.050 A 
HETATM   24  C   UNL     1      -6.318  -4.585 -35.609  1.00  0.00     0.077 C 
HETATM   25  C   UNL     1      -3.097  -1.196 -31.941  1.00  0.00     0.020 A 
ENDBRANCH   2  16
TORSDOF 4
ENDMDL
MODEL 3
REMARK VINA RESULT:      -7.9      1.213      1.703
REMARK  4 active torsions:
REMARK  status: ('A' for Active; 'I' for Inactive)
REMARK    1  A    between atoms: C_2  and  C_3 
REMARK    2  A    between atoms: C_3  and  N_4 
REMARK    3  A    between atoms: C_3  and  C_17 
REMARK       I    between atoms: N_4  and  C_5 
REMARK    4  A    between atoms: C_5  and  C_6 
ROOT
HETATM    1  N   UNL     1      -4.528   2.495 -31.956  1.00  0.00    -0.345 N 
HETATM    2  C   UNL     1      -4.042   1.200 -31.995  1.00  0.00     0.252 C 
HETATM    3  O   UNL     1      -2.987   0.886 -31.454  1.00  0.00    -0.268 OA
HETATM    4  H   UNL     1      -5.500   2.617 -32.217  1.00  0.00     0.163 HD
ENDROOT
BRANCH   1   5
HETATM    5  C   UNL     1      -3.943   3.483 -31.045  1.00  0.00     0.152 C 
BRANCH   5   6
HETATM    6  C   UNL     1      -5.018   4.404 -30.456  1.00  0.00     0.028 C 
HETATM    7  C   UNL     1      -6.275   3.657 -30.031  1.00  0.00     0.007 C 
ENDBRANCH   5   6
BRANCH   5   8
HETATM    8  C   UNL     1      -2.798   4.241 -31.731  1.00  0.00     0.104 A 
HETATM    9  N   UNL     1      -2.629   4.502 -33.039  1.00  0.00    -0.347 N 
HETATM   10  H   UNL     1      -3.266   4.200 -33.771  1.00  0.00     0.167 HD
HETATM   11  C   UNL     1      -1.469   5.239 -33.265  1.00  0.00     0.022 A 
HETATM   12  C   UNL     1      -1.038   5.679 -34.601  1.00  0.00     0.069 C 
HETATM   13  C   UNL     1      -0.908   5.413 -32.024  1.00  0.00     0.114 A 
HETATM   14  N   UNL     1      -1.735   4.795 -31.128  1.00  0.00    -0.352 N 
HETATM   15  H   UNL     1      -1.591   4.683 -30.114  1.00  0.00     0.166 HD
ENDBRANCH   5   8
ENDBRANCH   1   5
BRANCH   2  16
HETATM   16  C   UNL     1      -4.889   0.191 -32.689  1.00  0.00     0.033 A 
HETATM   17  C   UNL     1      -4.236  -0.856 -33.365  1.00  0.00     0.031 A 
HETATM   18  C   UNL     1      -5.017  -1.857 -33.972  1.00  0.00     0.001 A 
HETATM   19  C   UNL     1      -6.400  -1.757 -33.897  1.00  0.00     0.086 A 
HETATM   20  C   UNL     1      -4.756  -3.052 -34.693  1.00  0.00     0.046 A 
HETATM   21  O   UNL     1      -6.986  -2.814 -34.519  1.00  0.00    -0.315 OA
HETATM   22  C   UNL     1      -7.079  -0.716 -33.269  1.00  0.00     0.039 A 
HETATM   23  C   UNL     1      -5.984  -3.605 -34.996  1.00  0.00     0.050 A 
HETATM   24  C   UNL     1      -6.393  -4.839 -35.697  1.00  0.00     0.077 C 
HETATM   25  C   UNL     1      -6.290   0.269 -32.661  1.00  0.00     0.020 A 
ENDBRANCH   2  16
TORSDOF 4
ENDMDL
MODEL 4
REMARK VINA RESULT:      -7.6      6.320      8.854
REMARK  4 active torsions:
REMARK  status: ('A' for Active; 'I' for Inactive)
REMARK    1  A    between atoms: C_2  and  C_3 
REMARK    2  A    between atoms: C_3  and  N_4 
REMARK    3  A    between atoms: C_3  and  C_17 
REMARK       I    between atoms: N_4  and  C_5 
REMARK    4  A    between atoms: C_5  and  C_6 
ROOT
HETATM    1  N   UNL     1     -11.279   1.236 -33.346  1.00  0.00    -0.345 N 
HETATM    2  C   UNL     1     -10.624   0.096 -32.916  1.00  0.00     0.252 C 
HETATM    3  O   UNL     1     -11.186  -0.993 -32.859  1.00  0.00    -0.268 OA
HETATM    4  H   UNL     1     -10.692   2.027 -33.585  1.00  0.00     0.163 HD
ENDROOT
BRANCH   1   5
HETATM    5  C   UNL     1     -12.585   1.141 -34.003  1.00  0.00     0.152 C 
BRANCH   5   6
HETATM    6  C   UNL     1     -12.518   1.633 -35.454  1.00  0.00     0.028 C 
HETATM    7  C   UNL     1     -12.446   3.150 -35.567  1.00  0.00     0.007 C 
ENDBRANCH   5   6
BRANCH   5   8
HETATM    8  C   UNL     1     -13.663   1.846 -33.169  1.00  0.00     0.104 A 
HETATM    9  N   UNL     1     -15.001   1.771 -33.287  1.00  0.00    -0.347 N 
HETATM   10  H   UNL     1     -15.483   1.218 -33.991  1.00  0.00     0.167 HD
HETATM   11  C   UNL     1     -15.642   2.544 -32.323  1.00  0.00     0.022 A 
HETATM   12  C   UNL     1     -17.105   2.641 -32.206  1.00  0.00     0.069 C 
HETATM   13  C   UNL     1     -14.630   3.126 -31.600  1.00  0.00     0.114 A 
HETATM   14  N   UNL     1     -13.455   2.685 -32.142  1.00  0.00    -0.352 N 
HETATM   15  H   UNL     1     -12.498   2.964 -31.880  1.00  0.00     0.166 HD
ENDBRANCH   5   8
ENDBRANCH   1   5
BRANCH   2  16
HETATM   16  C   UNL     1      -9.184   0.246 -32.569  1.00  0.00     0.033 A 
HETATM   17  C   UNL     1      -8.251  -0.507 -33.306  1.00  0.00     0.031 A 
HETATM   18  C   UNL     1      -6.881  -0.331 -33.040  1.00  0.00     0.001 A 
HETATM   19  C   UNL     1      -6.508   0.561 -32.044  1.00  0.00     0.086 A 
HETATM   20  C   UNL     1      -5.669  -0.855 -33.563  1.00  0.00     0.046 A 
HETATM   21  O   UNL     1      -5.153   0.614 -31.939  1.00  0.00    -0.315 OA
HETATM   22  C   UNL     1      -7.403   1.295 -31.270  1.00  0.00     0.039 A 
HETATM   23  C   UNL     1      -4.645  -0.242 -32.870  1.00  0.00     0.050 A 
HETATM   24  C   UNL     1      -3.173  -0.331 -32.952  1.00  0.00     0.077 C 
HETATM   25  C   UNL     1      -8.764   1.118 -31.552  1.00  0.00     0.020 A 
ENDBRANCH   2  16
TORSDOF 4
ENDMDL
MODEL 5
REMARK VINA RESULT:      -7.5      4.589      6.801
REMARK  4 active torsions:
REMARK  status: ('A' for Active; 'I' for Inactive)
REMARK    1  A    between atoms: C_2  and  C_3 
REMARK    2  A    between atoms: C_3  and  N_4 
REMARK    3  A    between atoms: C_3  and  C_17 
REMARK       I    between atoms: N_4  and  C_5 
REMARK    4  A    between atoms: C_5  and  C_6 
ROOT
HETATM    1  N   UNL     1      -8.849   1.262 -32.768  1.00  0.00    -0.345 N 
HETATM    2  C   UNL     1      -8.008   0.939 -33.818  1.00  0.00     0.252 C 
HETATM    3  O   UNL     1      -8.135   1.442 -34.930  1.00  0.00    -0.268 OA
HETATM    4  H   UNL     1      -8.536   0.989 -31.843  1.00  0.00     0.163 HD
ENDROOT
BRANCH   1   5
HETATM    5  C   UNL     1      -9.753   2.411 -32.864  1.00  0.00     0.152 C 
BRANCH   5   6
HETATM    6  C   UNL     1     -10.010   3.037 -31.488  1.00  0.00     0.028 C 
HETATM    7  C   UNL     1      -8.805   2.950 -30.560  1.00  0.00     0.007 C 
ENDBRANCH   5   6
BRANCH   5   8
HETATM    8  C   UNL     1     -11.038   2.027 -33.610  1.00  0.00     0.104 A 
HETATM    9  N   UNL     1     -12.220   1.636 -33.101  1.00  0.00    -0.347 N 
HETATM   10  H   UNL     1     -12.408   1.528 -32.108  1.00  0.00     0.167 HD
HETATM   11  C   UNL     1     -13.153   1.397 -34.107  1.00  0.00     0.022 A 
HETATM   12  C   UNL     1     -14.536   0.969 -33.841  1.00  0.00     0.069 C 
HETATM   13  C   UNL     1     -12.486   1.644 -35.280  1.00  0.00     0.114 A 
HETATM   14  N   UNL     1     -11.215   2.018 -34.940  1.00  0.00    -0.352 N 
HETATM   15  H   UNL     1     -10.430   2.223 -35.575  1.00  0.00     0.166 HD
ENDBRANCH   5   8
ENDBRANCH   1   5
BRANCH   2  16
HETATM   16  C   UNL     1      -6.907  -0.018 -33.519  1.00  0.00     0.033 A 
HETATM   17  C   UNL     1      -6.858  -1.211 -34.264  1.00  0.00     0.031 A 
HETATM   18  C   UNL     1      -5.789  -2.099 -34.046  1.00  0.00     0.001 A 
HETATM   19  C   UNL     1      -4.839  -1.772 -33.087  1.00  0.00     0.086 A 
HETATM   20  C   UNL     1      -5.373  -3.342 -34.591  1.00  0.00     0.046 A 
HETATM   21  O   UNL     1      -3.877  -2.730 -33.026  1.00  0.00    -0.315 OA
HETATM   22  C   UNL     1      -4.876  -0.618 -32.307  1.00  0.00     0.039 A 
HETATM   23  C   UNL     1      -4.200  -3.681 -33.948  1.00  0.00     0.050 A 
HETATM   24  C   UNL     1      -3.270  -4.823 -34.072  1.00  0.00     0.077 C 
HETATM   25  C   UNL     1      -5.940   0.262 -32.541  1.00  0.00     0.020 A 
ENDBRANCH   2  16
TORSDOF 4
ENDMDL
MODEL 6
REMARK VINA RESULT:      -7.5      2.401      3.881
REMARK  4 active torsions:
REMARK  status: ('A' for Active; 'I' for Inactive)
REMARK    1  A    between atoms: C_2  and  C_3 
REMARK    2  A    between atoms: C_3  and  N_4 
REMARK    3  A    between atoms: C_3  and  C_17 
REMARK       I    between atoms: N_4  and  C_5 
REMARK    4  A    between atoms: C_5  and  C_6 
ROOT
HETATM    1  N   UNL     1      -2.625   4.333 -31.225  1.00  0.00    -0.345 N 
HETATM    2  C   UNL     1      -3.932   3.909 -31.391  1.00  0.00     0.252 C 
HETATM    3  O   UNL     1      -4.882   4.677 -31.282  1.00  0.00    -0.268 OA
HETATM    4  H   UNL     1      -1.904   3.704 -31.560  1.00  0.00     0.163 HD
ENDROOT
BRANCH   1   5
HETATM    5  C   UNL     1      -2.306   5.762 -31.177  1.00  0.00     0.152 C 
BRANCH   5   6
HETATM    6  C   UNL     1      -2.088   6.334 -32.583  1.00  0.00     0.028 C 
HETATM    7  C   UNL     1      -1.272   5.413 -33.481  1.00  0.00     0.007 C 
ENDBRANCH   5   6
BRANCH   5   8
HETATM    8  C   UNL     1      -1.132   6.023 -30.223  1.00  0.00     0.104 A 
HETATM    9  N   UNL     1      -0.661   7.199 -29.772  1.00  0.00    -0.347 N 
HETATM   10  H   UNL     1      -1.037   8.105 -30.035  1.00  0.00     0.167 HD
HETATM   11  C   UNL     1       0.408   7.017 -28.898  1.00  0.00     0.022 A 
HETATM   12  C   UNL     1       1.113   8.130 -28.242  1.00  0.00     0.069 C 
HETATM   13  C   UNL     1       0.595   5.659 -28.838  1.00  0.00     0.114 A 
HETATM   14  N   UNL     1      -0.349   5.095 -29.651  1.00  0.00    -0.352 N 
HETATM   15  H   UNL     1      -0.463   4.098 -29.884  1.00  0.00     0.166 HD
ENDBRANCH   5   8
ENDBRANCH   1   5
BRANCH   2  16
HETATM   16  C   UNL     1      -4.127   2.479 -31.758  1.00  0.00     0.033 A 
HETATM   17  C   UNL     1      -5.183   2.168 -32.634  1.00  0.00     0.031 A 
HETATM   18  C   UNL     1      -5.346   0.833 -33.047  1.00  0.00     0.001 A 
HETATM   19  C   UNL     1      -4.471  -0.126 -32.553  1.00  0.00     0.086 A 
HETATM   20  C   UNL     1      -6.230   0.137 -33.913  1.00  0.00     0.046 A 
HETATM   21  O   UNL     1      -4.765  -1.348 -33.071  1.00  0.00    -0.315 OA
HETATM   22  C   UNL     1      -3.438   0.141 -31.657  1.00  0.00     0.039 A 
HETATM   23  C   UNL     1      -5.831  -1.184 -33.904  1.00  0.00     0.050 A 
HETATM   24  C   UNL     1      -6.316  -2.393 -34.602  1.00  0.00     0.077 C 
HETATM   25  C   UNL     1      -3.281   1.475 -31.262  1.00  0.00     0.020 A 
ENDBRANCH   2  16
TORSDOF 4
ENDMDL
MODEL 7
REMARK VINA RESULT:      -7.3      2.809      7.814
REMARK  4 active torsions:
REMARK  status: ('A' for Active; 'I' for Inactive)
REMARK    1  A    between atoms: C_2  and  C_3 
REMARK    2  A    between atoms: C_3  and  N_4 
REMARK    3  A    between atoms: C_3  and  C_17 
REMARK       I    between atoms: N_4  and  C_5 
REMARK    4  A    between atoms: C_5  and  C_6 
ROOT
HETATM    1  N   UNL     1      -5.279   1.345 -32.740  1.00  0.00    -0.345 N 
HETATM    2  C   UNL     1      -5.626   2.554 -33.315  1.00  0.00     0.252 C 
HETATM    3  O   UNL     1      -6.705   2.721 -33.874  1.00  0.00    -0.268 OA
HETATM    4  H   UNL     1      -4.489   1.360 -32.105  1.00  0.00     0.163 HD
ENDROOT
BRANCH   1   5
HETATM    5  C   UNL     1      -6.286   0.298 -32.541  1.00  0.00     0.152 C 
BRANCH   5   6
HETATM    6  C   UNL     1      -6.549   0.053 -31.051  1.00  0.00     0.028 C 
HETATM    7  C   UNL     1      -5.446   0.598 -30.153  1.00  0.00     0.007 C 
ENDBRANCH   5   6
BRANCH   5   8
HETATM    8  C   UNL     1      -5.905  -0.973 -33.312  1.00  0.00     0.104 A 
HETATM    9  N   UNL     1      -6.713  -1.905 -33.848  1.00  0.00    -0.347 N 
HETATM   10  H   UNL     1      -7.728  -1.884 -33.790  1.00  0.00     0.167 HD
HETATM   11  C   UNL     1      -5.985  -2.902 -34.491  1.00  0.00     0.022 A 
HETATM   12  C   UNL     1      -6.609  -4.043 -35.179  1.00  0.00     0.069 C 
HETATM   13  C   UNL     1      -4.669  -2.553 -34.315  1.00  0.00     0.114 A 
HETATM   14  N   UNL     1      -4.662  -1.389 -33.598  1.00  0.00    -0.352 N 
HETATM   15  H   UNL     1      -3.842  -0.876 -33.241  1.00  0.00     0.166 HD
ENDBRANCH   5   8
ENDBRANCH   1   5
BRANCH   2  16
HETATM   16  C   UNL     1      -4.642   3.663 -33.179  1.00  0.00     0.033 A 
HETATM   17  C   UNL     1      -3.630   3.524 -32.211  1.00  0.00     0.031 A 
HETATM   18  C   UNL     1      -2.650   4.528 -32.110  1.00  0.00     0.001 A 
HETATM   19  C   UNL     1      -2.736   5.627 -32.955  1.00  0.00     0.086 A 
HETATM   20  C   UNL     1      -1.490   4.741 -31.319  1.00  0.00     0.046 A 
HETATM   21  O   UNL     1      -1.702   6.480 -32.730  1.00  0.00    -0.315 OA
HETATM   22  C   UNL     1      -3.743   5.815 -33.899  1.00  0.00     0.039 A 
HETATM   23  C   UNL     1      -0.941   5.935 -31.739  1.00  0.00     0.050 A 
HETATM   24  C   UNL     1       0.265   6.690 -31.341  1.00  0.00     0.077 C 
HETATM   25  C   UNL     1      -4.706   4.803 -33.995  1.00  0.00     0.020 A 
ENDBRANCH   2  16
TORSDOF 4
ENDMDL
MODEL 8
REMARK VINA RESULT:      -7.3      5.647      7.491
REMARK  4 active torsions:
REMARK  status: ('A' for Active; 'I' for Inactive)
REMARK    1  A    between atoms: C_2  and  C_3 
REMARK    2  A    between atoms: C_3  and  N_4 
REMARK    3  A    between atoms: C_3  and  C_17 
REMARK       I    between atoms: N_4  and  C_5 
REMARK    4  A    between atoms: C_5  and  C_6 
ROOT
HETATM    1  N   UNL     1     -10.470   1.508 -34.471  1.00  0.00    -0.345 N 
HETATM    2  C   UNL     1      -9.512   1.604 -33.478  1.00  0.00     0.252 C 
HETATM    3  O   UNL     1      -9.674   2.307 -32.486  1.00  0.00    -0.268 OA
HETATM    4  H   UNL     1     -10.363   0.739 -35.124  1.00  0.00     0.163 HD
ENDROOT
BRANCH   1   5
HETATM    5  C   UNL     1     -11.823   2.027 -34.254  1.00  0.00     0.152 C 
BRANCH   5   6
HETATM    6  C   UNL     1     -12.882   1.099 -34.861  1.00  0.00     0.028 C 
HETATM    7  C   UNL     1     -13.441   0.098 -33.859  1.00  0.00     0.007 C 
ENDBRANCH   5   6
BRANCH   5   8
HETATM    8  C   UNL     1     -11.930   3.478 -34.743  1.00  0.00     0.104 A 
HETATM    9  N   UNL     1     -13.003   4.122 -35.235  1.00  0.00    -0.347 N 
HETATM   10  H   UNL     1     -13.918   3.696 -35.363  1.00  0.00     0.167 HD
HETATM   11  C   UNL     1     -12.704   5.445 -35.548  1.00  0.00     0.022 A 
HETATM   12  C   UNL     1     -13.692   6.390 -36.093  1.00  0.00     0.069 C 
HETATM   13  C   UNL     1     -11.375   5.594 -35.240  1.00  0.00     0.114 A 
HETATM   14  N   UNL     1     -10.944   4.388 -34.761  1.00  0.00    -0.352 N 
HETATM   15  H   UNL     1      -9.985   4.127 -34.487  1.00  0.00     0.166 HD
ENDBRANCH   5   8
ENDBRANCH   1   5
BRANCH   2  16
HETATM   16  C   UNL     1      -8.289   0.772 -33.649  1.00  0.00     0.033 A 
HETATM   17  C   UNL     1      -7.455   0.598 -32.529  1.00  0.00     0.031 A 
HETATM   18  C   UNL     1      -6.329  -0.238 -32.649  1.00  0.00     0.001 A 
HETATM   19  C   UNL     1      -6.077  -0.838 -33.876  1.00  0.00     0.086 A 
HETATM   20  C   UNL     1      -5.297  -0.683 -31.783  1.00  0.00     0.046 A 
HETATM   21  O   UNL     1      -4.966  -1.619 -33.801  1.00  0.00    -0.315 OA
HETATM   22  C   UNL     1      -6.859  -0.659 -35.014  1.00  0.00     0.039 A 
HETATM   23  C   UNL     1      -4.498  -1.529 -32.524  1.00  0.00     0.050 A 
HETATM   24  C   UNL     1      -3.295  -2.324 -32.205  1.00  0.00     0.077 C 
HETATM   25  C   UNL     1      -7.981   0.167 -34.878  1.00  0.00     0.020 A 
ENDBRANCH   2  16
TORSDOF 4
ENDMDL
MODEL 9
REMARK VINA RESULT:      -7.2      4.029      8.211
REMARK  4 active torsions:
REMARK  status: ('A' for Active; 'I' for Inactive)
REMARK    1  A    between atoms: C_2  and  C_3 
REMARK    2  A    between atoms: C_3  and  N_4 
REMARK    3  A    between atoms: C_3  and  C_17 
REMARK       I    between atoms: N_4  and  C_5 
REMARK    4  A    between atoms: C_5  and  C_6 
ROOT
HETATM    1  N   UNL     1      -7.416   1.938 -33.820  1.00  0.00    -0.345 N 
HETATM    2  C   UNL     1      -6.319   1.926 -32.977  1.00  0.00     0.252 C 
HETATM    3  O   UNL     1      -6.111   1.002 -32.196  1.00  0.00    -0.268 OA
HETATM    4  H   UNL     1      -7.387   2.605 -34.583  1.00  0.00     0.163 HD
ENDROOT
BRANCH   1   5
HETATM    5  C   UNL     1      -8.225   0.730 -34.008  1.00  0.00     0.152 C 
BRANCH   5   6
HETATM    6  C   UNL     1      -7.745  -0.081 -35.218  1.00  0.00     0.028 C 
HETATM    7  C   UNL     1      -6.908  -1.292 -34.829  1.00  0.00     0.007 C 
ENDBRANCH   5   6
BRANCH   5   8
HETATM    8  C   UNL     1      -9.718   1.082 -34.061  1.00  0.00     0.104 A 
HETATM    9  N   UNL     1     -10.354   1.921 -34.898  1.00  0.00    -0.347 N 
HETATM   10  H   UNL     1      -9.894   2.463 -35.625  1.00  0.00     0.167 HD
HETATM   11  C   UNL     1     -11.723   1.954 -34.643  1.00  0.00     0.022 A 
HETATM   12  C   UNL     1     -12.669   2.777 -35.413  1.00  0.00     0.069 C 
HETATM   13  C   UNL     1     -11.910   1.100 -33.584  1.00  0.00     0.114 A 
HETATM   14  N   UNL     1     -10.680   0.598 -33.261  1.00  0.00    -0.352 N 
HETATM   15  H   UNL     1     -10.444  -0.031 -32.480  1.00  0.00     0.166 HD
ENDBRANCH   5   8
ENDBRANCH   1   5
BRANCH   2  16
HETATM   16  C   UNL     1      -5.375   3.070 -33.096  1.00  0.00     0.033 A 
HETATM   17  C   UNL     1      -4.292   3.120 -32.198  1.00  0.00     0.031 A 
HETATM   18  C   UNL     1      -3.350   4.156 -32.334  1.00  0.00     0.001 A 
HETATM   19  C   UNL     1      -3.541   5.099 -33.335  1.00  0.00     0.086 A 
HETATM   20  C   UNL     1      -2.147   4.528 -31.679  1.00  0.00     0.046 A 
HETATM   21  O   UNL     1      -2.529   6.008 -33.329  1.00  0.00    -0.315 OA
HETATM   22  C   UNL     1      -4.619   5.102 -34.217  1.00  0.00     0.039 A 
HETATM   23  C   UNL     1      -1.678   5.654 -32.325  1.00  0.00     0.050 A 
HETATM   24  C   UNL     1      -0.480   6.499 -32.146  1.00  0.00     0.077 C 
HETATM   25  C   UNL     1      -5.544   4.060 -34.077  1.00  0.00     0.020 A 
ENDBRANCH   2  16
TORSDOF 4
ENDMDL
MODEL 10
REMARK VINA RESULT:      -7.1     14.952     16.320
REMARK  4 active torsions:
REMARK  status: ('A' for Active; 'I' for Inactive)
REMARK    1  A    between atoms: C_2  and  C_3 
REMARK    2  A    between atoms: C_3  and  N_4 
REMARK    3  A    between atoms: C_3  and  C_17 
REMARK       I    between atoms: N_4  and  C_5 
REMARK    4  A    between atoms: C_5  and  C_6 
ROOT
HETATM    1  N   UNL     1      -2.929 -13.493 -38.328  1.00  0.00    -0.345 N 
HETATM    2  C   UNL     1      -3.997 -12.803 -37.783  1.00  0.00     0.252 C 
HETATM    3  O   UNL     1      -3.926 -12.258 -36.686  1.00  0.00    -0.268 OA
HETATM    4  H   UNL     1      -2.991 -13.705 -39.317  1.00  0.00     0.163 HD
ENDROOT
BRANCH   1   5
HETATM    5  C   UNL     1      -1.590 -13.376 -37.744  1.00  0.00     0.152 C 
BRANCH   5   6
HETATM    6  C   UNL     1      -0.510 -13.309 -38.830  1.00  0.00     0.028 C 
HETATM    7  C   UNL     1      -0.976 -13.866 -40.169  1.00  0.00     0.007 C 
ENDBRANCH   5   6
BRANCH   5   8
HETATM    8  C   UNL     1      -1.351 -14.488 -36.713  1.00  0.00     0.104 A 
HETATM    9  N   UNL     1      -0.608 -15.602 -36.835  1.00  0.00    -0.347 N 
HETATM   10  H   UNL     1      -0.101 -15.862 -37.677  1.00  0.00     0.167 HD
HETATM   11  C   UNL     1      -0.622 -16.355 -35.664  1.00  0.00     0.022 A 
HETATM   12  C   UNL     1       0.115 -17.619 -35.507  1.00  0.00     0.069 C 
HETATM   13  C   UNL     1      -1.432 -15.659 -34.801  1.00  0.00     0.114 A 
HETATM   14  N   UNL     1      -1.854 -14.543 -35.470  1.00  0.00    -0.352 N 
HETATM   15  H   UNL     1      -2.517 -13.827 -35.140  1.00  0.00     0.166 HD
ENDBRANCH   5   8
ENDBRANCH   1   5
BRANCH   2  16
HETATM   16  C   UNL     1      -5.227 -12.713 -38.616  1.00  0.00     0.033 A 
HETATM   17  C   UNL     1      -6.429 -13.195 -38.063  1.00  0.00     0.031 A 
HETATM   18  C   UNL     1      -7.615 -13.059 -38.806  1.00  0.00     0.001 A 
HETATM   19  C   UNL     1      -7.548 -12.476 -40.065  1.00  0.00     0.086 A 
HETATM   20  C   UNL     1      -8.985 -13.374 -38.600  1.00  0.00     0.046 A 
HETATM   21  O   UNL     1      -8.785 -12.412 -40.624  1.00  0.00    -0.315 OA
HETATM   22  C   UNL     1      -6.372 -12.022 -40.658  1.00  0.00     0.039 A 
HETATM   23  C   UNL     1      -9.659 -12.952 -39.728  1.00  0.00     0.050 A 
HETATM   24  C   UNL     1     -11.083 -12.968 -40.122  1.00  0.00     0.077 C 
HETATM   25  C   UNL     1      -5.200 -12.154 -39.904  1.00  0.00     0.020 A 
ENDBRANCH   2  16
TORSDOF 4
ENDMDL
