MODEL 1
REMARK VINA RESULT:      -9.8      0.000      0.000
REMARK  9 active torsions:
REMARK  status: ('A' for Active; 'I' for Inactive)
REMARK    1  A    between atoms: C_2  and  C_3 
REMARK    2  A    between atoms: C_3  and  C_4 
REMARK       I    between atoms: C_4  and  N_6 
REMARK    3  A    between atoms: N_6  and  C_7 
REMARK    4  A    between atoms: C_11  and  C_13 
REMARK    5  A    between atoms: C_15  and  N_16 
REMARK    6  A    between atoms: N_16  and  C_17 
REMARK    7  A    between atoms: C_29  and  O_30 
REMARK    8  A    between atoms: O_30  and  C_31 
REMARK    9  A    between atoms: C_31  and  C_32 
ROOT
HETATM    1  C   UNL     1      -4.957   4.356 -33.047  1.00  0.00     0.162 A 
HETATM    2  N   UNL     1      -5.011   3.117 -32.542  1.00  0.00    -0.210 NA
HETATM    3  C   UNL     1      -6.213   2.522 -32.458  1.00  0.00     0.143 A 
HETATM    4  C   UNL     1      -7.384   3.155 -32.902  1.00  0.00     0.041 A 
HETATM    5  C   UNL     1      -8.683   2.586 -32.872  1.00  0.00     0.054 A 
HETATM    6  C   UNL     1      -9.791   3.280 -33.355  1.00  0.00     0.069 A 
HETATM    7  C   UNL     1      -9.613   4.568 -33.840  1.00  0.00     0.039 A 
HETATM    8  C   UNL     1      -8.334   5.138 -33.852  1.00  0.00     0.035 A 
HETATM    9  C   UNL     1      -7.214   4.453 -33.398  1.00  0.00     0.073 A 
HETATM   10  N   UNL     1      -6.023   5.058 -33.461  1.00  0.00    -0.228 NA
ENDROOT
BRANCH   1  11
HETATM   11  C   UNL     1      -3.623   4.959 -33.198  1.00  0.00     0.014 A 
HETATM   12  C   UNL     1      -3.063   5.150 -34.474  1.00  0.00     0.015 A 
HETATM   13  C   UNL     1      -1.810   5.740 -34.632  1.00  0.00     0.003 A 
HETATM   14  C   UNL     1      -1.079   6.139 -33.513  1.00  0.00     0.029 A 
HETATM   15  C   UNL     1      -1.593   5.948 -32.230  1.00  0.00     0.035 A 
HETATM   16  C   UNL     1      -2.863   5.368 -32.084  1.00  0.00     0.044 A 
BRANCH  15  17
HETATM   17  N   UNL     1      -0.889   6.275 -31.052  1.00  0.00    -0.327 N 
HETATM   18  C   UNL     1       0.071   5.511 -30.410  1.00  0.00     0.222 C 
HETATM   19  O   UNL     1       0.555   4.456 -30.803  1.00  0.00    -0.273 OA
HETATM   20  H   UNL     1      -1.106   7.174 -30.642  1.00  0.00     0.169 HD
BRANCH  18  21
HETATM   21  C   UNL     1       0.477   6.088 -29.067  1.00  0.00     0.103 C 
BRANCH  21  22
HETATM   22  C   UNL     1       0.350   7.607 -29.086  1.00  0.00     0.005 C 
HETATM   23  C   UNL     1       1.253   8.259 -28.053  1.00  0.00     0.005 C 
ENDBRANCH  21  22
ENDBRANCH  18  21
ENDBRANCH  15  17
ENDBRANCH   1  11
BRANCH   3  24
HETATM   24  N   UNL     1      -6.285   1.207 -31.927  1.00  0.00    -0.340 N 
HETATM   25  H   UNL     1      -7.173   1.085 -31.453  1.00  0.00     0.167 HD
BRANCH  24  26
HETATM   26  C   UNL     1      -5.835   0.015 -32.544  1.00  0.00     0.034 A 
HETATM   27  C   UNL     1      -4.488  -0.360 -32.414  1.00  0.00     0.032 A 
HETATM   28  C   UNL     1      -3.966  -1.503 -33.040  1.00  0.00     0.034 A 
HETATM   29  C   UNL     1      -4.843  -2.248 -33.830  1.00  0.00     0.062 A 
HETATM   30  N   UNL     1      -4.668  -3.390 -34.568  1.00  0.00    -0.278 N 
HETATM   31  C   UNL     1      -6.173  -1.896 -34.013  1.00  0.00     0.013 A 
HETATM   32  H   UNL     1      -3.821  -3.934 -34.671  1.00  0.00     0.189 HD
HETATM   33  N   UNL     1      -5.772  -3.798 -35.221  1.00  0.00    -0.186 NA
HETATM   34  C   UNL     1      -6.687  -2.886 -34.879  1.00  0.00     0.152 A 
HETATM   35  C   UNL     1      -6.675  -0.748 -33.374  1.00  0.00     0.044 A 
ENDBRANCH  24  26
ENDBRANCH   3  24
BRANCH   6  36
HETATM   36  O   UNL     1     -10.969   2.593 -33.294  1.00  0.00    -0.351 OA
BRANCH  36  37
HETATM   37  C   UNL     1     -11.061   1.388 -34.054  1.00  0.00     0.180 C 
BRANCH  37  38
HETATM   38  C   UNL     1     -12.494   1.202 -34.452  1.00  0.00     0.010 A 
HETATM   39  C   UNL     1     -13.326   0.106 -33.835  1.00  0.00     0.007 A 
HETATM   40  C   UNL     1     -13.606   1.545 -33.494  1.00  0.00     0.007 A 
ENDBRANCH  37  38
ENDBRANCH  36  37
ENDBRANCH   6  36
TORSDOF 9
ENDMDL
MODEL 2
REMARK VINA RESULT:      -9.7      1.656      8.901
REMARK  9 active torsions:
REMARK  status: ('A' for Active; 'I' for Inactive)
REMARK    1  A    between atoms: C_2  and  C_3 
REMARK    2  A    between atoms: C_3  and  C_4 
REMARK       I    between atoms: C_4  and  N_6 
REMARK    3  A    between atoms: N_6  and  C_7 
REMARK    4  A    between atoms: C_11  and  C_13 
REMARK    5  A    between atoms: C_15  and  N_16 
REMARK    6  A    between atoms: N_16  and  C_17 
REMARK    7  A    between atoms: C_29  and  O_30 
REMARK    8  A    between atoms: O_30  and  C_31 
REMARK    9  A    between atoms: C_31  and  C_32 
ROOT
HETATM    1  C   UNL     1      -7.122   3.890 -33.571  1.00  0.00     0.162 A 
HETATM    2  N   UNL     1      -6.778   2.850 -32.800  1.00  0.00    -0.210 NA
HETATM    3  C   UNL     1      -5.497   2.751 -32.407  1.00  0.00     0.143 A 
HETATM    4  C   UNL     1      -4.539   3.712 -32.765  1.00  0.00     0.041 A 
HETATM    5  C   UNL     1      -3.176   3.694 -32.370  1.00  0.00     0.054 A 
HETATM    6  C   UNL     1      -2.295   4.704 -32.755  1.00  0.00     0.069 A 
HETATM    7  C   UNL     1      -2.764   5.724 -33.571  1.00  0.00     0.039 A 
HETATM    8  C   UNL     1      -4.105   5.732 -33.977  1.00  0.00     0.035 A 
HETATM    9  C   UNL     1      -5.003   4.748 -33.584  1.00  0.00     0.073 A 
HETATM   10  N   UNL     1      -6.272   4.837 -33.997  1.00  0.00    -0.228 NA
ENDROOT
BRANCH   1  11
HETATM   11  C   UNL     1      -8.543   4.017 -33.927  1.00  0.00     0.014 A 
HETATM   12  C   UNL     1      -9.055   5.233 -34.414  1.00  0.00     0.015 A 
HETATM   13  C   UNL     1     -10.394   5.361 -34.776  1.00  0.00     0.003 A 
HETATM   14  C   UNL     1     -11.261   4.276 -34.643  1.00  0.00     0.029 A 
HETATM   15  C   UNL     1     -10.796   3.059 -34.144  1.00  0.00     0.035 A 
HETATM   16  C   UNL     1      -9.440   2.938 -33.798  1.00  0.00     0.044 A 
BRANCH  15  17
HETATM   17  N   UNL     1     -11.623   1.937 -33.929  1.00  0.00    -0.327 N 
HETATM   18  C   UNL     1     -12.537   1.388 -34.814  1.00  0.00     0.222 C 
HETATM   19  O   UNL     1     -12.720   1.717 -35.981  1.00  0.00    -0.273 OA
HETATM   20  H   UNL     1     -11.526   1.480 -33.031  1.00  0.00     0.169 HD
BRANCH  18  21
HETATM   21  C   UNL     1     -13.387   0.304 -34.180  1.00  0.00     0.103 C 
BRANCH  21  22
HETATM   22  C   UNL     1     -14.859   0.705 -34.207  1.00  0.00     0.005 C 
HETATM   23  C   UNL     1     -15.202   1.656 -33.074  1.00  0.00     0.005 C 
ENDBRANCH  21  22
ENDBRANCH  18  21
ENDBRANCH  15  17
ENDBRANCH   1  11
BRANCH   3  24
HETATM   24  N   UNL     1      -5.119   1.656 -31.588  1.00  0.00    -0.340 N 
HETATM   25  H   UNL     1      -5.695   1.646 -30.753  1.00  0.00     0.167 HD
BRANCH  24  26
HETATM   26  C   UNL     1      -4.772   0.351 -32.017  1.00  0.00     0.034 A 
HETATM   27  C   UNL     1      -3.676  -0.298 -31.425  1.00  0.00     0.032 A 
HETATM   28  C   UNL     1      -3.249  -1.570 -31.836  1.00  0.00     0.034 A 
HETATM   29  C   UNL     1      -3.947  -2.161 -32.891  1.00  0.00     0.062 A 
HETATM   30  N   UNL     1      -3.796  -3.364 -33.530  1.00  0.00    -0.278 N 
HETATM   31  C   UNL     1      -5.014  -1.542 -33.527  1.00  0.00     0.013 A 
HETATM   32  H   UNL     1      -3.115  -4.086 -33.333  1.00  0.00     0.189 HD
HETATM   33  N   UNL     1      -4.671  -3.569 -34.533  1.00  0.00    -0.186 NA
HETATM   34  C   UNL     1      -5.412  -2.457 -34.527  1.00  0.00     0.152 A 
HETATM   35  C   UNL     1      -5.426  -0.268 -33.097  1.00  0.00     0.044 A 
ENDBRANCH  24  26
ENDBRANCH   3  24
BRANCH   6  36
HETATM   36  O   UNL     1      -1.025   4.572 -32.272  1.00  0.00    -0.351 OA
BRANCH  36  37
HETATM   37  C   UNL     1      -0.831   4.809 -30.878  1.00  0.00     0.180 C 
BRANCH  37  38
HETATM   38  C   UNL     1      -0.643   6.283 -30.681  1.00  0.00     0.010 A 
HETATM   39  C   UNL     1       0.470   6.805 -29.809  1.00  0.00     0.007 A 
HETATM   40  C   UNL     1       0.533   6.993 -31.300  1.00  0.00     0.007 A 
ENDBRANCH  37  38
ENDBRANCH  36  37
ENDBRANCH   6  36
TORSDOF 9
ENDMDL
MODEL 3
REMARK VINA RESULT:      -9.7      2.706      5.568
REMARK  9 active torsions:
REMARK  status: ('A' for Active; 'I' for Inactive)
REMARK    1  A    between atoms: C_2  and  C_3 
REMARK    2  A    between atoms: C_3  and  C_4 
REMARK       I    between atoms: C_4  and  N_6 
REMARK    3  A    between atoms: N_6  and  C_7 
REMARK    4  A    between atoms: C_11  and  C_13 
REMARK    5  A    between atoms: C_15  and  N_16 
REMARK    6  A    between atoms: N_16  and  C_17 
REMARK    7  A    between atoms: C_29  and  O_30 
REMARK    8  A    between atoms: O_30  and  C_31 
REMARK    9  A    between atoms: C_31  and  C_32 
ROOT
HETATM    1  C   UNL     1      -4.451   2.864 -32.199  1.00  0.00     0.162 A 
HETATM    2  N   UNL     1      -5.466   2.532 -33.007  1.00  0.00    -0.210 NA
HETATM    3  C   UNL     1      -5.590   1.243 -33.368  1.00  0.00     0.143 A 
HETATM    4  C   UNL     1      -4.705   0.258 -32.904  1.00  0.00     0.041 A 
HETATM    5  C   UNL     1      -4.783  -1.124 -33.216  1.00  0.00     0.054 A 
HETATM    6  C   UNL     1      -3.872  -2.039 -32.692  1.00  0.00     0.069 A 
HETATM    7  C   UNL     1      -2.849  -1.573 -31.878  1.00  0.00     0.039 A 
HETATM    8  C   UNL     1      -2.761  -0.206 -31.584  1.00  0.00     0.035 A 
HETATM    9  C   UNL     1      -3.673   0.718 -32.077  1.00  0.00     0.073 A 
HETATM   10  N   UNL     1      -3.533   2.003 -31.735  1.00  0.00    -0.228 NA
ENDROOT
BRANCH   1  11
HETATM   11  C   UNL     1      -4.380   4.266 -31.758  1.00  0.00     0.014 A 
HETATM   12  C   UNL     1      -5.472   5.133 -31.942  1.00  0.00     0.015 A 
HETATM   13  C   UNL     1      -5.425   6.456 -31.509  1.00  0.00     0.003 A 
HETATM   14  C   UNL     1      -4.275   6.950 -30.894  1.00  0.00     0.029 A 
HETATM   15  C   UNL     1      -3.163   6.127 -30.713  1.00  0.00     0.035 A 
HETATM   16  C   UNL     1      -3.228   4.791 -31.139  1.00  0.00     0.044 A 
BRANCH  15  17
HETATM   17  N   UNL     1      -1.948   6.572 -30.151  1.00  0.00    -0.327 N 
HETATM   18  C   UNL     1      -0.782   6.896 -30.826  1.00  0.00     0.222 C 
HETATM   19  O   UNL     1      -0.626   6.952 -32.040  1.00  0.00    -0.273 OA
HETATM   20  H   UNL     1      -1.936   6.673 -29.145  1.00  0.00     0.169 HD
BRANCH  18  21
HETATM   21  C   UNL     1       0.384   7.151 -29.890  1.00  0.00     0.103 C 
BRANCH  21  22
HETATM   22  C   UNL     1       0.101   6.549 -28.518  1.00  0.00     0.005 C 
HETATM   23  C   UNL     1       1.037   7.104 -27.458  1.00  0.00     0.005 C 
ENDBRANCH  21  22
ENDBRANCH  18  21
ENDBRANCH  15  17
ENDBRANCH   1  11
BRANCH   3  24
HETATM   24  N   UNL     1      -6.663   0.876 -34.222  1.00  0.00    -0.340 N 
HETATM   25  H   UNL     1      -6.396   0.062 -34.764  1.00  0.00     0.167 HD
BRANCH  24  26
HETATM   26  C   UNL     1      -8.043   0.885 -33.906  1.00  0.00     0.034 A 
HETATM   27  C   UNL     1      -8.568  -0.131 -33.090  1.00  0.00     0.032 A 
HETATM   28  C   UNL     1      -9.934  -0.210 -32.779  1.00  0.00     0.034 A 
HETATM   29  C   UNL     1     -10.768   0.758 -33.342  1.00  0.00     0.062 A 
HETATM   30  N   UNL     1     -12.119   0.968 -33.252  1.00  0.00    -0.278 N 
HETATM   31  C   UNL     1     -10.298   1.759 -34.180  1.00  0.00     0.013 A 
HETATM   32  H   UNL     1     -12.793   0.431 -32.722  1.00  0.00     0.189 HD
HETATM   33  N   UNL     1     -12.562   2.016 -33.971  1.00  0.00    -0.186 NA
HETATM   34  C   UNL     1     -11.449   2.496 -34.534  1.00  0.00     0.152 A 
HETATM   35  C   UNL     1      -8.925   1.820 -34.477  1.00  0.00     0.044 A 
ENDBRANCH  24  26
ENDBRANCH   3  24
BRANCH   6  36
HETATM   36  O   UNL     1      -4.092  -3.338 -33.052  1.00  0.00    -0.351 OA
BRANCH  36  37
HETATM   37  C   UNL     1      -4.378  -3.592 -34.427  1.00  0.00     0.180 C 
BRANCH  37  38
HETATM   38  C   UNL     1      -5.572  -4.497 -34.490  1.00  0.00     0.010 A 
HETATM   39  C   UNL     1      -6.960  -3.928 -34.638  1.00  0.00     0.007 A 
HETATM   40  C   UNL     1      -6.329  -4.676 -35.781  1.00  0.00     0.007 A 
ENDBRANCH  37  38
ENDBRANCH  36  37
ENDBRANCH   6  36
TORSDOF 9
ENDMDL
MODEL 4
REMARK VINA RESULT:      -9.6      2.190      8.728
REMARK  9 active torsions:
REMARK  status: ('A' for Active; 'I' for Inactive)
REMARK    1  A    between atoms: C_2  and  C_3 
REMARK    2  A    between atoms: C_3  and  C_4 
REMARK       I    between atoms: C_4  and  N_6 
REMARK    3  A    between atoms: N_6  and  C_7 
REMARK    4  A    between atoms: C_11  and  C_13 
REMARK    5  A    between atoms: C_15  and  N_16 
REMARK    6  A    between atoms: N_16  and  C_17 
REMARK    7  A    between atoms: C_29  and  O_30 
REMARK    8  A    between atoms: O_30  and  C_31 
REMARK    9  A    between atoms: C_31  and  C_32 
ROOT
HETATM    1  C   UNL     1      -6.860   1.701 -32.861  1.00  0.00     0.162 A 
HETATM    2  N   UNL     1      -5.981   0.692 -32.804  1.00  0.00    -0.210 NA
HETATM    3  C   UNL     1      -4.704   0.983 -32.503  1.00  0.00     0.143 A 
HETATM    4  C   UNL     1      -4.290   2.296 -32.230  1.00  0.00     0.041 A 
HETATM    5  C   UNL     1      -2.971   2.681 -31.879  1.00  0.00     0.054 A 
HETATM    6  C   UNL     1      -2.651   4.009 -31.603  1.00  0.00     0.069 A 
HETATM    7  C   UNL     1      -3.644   4.972 -31.712  1.00  0.00     0.039 A 
HETATM    8  C   UNL     1      -4.943   4.595 -32.077  1.00  0.00     0.035 A 
HETATM    9  C   UNL     1      -5.287   3.274 -32.332  1.00  0.00     0.073 A 
HETATM   10  N   UNL     1      -6.553   2.992 -32.656  1.00  0.00    -0.228 NA
ENDROOT
BRANCH   1  11
HETATM   11  C   UNL     1      -8.265   1.351 -33.120  1.00  0.00     0.014 A 
HETATM   12  C   UNL     1      -8.821   0.176 -32.584  1.00  0.00     0.015 A 
HETATM   13  C   UNL     1     -10.156  -0.157 -32.803  1.00  0.00     0.003 A 
HETATM   14  C   UNL     1     -10.965   0.673 -33.579  1.00  0.00     0.029 A 
HETATM   15  C   UNL     1     -10.444   1.836 -34.145  1.00  0.00     0.035 A 
HETATM   16  C   UNL     1      -9.102   2.169 -33.904  1.00  0.00     0.044 A 
BRANCH  15  17
HETATM   17  N   UNL     1     -11.185   2.693 -34.986  1.00  0.00    -0.327 N 
HETATM   18  C   UNL     1     -11.814   3.875 -34.633  1.00  0.00     0.222 C 
HETATM   19  O   UNL     1     -11.758   4.443 -33.548  1.00  0.00    -0.273 OA
HETATM   20  H   UNL     1     -11.250   2.414 -35.957  1.00  0.00     0.169 HD
BRANCH  18  21
HETATM   21  C   UNL     1     -12.676   4.436 -35.748  1.00  0.00     0.103 C 
BRANCH  21  22
HETATM   22  C   UNL     1     -13.179   5.827 -35.377  1.00  0.00     0.005 C 
HETATM   23  C   UNL     1     -13.744   6.559 -36.582  1.00  0.00     0.005 C 
ENDBRANCH  21  22
ENDBRANCH  18  21
ENDBRANCH  15  17
ENDBRANCH   1  11
BRANCH   3  24
HETATM   24  N   UNL     1      -3.763  -0.077 -32.436  1.00  0.00    -0.340 N 
HETATM   25  H   UNL     1      -3.224   0.006 -31.581  1.00  0.00     0.167 HD
BRANCH  24  26
HETATM   26  C   UNL     1      -3.972  -1.426 -32.811  1.00  0.00     0.034 A 
HETATM   27  C   UNL     1      -3.223  -2.437 -32.188  1.00  0.00     0.032 A 
HETATM   28  C   UNL     1      -3.345  -3.789 -32.546  1.00  0.00     0.034 A 
HETATM   29  C   UNL     1      -4.233  -4.091 -33.580  1.00  0.00     0.062 A 
HETATM   30  N   UNL     1      -4.584  -5.277 -34.170  1.00  0.00    -0.278 N 
HETATM   31  C   UNL     1      -4.969  -3.121 -34.247  1.00  0.00     0.013 A 
HETATM   32  H   UNL     1      -4.247  -6.203 -33.941  1.00  0.00     0.189 HD
HETATM   33  N   UNL     1      -5.478  -5.152 -35.169  1.00  0.00    -0.186 NA
HETATM   34  C   UNL     1      -5.711  -3.837 -35.212  1.00  0.00     0.152 A 
HETATM   35  C   UNL     1      -4.832  -1.773 -33.869  1.00  0.00     0.044 A 
ENDBRANCH  24  26
ENDBRANCH   3  24
BRANCH   6  36
HETATM   36  O   UNL     1      -1.351   4.224 -31.246  1.00  0.00    -0.351 OA
BRANCH  36  37
HETATM   37  C   UNL     1      -0.650   5.262 -31.930  1.00  0.00     0.180 C 
BRANCH  37  38
HETATM   38  C   UNL     1       0.471   5.722 -31.048  1.00  0.00     0.010 A 
HETATM   39  C   UNL     1       0.321   6.954 -30.194  1.00  0.00     0.007 A 
HETATM   40  C   UNL     1       0.368   5.595 -29.550  1.00  0.00     0.007 A 
ENDBRANCH  37  38
ENDBRANCH  36  37
ENDBRANCH   6  36
TORSDOF 9
ENDMDL
MODEL 5
REMARK VINA RESULT:      -9.5      3.022      9.537
REMARK  9 active torsions:
REMARK  status: ('A' for Active; 'I' for Inactive)
REMARK    1  A    between atoms: C_2  and  C_3 
REMARK    2  A    between atoms: C_3  and  C_4 
REMARK       I    between atoms: C_4  and  N_6 
REMARK    3  A    between atoms: N_6  and  C_7 
REMARK    4  A    between atoms: C_11  and  C_13 
REMARK    5  A    between atoms: C_15  and  N_16 
REMARK    6  A    between atoms: N_16  and  C_17 
REMARK    7  A    between atoms: C_29  and  O_30 
REMARK    8  A    between atoms: O_30  and  C_31 
REMARK    9  A    between atoms: C_31  and  C_32 
ROOT
HETATM    1  C   UNL     1      -9.149   2.353 -33.910  1.00  0.00     0.162 A 
HETATM    2  N   UNL     1      -8.275   2.925 -33.072  1.00  0.00    -0.210 NA
HETATM    3  C   UNL     1      -7.109   2.296 -32.848  1.00  0.00     0.143 A 
HETATM    4  C   UNL     1      -6.790   1.085 -33.482  1.00  0.00     0.041 A 
HETATM    5  C   UNL     1      -5.573   0.374 -33.320  1.00  0.00     0.054 A 
HETATM    6  C   UNL     1      -5.330  -0.814 -34.008  1.00  0.00     0.069 A 
HETATM    7  C   UNL     1      -6.320  -1.321 -34.837  1.00  0.00     0.039 A 
HETATM    8  C   UNL     1      -7.529  -0.628 -34.983  1.00  0.00     0.035 A 
HETATM    9  C   UNL     1      -7.781   0.569 -34.326  1.00  0.00     0.073 A 
HETATM   10  N   UNL     1      -8.952   1.180 -34.532  1.00  0.00    -0.228 NA
ENDROOT
BRANCH   1  11
HETATM   11  C   UNL     1     -10.385   3.096 -34.196  1.00  0.00     0.014 A 
HETATM   12  C   UNL     1     -10.347   4.301 -34.921  1.00  0.00     0.015 A 
HETATM   13  C   UNL     1     -11.513   5.003 -35.219  1.00  0.00     0.003 A 
HETATM   14  C   UNL     1     -12.748   4.523 -34.783  1.00  0.00     0.029 A 
HETATM   15  C   UNL     1     -12.825   3.343 -34.044  1.00  0.00     0.035 A 
HETATM   16  C   UNL     1     -11.645   2.635 -33.765  1.00  0.00     0.044 A 
BRANCH  15  17
HETATM   17  N   UNL     1     -14.031   2.826 -33.524  1.00  0.00    -0.327 N 
HETATM   18  C   UNL     1     -14.480   2.905 -32.216  1.00  0.00     0.222 C 
HETATM   19  O   UNL     1     -13.959   3.524 -31.295  1.00  0.00    -0.273 OA
HETATM   20  H   UNL     1     -14.634   2.357 -34.187  1.00  0.00     0.169 HD
BRANCH  18  21
HETATM   21  C   UNL     1     -15.726   2.075 -31.974  1.00  0.00     0.103 C 
BRANCH  21  22
HETATM   22  C   UNL     1     -16.931   2.725 -32.645  1.00  0.00     0.005 C 
HETATM   23  C   UNL     1     -17.961   3.182 -31.626  1.00  0.00     0.005 C 
ENDBRANCH  21  22
ENDBRANCH  18  21
ENDBRANCH  15  17
ENDBRANCH   1  11
BRANCH   3  24
HETATM   24  N   UNL     1      -6.173   2.893 -31.964  1.00  0.00    -0.340 N 
HETATM   25  H   UNL     1      -6.163   2.381 -31.089  1.00  0.00     0.167 HD
BRANCH  24  26
HETATM   26  C   UNL     1      -4.898   3.411 -32.298  1.00  0.00     0.034 A 
HETATM   27  C   UNL     1      -3.853   3.322 -31.363  1.00  0.00     0.032 A 
HETATM   28  C   UNL     1      -2.580   3.858 -31.611  1.00  0.00     0.034 A 
HETATM   29  C   UNL     1      -2.397   4.516 -32.828  1.00  0.00     0.062 A 
HETATM   30  N   UNL     1      -1.308   5.143 -33.376  1.00  0.00    -0.278 N 
HETATM   31  C   UNL     1      -3.409   4.657 -33.767  1.00  0.00     0.013 A 
HETATM   32  H   UNL     1      -0.385   5.240 -32.974  1.00  0.00     0.189 HD
HETATM   33  N   UNL     1      -1.537   5.686 -34.586  1.00  0.00    -0.186 NA
HETATM   34  C   UNL     1      -2.818   5.386 -34.821  1.00  0.00     0.152 A 
HETATM   35  C   UNL     1      -4.677   4.109 -33.498  1.00  0.00     0.044 A 
ENDBRANCH  24  26
ENDBRANCH   3  24
BRANCH   6  36
HETATM   36  O   UNL     1      -4.103  -1.368 -33.779  1.00  0.00    -0.351 OA
BRANCH  36  37
HETATM   37  C   UNL     1      -4.068  -2.595 -33.049  1.00  0.00     0.180 C 
BRANCH  37  38
HETATM   38  C   UNL     1      -3.830  -3.706 -34.026  1.00  0.00     0.010 A 
HETATM   39  C   UNL     1      -3.729  -5.134 -33.554  1.00  0.00     0.007 A 
HETATM   40  C   UNL     1      -4.926  -4.688 -34.350  1.00  0.00     0.007 A 
ENDBRANCH  37  38
ENDBRANCH  36  37
ENDBRANCH   6  36
TORSDOF 9
ENDMDL
MODEL 6
REMARK VINA RESULT:      -9.4      3.094      9.019
REMARK  9 active torsions:
REMARK  status: ('A' for Active; 'I' for Inactive)
REMARK    1  A    between atoms: C_2  and  C_3 
REMARK    2  A    between atoms: C_3  and  C_4 
REMARK       I    between atoms: C_4  and  N_6 
REMARK    3  A    between atoms: N_6  and  C_7 
REMARK    4  A    between atoms: C_11  and  C_13 
REMARK    5  A    between atoms: C_15  and  N_16 
REMARK    6  A    between atoms: N_16  and  C_17 
REMARK    7  A    between atoms: C_29  and  O_30 
REMARK    8  A    between atoms: O_30  and  C_31 
REMARK    9  A    between atoms: C_31  and  C_32 
ROOT
HETATM    1  C   UNL     1      -9.882   1.751 -32.984  1.00  0.00     0.162 A 
HETATM    2  N   UNL     1      -9.051   1.161 -33.853  1.00  0.00    -0.210 NA
HETATM    3  C   UNL     1      -7.731   1.236 -33.615  1.00  0.00     0.143 A 
HETATM    4  C   UNL     1      -7.221   1.889 -32.482  1.00  0.00     0.041 A 
HETATM    5  C   UNL     1      -5.846   1.989 -32.147  1.00  0.00     0.054 A 
HETATM    6  C   UNL     1      -5.427   2.640 -30.987  1.00  0.00     0.069 A 
HETATM    7  C   UNL     1      -6.381   3.230 -30.171  1.00  0.00     0.039 A 
HETATM    8  C   UNL     1      -7.738   3.147 -30.512  1.00  0.00     0.035 A 
HETATM    9  C   UNL     1      -8.177   2.483 -31.650  1.00  0.00     0.073 A 
HETATM   10  N   UNL     1      -9.489   2.430 -31.896  1.00  0.00    -0.228 NA
ENDROOT
BRANCH   1  11
HETATM   11  C   UNL     1     -11.324   1.592 -33.225  1.00  0.00     0.014 A 
HETATM   12  C   UNL     1     -11.855   0.347 -33.609  1.00  0.00     0.015 A 
HETATM   13  C   UNL     1     -13.222   0.178 -33.819  1.00  0.00     0.003 A 
HETATM   14  C   UNL     1     -14.092   1.258 -33.665  1.00  0.00     0.029 A 
HETATM   15  C   UNL     1     -13.601   2.513 -33.306  1.00  0.00     0.035 A 
HETATM   16  C   UNL     1     -12.224   2.667 -33.081  1.00  0.00     0.044 A 
BRANCH  15  17
HETATM   17  N   UNL     1     -14.411   3.662 -33.187  1.00  0.00    -0.327 N 
HETATM   18  C   UNL     1     -14.708   4.361 -32.029  1.00  0.00     0.222 C 
HETATM   19  O   UNL     1     -14.240   4.168 -30.912  1.00  0.00    -0.273 OA
HETATM   20  H   UNL     1     -14.807   4.015 -34.048  1.00  0.00     0.169 HD
BRANCH  18  21
HETATM   21  C   UNL     1     -15.761   5.430 -32.244  1.00  0.00     0.103 C 
BRANCH  21  22
HETATM   22  C   UNL     1     -16.098   6.113 -30.923  1.00  0.00     0.005 C 
HETATM   23  C   UNL     1     -17.538   5.858 -30.510  1.00  0.00     0.005 C 
ENDBRANCH  21  22
ENDBRANCH  18  21
ENDBRANCH  15  17
ENDBRANCH   1  11
BRANCH   3  24
HETATM   24  N   UNL     1      -6.839   0.613 -34.527  1.00  0.00    -0.340 N 
HETATM   25  H   UNL     1      -6.182   1.301 -34.878  1.00  0.00     0.167 HD
BRANCH  24  26
HETATM   26  C   UNL     1      -6.256  -0.672 -34.404  1.00  0.00     0.034 A 
HETATM   27  C   UNL     1      -4.964  -0.793 -33.867  1.00  0.00     0.032 A 
HETATM   28  C   UNL     1      -4.310  -2.030 -33.762  1.00  0.00     0.034 A 
HETATM   29  C   UNL     1      -4.991  -3.148 -34.245  1.00  0.00     0.062 A 
HETATM   30  N   UNL     1      -4.652  -4.475 -34.300  1.00  0.00    -0.278 N 
HETATM   31  C   UNL     1      -6.255  -3.072 -34.814  1.00  0.00     0.013 A 
HETATM   32  H   UNL     1      -3.797  -4.908 -33.974  1.00  0.00     0.189 HD
HETATM   33  N   UNL     1      -5.587  -5.259 -34.868  1.00  0.00    -0.186 NA
HETATM   34  C   UNL     1      -6.563  -4.401 -35.178  1.00  0.00     0.152 A 
HETATM   35  C   UNL     1      -6.892  -1.822 -34.906  1.00  0.00     0.044 A 
ENDBRANCH  24  26
ENDBRANCH   3  24
BRANCH   6  36
HETATM   36  O   UNL     1      -4.078   2.627 -30.777  1.00  0.00    -0.351 OA
BRANCH  36  37
HETATM   37  C   UNL     1      -3.240   2.619 -31.932  1.00  0.00     0.180 C 
BRANCH  37  38
HETATM   38  C   UNL     1      -2.742   4.015 -32.152  1.00  0.00     0.010 A 
HETATM   39  C   UNL     1      -2.156   4.421 -33.480  1.00  0.00     0.007 A 
HETATM   40  C   UNL     1      -3.493   4.962 -33.052  1.00  0.00     0.007 A 
ENDBRANCH  37  38
ENDBRANCH  36  37
ENDBRANCH   6  36
TORSDOF 9
ENDMDL
MODEL 7
REMARK VINA RESULT:      -9.2      1.772      2.446
REMARK  9 active torsions:
REMARK  status: ('A' for Active; 'I' for Inactive)
REMARK    1  A    between atoms: C_2  and  C_3 
REMARK    2  A    between atoms: C_3  and  C_4 
REMARK       I    between atoms: C_4  and  N_6 
REMARK    3  A    between atoms: N_6  and  C_7 
REMARK    4  A    between atoms: C_11  and  C_13 
REMARK    5  A    between atoms: C_15  and  N_16 
REMARK    6  A    between atoms: N_16  and  C_17 
REMARK    7  A    between atoms: C_29  and  O_30 
REMARK    8  A    between atoms: O_30  and  C_31 
REMARK    9  A    between atoms: C_31  and  C_32 
ROOT
HETATM    1  C   UNL     1      -6.586   4.451 -33.822  1.00  0.00     0.162 A 
HETATM    2  N   UNL     1      -6.692   3.150 -33.519  1.00  0.00    -0.210 NA
HETATM    3  C   UNL     1      -7.910   2.587 -33.572  1.00  0.00     0.143 A 
HETATM    4  C   UNL     1      -9.046   3.318 -33.954  1.00  0.00     0.041 A 
HETATM    5  C   UNL     1     -10.359   2.791 -34.060  1.00  0.00     0.054 A 
HETATM    6  C   UNL     1     -11.429   3.585 -34.470  1.00  0.00     0.069 A 
HETATM    7  C   UNL     1     -11.200   4.927 -34.741  1.00  0.00     0.039 A 
HETATM    8  C   UNL     1      -9.907   5.452 -34.618  1.00  0.00     0.035 A 
HETATM    9  C   UNL     1      -8.824   4.671 -34.235  1.00  0.00     0.073 A 
HETATM   10  N   UNL     1      -7.617   5.241 -34.160  1.00  0.00    -0.228 NA
ENDROOT
BRANCH   1  11
HETATM   11  C   UNL     1      -5.233   5.028 -33.828  1.00  0.00     0.014 A 
HETATM   12  C   UNL     1      -4.388   4.862 -34.941  1.00  0.00     0.015 A 
HETATM   13  C   UNL     1      -3.112   5.422 -34.969  1.00  0.00     0.003 A 
HETATM   14  C   UNL     1      -2.644   6.150 -33.875  1.00  0.00     0.029 A 
HETATM   15  C   UNL     1      -3.445   6.318 -32.746  1.00  0.00     0.035 A 
HETATM   16  C   UNL     1      -4.734   5.763 -32.736  1.00  0.00     0.044 A 
BRANCH  15  17
HETATM   17  N   UNL     1      -3.019   6.993 -31.582  1.00  0.00    -0.327 N 
HETATM   18  C   UNL     1      -2.253   8.145 -31.514  1.00  0.00     0.222 C 
HETATM   19  O   UNL     1      -1.890   8.844 -32.453  1.00  0.00    -0.273 OA
HETATM   20  H   UNL     1      -3.319   6.591 -30.703  1.00  0.00     0.169 HD
BRANCH  18  21
HETATM   21  C   UNL     1      -1.825   8.481 -30.098  1.00  0.00     0.103 C 
BRANCH  21  22
HETATM   22  C   UNL     1      -1.187   7.264 -29.437  1.00  0.00     0.005 C 
HETATM   23  C   UNL     1       0.309   7.450 -29.246  1.00  0.00     0.005 C 
ENDBRANCH  21  22
ENDBRANCH  18  21
ENDBRANCH  15  17
ENDBRANCH   1  11
BRANCH   3  24
HETATM   24  N   UNL     1      -8.037   1.209 -33.255  1.00  0.00    -0.340 N 
HETATM   25  H   UNL     1      -8.969   0.892 -33.501  1.00  0.00     0.167 HD
BRANCH  24  26
HETATM   26  C   UNL     1      -7.060   0.200 -33.439  1.00  0.00     0.034 A 
HETATM   27  C   UNL     1      -7.175  -0.677 -34.530  1.00  0.00     0.032 A 
HETATM   28  C   UNL     1      -6.270  -1.728 -34.743  1.00  0.00     0.034 A 
HETATM   29  C   UNL     1      -5.253  -1.888 -33.800  1.00  0.00     0.062 A 
HETATM   30  N   UNL     1      -4.227  -2.791 -33.702  1.00  0.00    -0.278 N 
HETATM   31  C   UNL     1      -5.121  -1.066 -32.690  1.00  0.00     0.013 A 
HETATM   32  H   UNL     1      -4.006  -3.546 -34.340  1.00  0.00     0.189 HD
HETATM   33  N   UNL     1      -3.450  -2.628 -32.615  1.00  0.00    -0.186 NA
HETATM   34  C   UNL     1      -3.997  -1.574 -32.001  1.00  0.00     0.152 A 
HETATM   35  C   UNL     1      -6.038  -0.017 -32.498  1.00  0.00     0.044 A 
ENDBRANCH  24  26
ENDBRANCH   3  24
BRANCH   6  36
HETATM   36  O   UNL     1     -12.626   2.934 -34.559  1.00  0.00    -0.351 OA
BRANCH  36  37
HETATM   37  C   UNL     1     -13.064   2.217 -33.406  1.00  0.00     0.180 C 
BRANCH  37  38
HETATM   38  C   UNL     1     -14.260   2.928 -32.847  1.00  0.00     0.010 A 
HETATM   39  C   UNL     1     -15.192   2.227 -31.891  1.00  0.00     0.007 A 
HETATM   40  C   UNL     1     -14.300   3.333 -31.396  1.00  0.00     0.007 A 
ENDBRANCH  37  38
ENDBRANCH  36  37
ENDBRANCH   6  36
TORSDOF 9
ENDMDL
MODEL 8
REMARK VINA RESULT:      -9.0      3.506      5.945
REMARK  9 active torsions:
REMARK  status: ('A' for Active; 'I' for Inactive)
REMARK    1  A    between atoms: C_2  and  C_3 
REMARK    2  A    between atoms: C_3  and  C_4 
REMARK       I    between atoms: C_4  and  N_6 
REMARK    3  A    between atoms: N_6  and  C_7 
REMARK    4  A    between atoms: C_11  and  C_13 
REMARK    5  A    between atoms: C_15  and  N_16 
REMARK    6  A    between atoms: N_16  and  C_17 
REMARK    7  A    between atoms: C_29  and  O_30 
REMARK    8  A    between atoms: O_30  and  C_31 
REMARK    9  A    between atoms: C_31  and  C_32 
ROOT
HETATM    1  C   UNL     1      -5.022   3.251 -32.068  1.00  0.00     0.162 A 
HETATM    2  N   UNL     1      -5.986   2.859 -32.910  1.00  0.00    -0.210 NA
HETATM    3  C   UNL     1      -5.975   1.585 -33.334  1.00  0.00     0.143 A 
HETATM    4  C   UNL     1      -5.003   0.670 -32.900  1.00  0.00     0.041 A 
HETATM    5  C   UNL     1      -4.939  -0.696 -33.279  1.00  0.00     0.054 A 
HETATM    6  C   UNL     1      -3.948  -1.541 -32.781  1.00  0.00     0.069 A 
HETATM    7  C   UNL     1      -2.989  -1.017 -31.927  1.00  0.00     0.039 A 
HETATM    8  C   UNL     1      -3.042   0.336 -31.566  1.00  0.00     0.035 A 
HETATM    9  C   UNL     1      -4.035   1.189 -32.032  1.00  0.00     0.073 A 
HETATM   10  N   UNL     1      -4.028   2.463 -31.627  1.00  0.00    -0.228 NA
ENDROOT
BRANCH   1  11
HETATM   11  C   UNL     1      -5.096   4.629 -31.559  1.00  0.00     0.014 A 
HETATM   12  C   UNL     1      -5.733   5.636 -32.307  1.00  0.00     0.015 A 
HETATM   13  C   UNL     1      -5.830   6.940 -31.827  1.00  0.00     0.003 A 
HETATM   14  C   UNL     1      -5.277   7.273 -30.591  1.00  0.00     0.029 A 
HETATM   15  C   UNL     1      -4.620   6.307 -29.829  1.00  0.00     0.035 A 
HETATM   16  C   UNL     1      -4.543   4.993 -30.316  1.00  0.00     0.044 A 
BRANCH  15  17
HETATM   17  N   UNL     1      -3.989   6.582 -28.597  1.00  0.00    -0.327 N 
HETATM   18  C   UNL     1      -4.587   6.669 -27.351  1.00  0.00     0.222 C 
HETATM   19  O   UNL     1      -5.756   6.426 -27.077  1.00  0.00    -0.273 OA
HETATM   20  H   UNL     1      -2.987   6.718 -28.634  1.00  0.00     0.169 HD
BRANCH  18  21
HETATM   21  C   UNL     1      -3.636   7.168 -26.280  1.00  0.00     0.103 C 
BRANCH  21  22
HETATM   22  C   UNL     1      -4.175   8.446 -25.648  1.00  0.00     0.005 C 
HETATM   23  C   UNL     1      -4.166   9.605 -26.630  1.00  0.00     0.005 C 
ENDBRANCH  21  22
ENDBRANCH  18  21
ENDBRANCH  15  17
ENDBRANCH   1  11
BRANCH   3  24
HETATM   24  N   UNL     1      -6.993   1.155 -34.225  1.00  0.00    -0.340 N 
HETATM   25  H   UNL     1      -6.634   0.410 -34.811  1.00  0.00     0.167 HD
BRANCH  24  26
HETATM   26  C   UNL     1      -8.369   0.994 -33.932  1.00  0.00     0.034 A 
HETATM   27  C   UNL     1      -8.766  -0.006 -33.029  1.00  0.00     0.032 A 
HETATM   28  C   UNL     1     -10.115  -0.252 -32.731  1.00  0.00     0.034 A 
HETATM   29  C   UNL     1     -11.063   0.529 -33.396  1.00  0.00     0.062 A 
HETATM   30  N   UNL     1     -12.432   0.549 -33.346  1.00  0.00    -0.278 N 
HETATM   31  C   UNL     1     -10.717   1.505 -34.320  1.00  0.00     0.013 A 
HETATM   32  H   UNL     1     -13.038  -0.028 -32.777  1.00  0.00     0.189 HD
HETATM   33  N   UNL     1     -13.000   1.451 -34.169  1.00  0.00    -0.186 NA
HETATM   34  C   UNL     1     -11.951   2.032 -34.760  1.00  0.00     0.152 A 
HETATM   35  C   UNL     1      -9.359   1.735 -34.602  1.00  0.00     0.044 A 
ENDBRANCH  24  26
ENDBRANCH   3  24
BRANCH   6  36
HETATM   36  O   UNL     1      -4.032  -2.836 -33.207  1.00  0.00    -0.351 OA
BRANCH  36  37
HETATM   37  C   UNL     1      -4.527  -3.056 -34.528  1.00  0.00     0.180 C 
BRANCH  37  38
HETATM   38  C   UNL     1      -5.525  -4.172 -34.467  1.00  0.00     0.010 A 
HETATM   39  C   UNL     1      -7.002  -3.888 -34.570  1.00  0.00     0.007 A 
HETATM   40  C   UNL     1      -6.289  -4.583 -35.699  1.00  0.00     0.007 A 
ENDBRANCH  37  38
ENDBRANCH  36  37
ENDBRANCH   6  36
TORSDOF 9
ENDMDL
MODEL 9
REMARK VINA RESULT:      -8.9      3.361      6.072
REMARK  9 active torsions:
REMARK  status: ('A' for Active; 'I' for Inactive)
REMARK    1  A    between atoms: C_2  and  C_3 
REMARK    2  A    between atoms: C_3  and  C_4 
REMARK       I    between atoms: C_4  and  N_6 
REMARK    3  A    between atoms: N_6  and  C_7 
REMARK    4  A    between atoms: C_11  and  C_13 
REMARK    5  A    between atoms: C_15  and  N_16 
REMARK    6  A    between atoms: N_16  and  C_17 
REMARK    7  A    between atoms: C_29  and  O_30 
REMARK    8  A    between atoms: O_30  and  C_31 
REMARK    9  A    between atoms: C_31  and  C_32 
ROOT
HETATM    1  C   UNL     1      -6.252   3.039 -30.625  1.00  0.00     0.162 A 
HETATM    2  N   UNL     1      -7.405   2.431 -30.932  1.00  0.00    -0.210 NA
HETATM    3  C   UNL     1      -7.353   1.326 -31.694  1.00  0.00     0.143 A 
HETATM    4  C   UNL     1      -6.134   0.796 -32.144  1.00  0.00     0.041 A 
HETATM    5  C   UNL     1      -5.993  -0.379 -32.927  1.00  0.00     0.054 A 
HETATM    6  C   UNL     1      -4.738  -0.848 -33.313  1.00  0.00     0.069 A 
HETATM    7  C   UNL     1      -3.613  -0.122 -32.949  1.00  0.00     0.039 A 
HETATM    8  C   UNL     1      -3.753   1.048 -32.191  1.00  0.00     0.035 A 
HETATM    9  C   UNL     1      -4.992   1.518 -31.776  1.00  0.00     0.073 A 
HETATM   10  N   UNL     1      -5.042   2.632 -31.039  1.00  0.00    -0.228 NA
ENDROOT
BRANCH   1  11
HETATM   11  C   UNL     1      -6.327   4.204 -29.729  1.00  0.00     0.014 A 
HETATM   12  C   UNL     1      -7.570   4.682 -29.277  1.00  0.00     0.015 A 
HETATM   13  C   UNL     1      -7.655   5.770 -28.411  1.00  0.00     0.003 A 
HETATM   14  C   UNL     1      -6.495   6.419 -27.989  1.00  0.00     0.029 A 
HETATM   15  C   UNL     1      -5.244   5.987 -28.431  1.00  0.00     0.035 A 
HETATM   16  C   UNL     1      -5.171   4.879 -29.290  1.00  0.00     0.044 A 
BRANCH  15  17
HETATM   17  N   UNL     1      -4.033   6.626 -28.091  1.00  0.00    -0.327 N 
HETATM   18  C   UNL     1      -3.090   7.150 -28.959  1.00  0.00     0.222 C 
HETATM   19  O   UNL     1      -3.183   7.243 -30.178  1.00  0.00    -0.273 OA
HETATM   20  H   UNL     1      -3.844   6.718 -27.101  1.00  0.00     0.169 HD
BRANCH  18  21
HETATM   21  C   UNL     1      -1.824   7.591 -28.251  1.00  0.00     0.103 C 
BRANCH  21  22
HETATM   22  C   UNL     1      -1.698   6.884 -26.905  1.00  0.00     0.005 C 
HETATM   23  C   UNL     1      -0.332   6.242 -26.735  1.00  0.00     0.005 C 
ENDBRANCH  21  22
ENDBRANCH  18  21
ENDBRANCH  15  17
ENDBRANCH   1  11
BRANCH   3  24
HETATM   24  N   UNL     1      -8.568   0.670 -32.025  1.00  0.00    -0.340 N 
HETATM   25  H   UNL     1      -8.965   0.258 -31.189  1.00  0.00     0.167 HD
BRANCH  24  26
HETATM   26  C   UNL     1      -9.561   1.124 -32.926  1.00  0.00     0.034 A 
HETATM   27  C   UNL     1      -9.336   2.298 -33.663  1.00  0.00     0.032 A 
HETATM   28  C   UNL     1     -10.298   2.829 -34.536  1.00  0.00     0.034 A 
HETATM   29  C   UNL     1     -11.515   2.151 -34.625  1.00  0.00     0.062 A 
HETATM   30  N   UNL     1     -12.647   2.392 -35.358  1.00  0.00    -0.278 N 
HETATM   31  C   UNL     1     -11.793   1.007 -33.890  1.00  0.00     0.013 A 
HETATM   32  H   UNL     1     -12.810   3.146 -36.013  1.00  0.00     0.189 HD
HETATM   33  N   UNL     1     -13.637   1.504 -35.151  1.00  0.00    -0.186 NA
HETATM   34  C   UNL     1     -13.112   0.661 -34.257  1.00  0.00     0.152 A 
HETATM   35  C   UNL     1     -10.814   0.491 -33.023  1.00  0.00     0.044 A 
ENDBRANCH  24  26
ENDBRANCH   3  24
BRANCH   6  36
HETATM   36  O   UNL     1      -4.756  -2.007 -34.034  1.00  0.00    -0.351 OA
BRANCH  36  37
HETATM   37  C   UNL     1      -5.911  -2.259 -34.833  1.00  0.00     0.180 C 
BRANCH  37  38
HETATM   38  C   UNL     1      -6.364  -3.662 -34.561  1.00  0.00     0.010 A 
HETATM   39  C   UNL     1      -6.364  -4.695 -35.658  1.00  0.00     0.007 A 
HETATM   40  C   UNL     1      -5.371  -4.795 -34.532  1.00  0.00     0.007 A 
ENDBRANCH  37  38
ENDBRANCH  36  37
ENDBRANCH   6  36
TORSDOF 9
ENDMDL
MODEL 10
REMARK VINA RESULT:      -8.6      1.825      2.574
REMARK  9 active torsions:
REMARK  status: ('A' for Active; 'I' for Inactive)
REMARK    1  A    between atoms: C_2  and  C_3 
REMARK    2  A    between atoms: C_3  and  C_4 
REMARK       I    between atoms: C_4  and  N_6 
REMARK    3  A    between atoms: N_6  and  C_7 
REMARK    4  A    between atoms: C_11  and  C_13 
REMARK    5  A    between atoms: C_15  and  N_16 
REMARK    6  A    between atoms: N_16  and  C_17 
REMARK    7  A    between atoms: C_29  and  O_30 
REMARK    8  A    between atoms: O_30  and  C_31 
REMARK    9  A    between atoms: C_31  and  C_32 
ROOT
HETATM    1  C   UNL     1      -7.195   4.224 -31.247  1.00  0.00     0.162 A 
HETATM    2  N   UNL     1      -7.055   2.910 -31.025  1.00  0.00    -0.210 NA
HETATM    3  C   UNL     1      -7.921   2.074 -31.620  1.00  0.00     0.143 A 
HETATM    4  C   UNL     1      -8.934   2.542 -32.472  1.00  0.00     0.041 A 
HETATM    5  C   UNL     1      -9.869   1.724 -33.157  1.00  0.00     0.054 A 
HETATM    6  C   UNL     1     -10.831   2.273 -34.003  1.00  0.00     0.069 A 
HETATM    7  C   UNL     1     -10.891   3.652 -34.141  1.00  0.00     0.039 A 
HETATM    8  C   UNL     1      -9.980   4.462 -33.449  1.00  0.00     0.035 A 
HETATM    9  C   UNL     1      -8.998   3.932 -32.621  1.00  0.00     0.073 A 
HETATM   10  N   UNL     1      -8.153   4.770 -32.011  1.00  0.00    -0.228 NA
ENDROOT
BRANCH   1  11
HETATM   11  C   UNL     1      -6.191   5.114 -30.644  1.00  0.00     0.014 A 
HETATM   12  C   UNL     1      -6.510   5.898 -29.521  1.00  0.00     0.015 A 
HETATM   13  C   UNL     1      -5.562   6.729 -28.927  1.00  0.00     0.003 A 
HETATM   14  C   UNL     1      -4.273   6.808 -29.454  1.00  0.00     0.029 A 
HETATM   15  C   UNL     1      -3.925   6.062 -30.580  1.00  0.00     0.035 A 
HETATM   16  C   UNL     1      -4.884   5.216 -31.159  1.00  0.00     0.044 A 
BRANCH  15  17
HETATM   17  N   UNL     1      -2.661   6.132 -31.201  1.00  0.00    -0.327 N 
HETATM   18  C   UNL     1      -1.791   5.084 -31.452  1.00  0.00     0.222 C 
HETATM   19  O   UNL     1      -2.005   3.891 -31.271  1.00  0.00    -0.273 OA
HETATM   20  H   UNL     1      -2.367   7.052 -31.505  1.00  0.00     0.169 HD
BRANCH  18  21
HETATM   21  C   UNL     1      -0.442   5.552 -31.962  1.00  0.00     0.103 C 
BRANCH  21  22
HETATM   22  C   UNL     1       0.556   5.639 -30.812  1.00  0.00     0.005 C 
HETATM   23  C   UNL     1       0.558   7.017 -30.173  1.00  0.00     0.005 C 
ENDBRANCH  21  22
ENDBRANCH  18  21
ENDBRANCH  15  17
ENDBRANCH   1  11
BRANCH   3  24
HETATM   24  N   UNL     1      -7.783   0.679 -31.396  1.00  0.00    -0.340 N 
HETATM   25  H   UNL     1      -8.701   0.264 -31.283  1.00  0.00     0.167 HD
BRANCH  24  26
HETATM   26  C   UNL     1      -6.871  -0.199 -32.031  1.00  0.00     0.034 A 
HETATM   27  C   UNL     1      -5.566  -0.318 -31.524  1.00  0.00     0.032 A 
HETATM   28  C   UNL     1      -4.599  -1.132 -32.133  1.00  0.00     0.034 A 
HETATM   29  C   UNL     1      -4.980  -1.807 -33.295  1.00  0.00     0.062 A 
HETATM   30  N   UNL     1      -4.300  -2.660 -34.124  1.00  0.00    -0.278 N 
HETATM   31  C   UNL     1      -6.247  -1.692 -33.849  1.00  0.00     0.013 A 
HETATM   32  H   UNL     1      -3.343  -2.978 -34.033  1.00  0.00     0.189 HD
HETATM   33  N   UNL     1      -5.019  -3.097 -35.174  1.00  0.00    -0.186 NA
HETATM   34  C   UNL     1      -6.206  -2.507 -35.002  1.00  0.00     0.152 A 
HETATM   35  C   UNL     1      -7.201  -0.873 -33.220  1.00  0.00     0.044 A 
ENDBRANCH  24  26
ENDBRANCH   3  24
BRANCH   6  36
HETATM   36  O   UNL     1     -11.639   1.362 -34.621  1.00  0.00    -0.351 OA
BRANCH  36  37
HETATM   37  C   UNL     1     -12.673   0.770 -33.835  1.00  0.00     0.180 C 
BRANCH  37  38
HETATM   38  C   UNL     1     -13.958   1.470 -34.160  1.00  0.00     0.010 A 
HETATM   39  C   UNL     1     -15.230   0.686 -34.361  1.00  0.00     0.007 A 
HETATM   40  C   UNL     1     -15.064   1.550 -33.140  1.00  0.00     0.007 A 
ENDBRANCH  37  38
ENDBRANCH  36  37
ENDBRANCH   6  36
TORSDOF 9
ENDMDL
