MODEL 1
REMARK VINA RESULT:      -8.5      0.000      0.000
REMARK  6 active torsions:
REMARK  status: ('A' for Active; 'I' for Inactive)
REMARK    1  A    between atoms: C_3  and  N_4 
REMARK       I    between atoms: N_4  and  C_5 
REMARK    2  A    between atoms: C_5  and  C_6 
REMARK    3  A    between atoms: C_6  and  N_7 
REMARK    4  A    between atoms: N_7  and  C_9 
REMARK    5  A    between atoms: C_9  and  C_10 
REMARK    6  A    between atoms: C_18  and  O_19 
ROOT
HETATM    1  N   UNL     1      -4.164   1.878 -32.373  1.00  0.00    -0.063 N 
HETATM    2  H   UNL     1      -4.572   1.652 -33.294  1.00  0.00     0.280 HD
HETATM    3  C   UNL     1      -3.107   2.911 -32.614  1.00  0.00     0.270 C 
ENDROOT
BRANCH   1   4
HETATM    4  C   UNL     1      -3.569   0.548 -31.894  1.00  0.00     0.337 C 
BRANCH   4   5
HETATM    5  C   UNL     1      -4.450  -0.655 -32.241  1.00  0.00     0.248 C 
HETATM    6  N   UNL     1      -4.161  -1.235 -33.464  1.00  0.00    -0.325 N 
HETATM    7  H   UNL     1      -3.731  -0.638 -34.162  1.00  0.00     0.169 HD
HETATM    8  O   UNL     1      -5.352  -0.983 -31.473  1.00  0.00    -0.271 OA
BRANCH   6   9
HETATM    9  C   UNL     1      -4.888  -2.334 -33.996  1.00  0.00     0.046 A 
HETATM   10  C   UNL     1      -4.410  -3.638 -33.721  1.00  0.00    -0.035 A 
HETATM   11  C   UNL     1      -3.178  -3.900 -32.897  1.00  0.00     0.050 C 
HETATM   12  C   UNL     1      -5.090  -4.747 -34.251  1.00  0.00     0.009 A 
HETATM   13  C   UNL     1      -6.221  -4.578 -35.039  1.00  0.00     0.001 A 
HETATM   14  C   UNL     1      -6.712  -3.299 -35.277  1.00  0.00     0.009 A 
HETATM   15  C   UNL     1      -6.078  -2.166 -34.736  1.00  0.00    -0.035 A 
HETATM   16  C   UNL     1      -6.760  -0.843 -34.954  1.00  0.00     0.050 C 
ENDBRANCH   6   9
ENDBRANCH   4   5
ENDBRANCH   1   4
BRANCH   1  17
HETATM   17  C   UNL     1      -5.368   2.398 -31.594  1.00  0.00     0.276 C 
BRANCH  17  18
HETATM   18  C   UNL     1      -6.694   2.412 -32.293  1.00  0.00     0.009 A 
HETATM   19  C   UNL     1      -7.076   3.395 -33.195  1.00  0.00     0.134 A 
HETATM   20 CL   UNL     1      -6.058   4.713 -33.628  1.00  0.00    -0.062 Cl
HETATM   21  N   UNL     1      -8.259   3.433 -33.834  1.00  0.00    -0.235 NA
HETATM   22  C   UNL     1      -9.128   2.431 -33.633  1.00  0.00     0.071 A 
HETATM   23  C   UNL     1      -8.844   1.362 -32.762  1.00  0.00    -0.006 A 
HETATM   24  C   UNL     1     -10.341   2.429 -34.307  1.00  0.00     0.069 A 
HETATM   25  C   UNL     1      -7.611   1.371 -32.090  1.00  0.00     0.026 A 
HETATM   26  C   UNL     1      -9.776   0.326 -32.593  1.00  0.00     0.016 A 
HETATM   27  C   UNL     1     -10.988   0.344 -33.289  1.00  0.00     0.038 A 
HETATM   28  C   UNL     1     -11.273   1.396 -34.154  1.00  0.00     0.070 A 
BRANCH  28  29
HETATM   29  O   UNL     1     -12.409   1.539 -34.899  1.00  0.00    -0.356 OA
HETATM   30  C   UNL     1     -13.546   0.781 -34.502  1.00  0.00     0.210 C 
ENDBRANCH  28  29
ENDBRANCH  17  18
ENDBRANCH   1  17
TORSDOF 6
ENDMDL
MODEL 2
REMARK VINA RESULT:      -8.5      1.968      6.821
REMARK  6 active torsions:
REMARK  status: ('A' for Active; 'I' for Inactive)
REMARK    1  A    between atoms: C_3  and  N_4 
REMARK       I    between atoms: N_4  and  C_5 
REMARK    2  A    between atoms: C_5  and  C_6 
REMARK    3  A    between atoms: C_6  and  N_7 
REMARK    4  A    between atoms: N_7  and  C_9 
REMARK    5  A    between atoms: C_9  and  C_10 
REMARK    6  A    between atoms: C_18  and  O_19 
ROOT
HETATM    1  N   UNL     1      -7.176   3.415 -31.888  1.00  0.00    -0.063 N 
HETATM    2  H   UNL     1      -7.553   2.467 -31.736  1.00  0.00     0.280 HD
HETATM    3  C   UNL     1      -6.704   3.908 -30.555  1.00  0.00     0.270 C 
ENDROOT
BRANCH   1   4
HETATM    4  C   UNL     1      -8.378   4.216 -32.404  1.00  0.00     0.337 C 
BRANCH   4   5
HETATM    5  C   UNL     1      -9.676   3.403 -32.403  1.00  0.00     0.248 C 
HETATM    6  N   UNL     1      -9.935   2.747 -33.594  1.00  0.00    -0.325 N 
HETATM    7  H   UNL     1      -9.526   3.146 -34.433  1.00  0.00     0.169 HD
HETATM    8  O   UNL     1     -10.399   3.425 -31.410  1.00  0.00    -0.271 OA
BRANCH   6   9
HETATM    9  C   UNL     1     -11.106   1.975 -33.819  1.00  0.00     0.046 A 
HETATM   10  C   UNL     1     -12.171   2.578 -34.530  1.00  0.00    -0.035 A 
HETATM   11  C   UNL     1     -12.109   3.990 -35.051  1.00  0.00     0.050 C 
HETATM   12  C   UNL     1     -13.353   1.853 -34.748  1.00  0.00     0.009 A 
HETATM   13  C   UNL     1     -13.487   0.553 -34.276  1.00  0.00     0.001 A 
HETATM   14  C   UNL     1     -12.427  -0.053 -33.611  1.00  0.00     0.009 A 
HETATM   15  C   UNL     1     -11.216   0.630 -33.402  1.00  0.00    -0.035 A 
HETATM   16  C   UNL     1     -10.095  -0.159 -32.781  1.00  0.00     0.050 C 
ENDBRANCH   6   9
ENDBRANCH   4   5
ENDBRANCH   1   4
BRANCH   1  17
HETATM   17  C   UNL     1      -6.050   3.168 -32.888  1.00  0.00     0.276 C 
BRANCH  17  18
HETATM   18  C   UNL     1      -5.610   1.751 -33.102  1.00  0.00     0.009 A 
HETATM   19  C   UNL     1      -4.447   1.220 -32.561  1.00  0.00     0.134 A 
HETATM   20 CL   UNL     1      -3.377   2.128 -31.567  1.00  0.00    -0.062 Cl
HETATM   21  N   UNL     1      -4.027  -0.046 -32.739  1.00  0.00    -0.235 NA
HETATM   22  C   UNL     1      -4.800  -0.884 -33.448  1.00  0.00     0.071 A 
HETATM   23  C   UNL     1      -6.015  -0.469 -34.023  1.00  0.00    -0.006 A 
HETATM   24  C   UNL     1      -4.406  -2.204 -33.616  1.00  0.00     0.069 A 
HETATM   25  C   UNL     1      -6.407   0.867 -33.841  1.00  0.00     0.026 A 
HETATM   26  C   UNL     1      -6.800  -1.384 -34.744  1.00  0.00     0.016 A 
HETATM   27  C   UNL     1      -6.385  -2.709 -34.893  1.00  0.00     0.038 A 
HETATM   28  C   UNL     1      -5.186  -3.126 -34.323  1.00  0.00     0.070 A 
BRANCH  28  29
HETATM   29  O   UNL     1      -4.662  -4.386 -34.383  1.00  0.00    -0.356 OA
HETATM   30  C   UNL     1      -3.488  -4.639 -33.620  1.00  0.00     0.210 C 
ENDBRANCH  28  29
ENDBRANCH  17  18
ENDBRANCH   1  17
TORSDOF 6
ENDMDL
MODEL 3
REMARK VINA RESULT:      -8.5      2.370      6.132
REMARK  6 active torsions:
REMARK  status: ('A' for Active; 'I' for Inactive)
REMARK    1  A    between atoms: C_3  and  N_4 
REMARK       I    between atoms: N_4  and  C_5 
REMARK    2  A    between atoms: C_5  and  C_6 
REMARK    3  A    between atoms: C_6  and  N_7 
REMARK    4  A    between atoms: N_7  and  C_9 
REMARK    5  A    between atoms: C_9  and  C_10 
REMARK    6  A    between atoms: C_18  and  O_19 
ROOT
HETATM    1  N   UNL     1      -8.138   1.723 -33.741  1.00  0.00    -0.063 N 
HETATM    2  H   UNL     1      -8.109   1.323 -32.791  1.00  0.00     0.280 HD
HETATM    3  C   UNL     1      -9.538   1.542 -34.240  1.00  0.00     0.270 C 
ENDROOT
BRANCH   1   4
HETATM    4  C   UNL     1      -7.133   0.875 -34.532  1.00  0.00     0.337 C 
BRANCH   4   5
HETATM    5  C   UNL     1      -6.497  -0.233 -33.687  1.00  0.00     0.248 C 
HETATM    6  N   UNL     1      -5.266  -0.663 -34.150  1.00  0.00    -0.325 N 
HETATM    7  H   UNL     1      -5.083  -0.541 -35.140  1.00  0.00     0.169 HD
HETATM    8  O   UNL     1      -7.116  -0.686 -32.726  1.00  0.00    -0.271 OA
BRANCH   6   9
HETATM    9  C   UNL     1      -4.528  -1.711 -33.538  1.00  0.00     0.046 A 
HETATM   10  C   UNL     1      -4.581  -2.994 -34.134  1.00  0.00    -0.035 A 
HETATM   11  C   UNL     1      -5.380  -3.285 -35.378  1.00  0.00     0.050 C 
HETATM   12  C   UNL     1      -3.884  -4.060 -33.542  1.00  0.00     0.009 A 
HETATM   13  C   UNL     1      -3.145  -3.868 -32.381  1.00  0.00     0.001 A 
HETATM   14  C   UNL     1      -3.062  -2.600 -31.817  1.00  0.00     0.009 A 
HETATM   15  C   UNL     1      -3.720  -1.501 -32.399  1.00  0.00    -0.035 A 
HETATM   16  C   UNL     1      -3.464  -0.156 -31.778  1.00  0.00     0.050 C 
ENDBRANCH   6   9
ENDBRANCH   4   5
ENDBRANCH   1   4
BRANCH   1  17
HETATM   17  C   UNL     1      -7.751   3.179 -33.502  1.00  0.00     0.276 C 
BRANCH  17  18
HETATM   18  C   UNL     1      -6.364   3.457 -33.008  1.00  0.00     0.009 A 
HETATM   19  C   UNL     1      -5.891   3.038 -31.772  1.00  0.00     0.134 A 
HETATM   20 CL   UNL     1      -6.846   2.133 -30.664  1.00  0.00    -0.062 Cl
HETATM   21  N   UNL     1      -4.653   3.275 -31.304  1.00  0.00    -0.235 NA
HETATM   22  C   UNL     1      -3.781   3.922 -32.094  1.00  0.00     0.071 A 
HETATM   23  C   UNL     1      -4.135   4.373 -33.379  1.00  0.00    -0.006 A 
HETATM   24  C   UNL     1      -2.487   4.149 -31.647  1.00  0.00     0.069 A 
HETATM   25  C   UNL     1      -5.445   4.133 -33.823  1.00  0.00     0.026 A 
HETATM   26  C   UNL     1      -3.188   5.033 -34.178  1.00  0.00     0.016 A 
HETATM   27  C   UNL     1      -1.889   5.242 -33.708  1.00  0.00     0.038 A 
HETATM   28  C   UNL     1      -1.532   4.795 -32.440  1.00  0.00     0.070 A 
BRANCH  28  29
HETATM   29  O   UNL     1      -0.304   4.926 -31.857  1.00  0.00    -0.356 OA
HETATM   30  C   UNL     1      -0.270   5.099 -30.445  1.00  0.00     0.210 C 
ENDBRANCH  28  29
ENDBRANCH  17  18
ENDBRANCH   1  17
TORSDOF 6
ENDMDL
MODEL 4
REMARK VINA RESULT:      -8.2      1.900      6.723
REMARK  6 active torsions:
REMARK  status: ('A' for Active; 'I' for Inactive)
REMARK    1  A    between atoms: C_3  and  N_4 
REMARK       I    between atoms: N_4  and  C_5 
REMARK    2  A    between atoms: C_5  and  C_6 
REMARK    3  A    between atoms: C_6  and  N_7 
REMARK    4  A    between atoms: N_7  and  C_9 
REMARK    5  A    between atoms: C_9  and  C_10 
REMARK    6  A    between atoms: C_18  and  O_19 
ROOT
HETATM    1  N   UNL     1      -7.171   3.756 -33.110  1.00  0.00    -0.063 N 
HETATM    2  H   UNL     1      -7.279   4.524 -32.430  1.00  0.00     0.280 HD
HETATM    3  C   UNL     1      -5.793   3.879 -33.683  1.00  0.00     0.270 C 
ENDROOT
BRANCH   1   4
HETATM    4  C   UNL     1      -8.256   4.034 -34.160  1.00  0.00     0.337 C 
BRANCH   4   5
HETATM    5  C   UNL     1      -9.616   3.444 -33.777  1.00  0.00     0.248 C 
HETATM    6  N   UNL     1     -10.010   2.373 -34.560  1.00  0.00    -0.325 N 
HETATM    7  H   UNL     1      -9.626   2.328 -35.498  1.00  0.00     0.169 HD
HETATM    8  O   UNL     1     -10.266   3.967 -32.874  1.00  0.00    -0.271 OA
BRANCH   6   9
HETATM    9  C   UNL     1     -11.256   1.710 -34.401  1.00  0.00     0.046 A 
HETATM   10  C   UNL     1     -11.296   0.569 -33.563  1.00  0.00    -0.035 A 
HETATM   11  C   UNL     1     -10.083   0.040 -32.845  1.00  0.00     0.050 C 
HETATM   12  C   UNL     1     -12.505  -0.127 -33.402  1.00  0.00     0.009 A 
HETATM   13  C   UNL     1     -13.659   0.293 -34.053  1.00  0.00     0.001 A 
HETATM   14  C   UNL     1     -13.629   1.435 -34.845  1.00  0.00     0.009 A 
HETATM   15  C   UNL     1     -12.444   2.177 -35.004  1.00  0.00    -0.035 A 
HETATM   16  C   UNL     1     -12.552   3.460 -35.781  1.00  0.00     0.050 C 
ENDBRANCH   6   9
ENDBRANCH   4   5
ENDBRANCH   1   4
BRANCH   1  17
HETATM   17  C   UNL     1      -7.371   2.515 -32.245  1.00  0.00     0.276 C 
BRANCH  17  18
HETATM   18  C   UNL     1      -6.509   1.323 -32.532  1.00  0.00     0.009 A 
HETATM   19  C   UNL     1      -5.348   1.029 -31.830  1.00  0.00     0.134 A 
HETATM   20 CL   UNL     1      -4.770   1.998 -30.533  1.00  0.00    -0.062 Cl
HETATM   21  N   UNL     1      -4.555  -0.031 -32.069  1.00  0.00    -0.235 NA
HETATM   22  C   UNL     1      -4.922  -0.905 -33.019  1.00  0.00     0.071 A 
HETATM   23  C   UNL     1      -6.093  -0.729 -33.780  1.00  0.00    -0.006 A 
HETATM   24  C   UNL     1      -4.139  -2.025 -33.260  1.00  0.00     0.069 A 
HETATM   25  C   UNL     1      -6.881   0.404 -33.523  1.00  0.00     0.026 A 
HETATM   26  C   UNL     1      -6.446  -1.677 -34.754  1.00  0.00     0.016 A 
HETATM   27  C   UNL     1      -5.645  -2.801 -34.972  1.00  0.00     0.038 A 
HETATM   28  C   UNL     1      -4.488  -2.981 -34.221  1.00  0.00     0.070 A 
BRANCH  28  29
HETATM   29  O   UNL     1      -3.617  -4.029 -34.323  1.00  0.00    -0.356 OA
HETATM   30  C   UNL     1      -3.828  -5.135 -33.453  1.00  0.00     0.210 C 
ENDBRANCH  28  29
ENDBRANCH  17  18
ENDBRANCH   1  17
TORSDOF 6
ENDMDL
MODEL 5
REMARK VINA RESULT:      -8.1      3.883      8.222
REMARK  6 active torsions:
REMARK  status: ('A' for Active; 'I' for Inactive)
REMARK    1  A    between atoms: C_3  and  N_4 
REMARK       I    between atoms: N_4  and  C_5 
REMARK    2  A    between atoms: C_5  and  C_6 
REMARK    3  A    between atoms: C_6  and  N_7 
REMARK    4  A    between atoms: N_7  and  C_9 
REMARK    5  A    between atoms: C_9  and  C_10 
REMARK    6  A    between atoms: C_18  and  O_19 
ROOT
HETATM    1  N   UNL     1      -5.260   4.469 -32.627  1.00  0.00    -0.063 N 
HETATM    2  H   UNL     1      -4.313   4.097 -32.455  1.00  0.00     0.280 HD
HETATM    3  C   UNL     1      -5.286   4.931 -34.052  1.00  0.00     0.270 C 
ENDROOT
BRANCH   1   4
HETATM    4  C   UNL     1      -5.385   5.639 -31.642  1.00  0.00     0.337 C 
BRANCH   4   5
HETATM    5  C   UNL     1      -4.070   6.401 -31.457  1.00  0.00     0.248 C 
HETATM    6  N   UNL     1      -3.164   5.771 -30.621  1.00  0.00    -0.325 N 
HETATM    7  H   UNL     1      -3.547   5.140 -29.926  1.00  0.00     0.169 HD
HETATM    8  O   UNL     1      -3.929   7.497 -31.994  1.00  0.00    -0.271 OA
BRANCH   6   9
HETATM    9  C   UNL     1      -1.902   6.329 -30.281  1.00  0.00     0.046 A 
HETATM   10  C   UNL     1      -0.808   6.062 -31.140  1.00  0.00    -0.035 A 
HETATM   11  C   UNL     1      -0.931   5.221 -32.383  1.00  0.00     0.050 C 
HETATM   12  C   UNL     1       0.459   6.576 -30.821  1.00  0.00     0.009 A 
HETATM   13  C   UNL     1       0.650   7.341 -29.678  1.00  0.00     0.001 A 
HETATM   14  C   UNL     1      -0.433   7.635 -28.855  1.00  0.00     0.009 A 
HETATM   15  C   UNL     1      -1.723   7.165 -29.158  1.00  0.00    -0.035 A 
HETATM   16  C   UNL     1      -2.840   7.643 -28.271  1.00  0.00     0.050 C 
ENDBRANCH   6   9
ENDBRANCH   4   5
ENDBRANCH   1   4
BRANCH   1  17
HETATM   17  C   UNL     1      -6.148   3.258 -32.354  1.00  0.00     0.276 C 
BRANCH  17  18
HETATM   18  C   UNL     1      -5.608   1.907 -32.714  1.00  0.00     0.009 A 
HETATM   19  C   UNL     1      -4.362   1.447 -32.309  1.00  0.00     0.134 A 
HETATM   20 CL   UNL     1      -3.294   2.375 -31.332  1.00  0.00    -0.062 Cl
HETATM   21  N   UNL     1      -3.853   0.241 -32.620  1.00  0.00    -0.235 NA
HETATM   22  C   UNL     1      -4.607  -0.610 -33.331  1.00  0.00     0.071 A 
HETATM   23  C   UNL     1      -5.898  -0.268 -33.775  1.00  0.00    -0.006 A 
HETATM   24  C   UNL     1      -4.118  -1.873 -33.634  1.00  0.00     0.069 A 
HETATM   25  C   UNL     1      -6.386   1.010 -33.457  1.00  0.00     0.026 A 
HETATM   26  C   UNL     1      -6.660  -1.195 -34.504  1.00  0.00     0.016 A 
HETATM   27  C   UNL     1      -6.147  -2.463 -34.790  1.00  0.00     0.038 A 
HETATM   28  C   UNL     1      -4.873  -2.809 -34.351  1.00  0.00     0.070 A 
BRANCH  28  29
HETATM   29  O   UNL     1      -4.250  -4.007 -34.552  1.00  0.00    -0.356 OA
HETATM   30  C   UNL     1      -3.537  -4.562 -33.452  1.00  0.00     0.210 C 
ENDBRANCH  28  29
ENDBRANCH  17  18
ENDBRANCH   1  17
TORSDOF 6
ENDMDL
MODEL 6
REMARK VINA RESULT:      -7.8      3.063      7.702
REMARK  6 active torsions:
REMARK  status: ('A' for Active; 'I' for Inactive)
REMARK    1  A    between atoms: C_3  and  N_4 
REMARK       I    between atoms: N_4  and  C_5 
REMARK    2  A    between atoms: C_5  and  C_6 
REMARK    3  A    between atoms: C_6  and  N_7 
REMARK    4  A    between atoms: N_7  and  C_9 
REMARK    5  A    between atoms: C_9  and  C_10 
REMARK    6  A    between atoms: C_18  and  O_19 
ROOT
HETATM    1  N   UNL     1      -7.656   3.685 -32.794  1.00  0.00    -0.063 N 
HETATM    2  H   UNL     1      -6.965   3.448 -33.522  1.00  0.00     0.280 HD
HETATM    3  C   UNL     1      -8.917   4.066 -33.507  1.00  0.00     0.270 C 
ENDROOT
BRANCH   1   4
HETATM    4  C   UNL     1      -7.029   4.877 -32.059  1.00  0.00     0.337 C 
BRANCH   4   5
HETATM    5  C   UNL     1      -5.718   5.343 -32.698  1.00  0.00     0.248 C 
HETATM    6  N   UNL     1      -4.705   5.596 -31.789  1.00  0.00    -0.325 N 
HETATM    7  H   UNL     1      -4.987   5.846 -30.848  1.00  0.00     0.169 HD
HETATM    8  O   UNL     1      -5.665   5.507 -33.915  1.00  0.00    -0.271 OA
BRANCH   6   9
HETATM    9  C   UNL     1      -3.423   6.079 -32.168  1.00  0.00     0.046 A 
HETATM   10  C   UNL     1      -3.123   7.437 -31.906  1.00  0.00    -0.035 A 
HETATM   11  C   UNL     1      -4.099   8.377 -31.249  1.00  0.00     0.050 C 
HETATM   12  C   UNL     1      -1.875   7.955 -32.290  1.00  0.00     0.009 A 
HETATM   13  C   UNL     1      -0.935   7.149 -32.921  1.00  0.00     0.001 A 
HETATM   14  C   UNL     1      -1.215   5.806 -33.143  1.00  0.00     0.009 A 
HETATM   15  C   UNL     1      -2.441   5.244 -32.744  1.00  0.00    -0.035 A 
HETATM   16  C   UNL     1      -2.591   3.758 -32.923  1.00  0.00     0.050 C 
ENDBRANCH   6   9
ENDBRANCH   4   5
ENDBRANCH   1   4
BRANCH   1  17
HETATM   17  C   UNL     1      -7.763   2.385 -32.002  1.00  0.00     0.276 C 
BRANCH  17  18
HETATM   18  C   UNL     1      -6.845   1.263 -32.382  1.00  0.00     0.009 A 
HETATM   19  C   UNL     1      -5.570   1.104 -31.857  1.00  0.00     0.134 A 
HETATM   20 CL   UNL     1      -4.899   2.175 -30.691  1.00  0.00    -0.062 Cl
HETATM   21  N   UNL     1      -4.725   0.110 -32.182  1.00  0.00    -0.235 NA
HETATM   22  C   UNL     1      -5.145  -0.834 -33.040  1.00  0.00     0.071 A 
HETATM   23  C   UNL     1      -6.427  -0.796 -33.619  1.00  0.00    -0.006 A 
HETATM   24  C   UNL     1      -4.304  -1.889 -33.365  1.00  0.00     0.069 A 
HETATM   25  C   UNL     1      -7.271   0.273 -33.278  1.00  0.00     0.026 A 
HETATM   26  C   UNL     1      -6.831  -1.812 -34.500  1.00  0.00     0.016 A 
HETATM   27  C   UNL     1      -5.968  -2.868 -34.805  1.00  0.00     0.038 A 
HETATM   28  C   UNL     1      -4.701  -2.912 -34.233  1.00  0.00     0.070 A 
BRANCH  28  29
HETATM   29  O   UNL     1      -3.760  -3.882 -34.436  1.00  0.00    -0.356 OA
HETATM   30  C   UNL     1      -3.737  -4.967 -33.516  1.00  0.00     0.210 C 
ENDBRANCH  28  29
ENDBRANCH  17  18
ENDBRANCH   1  17
TORSDOF 6
ENDMDL
MODEL 7
REMARK VINA RESULT:      -7.7      3.411      7.518
REMARK  6 active torsions:
REMARK  status: ('A' for Active; 'I' for Inactive)
REMARK    1  A    between atoms: C_3  and  N_4 
REMARK       I    between atoms: N_4  and  C_5 
REMARK    2  A    between atoms: C_5  and  C_6 
REMARK    3  A    between atoms: C_6  and  N_7 
REMARK    4  A    between atoms: N_7  and  C_9 
REMARK    5  A    between atoms: C_9  and  C_10 
REMARK    6  A    between atoms: C_18  and  O_19 
ROOT
HETATM    1  N   UNL     1      -6.525   3.939 -31.931  1.00  0.00    -0.063 N 
HETATM    2  H   UNL     1      -5.601   3.629 -32.267  1.00  0.00     0.280 HD
HETATM    3  C   UNL     1      -7.291   4.389 -33.137  1.00  0.00     0.270 C 
ENDROOT
BRANCH   1   4
HETATM    4  C   UNL     1      -6.205   5.106 -30.986  1.00  0.00     0.337 C 
BRANCH   4   5
HETATM    5  C   UNL     1      -4.887   5.804 -31.333  1.00  0.00     0.248 C 
HETATM    6  N   UNL     1      -3.767   5.201 -30.790  1.00  0.00    -0.325 N 
HETATM    7  H   UNL     1      -3.905   4.658 -29.945  1.00  0.00     0.169 HD
HETATM    8  O   UNL     1      -4.911   6.838 -31.997  1.00  0.00    -0.271 OA
BRANCH   6   9
HETATM    9  C   UNL     1      -2.451   5.713 -30.953  1.00  0.00     0.046 A 
HETATM   10  C   UNL     1      -1.704   5.271 -32.072  1.00  0.00    -0.035 A 
HETATM   11  C   UNL     1      -2.243   4.293 -33.081  1.00  0.00     0.050 C 
HETATM   12  C   UNL     1      -0.391   5.738 -32.251  1.00  0.00     0.009 A 
HETATM   13  C   UNL     1       0.179   6.625 -31.346  1.00  0.00     0.001 A 
HETATM   14  C   UNL     1      -0.569   7.088 -30.269  1.00  0.00     0.009 A 
HETATM   15  C   UNL     1      -1.898   6.669 -30.074  1.00  0.00    -0.035 A 
HETATM   16  C   UNL     1      -2.653   7.324 -28.950  1.00  0.00     0.050 C 
ENDBRANCH   6   9
ENDBRANCH   4   5
ENDBRANCH   1   4
BRANCH   1  17
HETATM   17  C   UNL     1      -7.084   2.678 -31.280  1.00  0.00     0.276 C 
BRANCH  17  18
HETATM   18  C   UNL     1      -6.965   1.393 -32.042  1.00  0.00     0.009 A 
HETATM   19  C   UNL     1      -8.035   0.773 -32.673  1.00  0.00     0.134 A 
HETATM   20 CL   UNL     1      -9.628   1.421 -32.664  1.00  0.00    -0.062 Cl
HETATM   21  N   UNL     1      -7.956  -0.380 -33.361  1.00  0.00    -0.235 NA
HETATM   22  C   UNL     1      -6.756  -0.965 -33.498  1.00  0.00     0.071 A 
HETATM   23  C   UNL     1      -5.592  -0.417 -32.926  1.00  0.00    -0.006 A 
HETATM   24  C   UNL     1      -6.643  -2.137 -34.232  1.00  0.00     0.069 A 
HETATM   25  C   UNL     1      -5.717   0.772 -32.191  1.00  0.00     0.026 A 
HETATM   26  C   UNL     1      -4.354  -1.055 -33.107  1.00  0.00     0.016 A 
HETATM   27  C   UNL     1      -4.265  -2.230 -33.857  1.00  0.00     0.038 A 
HETATM   28  C   UNL     1      -5.412  -2.774 -34.428  1.00  0.00     0.070 A 
BRANCH  28  29
HETATM   29  O   UNL     1      -5.473  -3.908 -35.185  1.00  0.00    -0.356 OA
HETATM   30  C   UNL     1      -6.741  -4.545 -35.301  1.00  0.00     0.210 C 
ENDBRANCH  28  29
ENDBRANCH  17  18
ENDBRANCH   1  17
TORSDOF 6
ENDMDL
MODEL 8
REMARK VINA RESULT:      -7.7      3.295      7.667
REMARK  6 active torsions:
REMARK  status: ('A' for Active; 'I' for Inactive)
REMARK    1  A    between atoms: C_3  and  N_4 
REMARK       I    between atoms: N_4  and  C_5 
REMARK    2  A    between atoms: C_5  and  C_6 
REMARK    3  A    between atoms: C_6  and  N_7 
REMARK    4  A    between atoms: N_7  and  C_9 
REMARK    5  A    between atoms: C_9  and  C_10 
REMARK    6  A    between atoms: C_18  and  O_19 
ROOT
HETATM    1  N   UNL     1      -7.052   3.093 -31.820  1.00  0.00    -0.063 N 
HETATM    2  H   UNL     1      -8.037   3.069 -32.128  1.00  0.00     0.280 HD
HETATM    3  C   UNL     1      -6.903   2.028 -30.777  1.00  0.00     0.270 C 
ENDROOT
BRANCH   1   4
HETATM    4  C   UNL     1      -6.881   4.499 -31.231  1.00  0.00     0.337 C 
BRANCH   4   5
HETATM    5  C   UNL     1      -5.439   5.008 -31.322  1.00  0.00     0.248 C 
HETATM    6  N   UNL     1      -5.231   5.947 -32.317  1.00  0.00    -0.325 N 
HETATM    7  H   UNL     1      -5.865   5.921 -33.108  1.00  0.00     0.169 HD
HETATM    8  O   UNL     1      -4.585   4.533 -30.576  1.00  0.00    -0.271 OA
BRANCH   6   9
HETATM    9  C   UNL     1      -3.959   6.513 -32.599  1.00  0.00     0.046 A 
HETATM   10  C   UNL     1      -3.291   6.088 -33.773  1.00  0.00    -0.035 A 
HETATM   11  C   UNL     1      -3.871   5.072 -34.722  1.00  0.00     0.050 C 
HETATM   12  C   UNL     1      -2.021   6.608 -34.070  1.00  0.00     0.009 A 
HETATM   13  C   UNL     1      -1.416   7.532 -33.227  1.00  0.00     0.001 A 
HETATM   14  C   UNL     1      -2.089   7.978 -32.095  1.00  0.00     0.009 A 
HETATM   15  C   UNL     1      -3.375   7.505 -31.782  1.00  0.00    -0.035 A 
HETATM   16  C   UNL     1      -4.060   8.143 -30.604  1.00  0.00     0.050 C 
ENDBRANCH   6   9
ENDBRANCH   4   5
ENDBRANCH   1   4
BRANCH   1  17
HETATM   17  C   UNL     1      -6.292   2.804 -33.110  1.00  0.00     0.276 C 
BRANCH  17  18
HETATM   18  C   UNL     1      -5.792   1.407 -33.323  1.00  0.00     0.009 A 
HETATM   19  C   UNL     1      -4.533   0.975 -32.928  1.00  0.00     0.134 A 
HETATM   20 CL   UNL     1      -3.401   1.996 -32.132  1.00  0.00    -0.062 Cl
HETATM   21  N   UNL     1      -4.059  -0.271 -33.109  1.00  0.00    -0.235 NA
HETATM   22  C   UNL     1      -4.863  -1.189 -33.667  1.00  0.00     0.071 A 
HETATM   23  C   UNL     1      -6.170  -0.878 -34.084  1.00  0.00    -0.006 A 
HETATM   24  C   UNL     1      -4.409  -2.489 -33.832  1.00  0.00     0.069 A 
HETATM   25  C   UNL     1      -6.622   0.440 -33.906  1.00  0.00     0.026 A 
HETATM   26  C   UNL     1      -6.983  -1.873 -34.650  1.00  0.00     0.016 A 
HETATM   27  C   UNL     1      -6.505  -3.177 -34.798  1.00  0.00     0.038 A 
HETATM   28  C   UNL     1      -5.214  -3.492 -34.384  1.00  0.00     0.070 A 
BRANCH  28  29
HETATM   29  O   UNL     1      -4.620  -4.719 -34.464  1.00  0.00    -0.356 OA
HETATM   30  C   UNL     1      -3.617  -5.019 -33.500  1.00  0.00     0.210 C 
ENDBRANCH  28  29
ENDBRANCH  17  18
ENDBRANCH   1  17
TORSDOF 6
ENDMDL
MODEL 9
REMARK VINA RESULT:      -7.7      3.202      7.437
REMARK  6 active torsions:
REMARK  status: ('A' for Active; 'I' for Inactive)
REMARK    1  A    between atoms: C_3  and  N_4 
REMARK       I    between atoms: N_4  and  C_5 
REMARK    2  A    between atoms: C_5  and  C_6 
REMARK    3  A    between atoms: C_6  and  N_7 
REMARK    4  A    between atoms: N_7  and  C_9 
REMARK    5  A    between atoms: C_9  and  C_10 
REMARK    6  A    between atoms: C_18  and  O_19 
ROOT
HETATM    1  N   UNL     1      -7.503   3.891 -32.247  1.00  0.00    -0.063 N 
HETATM    2  H   UNL     1      -8.406   3.827 -32.743  1.00  0.00     0.280 HD
HETATM    3  C   UNL     1      -7.562   5.127 -31.404  1.00  0.00     0.270 C 
ENDROOT
BRANCH   1   4
HETATM    4  C   UNL     1      -6.468   4.013 -33.373  1.00  0.00     0.337 C 
BRANCH   4   5
HETATM    5  C   UNL     1      -5.110   4.518 -32.877  1.00  0.00     0.248 C 
HETATM    6  N   UNL     1      -4.734   5.742 -33.403  1.00  0.00    -0.325 N 
HETATM    7  H   UNL     1      -5.128   5.992 -34.303  1.00  0.00     0.169 HD
HETATM    8  O   UNL     1      -4.446   3.813 -32.120  1.00  0.00    -0.271 OA
BRANCH   6   9
HETATM    9  C   UNL     1      -3.493   6.367 -33.107  1.00  0.00     0.046 A 
HETATM   10  C   UNL     1      -3.444   7.252 -32.003  1.00  0.00    -0.035 A 
HETATM   11  C   UNL     1      -4.643   7.550 -31.141  1.00  0.00     0.050 C 
HETATM   12  C   UNL     1      -2.240   7.907 -31.696  1.00  0.00     0.009 A 
HETATM   13  C   UNL     1      -1.101   7.695 -32.463  1.00  0.00     0.001 A 
HETATM   14  C   UNL     1      -1.139   6.797 -33.523  1.00  0.00     0.009 A 
HETATM   15  C   UNL     1      -2.317   6.098 -33.841  1.00  0.00    -0.035 A 
HETATM   16  C   UNL     1      -2.215   5.063 -34.927  1.00  0.00     0.050 C 
ENDBRANCH   6   9
ENDBRANCH   4   5
ENDBRANCH   1   4
BRANCH   1  17
HETATM   17  C   UNL     1      -7.473   2.595 -31.441  1.00  0.00     0.276 C 
BRANCH  17  18
HETATM   18  C   UNL     1      -7.264   1.316 -32.193  1.00  0.00     0.009 A 
HETATM   19  C   UNL     1      -8.262   0.681 -32.920  1.00  0.00     0.134 A 
HETATM   20 CL   UNL     1      -9.860   1.303 -33.054  1.00  0.00    -0.062 Cl
HETATM   21  N   UNL     1      -8.103  -0.468 -33.600  1.00  0.00    -0.235 NA
HETATM   22  C   UNL     1      -6.885  -1.033 -33.629  1.00  0.00     0.071 A 
HETATM   23  C   UNL     1      -5.787  -0.469 -32.953  1.00  0.00    -0.006 A 
HETATM   24  C   UNL     1      -6.687  -2.200 -34.353  1.00  0.00     0.069 A 
HETATM   25  C   UNL     1      -5.998   0.716 -32.229  1.00  0.00     0.026 A 
HETATM   26  C   UNL     1      -4.527  -1.085 -33.022  1.00  0.00     0.016 A 
HETATM   27  C   UNL     1      -4.352  -2.256 -33.764  1.00  0.00     0.038 A 
HETATM   28  C   UNL     1      -5.433  -2.816 -34.437  1.00  0.00     0.070 A 
BRANCH  28  29
HETATM   29  O   UNL     1      -5.406  -3.948 -35.200  1.00  0.00    -0.356 OA
HETATM   30  C   UNL     1      -6.645  -4.616 -35.416  1.00  0.00     0.210 C 
ENDBRANCH  28  29
ENDBRANCH  17  18
ENDBRANCH   1  17
TORSDOF 6
ENDMDL
MODEL 10
REMARK VINA RESULT:      -7.6      3.462      7.593
REMARK  6 active torsions:
REMARK  status: ('A' for Active; 'I' for Inactive)
REMARK    1  A    between atoms: C_3  and  N_4 
REMARK       I    between atoms: N_4  and  C_5 
REMARK    2  A    between atoms: C_5  and  C_6 
REMARK    3  A    between atoms: C_6  and  N_7 
REMARK    4  A    between atoms: N_7  and  C_9 
REMARK    5  A    between atoms: C_9  and  C_10 
REMARK    6  A    between atoms: C_18  and  O_19 
ROOT
HETATM    1  N   UNL     1      -6.538   4.082 -31.296  1.00  0.00    -0.063 N 
HETATM    2  H   UNL     1      -7.449   4.314 -31.721  1.00  0.00     0.280 HD
HETATM    3  C   UNL     1      -6.775   2.921 -30.380  1.00  0.00     0.270 C 
ENDROOT
BRANCH   1   4
HETATM    4  C   UNL     1      -6.153   5.352 -30.525  1.00  0.00     0.337 C 
BRANCH   4   5
HETATM    5  C   UNL     1      -4.868   5.997 -31.051  1.00  0.00     0.248 C 
HETATM    6  N   UNL     1      -3.707   5.457 -30.526  1.00  0.00    -0.325 N 
HETATM    7  H   UNL     1      -3.779   5.019 -29.614  1.00  0.00     0.169 HD
HETATM    8  O   UNL     1      -4.945   6.944 -31.830  1.00  0.00    -0.271 OA
BRANCH   6   9
HETATM    9  C   UNL     1      -2.410   5.939 -30.848  1.00  0.00     0.046 A 
HETATM   10  C   UNL     1      -1.760   6.772 -29.904  1.00  0.00    -0.035 A 
HETATM   11  C   UNL     1      -2.384   7.159 -28.590  1.00  0.00     0.050 C 
HETATM   12  C   UNL     1      -0.487   7.287 -30.200  1.00  0.00     0.009 A 
HETATM   13  C   UNL     1       0.138   6.988 -31.404  1.00  0.00     0.001 A 
HETATM   14  C   UNL     1      -0.483   6.139 -32.313  1.00  0.00     0.009 A 
HETATM   15  C   UNL     1      -1.743   5.578 -32.039  1.00  0.00    -0.035 A 
HETATM   16  C   UNL     1      -2.268   4.580 -33.034  1.00  0.00     0.050 C 
ENDBRANCH   6   9
ENDBRANCH   4   5
ENDBRANCH   1   4
BRANCH   1  17
HETATM   17  C   UNL     1      -5.680   3.744 -32.511  1.00  0.00     0.276 C 
BRANCH  17  18
HETATM   18  C   UNL     1      -5.476   2.295 -32.835  1.00  0.00     0.009 A 
HETATM   19  C   UNL     1      -4.467   1.520 -32.279  1.00  0.00     0.134 A 
HETATM   20 CL   UNL     1      -3.338   2.134 -31.136  1.00  0.00    -0.062 Cl
HETATM   21  N   UNL     1      -4.260   0.220 -32.553  1.00  0.00    -0.235 NA
HETATM   22  C   UNL     1      -5.107  -0.403 -33.387  1.00  0.00     0.071 A 
HETATM   23  C   UNL     1      -6.185   0.270 -33.992  1.00  0.00    -0.006 A 
HETATM   24  C   UNL     1      -4.936  -1.753 -33.658  1.00  0.00     0.069 A 
HETATM   25  C   UNL     1      -6.353   1.634 -33.705  1.00  0.00     0.026 A 
HETATM   26  C   UNL     1      -7.057  -0.424 -34.846  1.00  0.00     0.016 A 
HETATM   27  C   UNL     1      -6.866  -1.785 -35.098  1.00  0.00     0.038 A 
HETATM   28  C   UNL     1      -5.805  -2.457 -34.499  1.00  0.00     0.070 A 
BRANCH  28  29
HETATM   29  O   UNL     1      -5.503  -3.780 -34.650  1.00  0.00    -0.356 OA
HETATM   30  C   UNL     1      -6.441  -4.584 -35.356  1.00  0.00     0.210 C 
ENDBRANCH  28  29
ENDBRANCH  17  18
ENDBRANCH   1  17
TORSDOF 6
ENDMDL
