MODEL 1
REMARK VINA RESULT:      -8.6      0.000      0.000
REMARK  5 active torsions:
REMARK  status: ('A' for Active; 'I' for Inactive)
REMARK    1  A    between atoms: C_5  and  C_6 
REMARK    2  A    between atoms: C_9  and  O_10 
REMARK    3  A    between atoms: O_10  and  C_11 
REMARK    4  A    between atoms: C_11  and  C_12 
REMARK       I    between atoms: C_12  and  N_13 
REMARK    5  A    between atoms: N_13  and  C_14 
ROOT
HETATM    1  C   UNL     1      -6.093   4.210 -34.231  1.00  0.00     0.278 C 
ENDROOT
BRANCH   1   2
HETATM    2  O   UNL     1      -6.917   3.254 -33.570  1.00  0.00    -0.342 OA
BRANCH   2   3
HETATM    3  C   UNL     1      -6.612   1.937 -33.797  1.00  0.00     0.069 A 
HETATM    4  C   UNL     1      -7.165   1.130 -34.793  1.00  0.00     0.038 A 
HETATM    5  C   UNL     1      -6.767  -0.206 -34.922  1.00  0.00     0.018 A 
HETATM    6  C   UNL     1      -5.809  -0.759 -34.061  1.00  0.00     0.015 A 
HETATM    7  C   UNL     1      -5.256   0.057 -33.066  1.00  0.00     0.018 A 
HETATM    8  C   UNL     1      -5.655   1.393 -32.938  1.00  0.00     0.038 A 
BRANCH   6   9
HETATM    9  C   UNL     1      -5.406  -2.152 -34.210  1.00  0.00     0.198 A 
HETATM   10  N   UNL     1      -6.178  -3.084 -34.870  1.00  0.00    -0.136 NA
HETATM   11  N   UNL     1      -5.521  -4.233 -34.825  1.00  0.00     0.024 NA
HETATM   12  N   UNL     1      -4.398  -3.952 -34.149  1.00  0.00    -0.196 N 
HETATM   13  C   UNL     1      -3.390  -4.946 -33.902  1.00  0.00     0.200 C 
HETATM   14  N   UNL     1      -4.261  -2.679 -33.738  1.00  0.00    -0.137 NA
ENDBRANCH   6   9
ENDBRANCH   2   3
ENDBRANCH   1   2
BRANCH   1  15
HETATM   15  C   UNL     1      -5.153   4.954 -33.278  1.00  0.00     0.246 C 
HETATM   16  N   UNL     1      -3.816   4.684 -33.504  1.00  0.00    -0.325 N 
HETATM   17  H   UNL     1      -3.633   4.021 -34.251  1.00  0.00     0.169 HD
HETATM   18  O   UNL     1      -5.616   5.717 -32.434  1.00  0.00    -0.271 OA
BRANCH  16  19
HETATM   19  C   UNL     1      -2.700   5.212 -32.823  1.00  0.00     0.036 A 
HETATM   20  C   UNL     1      -2.217   4.688 -31.618  1.00  0.00     0.059 A 
HETATM   21  C   UNL     1      -1.097   5.297 -31.031  1.00  0.00     0.044 A 
HETATM   22  C   UNL     1      -0.452   6.395 -31.595  1.00  0.00    -0.008 A 
HETATM   23  N   UNL     1      -0.429   4.985 -29.868  1.00  0.00    -0.365 N 
HETATM   24  C   UNL     1      -0.945   6.915 -32.805  1.00  0.00     0.016 A 
HETATM   25  C   UNL     1       0.626   6.736 -30.732  1.00  0.00     0.030 A 
HETATM   26  C   UNL     1      -2.064   6.315 -33.405  1.00  0.00     0.030 A 
HETATM   27  C   UNL     1       0.616   5.851 -29.678  1.00  0.00     0.089 A 
HETATM   28  H   UNL     1      -0.682   4.226 -29.251  1.00  0.00     0.165 HD
ENDBRANCH  16  19
ENDBRANCH   1  15
TORSDOF 5
ENDMDL
MODEL 2
REMARK VINA RESULT:      -8.3      4.660      8.209
REMARK  5 active torsions:
REMARK  status: ('A' for Active; 'I' for Inactive)
REMARK    1  A    between atoms: C_5  and  C_6 
REMARK    2  A    between atoms: C_9  and  O_10 
REMARK    3  A    between atoms: O_10  and  C_11 
REMARK    4  A    between atoms: C_11  and  C_12 
REMARK       I    between atoms: C_12  and  N_13 
REMARK    5  A    between atoms: N_13  and  C_14 
ROOT
HETATM    1  C   UNL     1      -7.692   3.449 -32.615  1.00  0.00     0.278 C 
ENDROOT
BRANCH   1   2
HETATM    2  O   UNL     1      -7.288   3.063 -33.926  1.00  0.00    -0.342 OA
BRANCH   2   3
HETATM    3  C   UNL     1      -6.930   1.750 -34.083  1.00  0.00     0.069 A 
HETATM    4  C   UNL     1      -7.523   0.840 -34.961  1.00  0.00     0.038 A 
HETATM    5  C   UNL     1      -7.063  -0.480 -35.027  1.00  0.00     0.018 A 
HETATM    6  C   UNL     1      -6.004  -0.916 -34.220  1.00  0.00     0.015 A 
HETATM    7  C   UNL     1      -5.411   0.002 -33.344  1.00  0.00     0.018 A 
HETATM    8  C   UNL     1      -5.872   1.323 -33.278  1.00  0.00     0.038 A 
BRANCH   6   9
HETATM    9  C   UNL     1      -5.537  -2.294 -34.303  1.00  0.00     0.198 A 
HETATM   10  N   UNL     1      -6.283  -3.299 -34.879  1.00  0.00    -0.136 NA
HETATM   11  N   UNL     1      -5.569  -4.411 -34.791  1.00  0.00     0.024 NA
HETATM   12  N   UNL     1      -4.440  -4.037 -34.174  1.00  0.00    -0.196 N 
HETATM   13  C   UNL     1      -3.376  -4.966 -33.906  1.00  0.00     0.200 C 
HETATM   14  N   UNL     1      -4.352  -2.737 -33.842  1.00  0.00    -0.137 NA
ENDBRANCH   6   9
ENDBRANCH   2   3
ENDBRANCH   1   2
BRANCH   1  15
HETATM   15  C   UNL     1      -9.065   2.898 -32.223  1.00  0.00     0.246 C 
HETATM   16  N   UNL     1     -10.019   3.048 -33.212  1.00  0.00    -0.325 N 
HETATM   17  H   UNL     1      -9.695   3.515 -34.054  1.00  0.00     0.169 HD
HETATM   18  O   UNL     1      -9.222   2.368 -31.126  1.00  0.00    -0.271 OA
BRANCH  16  19
HETATM   19  C   UNL     1     -11.368   2.636 -33.184  1.00  0.00     0.036 A 
HETATM   20  C   UNL     1     -12.371   3.339 -32.505  1.00  0.00     0.059 A 
HETATM   21  C   UNL     1     -13.679   2.834 -32.547  1.00  0.00     0.044 A 
HETATM   22  C   UNL     1     -14.018   1.669 -33.230  1.00  0.00    -0.008 A 
HETATM   23  N   UNL     1     -14.834   3.322 -31.977  1.00  0.00    -0.365 N 
HETATM   24  C   UNL     1     -13.003   0.969 -33.907  1.00  0.00     0.016 A 
HETATM   25  C   UNL     1     -15.414   1.469 -33.051  1.00  0.00     0.030 A 
HETATM   26  C   UNL     1     -11.690   1.464 -33.876  1.00  0.00     0.030 A 
HETATM   27  C   UNL     1     -15.891   2.503 -32.277  1.00  0.00     0.089 A 
HETATM   28  H   UNL     1     -14.884   4.164 -31.420  1.00  0.00     0.165 HD
ENDBRANCH  16  19
ENDBRANCH   1  15
TORSDOF 5
ENDMDL
MODEL 3
REMARK VINA RESULT:      -8.3      1.764      8.777
REMARK  5 active torsions:
REMARK  status: ('A' for Active; 'I' for Inactive)
REMARK    1  A    between atoms: C_5  and  C_6 
REMARK    2  A    between atoms: C_9  and  O_10 
REMARK    3  A    between atoms: O_10  and  C_11 
REMARK    4  A    between atoms: C_11  and  C_12 
REMARK       I    between atoms: C_12  and  N_13 
REMARK    5  A    between atoms: N_13  and  C_14 
ROOT
HETATM    1  C   UNL     1      -6.953   2.624 -32.970  1.00  0.00     0.278 C 
ENDROOT
BRANCH   1   2
HETATM    2  O   UNL     1      -5.895   3.138 -33.776  1.00  0.00    -0.342 OA
BRANCH   2   3
HETATM    3  C   UNL     1      -4.786   3.580 -33.102  1.00  0.00     0.069 A 
HETATM    4  C   UNL     1      -4.034   2.838 -32.191  1.00  0.00     0.038 A 
HETATM    5  C   UNL     1      -2.917   3.407 -31.567  1.00  0.00     0.018 A 
HETATM    6  C   UNL     1      -2.532   4.726 -31.843  1.00  0.00     0.015 A 
HETATM    7  C   UNL     1      -3.289   5.464 -32.761  1.00  0.00     0.018 A 
HETATM    8  C   UNL     1      -4.406   4.894 -33.385  1.00  0.00     0.038 A 
BRANCH   6   9
HETATM    9  C   UNL     1      -1.366   5.302 -31.185  1.00  0.00     0.198 A 
HETATM   10  N   UNL     1      -0.080   4.881 -31.447  1.00  0.00    -0.136 NA
HETATM   11  N   UNL     1       0.728   5.610 -30.692  1.00  0.00     0.024 NA
HETATM   12  N   UNL     1      -0.091   6.426 -30.014  1.00  0.00    -0.196 N 
HETATM   13  C   UNL     1       0.407   7.405 -29.087  1.00  0.00     0.200 C 
HETATM   14  N   UNL     1      -1.403   6.290 -30.271  1.00  0.00    -0.137 NA
ENDBRANCH   6   9
ENDBRANCH   2   3
ENDBRANCH   1   2
BRANCH   1  15
HETATM   15  C   UNL     1      -6.964   1.095 -32.900  1.00  0.00     0.246 C 
HETATM   16  N   UNL     1      -6.131   0.497 -33.827  1.00  0.00    -0.325 N 
HETATM   17  H   UNL     1      -5.640   1.140 -34.441  1.00  0.00     0.169 HD
HETATM   18  O   UNL     1      -7.655   0.525 -32.059  1.00  0.00    -0.271 OA
BRANCH  16  19
HETATM   19  C   UNL     1      -5.894  -0.880 -34.017  1.00  0.00     0.036 A 
HETATM   20  C   UNL     1      -4.727  -1.525 -33.589  1.00  0.00     0.059 A 
HETATM   21  C   UNL     1      -4.602  -2.901 -33.833  1.00  0.00     0.044 A 
HETATM   22  C   UNL     1      -5.584  -3.646 -34.481  1.00  0.00    -0.008 A 
HETATM   23  N   UNL     1      -3.576  -3.765 -33.520  1.00  0.00    -0.365 N 
HETATM   24  C   UNL     1      -6.752  -2.990 -34.909  1.00  0.00     0.016 A 
HETATM   25  C   UNL     1      -5.115  -4.987 -34.550  1.00  0.00     0.030 A 
HETATM   26  C   UNL     1      -6.892  -1.613 -34.670  1.00  0.00     0.030 A 
HETATM   27  C   UNL     1      -3.877  -5.031 -33.950  1.00  0.00     0.089 A 
HETATM   28  H   UNL     1      -2.728  -3.494 -33.042  1.00  0.00     0.165 HD
ENDBRANCH  16  19
ENDBRANCH   1  15
TORSDOF 5
ENDMDL
MODEL 4
REMARK VINA RESULT:      -8.1      1.799      8.151
REMARK  5 active torsions:
REMARK  status: ('A' for Active; 'I' for Inactive)
REMARK    1  A    between atoms: C_5  and  C_6 
REMARK    2  A    between atoms: C_9  and  O_10 
REMARK    3  A    between atoms: O_10  and  C_11 
REMARK    4  A    between atoms: C_11  and  C_12 
REMARK       I    between atoms: C_12  and  N_13 
REMARK    5  A    between atoms: N_13  and  C_14 
ROOT
HETATM    1  C   UNL     1      -8.654   2.004 -34.225  1.00  0.00     0.278 C 
ENDROOT
BRANCH   1   2
HETATM    2  O   UNL     1      -8.535   2.996 -33.208  1.00  0.00    -0.342 OA
BRANCH   2   3
HETATM    3  C   UNL     1      -7.257   3.360 -32.870  1.00  0.00     0.069 A 
HETATM    4  C   UNL     1      -6.630   3.102 -31.650  1.00  0.00     0.038 A 
HETATM    5  C   UNL     1      -5.316   3.528 -31.427  1.00  0.00     0.018 A 
HETATM    6  C   UNL     1      -4.604   4.217 -32.418  1.00  0.00     0.015 A 
HETATM    7  C   UNL     1      -5.238   4.470 -33.641  1.00  0.00     0.018 A 
HETATM    8  C   UNL     1      -6.553   4.043 -33.863  1.00  0.00     0.038 A 
BRANCH   6   9
HETATM    9  C   UNL     1      -3.235   4.653 -32.169  1.00  0.00     0.198 A 
HETATM   10  N   UNL     1      -2.289   3.837 -31.586  1.00  0.00    -0.136 NA
HETATM   11  N   UNL     1      -1.166   4.536 -31.514  1.00  0.00     0.024 NA
HETATM   12  N   UNL     1      -1.477   5.726 -32.047  1.00  0.00    -0.196 N 
HETATM   13  C   UNL     1      -0.506   6.778 -32.175  1.00  0.00     0.200 C 
HETATM   14  N   UNL     1      -2.744   5.868 -32.474  1.00  0.00    -0.137 NA
ENDBRANCH   6   9
ENDBRANCH   2   3
ENDBRANCH   1   2
BRANCH   1  15
HETATM   15  C   UNL     1      -8.085   0.645 -33.807  1.00  0.00     0.246 C 
HETATM   16  N   UNL     1      -6.889   0.338 -34.429  1.00  0.00    -0.325 N 
HETATM   17  H   UNL     1      -6.556   1.035 -35.089  1.00  0.00     0.169 HD
HETATM   18  O   UNL     1      -8.678  -0.039 -32.977  1.00  0.00    -0.271 OA
BRANCH  16  19
HETATM   19  C   UNL     1      -6.096  -0.816 -34.258  1.00  0.00     0.036 A 
HETATM   20  C   UNL     1      -6.472  -2.082 -34.723  1.00  0.00     0.059 A 
HETATM   21  C   UNL     1      -5.601  -3.158 -34.494  1.00  0.00     0.044 A 
HETATM   22  C   UNL     1      -4.387  -3.019 -33.827  1.00  0.00    -0.008 A 
HETATM   23  N   UNL     1      -5.726  -4.485 -34.842  1.00  0.00    -0.365 N 
HETATM   24  C   UNL     1      -4.018  -1.744 -33.363  1.00  0.00     0.016 A 
HETATM   25  C   UNL     1      -3.784  -4.307 -33.782  1.00  0.00     0.030 A 
HETATM   26  C   UNL     1      -4.879  -0.657 -33.586  1.00  0.00     0.030 A 
HETATM   27  C   UNL     1      -4.630  -5.189 -34.415  1.00  0.00     0.089 A 
HETATM   28  H   UNL     1      -6.515  -4.874 -35.339  1.00  0.00     0.165 HD
ENDBRANCH  16  19
ENDBRANCH   1  15
TORSDOF 5
ENDMDL
MODEL 5
REMARK VINA RESULT:      -8.0      5.030      8.713
REMARK  5 active torsions:
REMARK  status: ('A' for Active; 'I' for Inactive)
REMARK    1  A    between atoms: C_5  and  C_6 
REMARK    2  A    between atoms: C_9  and  O_10 
REMARK    3  A    between atoms: O_10  and  C_11 
REMARK    4  A    between atoms: C_11  and  C_12 
REMARK       I    between atoms: C_12  and  N_13 
REMARK    5  A    between atoms: N_13  and  C_14 
ROOT
HETATM    1  C   UNL     1      -6.844   3.037 -32.650  1.00  0.00     0.278 C 
ENDROOT
BRANCH   1   2
HETATM    2  O   UNL     1      -7.677   3.335 -33.768  1.00  0.00    -0.342 OA
BRANCH   2   3
HETATM    3  C   UNL     1      -9.017   3.102 -33.600  1.00  0.00     0.069 A 
HETATM    4  C   UNL     1      -9.875   3.829 -32.774  1.00  0.00     0.038 A 
HETATM    5  C   UNL     1     -11.231   3.489 -32.688  1.00  0.00     0.018 A 
HETATM    6  C   UNL     1     -11.753   2.419 -33.427  1.00  0.00     0.015 A 
HETATM    7  C   UNL     1     -10.887   1.695 -34.257  1.00  0.00     0.018 A 
HETATM    8  C   UNL     1      -9.531   2.036 -34.341  1.00  0.00     0.038 A 
BRANCH   6   9
HETATM    9  C   UNL     1     -13.167   2.080 -33.328  1.00  0.00     0.198 A 
HETATM   10  N   UNL     1     -13.726   1.016 -34.003  1.00  0.00    -0.136 NA
HETATM   11  N   UNL     1     -15.012   0.990 -33.688  1.00  0.00     0.024 NA
HETATM   12  N   UNL     1     -15.174   2.024 -32.851  1.00  0.00    -0.196 N 
HETATM   13  C   UNL     1     -16.446   2.329 -32.256  1.00  0.00     0.200 C 
HETATM   14  N   UNL     1     -14.070   2.743 -32.582  1.00  0.00    -0.137 NA
ENDBRANCH   6   9
ENDBRANCH   2   3
ENDBRANCH   1   2
BRANCH   1  15
HETATM   15  C   UNL     1      -6.569   1.539 -32.489  1.00  0.00     0.246 C 
HETATM   16  N   UNL     1      -6.110   0.939 -33.647  1.00  0.00    -0.325 N 
HETATM   17  H   UNL     1      -6.034   1.556 -34.450  1.00  0.00     0.169 HD
HETATM   18  O   UNL     1      -6.742   0.999 -31.400  1.00  0.00    -0.271 OA
BRANCH  16  19
HETATM   19  C   UNL     1      -5.747  -0.411 -33.836  1.00  0.00     0.036 A 
HETATM   20  C   UNL     1      -6.587  -1.354 -34.441  1.00  0.00     0.059 A 
HETATM   21  C   UNL     1      -6.119  -2.670 -34.576  1.00  0.00     0.044 A 
HETATM   22  C   UNL     1      -4.861  -3.073 -34.135  1.00  0.00    -0.008 A 
HETATM   23  N   UNL     1      -6.731  -3.775 -35.125  1.00  0.00    -0.365 N 
HETATM   24  C   UNL     1      -4.024  -2.119 -33.528  1.00  0.00     0.016 A 
HETATM   25  C   UNL     1      -4.736  -4.457 -34.434  1.00  0.00     0.030 A 
HETATM   26  C   UNL     1      -4.479  -0.798 -33.388  1.00  0.00     0.030 A 
HETATM   27  C   UNL     1      -5.902  -4.862 -35.044  1.00  0.00     0.089 A 
HETATM   28  H   UNL     1      -7.659  -3.772 -35.526  1.00  0.00     0.165 HD
ENDBRANCH  16  19
ENDBRANCH   1  15
TORSDOF 5
ENDMDL
MODEL 6
REMARK VINA RESULT:      -8.0      1.870      2.451
REMARK  5 active torsions:
REMARK  status: ('A' for Active; 'I' for Inactive)
REMARK    1  A    between atoms: C_5  and  C_6 
REMARK    2  A    between atoms: C_9  and  O_10 
REMARK    3  A    between atoms: O_10  and  C_11 
REMARK    4  A    between atoms: C_11  and  C_12 
REMARK       I    between atoms: C_12  and  N_13 
REMARK    5  A    between atoms: N_13  and  C_14 
ROOT
HETATM    1  C   UNL     1      -4.393   4.658 -33.158  1.00  0.00     0.278 C 
ENDROOT
BRANCH   1   2
HETATM    2  O   UNL     1      -4.739   3.679 -32.181  1.00  0.00    -0.342 OA
BRANCH   2   3
HETATM    3  C   UNL     1      -4.924   2.403 -32.648  1.00  0.00     0.069 A 
HETATM    4  C   UNL     1      -6.002   1.964 -33.418  1.00  0.00     0.038 A 
HETATM    5  C   UNL     1      -6.076   0.629 -33.834  1.00  0.00     0.018 A 
HETATM    6  C   UNL     1      -5.075  -0.290 -33.490  1.00  0.00     0.015 A 
HETATM    7  C   UNL     1      -3.994   0.159 -32.719  1.00  0.00     0.018 A 
HETATM    8  C   UNL     1      -3.922   1.495 -32.304  1.00  0.00     0.038 A 
BRANCH   6   9
HETATM    9  C   UNL     1      -5.166  -1.675 -33.932  1.00  0.00     0.198 A 
HETATM   10  N   UNL     1      -4.139  -2.579 -33.764  1.00  0.00    -0.136 NA
HETATM   11  N   UNL     1      -4.552  -3.733 -34.268  1.00  0.00     0.024 NA
HETATM   12  N   UNL     1      -5.791  -3.480 -34.713  1.00  0.00    -0.196 N 
HETATM   13  C   UNL     1      -6.603  -4.499 -35.320  1.00  0.00     0.200 C 
HETATM   14  N   UNL     1      -6.236  -2.224 -34.537  1.00  0.00    -0.137 NA
ENDBRANCH   6   9
ENDBRANCH   2   3
ENDBRANCH   1   2
BRANCH   1  15
HETATM   15  C   UNL     1      -3.347   5.659 -32.659  1.00  0.00     0.246 C 
HETATM   16  N   UNL     1      -2.816   5.329 -31.426  1.00  0.00    -0.325 N 
HETATM   17  H   UNL     1      -3.197   4.486 -31.006  1.00  0.00     0.169 HD
HETATM   18  O   UNL     1      -3.046   6.627 -33.353  1.00  0.00    -0.271 OA
BRANCH  16  19
HETATM   19  C   UNL     1      -1.828   6.021 -30.696  1.00  0.00     0.036 A 
HETATM   20  C   UNL     1      -2.121   6.885 -29.634  1.00  0.00     0.059 A 
HETATM   21  C   UNL     1      -1.054   7.520 -28.981  1.00  0.00     0.044 A 
HETATM   22  C   UNL     1       0.276   7.327 -29.344  1.00  0.00    -0.008 A 
HETATM   23  N   UNL     1      -1.064   8.402 -27.923  1.00  0.00    -0.365 N 
HETATM   24  C   UNL     1       0.561   6.458 -30.412  1.00  0.00     0.016 A 
HETATM   25  C   UNL     1       1.068   8.124 -28.472  1.00  0.00     0.030 A 
HETATM   26  C   UNL     1      -0.496   5.814 -31.074  1.00  0.00     0.030 A 
HETATM   27  C   UNL     1       0.217   8.773 -27.607  1.00  0.00     0.089 A 
HETATM   28  H   UNL     1      -1.900   8.723 -27.455  1.00  0.00     0.165 HD
ENDBRANCH  16  19
ENDBRANCH   1  15
TORSDOF 5
ENDMDL
MODEL 7
REMARK VINA RESULT:      -7.7      3.800      5.237
REMARK  5 active torsions:
REMARK  status: ('A' for Active; 'I' for Inactive)
REMARK    1  A    between atoms: C_5  and  C_6 
REMARK    2  A    between atoms: C_9  and  O_10 
REMARK    3  A    between atoms: O_10  and  C_11 
REMARK    4  A    between atoms: C_11  and  C_12 
REMARK       I    between atoms: C_12  and  N_13 
REMARK    5  A    between atoms: N_13  and  C_14 
ROOT
HETATM    1  C   UNL     1      -4.707   0.104 -30.893  1.00  0.00     0.278 C 
ENDROOT
BRANCH   1   2
HETATM    2  O   UNL     1      -5.468  -0.867 -31.605  1.00  0.00    -0.342 OA
BRANCH   2   3
HETATM    3  C   UNL     1      -6.620  -0.415 -32.195  1.00  0.00     0.069 A 
HETATM    4  C   UNL     1      -6.992  -0.621 -33.524  1.00  0.00     0.038 A 
HETATM    5  C   UNL     1      -8.200  -0.104 -34.008  1.00  0.00     0.018 A 
HETATM    6  C   UNL     1      -9.058   0.625 -33.173  1.00  0.00     0.015 A 
HETATM    7  C   UNL     1      -8.679   0.826 -31.839  1.00  0.00     0.018 A 
HETATM    8  C   UNL     1      -7.470   0.308 -31.357  1.00  0.00     0.038 A 
BRANCH   6   9
HETATM    9  C   UNL     1     -10.312   1.155 -33.692  1.00  0.00     0.198 A 
HETATM   10  N   UNL     1     -10.385   2.335 -34.400  1.00  0.00    -0.136 NA
HETATM   11  N   UNL     1     -11.657   2.516 -34.723  1.00  0.00     0.024 NA
HETATM   12  N   UNL     1     -12.289   1.455 -34.202  1.00  0.00    -0.196 N 
HETATM   13  C   UNL     1     -13.706   1.262 -34.355  1.00  0.00     0.200 C 
HETATM   14  N   UNL     1     -11.516   0.570 -33.550  1.00  0.00    -0.137 NA
ENDBRANCH   6   9
ENDBRANCH   2   3
ENDBRANCH   1   2
BRANCH   1  15
HETATM   15  C   UNL     1      -3.963   1.077 -31.812  1.00  0.00     0.246 C 
HETATM   16  N   UNL     1      -4.241   2.405 -31.546  1.00  0.00    -0.325 N 
HETATM   17  H   UNL     1      -4.910   2.561 -30.798  1.00  0.00     0.169 HD
HETATM   18  O   UNL     1      -3.193   0.644 -32.666  1.00  0.00    -0.271 OA
BRANCH  16  19
HETATM   19  C   UNL     1      -3.716   3.544 -32.189  1.00  0.00     0.036 A 
HETATM   20  C   UNL     1      -2.492   4.128 -31.838  1.00  0.00     0.059 A 
HETATM   21  C   UNL     1      -2.069   5.261 -32.549  1.00  0.00     0.044 A 
HETATM   22  C   UNL     1      -2.814   5.827 -33.581  1.00  0.00    -0.008 A 
HETATM   23  N   UNL     1      -0.925   6.016 -32.410  1.00  0.00    -0.365 N 
HETATM   24  C   UNL     1      -4.042   5.235 -33.925  1.00  0.00     0.016 A 
HETATM   25  C   UNL     1      -2.082   6.949 -34.059  1.00  0.00     0.030 A 
HETATM   26  C   UNL     1      -4.477   4.099 -33.224  1.00  0.00     0.030 A 
HETATM   27  C   UNL     1      -0.923   7.040 -33.321  1.00  0.00     0.089 A 
HETATM   28  H   UNL     1      -0.199   5.832 -31.732  1.00  0.00     0.165 HD
ENDBRANCH  16  19
ENDBRANCH   1  15
TORSDOF 5
ENDMDL
MODEL 8
REMARK VINA RESULT:      -7.6      6.217      9.344
REMARK  5 active torsions:
REMARK  status: ('A' for Active; 'I' for Inactive)
REMARK    1  A    between atoms: C_5  and  C_6 
REMARK    2  A    between atoms: C_9  and  O_10 
REMARK    3  A    between atoms: O_10  and  C_11 
REMARK    4  A    between atoms: C_11  and  C_12 
REMARK       I    between atoms: C_12  and  N_13 
REMARK    5  A    between atoms: N_13  and  C_14 
ROOT
HETATM    1  C   UNL     1      -9.882   2.116 -32.737  1.00  0.00     0.278 C 
ENDROOT
BRANCH   1   2
HETATM    2  O   UNL     1      -8.993   2.114 -33.851  1.00  0.00    -0.342 OA
BRANCH   2   3
HETATM    3  C   UNL     1      -8.286   0.957 -34.054  1.00  0.00     0.069 A 
HETATM    4  C   UNL     1      -7.849   0.472 -35.287  1.00  0.00     0.038 A 
HETATM    5  C   UNL     1      -7.132  -0.728 -35.361  1.00  0.00     0.018 A 
HETATM    6  C   UNL     1      -6.836  -1.463 -34.205  1.00  0.00     0.015 A 
HETATM    7  C   UNL     1      -7.275  -0.969 -32.970  1.00  0.00     0.018 A 
HETATM    8  C   UNL     1      -7.993   0.232 -32.897  1.00  0.00     0.038 A 
BRANCH   6   9
HETATM    9  C   UNL     1      -6.087  -2.710 -34.299  1.00  0.00     0.198 A 
HETATM   10  N   UNL     1      -6.637  -3.873 -34.794  1.00  0.00    -0.136 NA
HETATM   11  N   UNL     1      -5.693  -4.800 -34.745  1.00  0.00     0.024 NA
HETATM   12  N   UNL     1      -4.630  -4.169 -34.228  1.00  0.00    -0.196 N 
HETATM   13  C   UNL     1      -3.372  -4.835 -34.029  1.00  0.00     0.200 C 
HETATM   14  N   UNL     1      -4.803  -2.869 -33.928  1.00  0.00    -0.137 NA
ENDBRANCH   6   9
ENDBRANCH   2   3
ENDBRANCH   1   2
BRANCH   1  15
HETATM   15  C   UNL     1     -11.311   2.523 -33.110  1.00  0.00     0.246 C 
HETATM   16  N   UNL     1     -12.064   2.934 -32.026  1.00  0.00    -0.325 N 
HETATM   17  H   UNL     1     -11.586   2.895 -31.131  1.00  0.00     0.169 HD
HETATM   18  O   UNL     1     -11.672   2.483 -34.283  1.00  0.00    -0.271 OA
BRANCH  16  19
HETATM   19  C   UNL     1     -13.399   3.388 -32.023  1.00  0.00     0.036 A 
HETATM   20  C   UNL     1     -14.503   2.528 -32.091  1.00  0.00     0.059 A 
HETATM   21  C   UNL     1     -15.786   3.094 -32.080  1.00  0.00     0.044 A 
HETATM   22  C   UNL     1     -16.006   4.467 -32.006  1.00  0.00    -0.008 A 
HETATM   23  N   UNL     1     -17.021   2.486 -32.135  1.00  0.00    -0.365 N 
HETATM   24  C   UNL     1     -14.892   5.323 -31.939  1.00  0.00     0.016 A 
HETATM   25  C   UNL     1     -17.414   4.667 -32.019  1.00  0.00     0.030 A 
HETATM   26  C   UNL     1     -13.601   4.770 -31.947  1.00  0.00     0.030 A 
HETATM   27  C   UNL     1     -18.014   3.430 -32.098  1.00  0.00     0.089 A 
HETATM   28  H   UNL     1     -17.164   1.487 -32.193  1.00  0.00     0.165 HD
ENDBRANCH  16  19
ENDBRANCH   1  15
TORSDOF 5
ENDMDL
MODEL 9
REMARK VINA RESULT:      -7.6      3.808      7.855
REMARK  5 active torsions:
REMARK  status: ('A' for Active; 'I' for Inactive)
REMARK    1  A    between atoms: C_5  and  C_6 
REMARK    2  A    between atoms: C_9  and  O_10 
REMARK    3  A    between atoms: O_10  and  C_11 
REMARK    4  A    between atoms: C_11  and  C_12 
REMARK       I    between atoms: C_12  and  N_13 
REMARK    5  A    between atoms: N_13  and  C_14 
ROOT
HETATM    1  C   UNL     1      -3.903   2.387 -31.235  1.00  0.00     0.278 C 
ENDROOT
BRANCH   1   2
HETATM    2  O   UNL     1      -4.552   3.110 -32.278  1.00  0.00    -0.342 OA
BRANCH   2   3
HETATM    3  C   UNL     1      -5.908   2.937 -32.376  1.00  0.00     0.069 A 
HETATM    4  C   UNL     1      -6.840   3.197 -31.370  1.00  0.00     0.038 A 
HETATM    5  C   UNL     1      -8.204   2.978 -31.597  1.00  0.00     0.018 A 
HETATM    6  C   UNL     1      -8.662   2.498 -32.832  1.00  0.00     0.015 A 
HETATM    7  C   UNL     1      -7.721   2.242 -33.838  1.00  0.00     0.018 A 
HETATM    8  C   UNL     1      -6.357   2.462 -33.610  1.00  0.00     0.038 A 
BRANCH   6   9
HETATM    9  C   UNL     1     -10.086   2.277 -33.051  1.00  0.00     0.198 A 
HETATM   10  N   UNL     1     -11.038   3.235 -32.778  1.00  0.00    -0.136 NA
HETATM   11  N   UNL     1     -12.214   2.714 -33.094  1.00  0.00     0.024 NA
HETATM   12  N   UNL     1     -11.927   1.482 -33.536  1.00  0.00    -0.196 N 
HETATM   13  C   UNL     1     -12.948   0.585 -34.004  1.00  0.00     0.200 C 
HETATM   14  N   UNL     1     -10.626   1.144 -33.537  1.00  0.00    -0.137 NA
ENDBRANCH   6   9
ENDBRANCH   2   3
ENDBRANCH   1   2
BRANCH   1  15
HETATM   15  C   UNL     1      -4.196   0.884 -31.274  1.00  0.00     0.246 C 
HETATM   16  N   UNL     1      -3.686   0.255 -32.394  1.00  0.00    -0.325 N 
HETATM   17  H   UNL     1      -3.205   0.866 -33.048  1.00  0.00     0.169 HD
HETATM   18  O   UNL     1      -4.812   0.356 -30.351  1.00  0.00    -0.271 OA
BRANCH  16  19
HETATM   19  C   UNL     1      -3.760  -1.113 -32.728  1.00  0.00     0.036 A 
HETATM   20  C   UNL     1      -4.564  -1.608 -33.762  1.00  0.00     0.059 A 
HETATM   21  C   UNL     1      -4.557  -2.990 -34.003  1.00  0.00     0.044 A 
HETATM   22  C   UNL     1      -3.790  -3.883 -33.260  1.00  0.00    -0.008 A 
HETATM   23  N   UNL     1      -5.243  -3.727 -34.944  1.00  0.00    -0.365 N 
HETATM   24  C   UNL     1      -2.987  -3.377 -32.222  1.00  0.00     0.016 A 
HETATM   25  C   UNL     1      -4.037  -5.183 -33.782  1.00  0.00     0.030 A 
HETATM   26  C   UNL     1      -2.982  -1.995 -31.971  1.00  0.00     0.030 A 
HETATM   27  C   UNL     1      -4.934  -5.056 -34.818  1.00  0.00     0.089 A 
HETATM   28  H   UNL     1      -5.878  -3.334 -35.624  1.00  0.00     0.165 HD
ENDBRANCH  16  19
ENDBRANCH   1  15
TORSDOF 5
ENDMDL
MODEL 10
REMARK VINA RESULT:      -7.4      1.831      2.243
REMARK  5 active torsions:
REMARK  status: ('A' for Active; 'I' for Inactive)
REMARK    1  A    between atoms: C_5  and  C_6 
REMARK    2  A    between atoms: C_9  and  O_10 
REMARK    3  A    between atoms: O_10  and  C_11 
REMARK    4  A    between atoms: C_11  and  C_12 
REMARK       I    between atoms: C_12  and  N_13 
REMARK    5  A    between atoms: N_13  and  C_14 
ROOT
HETATM    1  C   UNL     1      -7.646   4.293 -31.009  1.00  0.00     0.278 C 
ENDROOT
BRANCH   1   2
HETATM    2  O   UNL     1      -8.001   3.850 -32.316  1.00  0.00    -0.342 OA
BRANCH   2   3
HETATM    3  C   UNL     1      -7.618   2.575 -32.644  1.00  0.00     0.069 A 
HETATM    4  C   UNL     1      -8.015   1.409 -31.988  1.00  0.00     0.038 A 
HETATM    5  C   UNL     1      -7.552   0.161 -32.422  1.00  0.00     0.018 A 
HETATM    6  C   UNL     1      -6.686   0.056 -33.519  1.00  0.00     0.015 A 
HETATM    7  C   UNL     1      -6.294   1.230 -34.175  1.00  0.00     0.018 A 
HETATM    8  C   UNL     1      -6.758   2.478 -33.739  1.00  0.00     0.038 A 
BRANCH   6   9
HETATM    9  C   UNL     1      -6.214  -1.251 -33.959  1.00  0.00     0.198 A 
HETATM   10  N   UNL     1      -4.876  -1.561 -34.067  1.00  0.00    -0.136 NA
HETATM   11  N   UNL     1      -4.801  -2.817 -34.482  1.00  0.00     0.024 NA
HETATM   12  N   UNL     1      -6.077  -3.205 -34.608  1.00  0.00    -0.196 N 
HETATM   13  C   UNL     1      -6.430  -4.535 -35.024  1.00  0.00     0.200 C 
HETATM   14  N   UNL     1      -7.007  -2.284 -34.299  1.00  0.00    -0.137 NA
ENDBRANCH   6   9
ENDBRANCH   2   3
ENDBRANCH   1   2
BRANCH   1  15
HETATM   15  C   UNL     1      -6.145   4.194 -30.728  1.00  0.00     0.246 C 
HETATM   16  N   UNL     1      -5.385   5.059 -31.493  1.00  0.00    -0.325 N 
HETATM   17  H   UNL     1      -5.912   5.628 -32.148  1.00  0.00     0.169 HD
HETATM   18  O   UNL     1      -5.732   3.412 -29.875  1.00  0.00    -0.271 OA
BRANCH  16  19
HETATM   19  C   UNL     1      -3.986   5.233 -31.471  1.00  0.00     0.036 A 
HETATM   20  C   UNL     1      -3.336   6.115 -30.598  1.00  0.00     0.059 A 
HETATM   21  C   UNL     1      -1.938   6.206 -30.666  1.00  0.00     0.044 A 
HETATM   22  C   UNL     1      -1.175   5.459 -31.561  1.00  0.00    -0.008 A 
HETATM   23  N   UNL     1      -1.065   6.980 -29.934  1.00  0.00    -0.365 N 
HETATM   24  C   UNL     1      -1.836   4.577 -32.434  1.00  0.00     0.016 A 
HETATM   25  C   UNL     1       0.186   5.811 -31.345  1.00  0.00     0.030 A 
HETATM   26  C   UNL     1      -3.235   4.475 -32.376  1.00  0.00     0.030 A 
HETATM   27  C   UNL     1       0.224   6.747 -30.338  1.00  0.00     0.089 A 
HETATM   28  H   UNL     1      -1.345   7.623 -29.207  1.00  0.00     0.165 HD
ENDBRANCH  16  19
ENDBRANCH   1  15
TORSDOF 5
ENDMDL
