MODEL 1
REMARK VINA RESULT:      -7.9      0.000      0.000
REMARK  14 active torsions:
REMARK  status: ('A' for Active; 'I' for Inactive)
REMARK    1  A    between atoms: C_2  and  N_3 
REMARK    2  A    between atoms: N_3  and  C_5 
REMARK    3  A    between atoms: N_3  and  C_37 
REMARK    4  A    between atoms: C_5  and  C_6 
REMARK    5  A    between atoms: C_6  and  N_7 
REMARK    6  A    between atoms: C_10  and  O_11 
REMARK    7  A    between atoms: C_12  and  C_13 
REMARK    8  A    between atoms: C_13  and  C_14 
REMARK    9  A    between atoms: C_18  and  O_19 
REMARK   10  A    between atoms: O_19  and  C_20 
REMARK   11  A    between atoms: C_20  and  C_21 
REMARK   12  A    between atoms: C_27  and  C_28 
REMARK   13  A    between atoms: C_30  and  O_31 
REMARK   14  A    between atoms: C_33  and  O_34 
ROOT
HETATM    1  N   UNL     1      -7.175   5.177 -31.873  1.00  0.00    -0.332 N 
HETATM    2  C   UNL     1      -7.687   4.551 -30.758  1.00  0.00     0.278 A 
HETATM    3  O   UNL     1      -8.736   4.795 -30.192  1.00  0.00    -0.265 OA
HETATM    4  C   UNL     1      -6.758   3.463 -30.393  1.00  0.00     0.146 A 
HETATM    5  C   UNL     1      -5.802   3.436 -31.330  1.00  0.00     0.059 A 
HETATM    6  C   UNL     1      -5.931   4.560 -32.313  1.00  0.00     0.161 A 
ENDROOT
BRANCH   5   7
HETATM    7  C   UNL     1      -4.739   2.429 -31.529  1.00  0.00     0.193 C 
HETATM    8  O   UNL     1      -3.624   2.615 -31.051  1.00  0.00    -0.287 OA
BRANCH   7   9
HETATM    9  C   UNL     1      -4.962   1.253 -32.405  1.00  0.00     0.015 A 
HETATM   10  C   UNL     1      -5.949   1.332 -33.393  1.00  0.00     0.025 A 
HETATM   11  C   UNL     1      -6.257   0.215 -34.188  1.00  0.00    -0.028 A 
HETATM   12  C   UNL     1      -7.331   0.316 -35.236  1.00  0.00     0.051 C 
HETATM   13  C   UNL     1      -5.587  -1.001 -33.961  1.00  0.00     0.074 A 
HETATM   14  C   UNL     1      -4.599  -1.075 -32.976  1.00  0.00     0.038 A 
HETATM   15  C   UNL     1      -4.297   0.041 -32.191  1.00  0.00     0.018 A 
BRANCH  13  16
HETATM   16  O   UNL     1      -5.955  -2.053 -34.758  1.00  0.00    -0.350 OA
BRANCH  16  17
HETATM   17  C   UNL     1      -4.909  -2.933 -35.178  1.00  0.00     0.179 C 
BRANCH  17  18
HETATM   18  C   UNL     1      -5.388  -4.383 -35.037  1.00  0.00     0.002 C 
HETATM   19  C   UNL     1      -4.569  -5.139 -33.989  1.00  0.00     0.011 C 
HETATM   20  C   UNL     1      -6.873  -4.419 -34.677  1.00  0.00     0.011 C 
ENDBRANCH  17  18
ENDBRANCH  16  17
ENDBRANCH  13  16
ENDBRANCH   7   9
ENDBRANCH   5   7
BRANCH   4  21
HETATM   21  O   UNL     1      -6.963   2.620 -29.345  1.00  0.00    -0.355 OA
HETATM   22  H   UNL     1      -6.544   1.766 -29.577  1.00  0.00     0.218 HD
ENDBRANCH   4  21
BRANCH   6  23
HETATM   23  C   UNL     1      -4.810   5.584 -32.320  1.00  0.00    -0.028 A 
HETATM   24  C   UNL     1      -3.912   5.618 -33.406  1.00  0.00     0.049 A 
HETATM   25  C   UNL     1      -2.886   6.563 -33.455  1.00  0.00     0.101 A 
HETATM   26  C   UNL     1      -2.776   7.494 -32.419  1.00  0.00     0.099 A 
HETATM   27  C   UNL     1      -3.632   7.469 -31.328  1.00  0.00     0.040 A 
HETATM   28  C   UNL     1      -4.641   6.509 -31.272  1.00  0.00     0.012 A 
BRANCH  25  29
HETATM   29  O   UNL     1      -1.964   6.694 -34.461  1.00  0.00    -0.353 OA
HETATM   30  C   UNL     1      -1.240   5.514 -34.800  1.00  0.00     0.210 C 
ENDBRANCH  25  29
BRANCH  26  31
HETATM   31  O   UNL     1      -1.800   8.450 -32.450  1.00  0.00    -0.358 OA
HETATM   32  H   UNL     1      -2.194   9.210 -32.924  1.00  0.00     0.218 HD
ENDBRANCH  26  31
ENDBRANCH   6  23
BRANCH   1  33
HETATM   33  C   UNL     1      -7.941   6.092 -32.701  1.00  0.00     0.155 C 
BRANCH  33  34
HETATM   34  C   UNL     1      -8.710   5.379 -33.827  1.00  0.00     0.254 C 
BRANCH  34  35
HETATM   35  N   UNL     1      -9.725   4.356 -33.322  1.00  0.00    -0.070 N 
HETATM   36  H   UNL     1      -9.658   4.402 -32.296  1.00  0.00     0.279 HD
BRANCH  35  37
HETATM   37  C   UNL     1      -9.401   2.912 -33.679  1.00  0.00     0.230 C 
HETATM   38  C   UNL     1      -9.650   1.972 -32.514  1.00  0.00     0.034 C 
ENDBRANCH  35  37
BRANCH  35  39
HETATM   39  C   UNL     1     -11.174   4.675 -33.649  1.00  0.00     0.230 C 
HETATM   40  C   UNL     1     -11.292   5.520 -34.904  1.00  0.00     0.034 C 
ENDBRANCH  35  39
ENDBRANCH  34  35
ENDBRANCH  33  34
ENDBRANCH   1  33
TORSDOF 14
ENDMDL
MODEL 2
REMARK VINA RESULT:      -7.8      2.848      6.706
REMARK  14 active torsions:
REMARK  status: ('A' for Active; 'I' for Inactive)
REMARK    1  A    between atoms: C_2  and  N_3 
REMARK    2  A    between atoms: N_3  and  C_5 
REMARK    3  A    between atoms: N_3  and  C_37 
REMARK    4  A    between atoms: C_5  and  C_6 
REMARK    5  A    between atoms: C_6  and  N_7 
REMARK    6  A    between atoms: C_10  and  O_11 
REMARK    7  A    between atoms: C_12  and  C_13 
REMARK    8  A    between atoms: C_13  and  C_14 
REMARK    9  A    between atoms: C_18  and  O_19 
REMARK   10  A    between atoms: O_19  and  C_20 
REMARK   11  A    between atoms: C_20  and  C_21 
REMARK   12  A    between atoms: C_27  and  C_28 
REMARK   13  A    between atoms: C_30  and  O_31 
REMARK   14  A    between atoms: C_33  and  O_34 
ROOT
HETATM    1  N   UNL     1      -2.743   7.586 -30.839  1.00  0.00    -0.332 N 
HETATM    2  C   UNL     1      -2.267   8.261 -31.940  1.00  0.00     0.278 A 
HETATM    3  O   UNL     1      -1.846   9.402 -31.981  1.00  0.00    -0.265 OA
HETATM    4  C   UNL     1      -2.291   7.324 -33.081  1.00  0.00     0.146 A 
HETATM    5  C   UNL     1      -2.693   6.139 -32.604  1.00  0.00     0.059 A 
HETATM    6  C   UNL     1      -3.087   6.207 -31.159  1.00  0.00     0.161 A 
ENDROOT
BRANCH   5   7
HETATM    7  C   UNL     1      -2.715   4.832 -33.291  1.00  0.00     0.193 C 
HETATM    8  O   UNL     1      -1.931   4.611 -34.210  1.00  0.00    -0.287 OA
BRANCH   7   9
HETATM    9  C   UNL     1      -3.755   3.823 -32.970  1.00  0.00     0.015 A 
HETATM   10  C   UNL     1      -3.388   2.701 -32.219  1.00  0.00     0.025 A 
HETATM   11  C   UNL     1      -4.315   1.677 -31.965  1.00  0.00    -0.028 A 
HETATM   12  C   UNL     1      -3.899   0.472 -31.166  1.00  0.00     0.051 C 
HETATM   13  C   UNL     1      -5.613   1.769 -32.501  1.00  0.00     0.074 A 
HETATM   14  C   UNL     1      -5.976   2.893 -33.248  1.00  0.00     0.038 A 
HETATM   15  C   UNL     1      -5.048   3.909 -33.494  1.00  0.00     0.018 A 
BRANCH  13  16
HETATM   16  O   UNL     1      -6.455   0.723 -32.232  1.00  0.00    -0.350 OA
BRANCH  16  17
HETATM   17  C   UNL     1      -7.689   0.695 -32.955  1.00  0.00     0.179 C 
BRANCH  17  18
HETATM   18  C   UNL     1      -7.622  -0.412 -34.016  1.00  0.00     0.002 C 
HETATM   19  C   UNL     1      -7.327   0.166 -35.401  1.00  0.00     0.011 C 
HETATM   20  C   UNL     1      -6.566  -1.448 -33.637  1.00  0.00     0.011 C 
ENDBRANCH  17  18
ENDBRANCH  16  17
ENDBRANCH  13  16
ENDBRANCH   7   9
ENDBRANCH   5   7
BRANCH   4  21
HETATM   21  O   UNL     1      -1.868   7.652 -34.332  1.00  0.00    -0.355 OA
HETATM   22  H   UNL     1      -2.417   7.144 -34.963  1.00  0.00     0.218 HD
ENDBRANCH   4  21
BRANCH   6  23
HETATM   23  C   UNL     1      -4.549   5.942 -30.844  1.00  0.00    -0.028 A 
HETATM   24  C   UNL     1      -5.539   6.764 -31.420  1.00  0.00     0.049 A 
HETATM   25  C   UNL     1      -6.893   6.532 -31.171  1.00  0.00     0.101 A 
HETATM   26  C   UNL     1      -7.254   5.455 -30.359  1.00  0.00     0.099 A 
HETATM   27  C   UNL     1      -6.300   4.644 -29.762  1.00  0.00     0.040 A 
HETATM   28  C   UNL     1      -4.948   4.893 -29.994  1.00  0.00     0.012 A 
BRANCH  25  29
HETATM   29  O   UNL     1      -7.938   7.258 -31.681  1.00  0.00    -0.353 OA
HETATM   30  C   UNL     1      -7.620   8.569 -32.142  1.00  0.00     0.210 C 
ENDBRANCH  25  29
BRANCH  26  31
HETATM   31  O   UNL     1      -8.572   5.182 -30.117  1.00  0.00    -0.358 OA
HETATM   32  H   UNL     1      -8.603   4.232 -29.887  1.00  0.00     0.218 HD
ENDBRANCH  26  31
ENDBRANCH   6  23
BRANCH   1  33
HETATM   33  C   UNL     1      -2.595   8.069 -29.477  1.00  0.00     0.155 C 
BRANCH  33  34
HETATM   34  C   UNL     1      -1.827   7.086 -28.575  1.00  0.00     0.254 C 
BRANCH  34  35
HETATM   35  N   UNL     1      -0.318   7.089 -28.813  1.00  0.00    -0.070 N 
HETATM   36  H   UNL     1      -0.152   7.884 -29.445  1.00  0.00     0.279 HD
BRANCH  35  37
HETATM   37  C   UNL     1       0.208   5.870 -29.559  1.00  0.00     0.230 C 
HETATM   38  C   UNL     1       0.666   6.219 -30.962  1.00  0.00     0.034 C 
ENDBRANCH  35  37
BRANCH  35  39
HETATM   39  C   UNL     1       0.525   7.366 -27.581  1.00  0.00     0.230 C 
HETATM   40  C   UNL     1       1.490   8.515 -27.809  1.00  0.00     0.034 C 
ENDBRANCH  35  39
ENDBRANCH  34  35
ENDBRANCH  33  34
ENDBRANCH   1  33
TORSDOF 14
ENDMDL
MODEL 3
REMARK VINA RESULT:      -7.7      2.635      6.593
REMARK  14 active torsions:
REMARK  status: ('A' for Active; 'I' for Inactive)
REMARK    1  A    between atoms: C_2  and  N_3 
REMARK    2  A    between atoms: N_3  and  C_5 
REMARK    3  A    between atoms: N_3  and  C_37 
REMARK    4  A    between atoms: C_5  and  C_6 
REMARK    5  A    between atoms: C_6  and  N_7 
REMARK    6  A    between atoms: C_10  and  O_11 
REMARK    7  A    between atoms: C_12  and  C_13 
REMARK    8  A    between atoms: C_13  and  C_14 
REMARK    9  A    between atoms: C_18  and  O_19 
REMARK   10  A    between atoms: O_19  and  C_20 
REMARK   11  A    between atoms: C_20  and  C_21 
REMARK   12  A    between atoms: C_27  and  C_28 
REMARK   13  A    between atoms: C_30  and  O_31 
REMARK   14  A    between atoms: C_33  and  O_34 
ROOT
HETATM    1  N   UNL     1      -3.083   7.570 -30.939  1.00  0.00    -0.332 N 
HETATM    2  C   UNL     1      -2.344   8.249 -31.882  1.00  0.00     0.278 A 
HETATM    3  O   UNL     1      -1.826   9.343 -31.765  1.00  0.00    -0.265 OA
HETATM    4  C   UNL     1      -2.226   7.376 -33.067  1.00  0.00     0.146 A 
HETATM    5  C   UNL     1      -2.814   6.214 -32.756  1.00  0.00     0.059 A 
HETATM    6  C   UNL     1      -3.476   6.249 -31.412  1.00  0.00     0.161 A 
ENDROOT
BRANCH   5   7
HETATM    7  C   UNL     1      -2.814   4.951 -33.521  1.00  0.00     0.193 C 
HETATM    8  O   UNL     1      -2.210   4.881 -34.588  1.00  0.00    -0.287 OA
BRANCH   7   9
HETATM    9  C   UNL     1      -3.637   3.797 -33.082  1.00  0.00     0.015 A 
HETATM   10  C   UNL     1      -4.935   3.670 -33.588  1.00  0.00     0.025 A 
HETATM   11  C   UNL     1      -5.782   2.645 -33.134  1.00  0.00    -0.028 A 
HETATM   12  C   UNL     1      -7.179   2.533 -33.680  1.00  0.00     0.051 C 
HETATM   13  C   UNL     1      -5.328   1.761 -32.139  1.00  0.00     0.074 A 
HETATM   14  C   UNL     1      -4.029   1.889 -31.639  1.00  0.00     0.038 A 
HETATM   15  C   UNL     1      -3.191   2.910 -32.096  1.00  0.00     0.018 A 
BRANCH  13  16
HETATM   16  O   UNL     1      -6.215   0.802 -31.729  1.00  0.00    -0.350 OA
BRANCH  16  17
HETATM   17  C   UNL     1      -5.795  -0.558 -31.869  1.00  0.00     0.179 C 
BRANCH  17  18
HETATM   18  C   UNL     1      -5.681  -0.895 -33.362  1.00  0.00     0.002 C 
HETATM   19  C   UNL     1      -4.543  -1.885 -33.621  1.00  0.00     0.011 C 
HETATM   20  C   UNL     1      -7.003  -1.458 -33.881  1.00  0.00     0.011 C 
ENDBRANCH  17  18
ENDBRANCH  16  17
ENDBRANCH  13  16
ENDBRANCH   7   9
ENDBRANCH   5   7
BRANCH   4  21
HETATM   21  O   UNL     1      -1.539   7.722 -34.190  1.00  0.00    -0.355 OA
HETATM   22  H   UNL     1      -0.930   6.983 -34.393  1.00  0.00     0.218 HD
ENDBRANCH   4  21
BRANCH   6  23
HETATM   23  C   UNL     1      -4.988   6.113 -31.399  1.00  0.00    -0.028 A 
HETATM   24  C   UNL     1      -5.600   5.300 -30.424  1.00  0.00     0.049 A 
HETATM   25  C   UNL     1      -6.990   5.174 -30.369  1.00  0.00     0.101 A 
HETATM   26  C   UNL     1      -7.768   5.887 -31.284  1.00  0.00     0.099 A 
HETATM   27  C   UNL     1      -7.191   6.677 -32.268  1.00  0.00     0.040 A 
HETATM   28  C   UNL     1      -5.802   6.781 -32.333  1.00  0.00     0.012 A 
BRANCH  25  29
HETATM   29  O   UNL     1      -7.691   4.422 -29.463  1.00  0.00    -0.353 OA
HETATM   30  C   UNL     1      -7.860   3.045 -29.794  1.00  0.00     0.210 C 
ENDBRANCH  25  29
BRANCH  26  31
HETATM   31  O   UNL     1      -9.132   5.808 -31.240  1.00  0.00    -0.358 OA
HETATM   32  H   UNL     1      -9.335   4.856 -31.152  1.00  0.00     0.218 HD
ENDBRANCH  26  31
ENDBRANCH   6  23
BRANCH   1  33
HETATM   33  C   UNL     1      -3.163   7.968 -29.545  1.00  0.00     0.155 C 
BRANCH  33  34
HETATM   34  C   UNL     1      -1.997   7.424 -28.700  1.00  0.00     0.254 C 
BRANCH  34  35
HETATM   35  N   UNL     1      -0.662   8.106 -28.990  1.00  0.00    -0.070 N 
HETATM   36  H   UNL     1      -0.883   8.836 -29.682  1.00  0.00     0.279 HD
BRANCH  35  37
HETATM   37  C   UNL     1       0.371   7.215 -29.667  1.00  0.00     0.230 C 
HETATM   38  C   UNL     1      -0.106   5.780 -29.777  1.00  0.00     0.034 C 
ENDBRANCH  35  37
BRANCH  35  39
HETATM   39  C   UNL     1      -0.046   8.838 -27.811  1.00  0.00     0.230 C 
HETATM   40  C   UNL     1       1.436   8.540 -27.678  1.00  0.00     0.034 C 
ENDBRANCH  35  39
ENDBRANCH  34  35
ENDBRANCH  33  34
ENDBRANCH   1  33
TORSDOF 14
ENDMDL
MODEL 4
REMARK VINA RESULT:      -7.5      2.884      5.970
REMARK  14 active torsions:
REMARK  status: ('A' for Active; 'I' for Inactive)
REMARK    1  A    between atoms: C_2  and  N_3 
REMARK    2  A    between atoms: N_3  and  C_5 
REMARK    3  A    between atoms: N_3  and  C_37 
REMARK    4  A    between atoms: C_5  and  C_6 
REMARK    5  A    between atoms: C_6  and  N_7 
REMARK    6  A    between atoms: C_10  and  O_11 
REMARK    7  A    between atoms: C_12  and  C_13 
REMARK    8  A    between atoms: C_13  and  C_14 
REMARK    9  A    between atoms: C_18  and  O_19 
REMARK   10  A    between atoms: O_19  and  C_20 
REMARK   11  A    between atoms: C_20  and  C_21 
REMARK   12  A    between atoms: C_27  and  C_28 
REMARK   13  A    between atoms: C_30  and  O_31 
REMARK   14  A    between atoms: C_33  and  O_34 
ROOT
HETATM    1  N   UNL     1      -2.587   5.146 -32.344  1.00  0.00    -0.332 N 
HETATM    2  C   UNL     1      -2.351   5.504 -33.652  1.00  0.00     0.278 A 
HETATM    3  O   UNL     1      -1.308   5.909 -34.129  1.00  0.00    -0.265 OA
HETATM    4  C   UNL     1      -3.590   5.246 -34.414  1.00  0.00     0.146 A 
HETATM    5  C   UNL     1      -4.459   4.684 -33.566  1.00  0.00     0.059 A 
HETATM    6  C   UNL     1      -3.938   4.633 -32.161  1.00  0.00     0.161 A 
ENDROOT
BRANCH   5   7
HETATM    7  C   UNL     1      -5.771   4.074 -33.865  1.00  0.00     0.193 C 
HETATM    8  O   UNL     1      -6.728   4.790 -34.145  1.00  0.00    -0.287 OA
BRANCH   7   9
HETATM    9  C   UNL     1      -5.983   2.613 -33.710  1.00  0.00     0.015 A 
HETATM   10  C   UNL     1      -5.258   1.933 -32.726  1.00  0.00     0.025 A 
HETATM   11  C   UNL     1      -5.358   0.537 -32.601  1.00  0.00    -0.028 A 
HETATM   12  C   UNL     1      -4.561  -0.179 -31.545  1.00  0.00     0.051 C 
HETATM   13  C   UNL     1      -6.171  -0.181 -33.497  1.00  0.00     0.074 A 
HETATM   14  C   UNL     1      -6.897   0.503 -34.476  1.00  0.00     0.038 A 
HETATM   15  C   UNL     1      -6.793   1.892 -34.593  1.00  0.00     0.018 A 
BRANCH  13  16
HETATM   16  O   UNL     1      -6.203  -1.540 -33.329  1.00  0.00    -0.350 OA
BRANCH  16  17
HETATM   17  C   UNL     1      -6.863  -2.294 -34.349  1.00  0.00     0.179 C 
BRANCH  17  18
HETATM   18  C   UNL     1      -5.831  -3.171 -35.071  1.00  0.00     0.002 C 
HETATM   19  C   UNL     1      -4.557  -3.327 -34.238  1.00  0.00     0.011 C 
HETATM   20  C   UNL     1      -6.428  -4.541 -35.389  1.00  0.00     0.011 C 
ENDBRANCH  17  18
ENDBRANCH  16  17
ENDBRANCH  13  16
ENDBRANCH   7   9
ENDBRANCH   5   7
BRANCH   4  21
HETATM   21  O   UNL     1      -3.710   5.469 -35.751  1.00  0.00    -0.355 OA
HETATM   22  H   UNL     1      -4.516   5.001 -36.048  1.00  0.00     0.218 HD
ENDBRANCH   4  21
BRANCH   6  23
HETATM   23  C   UNL     1      -4.683   5.466 -31.133  1.00  0.00    -0.028 A 
HETATM   24  C   UNL     1      -5.008   6.804 -31.433  1.00  0.00     0.049 A 
HETATM   25  C   UNL     1      -5.715   7.589 -30.520  1.00  0.00     0.101 A 
HETATM   26  C   UNL     1      -6.116   7.020 -29.310  1.00  0.00     0.099 A 
HETATM   27  C   UNL     1      -5.791   5.712 -28.980  1.00  0.00     0.040 A 
HETATM   28  C   UNL     1      -5.065   4.939 -29.885  1.00  0.00     0.012 A 
BRANCH  25  29
HETATM   29  O   UNL     1      -6.090   8.894 -30.707  1.00  0.00    -0.353 OA
HETATM   30  C   UNL     1      -7.142   9.112 -31.645  1.00  0.00     0.210 C 
ENDBRANCH  25  29
BRANCH  26  31
HETATM   31  O   UNL     1      -6.834   7.752 -28.405  1.00  0.00    -0.358 OA
HETATM   32  H   UNL     1      -7.765   7.686 -28.696  1.00  0.00     0.218 HD
ENDBRANCH  26  31
ENDBRANCH   6  23
BRANCH   1  33
HETATM   33  C   UNL     1      -1.534   4.972 -31.358  1.00  0.00     0.155 C 
BRANCH  33  34
HETATM   34  C   UNL     1      -1.160   6.284 -30.646  1.00  0.00     0.254 C 
BRANCH  34  35
HETATM   35  N   UNL     1      -1.021   6.140 -29.132  1.00  0.00    -0.070 N 
HETATM   36  H   UNL     1      -1.548   5.287 -28.899  1.00  0.00     0.279 HD
BRANCH  35  37
HETATM   37  C   UNL     1      -1.684   7.250 -28.327  1.00  0.00     0.230 C 
HETATM   38  C   UNL     1      -2.322   8.295 -29.222  1.00  0.00     0.034 C 
ENDBRANCH  35  37
BRANCH  35  39
HETATM   39  C   UNL     1       0.393   5.893 -28.638  1.00  0.00     0.230 C 
HETATM   40  C   UNL     1       0.857   6.988 -27.695  1.00  0.00     0.034 C 
ENDBRANCH  35  39
ENDBRANCH  34  35
ENDBRANCH  33  34
ENDBRANCH   1  33
TORSDOF 14
ENDMDL
MODEL 5
REMARK VINA RESULT:      -7.4      2.821      5.928
REMARK  14 active torsions:
REMARK  status: ('A' for Active; 'I' for Inactive)
REMARK    1  A    between atoms: C_2  and  N_3 
REMARK    2  A    between atoms: N_3  and  C_5 
REMARK    3  A    between atoms: N_3  and  C_37 
REMARK    4  A    between atoms: C_5  and  C_6 
REMARK    5  A    between atoms: C_6  and  N_7 
REMARK    6  A    between atoms: C_10  and  O_11 
REMARK    7  A    between atoms: C_12  and  C_13 
REMARK    8  A    between atoms: C_13  and  C_14 
REMARK    9  A    between atoms: C_18  and  O_19 
REMARK   10  A    between atoms: O_19  and  C_20 
REMARK   11  A    between atoms: C_20  and  C_21 
REMARK   12  A    between atoms: C_27  and  C_28 
REMARK   13  A    between atoms: C_30  and  O_31 
REMARK   14  A    between atoms: C_33  and  O_34 
ROOT
HETATM    1  N   UNL     1      -2.635   6.007 -32.204  1.00  0.00    -0.332 N 
HETATM    2  C   UNL     1      -2.438   6.144 -33.559  1.00  0.00     0.278 A 
HETATM    3  O   UNL     1      -1.443   6.559 -34.122  1.00  0.00    -0.265 OA
HETATM    4  C   UNL     1      -3.643   5.626 -34.239  1.00  0.00     0.146 A 
HETATM    5  C   UNL     1      -4.450   5.142 -33.287  1.00  0.00     0.059 A 
HETATM    6  C   UNL     1      -3.926   5.401 -31.906  1.00  0.00     0.161 A 
ENDROOT
BRANCH   5   7
HETATM    7  C   UNL     1      -5.691   4.358 -33.445  1.00  0.00     0.193 C 
HETATM    8  O   UNL     1      -6.779   4.927 -33.437  1.00  0.00    -0.287 OA
BRANCH   7   9
HETATM    9  C   UNL     1      -5.653   2.875 -33.491  1.00  0.00     0.015 A 
HETATM   10  C   UNL     1      -6.535   2.210 -34.350  1.00  0.00     0.025 A 
HETATM   11  C   UNL     1      -6.597   0.807 -34.364  1.00  0.00    -0.028 A 
HETATM   12  C   UNL     1      -7.561   0.109 -35.284  1.00  0.00     0.051 C 
HETATM   13  C   UNL     1      -5.786   0.069 -33.481  1.00  0.00     0.074 A 
HETATM   14  C   UNL     1      -4.904   0.738 -32.628  1.00  0.00     0.038 A 
HETATM   15  C   UNL     1      -4.847   2.134 -32.622  1.00  0.00     0.018 A 
BRANCH  13  16
HETATM   16  O   UNL     1      -5.917  -1.293 -33.534  1.00  0.00    -0.350 OA
BRANCH  16  17
HETATM   17  C   UNL     1      -4.746  -2.033 -33.892  1.00  0.00     0.179 C 
BRANCH  17  18
HETATM   18  C   UNL     1      -5.161  -3.249 -34.732  1.00  0.00     0.002 C 
HETATM   19  C   UNL     1      -4.494  -4.528 -34.221  1.00  0.00     0.011 C 
HETATM   20  C   UNL     1      -6.681  -3.404 -34.726  1.00  0.00     0.011 C 
ENDBRANCH  17  18
ENDBRANCH  16  17
ENDBRANCH  13  16
ENDBRANCH   7   9
ENDBRANCH   5   7
BRANCH   4  21
HETATM   21  O   UNL     1      -3.786   5.589 -35.591  1.00  0.00    -0.355 OA
HETATM   22  H   UNL     1      -4.523   4.975 -35.785  1.00  0.00     0.218 HD
ENDBRANCH   4  21
BRANCH   6  23
HETATM   23  C   UNL     1      -4.754   6.327 -31.032  1.00  0.00    -0.028 A 
HETATM   24  C   UNL     1      -4.903   6.032 -29.661  1.00  0.00     0.049 A 
HETATM   25  C   UNL     1      -5.635   6.877 -28.825  1.00  0.00     0.101 A 
HETATM   26  C   UNL     1      -6.202   8.034 -29.364  1.00  0.00     0.099 A 
HETATM   27  C   UNL     1      -6.090   8.337 -30.714  1.00  0.00     0.040 A 
HETATM   28  C   UNL     1      -5.376   7.479 -31.549  1.00  0.00     0.012 A 
BRANCH  25  29
HETATM   29  O   UNL     1      -5.839   6.695 -27.482  1.00  0.00    -0.353 OA
HETATM   30  C   UNL     1      -4.665   6.623 -26.677  1.00  0.00     0.210 C 
ENDBRANCH  25  29
BRANCH  26  31
HETATM   31  O   UNL     1      -6.902   8.897 -28.568  1.00  0.00    -0.358 OA
HETATM   32  H   UNL     1      -7.125   9.658 -29.141  1.00  0.00     0.218 HD
ENDBRANCH  26  31
ENDBRANCH   6  23
BRANCH   1  33
HETATM   33  C   UNL     1      -1.571   6.124 -31.223  1.00  0.00     0.155 C 
BRANCH  33  34
HETATM   34  C   UNL     1      -1.303   7.580 -30.802  1.00  0.00     0.254 C 
BRANCH  34  35
HETATM   35  N   UNL     1      -1.784   7.907 -29.390  1.00  0.00    -0.070 N 
HETATM   36  H   UNL     1      -2.357   7.097 -29.113  1.00  0.00     0.279 HD
BRANCH  35  37
HETATM   37  C   UNL     1      -2.718   9.106 -29.301  1.00  0.00     0.230 C 
HETATM   38  C   UNL     1      -2.654   9.967 -30.548  1.00  0.00     0.034 C 
ENDBRANCH  35  37
BRANCH  35  39
HETATM   39  C   UNL     1      -0.687   8.005 -28.345  1.00  0.00     0.230 C 
HETATM   40  C   UNL     1       0.676   7.693 -28.933  1.00  0.00     0.034 C 
ENDBRANCH  35  39
ENDBRANCH  34  35
ENDBRANCH  33  34
ENDBRANCH   1  33
TORSDOF 14
ENDMDL
MODEL 6
REMARK VINA RESULT:      -7.3      2.450      8.282
REMARK  14 active torsions:
REMARK  status: ('A' for Active; 'I' for Inactive)
REMARK    1  A    between atoms: C_2  and  N_3 
REMARK    2  A    between atoms: N_3  and  C_5 
REMARK    3  A    between atoms: N_3  and  C_37 
REMARK    4  A    between atoms: C_5  and  C_6 
REMARK    5  A    between atoms: C_6  and  N_7 
REMARK    6  A    between atoms: C_10  and  O_11 
REMARK    7  A    between atoms: C_12  and  C_13 
REMARK    8  A    between atoms: C_13  and  C_14 
REMARK    9  A    between atoms: C_18  and  O_19 
REMARK   10  A    between atoms: O_19  and  C_20 
REMARK   11  A    between atoms: C_20  and  C_21 
REMARK   12  A    between atoms: C_27  and  C_28 
REMARK   13  A    between atoms: C_30  and  O_31 
REMARK   14  A    between atoms: C_33  and  O_34 
ROOT
HETATM    1  N   UNL     1      -5.383   0.691 -31.942  1.00  0.00    -0.332 N 
HETATM    2  C   UNL     1      -4.124   0.948 -31.449  1.00  0.00     0.278 A 
HETATM    3  O   UNL     1      -3.391   0.177 -30.859  1.00  0.00    -0.265 OA
HETATM    4  C   UNL     1      -3.774   2.333 -31.823  1.00  0.00     0.146 A 
HETATM    5  C   UNL     1      -4.780   2.800 -32.574  1.00  0.00     0.059 A 
HETATM    6  C   UNL     1      -5.925   1.837 -32.661  1.00  0.00     0.161 A 
ENDROOT
BRANCH   5   7
HETATM    7  C   UNL     1      -4.845   4.059 -33.343  1.00  0.00     0.193 C 
HETATM    8  O   UNL     1      -5.346   4.066 -34.463  1.00  0.00    -0.287 OA
BRANCH   7   9
HETATM    9  C   UNL     1      -4.201   5.295 -32.832  1.00  0.00     0.015 A 
HETATM   10  C   UNL     1      -2.963   5.673 -33.363  1.00  0.00     0.025 A 
HETATM   11  C   UNL     1      -2.274   6.784 -32.851  1.00  0.00    -0.028 A 
HETATM   12  C   UNL     1      -0.938   7.167 -33.425  1.00  0.00     0.051 C 
HETATM   13  C   UNL     1      -2.824   7.502 -31.772  1.00  0.00     0.074 A 
HETATM   14  C   UNL     1      -4.063   7.124 -31.247  1.00  0.00     0.038 A 
HETATM   15  C   UNL     1      -4.743   6.018 -31.764  1.00  0.00     0.018 A 
BRANCH  13  16
HETATM   16  O   UNL     1      -2.086   8.559 -31.310  1.00  0.00    -0.350 OA
BRANCH  16  17
HETATM   17  C   UNL     1      -1.859   8.612 -29.899  1.00  0.00     0.179 C 
BRANCH  17  18
HETATM   18  C   UNL     1      -1.144   7.327 -29.459  1.00  0.00     0.002 C 
HETATM   19  C   UNL     1       0.335   7.355 -29.850  1.00  0.00     0.011 C 
HETATM   20  C   UNL     1      -1.291   7.126 -27.952  1.00  0.00     0.011 C 
ENDBRANCH  17  18
ENDBRANCH  16  17
ENDBRANCH  13  16
ENDBRANCH   7   9
ENDBRANCH   5   7
BRANCH   4  21
HETATM   21  O   UNL     1      -2.585   2.918 -31.514  1.00  0.00    -0.355 OA
HETATM   22  H   UNL     1      -1.979   2.750 -32.264  1.00  0.00     0.218 HD
ENDBRANCH   4  21
BRANCH   6  23
HETATM   23  C   UNL     1      -7.233   2.282 -32.031  1.00  0.00    -0.028 A 
HETATM   24  C   UNL     1      -8.437   2.111 -32.745  1.00  0.00     0.049 A 
HETATM   25  C   UNL     1      -9.659   2.486 -32.184  1.00  0.00     0.101 A 
HETATM   26  C   UNL     1      -9.673   3.016 -30.891  1.00  0.00     0.099 A 
HETATM   27  C   UNL     1      -8.502   3.216 -30.176  1.00  0.00     0.040 A 
HETATM   28  C   UNL     1      -7.281   2.861 -30.748  1.00  0.00     0.012 A 
BRANCH  25  29
HETATM   29  O   UNL     1     -10.886   2.359 -32.779  1.00  0.00    -0.353 OA
HETATM   30  C   UNL     1     -11.104   3.161 -33.938  1.00  0.00     0.210 C 
ENDBRANCH  25  29
BRANCH  26  31
HETATM   31  O   UNL     1     -10.855   3.369 -30.302  1.00  0.00    -0.358 OA
HETATM   32  H   UNL     1     -10.611   3.745 -29.433  1.00  0.00     0.218 HD
ENDBRANCH  26  31
ENDBRANCH   6  23
BRANCH   1  33
HETATM   33  C   UNL     1      -5.949  -0.644 -32.038  1.00  0.00     0.155 C 
BRANCH  33  34
HETATM   34  C   UNL     1      -6.130  -1.113 -33.493  1.00  0.00     0.254 C 
BRANCH  34  35
HETATM   35  N   UNL     1      -4.960  -1.944 -34.017  1.00  0.00    -0.070 N 
HETATM   36  H   UNL     1      -4.391  -1.283 -34.565  1.00  0.00     0.279 HD
BRANCH  35  37
HETATM   37  C   UNL     1      -5.352  -3.040 -34.999  1.00  0.00     0.230 C 
HETATM   38  C   UNL     1      -6.779  -3.508 -34.784  1.00  0.00     0.034 C 
ENDBRANCH  35  37
BRANCH  35  39
HETATM   39  C   UNL     1      -4.032  -2.490 -32.948  1.00  0.00     0.230 C 
HETATM   40  C   UNL     1      -3.558  -3.893 -33.280  1.00  0.00     0.034 C 
ENDBRANCH  35  39
ENDBRANCH  34  35
ENDBRANCH  33  34
ENDBRANCH   1  33
TORSDOF 14
ENDMDL
MODEL 7
REMARK VINA RESULT:      -7.2      3.677      7.209
REMARK  14 active torsions:
REMARK  status: ('A' for Active; 'I' for Inactive)
REMARK    1  A    between atoms: C_2  and  N_3 
REMARK    2  A    between atoms: N_3  and  C_5 
REMARK    3  A    between atoms: N_3  and  C_37 
REMARK    4  A    between atoms: C_5  and  C_6 
REMARK    5  A    between atoms: C_6  and  N_7 
REMARK    6  A    between atoms: C_10  and  O_11 
REMARK    7  A    between atoms: C_12  and  C_13 
REMARK    8  A    between atoms: C_13  and  C_14 
REMARK    9  A    between atoms: C_18  and  O_19 
REMARK   10  A    between atoms: O_19  and  C_20 
REMARK   11  A    between atoms: C_20  and  C_21 
REMARK   12  A    between atoms: C_27  and  C_28 
REMARK   13  A    between atoms: C_30  and  O_31 
REMARK   14  A    between atoms: C_33  and  O_34 
ROOT
HETATM    1  N   UNL     1     -11.353   5.366 -34.166  1.00  0.00    -0.332 N 
HETATM    2  C   UNL     1     -10.088   5.568 -34.669  1.00  0.00     0.278 A 
HETATM    3  O   UNL     1      -9.745   6.396 -35.492  1.00  0.00    -0.265 OA
HETATM    4  C   UNL     1      -9.180   4.631 -33.978  1.00  0.00     0.146 A 
HETATM    5  C   UNL     1      -9.910   3.987 -33.059  1.00  0.00     0.059 A 
HETATM    6  C   UNL     1     -11.366   4.334 -33.137  1.00  0.00     0.161 A 
ENDROOT
BRANCH   5   7
HETATM    7  C   UNL     1      -9.447   3.080 -31.989  1.00  0.00     0.193 C 
HETATM    8  O   UNL     1      -9.558   3.415 -30.813  1.00  0.00    -0.287 OA
BRANCH   7   9
HETATM    9  C   UNL     1      -8.736   1.819 -32.315  1.00  0.00     0.015 A 
HETATM   10  C   UNL     1      -7.353   1.760 -32.113  1.00  0.00     0.025 A 
HETATM   11  C   UNL     1      -6.624   0.620 -32.490  1.00  0.00    -0.028 A 
HETATM   12  C   UNL     1      -5.135   0.580 -32.277  1.00  0.00     0.051 C 
HETATM   13  C   UNL     1      -7.290  -0.456 -33.106  1.00  0.00     0.074 A 
HETATM   14  C   UNL     1      -8.672  -0.394 -33.302  1.00  0.00     0.038 A 
HETATM   15  C   UNL     1      -9.391   0.743 -32.923  1.00  0.00     0.018 A 
BRANCH  13  16
HETATM   16  O   UNL     1      -6.512  -1.523 -33.467  1.00  0.00    -0.350 OA
BRANCH  16  17
HETATM   17  C   UNL     1      -6.725  -2.055 -34.777  1.00  0.00     0.179 C 
BRANCH  17  18
HETATM   18  C   UNL     1      -5.697  -3.163 -35.040  1.00  0.00     0.002 C 
HETATM   19  C   UNL     1      -4.499  -3.044 -34.096  1.00  0.00     0.011 C 
HETATM   20  C   UNL     1      -6.349  -4.538 -34.900  1.00  0.00     0.011 C 
ENDBRANCH  17  18
ENDBRANCH  16  17
ENDBRANCH  13  16
ENDBRANCH   7   9
ENDBRANCH   5   7
BRANCH   4  21
HETATM   21  O   UNL     1      -7.841   4.569 -34.215  1.00  0.00    -0.355 OA
HETATM   22  H   UNL     1      -7.695   3.834 -34.844  1.00  0.00     0.218 HD
ENDBRANCH   4  21
BRANCH   6  23
HETATM   23  C   UNL     1     -12.309   3.211 -33.530  1.00  0.00    -0.028 A 
HETATM   24  C   UNL     1     -13.417   2.920 -32.708  1.00  0.00     0.049 A 
HETATM   25  C   UNL     1     -14.317   1.911 -33.055  1.00  0.00     0.101 A 
HETATM   26  C   UNL     1     -14.115   1.206 -34.243  1.00  0.00     0.099 A 
HETATM   27  C   UNL     1     -13.021   1.456 -35.059  1.00  0.00     0.040 A 
HETATM   28  C   UNL     1     -12.112   2.449 -34.698  1.00  0.00     0.012 A 
BRANCH  25  29
HETATM   29  O   UNL     1     -15.428   1.548 -32.339  1.00  0.00    -0.353 OA
HETATM   30  C   UNL     1     -16.471   2.518 -32.272  1.00  0.00     0.210 C 
ENDBRANCH  25  29
BRANCH  26  31
HETATM   31  O   UNL     1     -14.993   0.230 -34.626  1.00  0.00    -0.358 OA
HETATM   32  H   UNL     1     -15.850   0.479 -34.227  1.00  0.00     0.218 HD
ENDBRANCH  26  31
ENDBRANCH   6  23
BRANCH   1  33
HETATM   33  C   UNL     1     -12.455   6.289 -34.374  1.00  0.00     0.155 C 
BRANCH  33  34
HETATM   34  C   UNL     1     -12.378   7.528 -33.464  1.00  0.00     0.254 C 
BRANCH  34  35
HETATM   35  N   UNL     1     -13.343   7.479 -32.281  1.00  0.00    -0.070 N 
HETATM   36  H   UNL     1     -13.504   8.465 -32.032  1.00  0.00     0.279 HD
BRANCH  35  37
HETATM   37  C   UNL     1     -12.772   6.837 -31.024  1.00  0.00     0.230 C 
HETATM   38  C   UNL     1     -11.342   7.274 -30.766  1.00  0.00     0.034 C 
ENDBRANCH  35  37
BRANCH  35  39
HETATM   39  C   UNL     1     -14.715   6.910 -32.596  1.00  0.00     0.230 C 
HETATM   40  C   UNL     1     -15.215   6.006 -31.485  1.00  0.00     0.034 C 
ENDBRANCH  35  39
ENDBRANCH  34  35
ENDBRANCH  33  34
ENDBRANCH   1  33
TORSDOF 14
ENDMDL
MODEL 8
REMARK VINA RESULT:      -7.2      2.428      7.523
REMARK  14 active torsions:
REMARK  status: ('A' for Active; 'I' for Inactive)
REMARK    1  A    between atoms: C_2  and  N_3 
REMARK    2  A    between atoms: N_3  and  C_5 
REMARK    3  A    between atoms: N_3  and  C_37 
REMARK    4  A    between atoms: C_5  and  C_6 
REMARK    5  A    between atoms: C_6  and  N_7 
REMARK    6  A    between atoms: C_10  and  O_11 
REMARK    7  A    between atoms: C_12  and  C_13 
REMARK    8  A    between atoms: C_13  and  C_14 
REMARK    9  A    between atoms: C_18  and  O_19 
REMARK   10  A    between atoms: O_19  and  C_20 
REMARK   11  A    between atoms: C_20  and  C_21 
REMARK   12  A    between atoms: C_27  and  C_28 
REMARK   13  A    between atoms: C_30  and  O_31 
REMARK   14  A    between atoms: C_33  and  O_34 
ROOT
HETATM    1  N   UNL     1      -4.952   2.187 -31.972  1.00  0.00    -0.332 N 
HETATM    2  C   UNL     1      -5.640   2.690 -30.891  1.00  0.00     0.278 A 
HETATM    3  O   UNL     1      -5.227   3.469 -30.052  1.00  0.00    -0.265 OA
HETATM    4  C   UNL     1      -7.019   2.166 -30.958  1.00  0.00     0.146 A 
HETATM    5  C   UNL     1      -7.112   1.458 -32.090  1.00  0.00     0.059 A 
HETATM    6  C   UNL     1      -5.799   1.341 -32.803  1.00  0.00     0.161 A 
ENDROOT
BRANCH   5   7
HETATM    7  C   UNL     1      -8.319   0.878 -32.714  1.00  0.00     0.193 C 
HETATM    8  O   UNL     1      -8.466  -0.341 -32.743  1.00  0.00    -0.287 OA
BRANCH   7   9
HETATM    9  C   UNL     1      -9.300   1.740 -33.418  1.00  0.00     0.015 A 
HETATM   10  C   UNL     1     -10.557   1.210 -33.725  1.00  0.00     0.025 A 
HETATM   11  C   UNL     1     -11.487   1.957 -34.468  1.00  0.00    -0.028 A 
HETATM   12  C   UNL     1     -12.829   1.364 -34.800  1.00  0.00     0.051 C 
HETATM   13  C   UNL     1     -11.132   3.237 -34.932  1.00  0.00     0.074 A 
HETATM   14  C   UNL     1      -9.876   3.764 -34.620  1.00  0.00     0.038 A 
HETATM   15  C   UNL     1      -8.958   3.016 -33.879  1.00  0.00     0.018 A 
BRANCH  13  16
HETATM   16  O   UNL     1     -12.080   3.897 -35.669  1.00  0.00    -0.350 OA
BRANCH  16  17
HETATM   17  C   UNL     1     -12.213   5.300 -35.426  1.00  0.00     0.179 C 
BRANCH  17  18
HETATM   18  C   UNL     1     -13.200   5.516 -34.271  1.00  0.00     0.002 C 
HETATM   19  C   UNL     1     -12.468   5.872 -32.976  1.00  0.00     0.011 C 
HETATM   20  C   UNL     1     -14.206   6.609 -34.629  1.00  0.00     0.011 C 
ENDBRANCH  17  18
ENDBRANCH  16  17
ENDBRANCH  13  16
ENDBRANCH   7   9
ENDBRANCH   5   7
BRANCH   4  21
HETATM   21  O   UNL     1      -7.985   2.477 -30.052  1.00  0.00    -0.355 OA
HETATM   22  H   UNL     1      -8.847   2.345 -30.496  1.00  0.00     0.218 HD
ENDBRANCH   4  21
BRANCH   6  23
HETATM   23  C   UNL     1      -5.208  -0.054 -32.908  1.00  0.00    -0.028 A 
HETATM   24  C   UNL     1      -5.543  -0.864 -34.012  1.00  0.00     0.049 A 
HETATM   25  C   UNL     1      -4.997  -2.142 -34.151  1.00  0.00     0.101 A 
HETATM   26  C   UNL     1      -4.093  -2.598 -33.189  1.00  0.00     0.099 A 
HETATM   27  C   UNL     1      -3.764  -1.830 -32.081  1.00  0.00     0.040 A 
HETATM   28  C   UNL     1      -4.329  -0.564 -31.934  1.00  0.00     0.012 A 
BRANCH  25  29
HETATM   29  O   UNL     1      -5.243  -3.010 -35.182  1.00  0.00    -0.353 OA
HETATM   30  C   UNL     1      -6.453  -3.759 -35.092  1.00  0.00     0.210 C 
ENDBRANCH  25  29
BRANCH  26  31
HETATM   31  O   UNL     1      -3.519  -3.833 -33.309  1.00  0.00    -0.358 OA
HETATM   32  H   UNL     1      -3.184  -3.876 -34.226  1.00  0.00     0.218 HD
ENDBRANCH  26  31
ENDBRANCH   6  23
BRANCH   1  33
HETATM   33  C   UNL     1      -3.669   2.703 -32.417  1.00  0.00     0.155 C 
BRANCH  33  34
HETATM   34  C   UNL     1      -3.721   4.196 -32.787  1.00  0.00     0.254 C 
BRANCH  34  35
HETATM   35  N   UNL     1      -4.524   4.485 -34.053  1.00  0.00    -0.070 N 
HETATM   36  H   UNL     1      -4.717   3.559 -34.461  1.00  0.00     0.279 HD
BRANCH  35  37
HETATM   37  C   UNL     1      -3.760   5.243 -35.130  1.00  0.00     0.230 C 
HETATM   38  C   UNL     1      -2.263   5.221 -34.882  1.00  0.00     0.034 C 
ENDBRANCH  35  37
BRANCH  35  39
HETATM   39  C   UNL     1      -5.885   5.117 -33.819  1.00  0.00     0.230 C 
HETATM   40  C   UNL     1      -5.866   6.068 -32.638  1.00  0.00     0.034 C 
ENDBRANCH  35  39
ENDBRANCH  34  35
ENDBRANCH  33  34
ENDBRANCH   1  33
TORSDOF 14
ENDMDL
MODEL 9
REMARK VINA RESULT:      -7.2      2.495      7.829
REMARK  14 active torsions:
REMARK  status: ('A' for Active; 'I' for Inactive)
REMARK    1  A    between atoms: C_2  and  N_3 
REMARK    2  A    between atoms: N_3  and  C_5 
REMARK    3  A    between atoms: N_3  and  C_37 
REMARK    4  A    between atoms: C_5  and  C_6 
REMARK    5  A    between atoms: C_6  and  N_7 
REMARK    6  A    between atoms: C_10  and  O_11 
REMARK    7  A    between atoms: C_12  and  C_13 
REMARK    8  A    between atoms: C_13  and  C_14 
REMARK    9  A    between atoms: C_18  and  O_19 
REMARK   10  A    between atoms: O_19  and  C_20 
REMARK   11  A    between atoms: C_20  and  C_21 
REMARK   12  A    between atoms: C_27  and  C_28 
REMARK   13  A    between atoms: C_30  and  O_31 
REMARK   14  A    between atoms: C_33  and  O_34 
ROOT
HETATM    1  N   UNL     1      -5.532   2.847 -32.204  1.00  0.00    -0.332 N 
HETATM    2  C   UNL     1      -5.748   3.176 -30.885  1.00  0.00     0.278 A 
HETATM    3  O   UNL     1      -5.041   3.863 -30.171  1.00  0.00    -0.265 OA
HETATM    4  C   UNL     1      -7.048   2.598 -30.489  1.00  0.00     0.146 A 
HETATM    5  C   UNL     1      -7.574   2.035 -31.583  1.00  0.00     0.059 A 
HETATM    6  C   UNL     1      -6.637   2.072 -32.753  1.00  0.00     0.161 A 
ENDROOT
BRANCH   5   7
HETATM    7  C   UNL     1      -8.930   1.479 -31.770  1.00  0.00     0.193 C 
HETATM    8  O   UNL     1      -9.188   0.348 -31.368  1.00  0.00    -0.287 OA
BRANCH   7   9
HETATM    9  C   UNL     1      -9.954   2.221 -32.547  1.00  0.00     0.015 A 
HETATM   10  C   UNL     1     -10.547   3.347 -31.967  1.00  0.00     0.025 A 
HETATM   11  C   UNL     1     -11.583   4.029 -32.626  1.00  0.00    -0.028 A 
HETATM   12  C   UNL     1     -12.218   5.230 -31.981  1.00  0.00     0.051 C 
HETATM   13  C   UNL     1     -12.047   3.551 -33.866  1.00  0.00     0.074 A 
HETATM   14  C   UNL     1     -11.448   2.428 -34.443  1.00  0.00     0.038 A 
HETATM   15  C   UNL     1     -10.417   1.757 -33.782  1.00  0.00     0.018 A 
BRANCH  13  16
HETATM   16  O   UNL     1     -13.074   4.252 -34.439  1.00  0.00    -0.350 OA
BRANCH  16  17
HETATM   17  C   UNL     1     -12.799   4.872 -35.699  1.00  0.00     0.179 C 
BRANCH  17  18
HETATM   18  C   UNL     1     -12.663   6.387 -35.492  1.00  0.00     0.002 C 
HETATM   19  C   UNL     1     -11.196   6.819 -35.508  1.00  0.00     0.011 C 
HETATM   20  C   UNL     1     -13.451   7.141 -36.561  1.00  0.00     0.011 C 
ENDBRANCH  17  18
ENDBRANCH  16  17
ENDBRANCH  13  16
ENDBRANCH   7   9
ENDBRANCH   5   7
BRANCH   4  21
HETATM   21  O   UNL     1      -7.589   2.746 -29.249  1.00  0.00    -0.355 OA
HETATM   22  H   UNL     1      -7.450   3.677 -28.984  1.00  0.00     0.218 HD
ENDBRANCH   4  21
BRANCH   6  23
HETATM   23  C   UNL     1      -6.138   0.732 -33.263  1.00  0.00    -0.028 A 
HETATM   24  C   UNL     1      -5.098   0.074 -32.574  1.00  0.00     0.049 A 
HETATM   25  C   UNL     1      -4.634  -1.171 -33.001  1.00  0.00     0.101 A 
HETATM   26  C   UNL     1      -5.232  -1.768 -34.113  1.00  0.00     0.099 A 
HETATM   27  C   UNL     1      -6.242  -1.134 -34.823  1.00  0.00     0.040 A 
HETATM   28  C   UNL     1      -6.687   0.120 -34.406  1.00  0.00     0.012 A 
BRANCH  25  29
HETATM   29  O   UNL     1      -3.639  -1.902 -32.407  1.00  0.00    -0.353 OA
HETATM   30  C   UNL     1      -2.587  -1.151 -31.806  1.00  0.00     0.210 C 
ENDBRANCH  25  29
BRANCH  26  31
HETATM   31  O   UNL     1      -4.820  -3.000 -34.542  1.00  0.00    -0.358 OA
HETATM   32  H   UNL     1      -4.233  -3.338 -33.837  1.00  0.00     0.218 HD
ENDBRANCH  26  31
ENDBRANCH   6  23
BRANCH   1  33
HETATM   33  C   UNL     1      -4.518   3.477 -33.032  1.00  0.00     0.155 C 
BRANCH  33  34
HETATM   34  C   UNL     1      -3.086   3.125 -32.593  1.00  0.00     0.254 C 
BRANCH  34  35
HETATM   35  N   UNL     1      -2.124   4.311 -32.639  1.00  0.00    -0.070 N 
HETATM   36  H   UNL     1      -1.222   3.908 -32.928  1.00  0.00     0.279 HD
BRANCH  35  37
HETATM   37  C   UNL     1      -1.856   4.963 -31.290  1.00  0.00     0.230 C 
HETATM   38  C   UNL     1      -0.379   5.228 -31.073  1.00  0.00     0.034 C 
ENDBRANCH  35  37
BRANCH  35  39
HETATM   39  C   UNL     1      -2.452   5.362 -33.685  1.00  0.00     0.230 C 
HETATM   40  C   UNL     1      -1.685   5.130 -34.973  1.00  0.00     0.034 C 
ENDBRANCH  35  39
ENDBRANCH  34  35
ENDBRANCH  33  34
ENDBRANCH   1  33
TORSDOF 14
ENDMDL
MODEL 10
REMARK VINA RESULT:      -7.2      3.569      6.349
REMARK  14 active torsions:
REMARK  status: ('A' for Active; 'I' for Inactive)
REMARK    1  A    between atoms: C_2  and  N_3 
REMARK    2  A    between atoms: N_3  and  C_5 
REMARK    3  A    between atoms: N_3  and  C_37 
REMARK    4  A    between atoms: C_5  and  C_6 
REMARK    5  A    between atoms: C_6  and  N_7 
REMARK    6  A    between atoms: C_10  and  O_11 
REMARK    7  A    between atoms: C_12  and  C_13 
REMARK    8  A    between atoms: C_13  and  C_14 
REMARK    9  A    between atoms: C_18  and  O_19 
REMARK   10  A    between atoms: O_19  and  C_20 
REMARK   11  A    between atoms: C_20  and  C_21 
REMARK   12  A    between atoms: C_27  and  C_28 
REMARK   13  A    between atoms: C_30  and  O_31 
REMARK   14  A    between atoms: C_33  and  O_34 
ROOT
HETATM    1  N   UNL     1      -3.650   7.735 -28.554  1.00  0.00    -0.332 N 
HETATM    2  C   UNL     1      -3.777   7.078 -27.351  1.00  0.00     0.278 A 
HETATM    3  O   UNL     1      -3.282   7.390 -26.285  1.00  0.00    -0.265 OA
HETATM    4  C   UNL     1      -4.692   5.938 -27.562  1.00  0.00     0.146 A 
HETATM    5  C   UNL     1      -5.122   6.011 -28.827  1.00  0.00     0.059 A 
HETATM    6  C   UNL     1      -4.452   7.109 -29.598  1.00  0.00     0.161 A 
ENDROOT
BRANCH   5   7
HETATM    7  C   UNL     1      -6.183   5.221 -29.484  1.00  0.00     0.193 C 
HETATM    8  O   UNL     1      -7.359   5.405 -29.183  1.00  0.00    -0.287 OA
BRANCH   7   9
HETATM    9  C   UNL     1      -5.841   4.118 -30.416  1.00  0.00     0.015 A 
HETATM   10  C   UNL     1      -6.070   4.304 -31.784  1.00  0.00     0.025 A 
HETATM   11  C   UNL     1      -5.845   3.258 -32.695  1.00  0.00    -0.028 A 
HETATM   12  C   UNL     1      -6.109   3.473 -34.160  1.00  0.00     0.051 C 
HETATM   13  C   UNL     1      -5.417   2.005 -32.218  1.00  0.00     0.074 A 
HETATM   14  C   UNL     1      -5.187   1.825 -30.852  1.00  0.00     0.038 A 
HETATM   15  C   UNL     1      -5.410   2.871 -29.952  1.00  0.00     0.018 A 
BRANCH  13  16
HETATM   16  O   UNL     1      -5.241   1.027 -33.161  1.00  0.00    -0.350 OA
BRANCH  16  17
HETATM   17  C   UNL     1      -6.124  -0.096 -33.089  1.00  0.00     0.179 C 
BRANCH  17  18
HETATM   18  C   UNL     1      -6.371  -0.629 -34.507  1.00  0.00     0.002 C 
HETATM   19  C   UNL     1      -6.774  -2.105 -34.481  1.00  0.00     0.011 C 
HETATM   20  C   UNL     1      -7.446   0.202 -35.206  1.00  0.00     0.011 C 
ENDBRANCH  17  18
ENDBRANCH  16  17
ENDBRANCH  13  16
ENDBRANCH   7   9
ENDBRANCH   5   7
BRANCH   4  21
HETATM   21  O   UNL     1      -5.060   5.078 -26.573  1.00  0.00    -0.355 OA
HETATM   22  H   UNL     1      -5.855   5.456 -26.146  1.00  0.00     0.218 HD
ENDBRANCH   4  21
BRANCH   6  23
HETATM   23  C   UNL     1      -3.567   6.679 -30.754  1.00  0.00    -0.028 A 
HETATM   24  C   UNL     1      -2.441   5.870 -30.499  1.00  0.00     0.049 A 
HETATM   25  C   UNL     1      -1.622   5.437 -31.544  1.00  0.00     0.101 A 
HETATM   26  C   UNL     1      -1.949   5.799 -32.852  1.00  0.00     0.099 A 
HETATM   27  C   UNL     1      -3.039   6.612 -33.130  1.00  0.00     0.040 A 
HETATM   28  C   UNL     1      -3.841   7.061 -32.082  1.00  0.00     0.012 A 
BRANCH  25  29
HETATM   29  O   UNL     1      -0.511   4.645 -31.415  1.00  0.00    -0.353 OA
HETATM   30  C   UNL     1       0.629   5.261 -30.820  1.00  0.00     0.210 C 
ENDBRANCH  25  29
BRANCH  26  31
HETATM   31  O   UNL     1      -1.184   5.369 -33.901  1.00  0.00    -0.358 OA
HETATM   32  H   UNL     1      -0.369   5.011 -33.498  1.00  0.00     0.218 HD
ENDBRANCH  26  31
ENDBRANCH   6  23
BRANCH   1  33
HETATM   33  C   UNL     1      -3.080   9.065 -28.685  1.00  0.00     0.155 C 
BRANCH  33  34
HETATM   34  C   UNL     1      -1.568   9.041 -28.969  1.00  0.00     0.254 C 
BRANCH  34  35
HETATM   35  N   UNL     1      -0.721   9.583 -27.820  1.00  0.00    -0.070 N 
HETATM   36  H   UNL     1      -0.075  10.252 -28.260  1.00  0.00     0.279 HD
BRANCH  35  37
HETATM   37  C   UNL     1       0.172   8.548 -27.149  1.00  0.00     0.230 C 
HETATM   38  C   UNL     1       1.615   8.666 -27.603  1.00  0.00     0.034 C 
ENDBRANCH  35  37
BRANCH  35  39
HETATM   39  C   UNL     1      -1.487  10.382 -26.780  1.00  0.00     0.230 C 
HETATM   40  C   UNL     1      -1.056  10.025 -25.370  1.00  0.00     0.034 C 
ENDBRANCH  35  39
ENDBRANCH  34  35
ENDBRANCH  33  34
ENDBRANCH   1  33
TORSDOF 14
ENDMDL
