MODEL 1
REMARK VINA RESULT:      -9.6      0.000      0.000
REMARK  5 active torsions:
REMARK  status: ('A' for Active; 'I' for Inactive)
REMARK    1  A    between atoms: C_4  and  C_5 
REMARK       I    between atoms: N_6  and  C_7 
REMARK    2  A    between atoms: C_7  and  C_8 
REMARK    3  A    between atoms: C_8  and  C_9 
REMARK    4  A    between atoms: C_11  and  O_12 
REMARK    5  A    between atoms: C_14  and  O_15 
ROOT
HETATM    1  C   UNL     1      -7.773   0.987 -32.417  1.00  0.00     0.189 C 
HETATM    2  N   UNL     1      -7.121   2.326 -32.407  1.00  0.00    -0.336 N 
HETATM    3  C   UNL     1      -6.510   2.805 -33.567  1.00  0.00     0.225 C 
HETATM    4  O   UNL     1      -6.406   2.149 -34.604  1.00  0.00    -0.273 OA
HETATM    5  C   UNL     1      -7.775   3.259 -31.465  1.00  0.00     0.132 C 
HETATM    6  C   UNL     1      -9.194   3.638 -31.956  1.00  0.00     0.061 C 
HETATM    7  C   UNL     1      -9.882   2.446 -32.549  1.00  0.00    -0.019 A 
HETATM    8  C   UNL     1      -9.218   1.249 -32.777  1.00  0.00     0.046 A 
HETATM    9  N   UNL     1     -10.123   0.364 -33.297  1.00  0.00    -0.356 N 
HETATM   10  H   UNL     1      -9.937  -0.603 -33.533  1.00  0.00     0.166 HD
HETATM   11  C   UNL     1     -11.332   0.997 -33.503  1.00  0.00     0.043 A 
HETATM   12  C   UNL     1     -11.210   2.304 -33.025  1.00  0.00    -0.001 A 
HETATM   13  C   UNL     1     -12.517   0.515 -34.072  1.00  0.00     0.030 A 
HETATM   14  C   UNL     1     -13.602   1.394 -34.154  1.00  0.00     0.002 A 
HETATM   15  C   UNL     1     -13.509   2.700 -33.679  1.00  0.00     0.001 A 
HETATM   16  C   UNL     1     -12.320   3.167 -33.110  1.00  0.00     0.014 A 
ENDROOT
BRANCH   1  17
HETATM   17  C   UNL     1      -7.021  -0.170 -33.069  1.00  0.00     0.063 A 
HETATM   18  N   UNL     1      -5.804  -0.472 -32.528  1.00  0.00    -0.256 NA
HETATM   19  C   UNL     1      -5.083  -1.483 -33.069  1.00  0.00     0.031 A 
HETATM   20  C   UNL     1      -3.735  -1.760 -32.475  1.00  0.00     0.070 C 
HETATM   21  C   UNL     1      -5.544  -2.241 -34.137  1.00  0.00     0.027 A 
HETATM   22  C   UNL     1      -6.785  -1.938 -34.683  1.00  0.00     0.004 A 
HETATM   23  C   UNL     1      -7.529  -0.889 -34.150  1.00  0.00     0.030 A 
ENDBRANCH   1  17
BRANCH   3  24
HETATM   24  C   UNL     1      -5.953   4.225 -33.559  1.00  0.00     0.141 C 
BRANCH  24  25
HETATM   25  C   UNL     1      -4.517   4.377 -33.112  1.00  0.00    -0.047 A 
HETATM   26  C   UNL     1      -3.698   5.417 -33.577  1.00  0.00     0.047 A 
HETATM   27  C   UNL     1      -2.372   5.538 -33.142  1.00  0.00     0.102 A 
HETATM   28  C   UNL     1      -1.863   4.625 -32.197  1.00  0.00     0.101 A 
HETATM   29  C   UNL     1      -2.689   3.609 -31.708  1.00  0.00     0.040 A 
HETATM   30  C   UNL     1      -4.005   3.490 -32.159  1.00  0.00     0.010 A 
BRANCH  27  31
HETATM   31  O   UNL     1      -1.506   6.514 -33.570  1.00  0.00    -0.353 OA
HETATM   32  C   UNL     1      -1.675   7.819 -33.031  1.00  0.00     0.210 C 
ENDBRANCH  27  31
BRANCH  28  33
HETATM   33  O   UNL     1      -0.557   4.811 -31.815  1.00  0.00    -0.353 OA
HETATM   34  C   UNL     1      -0.315   5.196 -30.470  1.00  0.00     0.210 C 
ENDBRANCH  28  33
ENDBRANCH  24  25
ENDBRANCH   3  24
TORSDOF 5
ENDMDL
MODEL 2
REMARK VINA RESULT:      -9.6      3.405      6.936
REMARK  5 active torsions:
REMARK  status: ('A' for Active; 'I' for Inactive)
REMARK    1  A    between atoms: C_4  and  C_5 
REMARK       I    between atoms: N_6  and  C_7 
REMARK    2  A    between atoms: C_7  and  C_8 
REMARK    3  A    between atoms: C_8  and  C_9 
REMARK    4  A    between atoms: C_11  and  O_12 
REMARK    5  A    between atoms: C_14  and  O_15 
ROOT
HETATM    1  C   UNL     1      -9.106   2.046 -31.697  1.00  0.00     0.189 C 
HETATM    2  N   UNL     1      -7.783   1.443 -32.013  1.00  0.00    -0.336 N 
HETATM    3  C   UNL     1      -7.108   1.827 -33.175  1.00  0.00     0.225 C 
HETATM    4  O   UNL     1      -7.579   2.596 -34.014  1.00  0.00    -0.273 OA
HETATM    5  C   UNL     1      -7.028   1.078 -30.796  1.00  0.00     0.132 C 
HETATM    6  C   UNL     1      -6.586   2.343 -30.020  1.00  0.00     0.061 C 
HETATM    7  C   UNL     1      -7.666   3.381 -30.042  1.00  0.00    -0.019 A 
HETATM    8  C   UNL     1      -8.801   3.247 -30.829  1.00  0.00     0.046 A 
HETATM    9  N   UNL     1      -9.594   4.339 -30.606  1.00  0.00    -0.356 N 
HETATM   10  H   UNL     1     -10.505   4.503 -31.016  1.00  0.00     0.166 HD
HETATM   11  C   UNL     1      -8.947   5.224 -29.768  1.00  0.00     0.043 A 
HETATM   12  C   UNL     1      -7.738   4.636 -29.387  1.00  0.00    -0.001 A 
HETATM   13  C   UNL     1      -9.336   6.492 -29.321  1.00  0.00     0.030 A 
HETATM   14  C   UNL     1      -8.467   7.174 -28.463  1.00  0.00     0.002 A 
HETATM   15  C   UNL     1      -7.259   6.607 -28.062  1.00  0.00     0.001 A 
HETATM   16  C   UNL     1      -6.884   5.338 -28.515  1.00  0.00     0.014 A 
ENDROOT
BRANCH   1  17
HETATM   17  C   UNL     1     -10.130   2.159 -32.824  1.00  0.00     0.063 A 
HETATM   18  N   UNL     1     -10.426   3.428 -33.235  1.00  0.00    -0.256 NA
HETATM   19  C   UNL     1     -11.335   3.596 -34.225  1.00  0.00     0.031 A 
HETATM   20  C   UNL     1     -11.665   5.003 -34.623  1.00  0.00     0.070 C 
HETATM   21  C   UNL     1     -11.959   2.528 -34.856  1.00  0.00     0.027 A 
HETATM   22  C   UNL     1     -11.653   1.238 -34.441  1.00  0.00     0.004 A 
HETATM   23  C   UNL     1     -10.735   1.050 -33.412  1.00  0.00     0.030 A 
ENDBRANCH   1  17
BRANCH   3  24
HETATM   24  C   UNL     1      -5.705   1.279 -33.412  1.00  0.00     0.141 C 
BRANCH  24  25
HETATM   25  C   UNL     1      -5.613  -0.186 -33.772  1.00  0.00    -0.047 A 
HETATM   26  C   UNL     1      -4.584  -1.009 -33.289  1.00  0.00     0.047 A 
HETATM   27  C   UNL     1      -4.525  -2.366 -33.635  1.00  0.00     0.102 A 
HETATM   28  C   UNL     1      -5.532  -2.922 -34.449  1.00  0.00     0.101 A 
HETATM   29  C   UNL     1      -6.575  -2.110 -34.902  1.00  0.00     0.040 A 
HETATM   30  C   UNL     1      -6.616  -0.756 -34.563  1.00  0.00     0.010 A 
BRANCH  27  31
HETATM   31  O   UNL     1      -3.537  -3.225 -33.220  1.00  0.00    -0.353 OA
HETATM   32  C   UNL     1      -3.037  -3.056 -31.899  1.00  0.00     0.210 C 
ENDBRANCH  27  31
BRANCH  28  33
HETATM   33  O   UNL     1      -5.409  -4.258 -34.740  1.00  0.00    -0.353 OA
HETATM   34  C   UNL     1      -6.416  -4.849 -35.548  1.00  0.00     0.210 C 
ENDBRANCH  28  33
ENDBRANCH  24  25
ENDBRANCH   3  24
TORSDOF 5
ENDMDL
MODEL 3
REMARK VINA RESULT:      -9.4      1.391      2.037
REMARK  5 active torsions:
REMARK  status: ('A' for Active; 'I' for Inactive)
REMARK    1  A    between atoms: C_4  and  C_5 
REMARK       I    between atoms: N_6  and  C_7 
REMARK    2  A    between atoms: C_7  and  C_8 
REMARK    3  A    between atoms: C_8  and  C_9 
REMARK    4  A    between atoms: C_11  and  O_12 
REMARK    5  A    between atoms: C_14  and  O_15 
ROOT
HETATM    1  C   UNL     1      -8.224   1.952 -31.901  1.00  0.00     0.189 C 
HETATM    2  N   UNL     1      -7.845   3.349 -32.249  1.00  0.00    -0.336 N 
HETATM    3  C   UNL     1      -7.155   3.602 -33.437  1.00  0.00     0.225 C 
HETATM    4  O   UNL     1      -6.765   2.717 -34.200  1.00  0.00    -0.273 OA
HETATM    5  C   UNL     1      -8.804   4.339 -31.716  1.00  0.00     0.132 C 
HETATM    6  C   UNL     1     -10.171   4.228 -32.435  1.00  0.00     0.061 C 
HETATM    7  C   UNL     1     -10.520   2.793 -32.687  1.00  0.00    -0.019 A 
HETATM    8  C   UNL     1      -9.616   1.764 -32.463  1.00  0.00     0.046 A 
HETATM    9  N   UNL     1     -10.243   0.585 -32.762  1.00  0.00    -0.356 N 
HETATM   10  H   UNL     1      -9.844  -0.339 -32.664  1.00  0.00     0.166 HD
HETATM   11  C   UNL     1     -11.500   0.841 -33.272  1.00  0.00     0.043 A 
HETATM   12  C   UNL     1     -11.703   2.222 -33.219  1.00  0.00    -0.001 A 
HETATM   13  C   UNL     1     -12.467  -0.039 -33.773  1.00  0.00     0.030 A 
HETATM   14  C   UNL     1     -13.670   0.508 -34.230  1.00  0.00     0.002 A 
HETATM   15  C   UNL     1     -13.901   1.881 -34.182  1.00  0.00     0.001 A 
HETATM   16  C   UNL     1     -12.927   2.749 -33.677  1.00  0.00     0.014 A 
ENDROOT
BRANCH   1  17
HETATM   17  C   UNL     1      -7.174   0.858 -32.081  1.00  0.00     0.063 A 
HETATM   18  N   UNL     1      -7.427  -0.054 -33.066  1.00  0.00    -0.256 NA
HETATM   19  C   UNL     1      -6.538  -1.056 -33.269  1.00  0.00     0.031 A 
HETATM   20  C   UNL     1      -6.868  -2.062 -34.330  1.00  0.00     0.070 C 
HETATM   21  C   UNL     1      -5.367  -1.177 -32.532  1.00  0.00     0.027 A 
HETATM   22  C   UNL     1      -5.108  -0.245 -31.536  1.00  0.00     0.004 A 
HETATM   23  C   UNL     1      -6.022   0.779 -31.302  1.00  0.00     0.030 A 
ENDBRANCH   1  17
BRANCH   3  24
HETATM   24  C   UNL     1      -6.883   5.052 -33.822  1.00  0.00     0.141 C 
BRANCH  24  25
HETATM   25  C   UNL     1      -5.638   5.676 -33.234  1.00  0.00    -0.047 A 
HETATM   26  C   UNL     1      -4.357   5.399 -33.737  1.00  0.00     0.047 A 
HETATM   27  C   UNL     1      -3.220   5.996 -33.178  1.00  0.00     0.102 A 
HETATM   28  C   UNL     1      -3.365   6.915 -32.120  1.00  0.00     0.101 A 
HETATM   29  C   UNL     1      -4.642   7.217 -31.641  1.00  0.00     0.040 A 
HETATM   30  C   UNL     1      -5.768   6.606 -32.197  1.00  0.00     0.010 A 
BRANCH  27  31
HETATM   31  O   UNL     1      -1.936   5.756 -33.601  1.00  0.00    -0.353 OA
HETATM   32  C   UNL     1      -1.771   5.160 -34.882  1.00  0.00     0.210 C 
ENDBRANCH  27  31
BRANCH  28  33
HETATM   33  O   UNL     1      -2.205   7.463 -31.627  1.00  0.00    -0.353 OA
HETATM   34  C   UNL     1      -1.825   7.115 -30.304  1.00  0.00     0.210 C 
ENDBRANCH  28  33
ENDBRANCH  24  25
ENDBRANCH   3  24
TORSDOF 5
ENDMDL
MODEL 4
REMARK VINA RESULT:      -9.3      2.702      7.842
REMARK  5 active torsions:
REMARK  status: ('A' for Active; 'I' for Inactive)
REMARK    1  A    between atoms: C_4  and  C_5 
REMARK       I    between atoms: N_6  and  C_7 
REMARK    2  A    between atoms: C_7  and  C_8 
REMARK    3  A    between atoms: C_8  and  C_9 
REMARK    4  A    between atoms: C_11  and  O_12 
REMARK    5  A    between atoms: C_14  and  O_15 
ROOT
HETATM    1  C   UNL     1      -7.137   1.564 -31.750  1.00  0.00     0.189 C 
HETATM    2  N   UNL     1      -8.451   1.904 -32.362  1.00  0.00    -0.336 N 
HETATM    3  C   UNL     1      -8.507   2.824 -33.411  1.00  0.00     0.225 C 
HETATM    4  O   UNL     1      -7.528   3.445 -33.827  1.00  0.00    -0.273 OA
HETATM    5  C   UNL     1      -9.404   0.776 -32.304  1.00  0.00     0.132 C 
HETATM    6  C   UNL     1      -8.950  -0.380 -33.230  1.00  0.00     0.061 C 
HETATM    7  C   UNL     1      -7.463  -0.550 -33.170  1.00  0.00    -0.019 A 
HETATM    8  C   UNL     1      -6.642   0.355 -32.512  1.00  0.00     0.046 A 
HETATM    9  N   UNL     1      -5.355  -0.095 -32.620  1.00  0.00    -0.356 N 
HETATM   10  H   UNL     1      -4.539   0.341 -32.209  1.00  0.00     0.166 HD
HETATM   11  C   UNL     1      -5.317  -1.219 -33.419  1.00  0.00     0.043 A 
HETATM   12  C   UNL     1      -6.634  -1.535 -33.765  1.00  0.00    -0.001 A 
HETATM   13  C   UNL     1      -4.225  -1.976 -33.861  1.00  0.00     0.030 A 
HETATM   14  C   UNL     1      -4.488  -3.082 -34.676  1.00  0.00     0.002 A 
HETATM   15  C   UNL     1      -5.792  -3.423 -35.029  1.00  0.00     0.001 A 
HETATM   16  C   UNL     1      -6.874  -2.659 -34.579  1.00  0.00     0.014 A 
ENDROOT
BRANCH   1  17
HETATM   17  C   UNL     1      -6.178   2.709 -31.429  1.00  0.00     0.063 A 
HETATM   18  N   UNL     1      -5.029   2.748 -32.166  1.00  0.00    -0.256 NA
HETATM   19  C   UNL     1      -4.132   3.733 -31.922  1.00  0.00     0.031 A 
HETATM   20  C   UNL     1      -2.864   3.722 -32.720  1.00  0.00     0.070 C 
HETATM   21  C   UNL     1      -4.348   4.721 -30.969  1.00  0.00     0.027 A 
HETATM   22  C   UNL     1      -5.520   4.683 -30.225  1.00  0.00     0.004 A 
HETATM   23  C   UNL     1      -6.442   3.665 -30.451  1.00  0.00     0.030 A 
ENDBRANCH   1  17
BRANCH   3  24
HETATM   24  C   UNL     1      -9.850   3.064 -34.092  1.00  0.00     0.141 C 
BRANCH  24  25
HETATM   25  C   UNL     1     -10.977   3.531 -33.200  1.00  0.00    -0.047 A 
HETATM   26  C   UNL     1     -12.213   2.868 -33.151  1.00  0.00     0.047 A 
HETATM   27  C   UNL     1     -13.239   3.319 -32.310  1.00  0.00     0.102 A 
HETATM   28  C   UNL     1     -13.017   4.431 -31.475  1.00  0.00     0.101 A 
HETATM   29  C   UNL     1     -11.775   5.072 -31.498  1.00  0.00     0.040 A 
HETATM   30  C   UNL     1     -10.764   4.622 -32.350  1.00  0.00     0.010 A 
BRANCH  27  31
HETATM   31  O   UNL     1     -14.480   2.735 -32.227  1.00  0.00    -0.353 OA
HETATM   32  C   UNL     1     -14.720   1.594 -33.041  1.00  0.00     0.210 C 
ENDBRANCH  27  31
BRANCH  28  33
HETATM   33  O   UNL     1     -14.067   4.810 -30.675  1.00  0.00    -0.353 OA
HETATM   34  C   UNL     1     -13.874   5.929 -29.823  1.00  0.00     0.210 C 
ENDBRANCH  28  33
ENDBRANCH  24  25
ENDBRANCH   3  24
TORSDOF 5
ENDMDL
MODEL 5
REMARK VINA RESULT:      -9.3      2.591      5.724
REMARK  5 active torsions:
REMARK  status: ('A' for Active; 'I' for Inactive)
REMARK    1  A    between atoms: C_4  and  C_5 
REMARK       I    between atoms: N_6  and  C_7 
REMARK    2  A    between atoms: C_7  and  C_8 
REMARK    3  A    between atoms: C_8  and  C_9 
REMARK    4  A    between atoms: C_11  and  O_12 
REMARK    5  A    between atoms: C_14  and  O_15 
ROOT
HETATM    1  C   UNL     1      -6.991   0.961 -33.838  1.00  0.00     0.189 C 
HETATM    2  N   UNL     1      -6.157   1.517 -32.737  1.00  0.00    -0.336 N 
HETATM    3  C   UNL     1      -6.608   1.432 -31.418  1.00  0.00     0.225 C 
HETATM    4  O   UNL     1      -7.710   0.982 -31.101  1.00  0.00    -0.273 OA
HETATM    5  C   UNL     1      -4.712   1.448 -33.040  1.00  0.00     0.132 C 
HETATM    6  C   UNL     1      -4.220  -0.020 -33.055  1.00  0.00     0.061 C 
HETATM    7  C   UNL     1      -5.240  -0.912 -33.692  1.00  0.00    -0.019 A 
HETATM    8  C   UNL     1      -6.510  -0.461 -34.023  1.00  0.00     0.046 A 
HETATM    9  N   UNL     1      -7.183  -1.501 -34.604  1.00  0.00    -0.356 N 
HETATM   10  H   UNL     1      -8.122  -1.462 -34.980  1.00  0.00     0.166 HD
HETATM   11  C   UNL     1      -6.407  -2.642 -34.563  1.00  0.00     0.043 A 
HETATM   12  C   UNL     1      -5.174  -2.293 -34.007  1.00  0.00    -0.001 A 
HETATM   13  C   UNL     1      -6.702  -3.948 -34.971  1.00  0.00     0.030 A 
HETATM   14  C   UNL     1      -5.709  -4.920 -34.807  1.00  0.00     0.002 A 
HETATM   15  C   UNL     1      -4.468  -4.597 -34.263  1.00  0.00     0.001 A 
HETATM   16  C   UNL     1      -4.187  -3.287 -33.861  1.00  0.00     0.014 A 
ENDROOT
BRANCH   1  17
HETATM   17  C   UNL     1      -8.487   1.265 -33.827  1.00  0.00     0.063 A 
HETATM   18  N   UNL     1      -8.843   2.524 -34.221  1.00  0.00    -0.256 NA
HETATM   19  C   UNL     1     -10.155   2.859 -34.224  1.00  0.00     0.031 A 
HETATM   20  C   UNL     1     -10.505   4.261 -34.623  1.00  0.00     0.070 C 
HETATM   21  C   UNL     1     -11.156   1.965 -33.866  1.00  0.00     0.027 A 
HETATM   22  C   UNL     1     -10.793   0.684 -33.471  1.00  0.00     0.004 A 
HETATM   23  C   UNL     1      -9.447   0.330 -33.445  1.00  0.00     0.030 A 
ENDBRANCH   1  17
BRANCH   3  24
HETATM   24  C   UNL     1      -5.681   1.906 -30.304  1.00  0.00     0.141 C 
BRANCH  24  25
HETATM   25  C   UNL     1      -5.587   3.402 -30.105  1.00  0.00    -0.047 A 
HETATM   26  C   UNL     1      -4.551   4.164 -30.666  1.00  0.00     0.047 A 
HETATM   27  C   UNL     1      -4.491   5.551 -30.471  1.00  0.00     0.102 A 
HETATM   28  C   UNL     1      -5.502   6.194 -29.731  1.00  0.00     0.101 A 
HETATM   29  C   UNL     1      -6.552   5.440 -29.200  1.00  0.00     0.040 A 
HETATM   30  C   UNL     1      -6.595   4.057 -29.389  1.00  0.00     0.010 A 
BRANCH  27  31
HETATM   31  O   UNL     1      -3.497   6.357 -30.969  1.00  0.00    -0.353 OA
HETATM   32  C   UNL     1      -2.273   5.733 -31.336  1.00  0.00     0.210 C 
ENDBRANCH  27  31
BRANCH  28  33
HETATM   33  O   UNL     1      -5.378   7.554 -29.587  1.00  0.00    -0.353 OA
HETATM   34  C   UNL     1      -5.541   8.094 -28.284  1.00  0.00     0.210 C 
ENDBRANCH  28  33
ENDBRANCH  24  25
ENDBRANCH   3  24
TORSDOF 5
ENDMDL
MODEL 6
REMARK VINA RESULT:      -9.1      2.421      7.898
REMARK  5 active torsions:
REMARK  status: ('A' for Active; 'I' for Inactive)
REMARK    1  A    between atoms: C_4  and  C_5 
REMARK       I    between atoms: N_6  and  C_7 
REMARK    2  A    between atoms: C_7  and  C_8 
REMARK    3  A    between atoms: C_8  and  C_9 
REMARK    4  A    between atoms: C_11  and  O_12 
REMARK    5  A    between atoms: C_14  and  O_15 
ROOT
HETATM    1  C   UNL     1      -6.021   2.407 -33.638  1.00  0.00     0.189 C 
HETATM    2  N   UNL     1      -7.370   2.862 -33.204  1.00  0.00    -0.336 N 
HETATM    3  C   UNL     1      -7.958   2.299 -32.068  1.00  0.00     0.225 C 
HETATM    4  O   UNL     1      -7.454   1.376 -31.427  1.00  0.00    -0.273 OA
HETATM    5  C   UNL     1      -7.624   4.276 -33.554  1.00  0.00     0.132 C 
HETATM    6  C   UNL     1      -6.723   5.222 -32.722  1.00  0.00     0.061 C 
HETATM    7  C   UNL     1      -5.351   4.643 -32.568  1.00  0.00    -0.019 A 
HETATM    8  C   UNL     1      -5.046   3.349 -32.967  1.00  0.00     0.046 A 
HETATM    9  N   UNL     1      -3.719   3.137 -32.715  1.00  0.00    -0.356 N 
HETATM   10  H   UNL     1      -3.202   2.294 -32.933  1.00  0.00     0.166 HD
HETATM   11  C   UNL     1      -3.184   4.233 -32.069  1.00  0.00     0.043 A 
HETATM   12  C   UNL     1      -4.188   5.200 -31.978  1.00  0.00    -0.001 A 
HETATM   13  C   UNL     1      -1.896   4.440 -31.559  1.00  0.00     0.030 A 
HETATM   14  C   UNL     1      -1.630   5.668 -30.944  1.00  0.00     0.002 A 
HETATM   15  C   UNL     1      -2.612   6.652 -30.847  1.00  0.00     0.001 A 
HETATM   16  C   UNL     1      -3.893   6.432 -31.362  1.00  0.00     0.014 A 
ENDROOT
BRANCH   1  17
HETATM   17  C   UNL     1      -5.743   0.906 -33.655  1.00  0.00     0.063 A 
HETATM   18  N   UNL     1      -4.766   0.471 -32.805  1.00  0.00    -0.256 NA
HETATM   19  C   UNL     1      -4.464  -0.849 -32.781  1.00  0.00     0.031 A 
HETATM   20  C   UNL     1      -3.360  -1.285 -31.866  1.00  0.00     0.070 C 
HETATM   21  C   UNL     1      -5.127  -1.782 -33.569  1.00  0.00     0.027 A 
HETATM   22  C   UNL     1      -6.124  -1.339 -34.427  1.00  0.00     0.004 A 
HETATM   23  C   UNL     1      -6.432   0.018 -34.478  1.00  0.00     0.030 A 
ENDBRANCH   1  17
BRANCH   3  24
HETATM   24  C   UNL     1      -9.287   2.867 -31.584  1.00  0.00     0.141 C 
BRANCH  24  25
HETATM   25  C   UNL     1     -10.498   2.547 -32.430  1.00  0.00    -0.047 A 
HETATM   26  C   UNL     1     -11.538   3.469 -32.623  1.00  0.00     0.047 A 
HETATM   27  C   UNL     1     -12.647   3.149 -33.417  1.00  0.00     0.102 A 
HETATM   28  C   UNL     1     -12.703   1.897 -34.061  1.00  0.00     0.101 A 
HETATM   29  C   UNL     1     -11.652   0.990 -33.896  1.00  0.00     0.040 A 
HETATM   30  C   UNL     1     -10.559   1.315 -33.091  1.00  0.00     0.010 A 
BRANCH  27  31
HETATM   31  O   UNL     1     -13.710   3.990 -33.631  1.00  0.00    -0.353 OA
HETATM   32  C   UNL     1     -13.423   5.369 -33.823  1.00  0.00     0.210 C 
ENDBRANCH  27  31
BRANCH  28  33
HETATM   33  O   UNL     1     -13.818   1.657 -34.826  1.00  0.00    -0.353 OA
HETATM   34  C   UNL     1     -14.788   0.758 -34.310  1.00  0.00     0.210 C 
ENDBRANCH  28  33
ENDBRANCH  24  25
ENDBRANCH   3  24
TORSDOF 5
ENDMDL
MODEL 7
REMARK VINA RESULT:      -9.0      4.286      8.090
REMARK  5 active torsions:
REMARK  status: ('A' for Active; 'I' for Inactive)
REMARK    1  A    between atoms: C_4  and  C_5 
REMARK       I    between atoms: N_6  and  C_7 
REMARK    2  A    between atoms: C_7  and  C_8 
REMARK    3  A    between atoms: C_8  and  C_9 
REMARK    4  A    between atoms: C_11  and  O_12 
REMARK    5  A    between atoms: C_14  and  O_15 
ROOT
HETATM    1  C   UNL     1      -8.366   2.813 -33.903  1.00  0.00     0.189 C 
HETATM    2  N   UNL     1      -9.659   2.725 -34.635  1.00  0.00    -0.336 N 
HETATM    3  C   UNL     1     -10.583   1.736 -34.290  1.00  0.00     0.225 C 
HETATM    4  O   UNL     1     -10.364   0.862 -33.449  1.00  0.00    -0.273 OA
HETATM    5  C   UNL     1     -10.121   4.045 -35.115  1.00  0.00     0.132 C 
HETATM    6  C   UNL     1     -10.526   4.954 -33.929  1.00  0.00     0.061 C 
HETATM    7  C   UNL     1      -9.579   4.778 -32.782  1.00  0.00    -0.019 A 
HETATM    8  C   UNL     1      -8.613   3.783 -32.769  1.00  0.00     0.046 A 
HETATM    9  N   UNL     1      -7.904   3.905 -31.606  1.00  0.00    -0.356 N 
HETATM   10  H   UNL     1      -7.112   3.338 -31.332  1.00  0.00     0.166 HD
HETATM   11  C   UNL     1      -8.459   4.896 -30.822  1.00  0.00     0.043 A 
HETATM   12  C   UNL     1      -9.505   5.471 -31.547  1.00  0.00    -0.001 A 
HETATM   13  C   UNL     1      -8.118   5.325 -29.533  1.00  0.00     0.030 A 
HETATM   14  C   UNL     1      -8.866   6.367 -28.975  1.00  0.00     0.002 A 
HETATM   15  C   UNL     1      -9.909   6.962 -29.680  1.00  0.00     0.001 A 
HETATM   16  C   UNL     1     -10.238   6.526 -30.968  1.00  0.00     0.014 A 
ENDROOT
BRANCH   1  17
HETATM   17  C   UNL     1      -7.599   1.518 -33.646  1.00  0.00     0.063 A 
HETATM   18  N   UNL     1      -7.369   1.212 -32.335  1.00  0.00    -0.256 NA
HETATM   19  C   UNL     1      -6.684   0.081 -32.040  1.00  0.00     0.031 A 
HETATM   20  C   UNL     1      -6.415  -0.203 -30.594  1.00  0.00     0.070 C 
HETATM   21  C   UNL     1      -6.229  -0.794 -33.019  1.00  0.00     0.027 A 
HETATM   22  C   UNL     1      -6.469  -0.484 -34.351  1.00  0.00     0.004 A 
HETATM   23  C   UNL     1      -7.154   0.685 -34.671  1.00  0.00     0.030 A 
ENDBRANCH   1  17
BRANCH   3  24
HETATM   24  C   UNL     1     -11.944   1.744 -34.977  1.00  0.00     0.141 C 
BRANCH  24  25
HETATM   25  C   UNL     1     -13.148   1.870 -34.073  1.00  0.00    -0.047 A 
HETATM   26  C   UNL     1     -13.204   2.810 -33.033  1.00  0.00     0.047 A 
HETATM   27  C   UNL     1     -14.336   2.910 -32.213  1.00  0.00     0.102 A 
HETATM   28  C   UNL     1     -15.448   2.081 -32.457  1.00  0.00     0.101 A 
HETATM   29  C   UNL     1     -15.406   1.167 -33.514  1.00  0.00     0.040 A 
HETATM   30  C   UNL     1     -14.268   1.067 -34.316  1.00  0.00     0.010 A 
BRANCH  27  31
HETATM   31  O   UNL     1     -14.452   3.788 -31.163  1.00  0.00    -0.353 OA
HETATM   32  C   UNL     1     -13.270   4.096 -30.436  1.00  0.00     0.210 C 
ENDBRANCH  27  31
BRANCH  28  33
HETATM   33  O   UNL     1     -16.521   2.240 -31.615  1.00  0.00    -0.353 OA
HETATM   34  C   UNL     1     -17.673   2.888 -32.135  1.00  0.00     0.210 C 
ENDBRANCH  28  33
ENDBRANCH  24  25
ENDBRANCH   3  24
TORSDOF 5
ENDMDL
MODEL 8
REMARK VINA RESULT:      -8.9      2.562      7.652
REMARK  5 active torsions:
REMARK  status: ('A' for Active; 'I' for Inactive)
REMARK    1  A    between atoms: C_4  and  C_5 
REMARK       I    between atoms: N_6  and  C_7 
REMARK    2  A    between atoms: C_7  and  C_8 
REMARK    3  A    between atoms: C_8  and  C_9 
REMARK    4  A    between atoms: C_11  and  O_12 
REMARK    5  A    between atoms: C_14  and  O_15 
ROOT
HETATM    1  C   UNL     1      -4.448   4.628 -31.194  1.00  0.00     0.189 C 
HETATM    2  N   UNL     1      -5.897   4.962 -31.130  1.00  0.00    -0.336 N 
HETATM    3  C   UNL     1      -6.556   5.405 -32.279  1.00  0.00     0.225 C 
HETATM    4  O   UNL     1      -5.989   5.614 -33.353  1.00  0.00    -0.273 OA
HETATM    5  C   UNL     1      -6.614   4.153 -30.122  1.00  0.00     0.132 C 
HETATM    6  C   UNL     1      -6.684   2.667 -30.553  1.00  0.00     0.061 C 
HETATM    7  C   UNL     1      -5.396   2.242 -31.190  1.00  0.00    -0.019 A 
HETATM    8  C   UNL     1      -4.392   3.148 -31.501  1.00  0.00     0.046 A 
HETATM    9  N   UNL     1      -3.351   2.446 -32.042  1.00  0.00    -0.356 N 
HETATM   10  H   UNL     1      -2.463   2.835 -32.335  1.00  0.00     0.166 HD
HETATM   11  C   UNL     1      -3.702   1.119 -32.180  1.00  0.00     0.043 A 
HETATM   12  C   UNL     1      -4.980   0.962 -31.637  1.00  0.00    -0.001 A 
HETATM   13  C   UNL     1      -2.992   0.051 -32.743  1.00  0.00     0.030 A 
HETATM   14  C   UNL     1      -3.605  -1.207 -32.748  1.00  0.00     0.002 A 
HETATM   15  C   UNL     1      -4.875  -1.391 -32.205  1.00  0.00     0.001 A 
HETATM   16  C   UNL     1      -5.572  -0.315 -31.644  1.00  0.00     0.014 A 
ENDROOT
BRANCH   1  17
HETATM   17  C   UNL     1      -3.522   5.595 -31.929  1.00  0.00     0.063 A 
HETATM   18  N   UNL     1      -2.883   5.091 -33.025  1.00  0.00    -0.256 NA
HETATM   19  C   UNL     1      -2.039   5.895 -33.714  1.00  0.00     0.031 A 
HETATM   20  C   UNL     1      -1.324   5.297 -34.888  1.00  0.00     0.070 C 
HETATM   21  C   UNL     1      -1.818   7.221 -33.364  1.00  0.00     0.027 A 
HETATM   22  C   UNL     1      -2.474   7.734 -32.253  1.00  0.00     0.004 A 
HETATM   23  C   UNL     1      -3.329   6.914 -31.523  1.00  0.00     0.030 A 
ENDBRANCH   1  17
BRANCH   3  24
HETATM   24  C   UNL     1      -8.063   5.628 -32.209  1.00  0.00     0.141 C 
BRANCH  24  25
HETATM   25  C   UNL     1      -8.929   4.522 -32.770  1.00  0.00    -0.047 A 
HETATM   26  C   UNL     1      -8.384   3.421 -33.448  1.00  0.00     0.047 A 
HETATM   27  C   UNL     1      -9.209   2.407 -33.952  1.00  0.00     0.102 A 
HETATM   28  C   UNL     1     -10.601   2.474 -33.745  1.00  0.00     0.101 A 
HETATM   29  C   UNL     1     -11.141   3.554 -33.040  1.00  0.00     0.040 A 
HETATM   30  C   UNL     1     -10.311   4.565 -32.554  1.00  0.00     0.010 A 
BRANCH  27  31
HETATM   31  O   UNL     1      -8.751   1.314 -34.646  1.00  0.00    -0.353 OA
HETATM   32  C   UNL     1      -7.350   1.070 -34.628  1.00  0.00     0.210 C 
ENDBRANCH  27  31
BRANCH  28  33
HETATM   33  O   UNL     1     -11.343   1.441 -34.264  1.00  0.00    -0.353 OA
HETATM   34  C   UNL     1     -12.315   1.761 -35.248  1.00  0.00     0.210 C 
ENDBRANCH  28  33
ENDBRANCH  24  25
ENDBRANCH   3  24
TORSDOF 5
ENDMDL
MODEL 9
REMARK VINA RESULT:      -8.8      3.628      8.094
REMARK  5 active torsions:
REMARK  status: ('A' for Active; 'I' for Inactive)
REMARK    1  A    between atoms: C_4  and  C_5 
REMARK       I    between atoms: N_6  and  C_7 
REMARK    2  A    between atoms: C_7  and  C_8 
REMARK    3  A    between atoms: C_8  and  C_9 
REMARK    4  A    between atoms: C_11  and  O_12 
REMARK    5  A    between atoms: C_14  and  O_15 
ROOT
HETATM    1  C   UNL     1      -5.234   5.103 -31.846  1.00  0.00     0.189 C 
HETATM    2  N   UNL     1      -5.656   3.720 -31.491  1.00  0.00    -0.336 N 
HETATM    3  C   UNL     1      -4.704   2.699 -31.438  1.00  0.00     0.225 C 
HETATM    4  O   UNL     1      -3.521   2.854 -31.744  1.00  0.00    -0.273 OA
HETATM    5  C   UNL     1      -6.819   3.707 -30.579  1.00  0.00     0.132 C 
HETATM    6  C   UNL     1      -6.433   4.253 -29.182  1.00  0.00     0.061 C 
HETATM    7  C   UNL     1      -5.498   5.417 -29.311  1.00  0.00    -0.019 A 
HETATM    8  C   UNL     1      -4.937   5.781 -30.527  1.00  0.00     0.046 A 
HETATM    9  N   UNL     1      -4.158   6.885 -30.312  1.00  0.00    -0.356 N 
HETATM   10  H   UNL     1      -3.649   7.397 -31.021  1.00  0.00     0.166 HD
HETATM   11  C   UNL     1      -4.126   7.179 -28.964  1.00  0.00     0.043 A 
HETATM   12  C   UNL     1      -4.974   6.278 -28.315  1.00  0.00    -0.001 A 
HETATM   13  C   UNL     1      -3.413   8.168 -28.273  1.00  0.00     0.030 A 
HETATM   14  C   UNL     1      -3.574   8.235 -26.885  1.00  0.00     0.002 A 
HETATM   15  C   UNL     1      -4.419   7.353 -26.215  1.00  0.00     0.001 A 
HETATM   16  C   UNL     1      -5.126   6.372 -26.918  1.00  0.00     0.014 A 
ENDROOT
BRANCH   1  17
HETATM   17  C   UNL     1      -4.282   5.281 -33.026  1.00  0.00     0.063 A 
HETATM   18  N   UNL     1      -3.046   5.780 -32.726  1.00  0.00    -0.256 NA
HETATM   19  C   UNL     1      -2.159   5.970 -33.731  1.00  0.00     0.031 A 
HETATM   20  C   UNL     1      -0.828   6.557 -33.370  1.00  0.00     0.070 C 
HETATM   21  C   UNL     1      -2.447   5.655 -35.053  1.00  0.00     0.027 A 
HETATM   22  C   UNL     1      -3.702   5.142 -35.355  1.00  0.00     0.004 A 
HETATM   23  C   UNL     1      -4.631   4.958 -34.336  1.00  0.00     0.030 A 
ENDBRANCH   1  17
BRANCH   3  24
HETATM   24  C   UNL     1      -5.147   1.321 -30.960  1.00  0.00     0.141 C 
BRANCH  24  25
HETATM   25  C   UNL     1      -5.198   0.234 -32.010  1.00  0.00    -0.047 A 
HETATM   26  C   UNL     1      -4.358  -0.889 -31.961  1.00  0.00     0.047 A 
HETATM   27  C   UNL     1      -4.430  -1.884 -32.945  1.00  0.00     0.102 A 
HETATM   28  C   UNL     1      -5.383  -1.776 -33.977  1.00  0.00     0.101 A 
HETATM   29  C   UNL     1      -6.243  -0.675 -34.006  1.00  0.00     0.040 A 
HETATM   30  C   UNL     1      -6.153   0.318 -33.029  1.00  0.00     0.010 A 
BRANCH  27  31
HETATM   31  O   UNL     1      -3.625  -2.997 -32.976  1.00  0.00    -0.353 OA
HETATM   32  C   UNL     1      -2.952  -3.349 -31.774  1.00  0.00     0.210 C 
ENDBRANCH  27  31
BRANCH  28  33
HETATM   33  O   UNL     1      -5.397  -2.793 -34.900  1.00  0.00    -0.353 OA
HETATM   34  C   UNL     1      -6.502  -3.683 -34.880  1.00  0.00     0.210 C 
ENDBRANCH  28  33
ENDBRANCH  24  25
ENDBRANCH   3  24
TORSDOF 5
ENDMDL
MODEL 10
REMARK VINA RESULT:      -8.8      3.181      7.291
REMARK  5 active torsions:
REMARK  status: ('A' for Active; 'I' for Inactive)
REMARK    1  A    between atoms: C_4  and  C_5 
REMARK       I    between atoms: N_6  and  C_7 
REMARK    2  A    between atoms: C_7  and  C_8 
REMARK    3  A    between atoms: C_8  and  C_9 
REMARK    4  A    between atoms: C_11  and  O_12 
REMARK    5  A    between atoms: C_14  and  O_15 
ROOT
HETATM    1  C   UNL     1      -5.726   4.780 -32.123  1.00  0.00     0.189 C 
HETATM    2  N   UNL     1      -6.362   3.440 -32.006  1.00  0.00    -0.336 N 
HETATM    3  C   UNL     1      -5.776   2.465 -31.195  1.00  0.00     0.225 C 
HETATM    4  O   UNL     1      -4.702   2.618 -30.613  1.00  0.00    -0.273 OA
HETATM    5  C   UNL     1      -7.831   3.503 -32.157  1.00  0.00     0.132 C 
HETATM    6  C   UNL     1      -8.481   4.232 -30.955  1.00  0.00     0.061 C 
HETATM    7  C   UNL     1      -7.644   5.400 -30.532  1.00  0.00    -0.019 A 
HETATM    8  C   UNL     1      -6.378   5.627 -31.053  1.00  0.00     0.046 A 
HETATM    9  N   UNL     1      -5.894   6.774 -30.486  1.00  0.00    -0.356 N 
HETATM   10  H   UNL     1      -5.005   7.210 -30.697  1.00  0.00     0.166 HD
HETATM   11  C   UNL     1      -6.780   7.236 -29.534  1.00  0.00     0.043 A 
HETATM   12  C   UNL     1      -7.897   6.396 -29.555  1.00  0.00    -0.001 A 
HETATM   13  C   UNL     1      -6.680   8.325 -28.660  1.00  0.00     0.030 A 
HETATM   14  C   UNL     1      -7.748   8.560 -27.788  1.00  0.00     0.002 A 
HETATM   15  C   UNL     1      -8.876   7.742 -27.794  1.00  0.00     0.001 A 
HETATM   16  C   UNL     1      -8.964   6.658 -28.674  1.00  0.00     0.014 A 
ENDROOT
BRANCH   1  17
HETATM   17  C   UNL     1      -4.214   4.840 -32.327  1.00  0.00     0.063 A 
HETATM   18  N   UNL     1      -3.498   5.415 -31.316  1.00  0.00    -0.256 NA
HETATM   19  C   UNL     1      -2.152   5.507 -31.441  1.00  0.00     0.031 A 
HETATM   20  C   UNL     1      -1.403   6.179 -30.331  1.00  0.00     0.070 C 
HETATM   21  C   UNL     1      -1.469   5.018 -32.548  1.00  0.00     0.027 A 
HETATM   22  C   UNL     1      -2.198   4.429 -33.572  1.00  0.00     0.004 A 
HETATM   23  C   UNL     1      -3.583   4.343 -33.467  1.00  0.00     0.030 A 
ENDBRANCH   1  17
BRANCH   3  24
HETATM   24  C   UNL     1      -6.513   1.143 -31.005  1.00  0.00     0.141 C 
BRANCH  24  25
HETATM   25  C   UNL     1      -6.288   0.095 -32.070  1.00  0.00    -0.047 A 
HETATM   26  C   UNL     1      -5.161  -0.740 -32.068  1.00  0.00     0.047 A 
HETATM   27  C   UNL     1      -4.980  -1.709 -33.065  1.00  0.00     0.102 A 
HETATM   28  C   UNL     1      -5.961  -1.872 -34.063  1.00  0.00     0.101 A 
HETATM   29  C   UNL     1      -7.101  -1.063 -34.045  1.00  0.00     0.040 A 
HETATM   30  C   UNL     1      -7.264  -0.093 -33.055  1.00  0.00     0.010 A 
BRANCH  27  31
HETATM   31  O   UNL     1      -3.893  -2.544 -33.141  1.00  0.00    -0.353 OA
HETATM   32  C   UNL     1      -3.095  -2.684 -31.972  1.00  0.00     0.210 C 
ENDBRANCH  27  31
BRANCH  28  33
HETATM   33  O   UNL     1      -5.717  -2.844 -35.002  1.00  0.00    -0.353 OA
HETATM   34  C   UNL     1      -6.526  -4.010 -34.965  1.00  0.00     0.210 C 
ENDBRANCH  28  33
ENDBRANCH  24  25
ENDBRANCH   3  24
TORSDOF 5
ENDMDL
