MODEL 1
REMARK VINA RESULT:      -8.8      0.000      0.000
REMARK  3 active torsions:
REMARK  status: ('A' for Active; 'I' for Inactive)
REMARK    1  A    between atoms: C_5  and  N_6 
REMARK       I    between atoms: N_6  and  C_7 
REMARK    2  A    between atoms: C_7  and  C_8 
REMARK    3  A    between atoms: C_11  and  N_12 
ROOT
HETATM    1  C   UNL     1      -4.296  -2.886 -33.856  1.00  0.00     0.001 A 
HETATM    2  C   UNL     1      -5.534  -2.525 -34.394  1.00  0.00     0.008 A 
HETATM    3  C   UNL     1      -6.201  -1.450 -33.833  1.00  0.00    -0.043 A 
HETATM    4  C   UNL     1      -5.650  -0.740 -32.753  1.00  0.00    -0.028 A 
HETATM    5  C   UNL     1      -6.499   0.471 -32.417  1.00  0.00     0.125 C 
HETATM    6  C   UNL     1      -7.861  -0.078 -32.936  1.00  0.00     0.049 C 
HETATM    7  C   UNL     1      -7.545  -0.910 -34.191  1.00  0.00     0.053 C 
HETATM    8  C   UNL     1      -8.964   0.824 -33.416  1.00  0.00     0.239 C 
HETATM    9  N   UNL     1      -8.564   1.180 -34.811  1.00  0.00    -0.074 N 
HETATM   10  H   UNL     1      -9.373   1.352 -35.420  1.00  0.00     0.277 HD
HETATM   11  H   UNL     1      -8.072   2.090 -34.726  1.00  0.00     0.277 HD
HETATM   12  C   UNL     1      -7.632   0.110 -35.325  1.00  0.00     0.242 C 
HETATM   13  C   UNL     1      -4.423  -1.096 -32.214  1.00  0.00     0.010 A 
HETATM   14  C   UNL     1      -3.748  -2.181 -32.773  1.00  0.00     0.001 A 
ENDROOT
BRANCH   5  15
HETATM   15  N   UNL     1      -5.799   1.589 -33.049  1.00  0.00    -0.348 N 
HETATM   16  C   UNL     1      -5.679   2.881 -32.611  1.00  0.00     0.252 C 
HETATM   17  O   UNL     1      -6.444   3.393 -31.807  1.00  0.00    -0.268 OA
HETATM   18  H   UNL     1      -5.015   1.275 -33.614  1.00  0.00     0.163 HD
BRANCH  16  19
HETATM   19  C   UNL     1      -4.596   3.687 -33.235  1.00  0.00     0.032 A 
HETATM   20  C   UNL     1      -3.282   3.645 -32.756  1.00  0.00     0.019 A 
HETATM   21  C   UNL     1      -2.295   4.425 -33.367  1.00  0.00     0.024 A 
HETATM   22  C   UNL     1      -2.591   5.215 -34.481  1.00  0.00     0.005 A 
HETATM   23  C   UNL     1      -3.916   5.279 -34.924  1.00  0.00     0.024 A 
HETATM   24  C   UNL     1      -4.911   4.499 -34.327  1.00  0.00     0.019 A 
BRANCH  22  25
HETATM   25  N   UNL     1      -1.635   6.094 -34.990  1.00  0.00    -0.303 NA
HETATM   26  H   UNL     1      -1.899   7.075 -34.966  1.00  0.00     0.124 HD
HETATM   27  H   UNL     1      -0.692   5.946 -34.643  1.00  0.00     0.124 HD
ENDBRANCH  22  25
ENDBRANCH  16  19
ENDBRANCH   5  15
TORSDOF 3
ENDMDL
MODEL 2
REMARK VINA RESULT:      -8.3      2.970      6.129
REMARK  3 active torsions:
REMARK  status: ('A' for Active; 'I' for Inactive)
REMARK    1  A    between atoms: C_5  and  N_6 
REMARK       I    between atoms: N_6  and  C_7 
REMARK    2  A    between atoms: C_7  and  C_8 
REMARK    3  A    between atoms: C_11  and  N_12 
ROOT
HETATM    1  C   UNL     1      -5.223   2.789 -30.028  1.00  0.00     0.001 A 
HETATM    2  C   UNL     1      -6.607   2.617 -30.112  1.00  0.00     0.008 A 
HETATM    3  C   UNL     1      -7.149   2.274 -31.338  1.00  0.00    -0.043 A 
HETATM    4  C   UNL     1      -6.332   2.104 -32.469  1.00  0.00    -0.028 A 
HETATM    5  C   UNL     1      -7.141   1.594 -33.646  1.00  0.00     0.125 C 
HETATM    6  C   UNL     1      -8.518   2.189 -33.226  1.00  0.00     0.049 C 
HETATM    7  C   UNL     1      -8.587   2.089 -31.692  1.00  0.00     0.053 C 
HETATM    8  C   UNL     1      -9.825   1.576 -33.649  1.00  0.00     0.239 C 
HETATM    9  N   UNL     1     -10.017   0.437 -32.702  1.00  0.00    -0.074 N 
HETATM   10  H   UNL     1     -11.008   0.240 -32.521  1.00  0.00     0.277 HD
HETATM   11  H   UNL     1      -9.647  -0.394 -33.202  1.00  0.00     0.277 HD
HETATM   12  C   UNL     1      -9.214   0.716 -31.454  1.00  0.00     0.242 C 
HETATM   13  C   UNL     1      -4.958   2.276 -32.391  1.00  0.00     0.010 A 
HETATM   14  C   UNL     1      -4.406   2.625 -31.158  1.00  0.00     0.001 A 
ENDROOT
BRANCH   5  15
HETATM   15  N   UNL     1      -6.872   0.156 -33.673  1.00  0.00    -0.348 N 
HETATM   16  C   UNL     1      -7.082  -0.734 -34.692  1.00  0.00     0.252 C 
HETATM   17  O   UNL     1      -7.866  -0.536 -35.609  1.00  0.00    -0.268 OA
HETATM   18  H   UNL     1      -6.099  -0.097 -33.063  1.00  0.00     0.163 HD
BRANCH  16  19
HETATM   19  C   UNL     1      -6.357  -2.029 -34.592  1.00  0.00     0.032 A 
HETATM   20  C   UNL     1      -6.987  -3.247 -34.870  1.00  0.00     0.019 A 
HETATM   21  C   UNL     1      -6.271  -4.442 -34.757  1.00  0.00     0.024 A 
HETATM   22  C   UNL     1      -4.916  -4.437 -34.413  1.00  0.00     0.005 A 
HETATM   23  C   UNL     1      -4.309  -3.218 -34.099  1.00  0.00     0.024 A 
HETATM   24  C   UNL     1      -5.012  -2.014 -34.215  1.00  0.00     0.019 A 
BRANCH  22  25
HETATM   25  N   UNL     1      -4.253  -5.639 -34.164  1.00  0.00    -0.303 NA
HETATM   26  H   UNL     1      -4.057  -5.826 -33.185  1.00  0.00     0.124 HD
HETATM   27  H   UNL     1      -4.647  -6.448 -34.635  1.00  0.00     0.124 HD
ENDBRANCH  22  25
ENDBRANCH  16  19
ENDBRANCH   5  15
TORSDOF 3
ENDMDL
MODEL 3
REMARK VINA RESULT:      -8.1      2.865      6.391
REMARK  3 active torsions:
REMARK  status: ('A' for Active; 'I' for Inactive)
REMARK    1  A    between atoms: C_5  and  N_6 
REMARK       I    between atoms: N_6  and  C_7 
REMARK    2  A    between atoms: C_7  and  C_8 
REMARK    3  A    between atoms: C_11  and  N_12 
ROOT
HETATM    1  C   UNL     1      -5.650  -2.118 -33.738  1.00  0.00     0.001 A 
HETATM    2  C   UNL     1      -5.518  -1.142 -32.749  1.00  0.00     0.008 A 
HETATM    3  C   UNL     1      -5.990   0.131 -33.020  1.00  0.00    -0.043 A 
HETATM    4  C   UNL     1      -6.584   0.435 -34.256  1.00  0.00    -0.028 A 
HETATM    5  C   UNL     1      -7.142   1.845 -34.253  1.00  0.00     0.125 C 
HETATM    6  C   UNL     1      -6.173   2.451 -33.194  1.00  0.00     0.049 C 
HETATM    7  C   UNL     1      -5.917   1.345 -32.155  1.00  0.00     0.053 C 
HETATM    8  C   UNL     1      -6.551   3.624 -32.332  1.00  0.00     0.239 C 
HETATM    9  N   UNL     1      -7.381   3.025 -31.245  1.00  0.00    -0.074 N 
HETATM   10  H   UNL     1      -7.304   3.542 -30.361  1.00  0.00     0.277 HD
HETATM   11  H   UNL     1      -8.363   3.142 -31.560  1.00  0.00     0.277 HD
HETATM   12  C   UNL     1      -7.025   1.563 -31.126  1.00  0.00     0.242 C 
HETATM   13  C   UNL     1      -6.715  -0.531 -35.243  1.00  0.00     0.010 A 
HETATM   14  C   UNL     1      -6.239  -1.814 -34.977  1.00  0.00     0.001 A 
ENDROOT
BRANCH   5  15
HETATM   15  N   UNL     1      -8.574   1.666 -34.010  1.00  0.00    -0.348 N 
HETATM   16  C   UNL     1      -9.593   2.556 -34.215  1.00  0.00     0.252 C 
HETATM   17  O   UNL     1      -9.428   3.765 -34.289  1.00  0.00    -0.268 OA
HETATM   18  H   UNL     1      -8.856   0.694 -34.102  1.00  0.00     0.163 HD
BRANCH  16  19
HETATM   19  C   UNL     1     -10.965   1.982 -34.263  1.00  0.00     0.032 A 
HETATM   20  C   UNL     1     -11.297   0.813 -33.569  1.00  0.00     0.019 A 
HETATM   21  C   UNL     1     -12.597   0.304 -33.648  1.00  0.00     0.024 A 
HETATM   22  C   UNL     1     -13.586   0.971 -34.375  1.00  0.00     0.005 A 
HETATM   23  C   UNL     1     -13.232   2.115 -35.096  1.00  0.00     0.024 A 
HETATM   24  C   UNL     1     -11.938   2.639 -35.021  1.00  0.00     0.019 A 
BRANCH  22  25
HETATM   25  N   UNL     1     -14.835   0.379 -34.563  1.00  0.00    -0.303 NA
HETATM   26  H   UNL     1     -15.250  -0.021 -33.726  1.00  0.00     0.124 HD
HETATM   27  H   UNL     1     -15.500   0.943 -35.084  1.00  0.00     0.124 HD
ENDBRANCH  22  25
ENDBRANCH  16  19
ENDBRANCH   5  15
TORSDOF 3
ENDMDL
MODEL 4
REMARK VINA RESULT:      -7.8      3.705      8.235
REMARK  3 active torsions:
REMARK  status: ('A' for Active; 'I' for Inactive)
REMARK    1  A    between atoms: C_5  and  N_6 
REMARK       I    between atoms: N_6  and  C_7 
REMARK    2  A    between atoms: C_7  and  C_8 
REMARK    3  A    between atoms: C_11  and  N_12 
ROOT
HETATM    1  C   UNL     1       0.238   7.310 -28.123  1.00  0.00     0.001 A 
HETATM    2  C   UNL     1      -0.363   7.964 -29.201  1.00  0.00     0.008 A 
HETATM    3  C   UNL     1      -0.581   7.244 -30.363  1.00  0.00    -0.043 A 
HETATM    4  C   UNL     1      -0.208   5.893 -30.458  1.00  0.00    -0.028 A 
HETATM    5  C   UNL     1      -0.680   5.296 -31.770  1.00  0.00     0.125 C 
HETATM    6  C   UNL     1      -0.691   6.610 -32.606  1.00  0.00     0.049 C 
HETATM    7  C   UNL     1      -1.152   7.728 -31.655  1.00  0.00     0.053 C 
HETATM    8  C   UNL     1      -1.593   6.804 -33.794  1.00  0.00     0.239 C 
HETATM    9  N   UNL     1      -2.913   7.163 -33.194  1.00  0.00    -0.074 N 
HETATM   10  H   UNL     1      -3.466   7.779 -33.802  1.00  0.00     0.277 HD
HETATM   11  H   UNL     1      -3.437   6.268 -33.142  1.00  0.00     0.277 HD
HETATM   12  C   UNL     1      -2.671   7.726 -31.815  1.00  0.00     0.242 C 
HETATM   13  C   UNL     1       0.391   5.239 -29.392  1.00  0.00     0.010 A 
HETATM   14  C   UNL     1       0.617   5.961 -28.220  1.00  0.00     0.001 A 
ENDROOT
BRANCH   5  15
HETATM   15  N   UNL     1      -1.899   4.568 -31.418  1.00  0.00    -0.348 N 
HETATM   16  C   UNL     1      -2.683   3.777 -32.214  1.00  0.00     0.252 C 
HETATM   17  O   UNL     1      -2.691   3.848 -33.435  1.00  0.00    -0.268 OA
HETATM   18  H   UNL     1      -1.912   4.300 -30.438  1.00  0.00     0.163 HD
BRANCH  16  19
HETATM   19  C   UNL     1      -3.614   2.855 -31.510  1.00  0.00     0.032 A 
HETATM   20  C   UNL     1      -3.451   1.466 -31.562  1.00  0.00     0.019 A 
HETATM   21  C   UNL     1      -4.354   0.635 -30.892  1.00  0.00     0.024 A 
HETATM   22  C   UNL     1      -5.395   1.173 -30.130  1.00  0.00     0.005 A 
HETATM   23  C   UNL     1      -5.571   2.560 -30.119  1.00  0.00     0.024 A 
HETATM   24  C   UNL     1      -4.671   3.403 -30.779  1.00  0.00     0.019 A 
BRANCH  22  25
HETATM   25  N   UNL     1      -6.369   0.336 -29.586  1.00  0.00    -0.303 NA
HETATM   26  H   UNL     1      -6.023  -0.551 -29.232  1.00  0.00     0.124 HD
HETATM   27  H   UNL     1      -7.001   0.786 -28.931  1.00  0.00     0.124 HD
ENDBRANCH  22  25
ENDBRANCH  16  19
ENDBRANCH   5  15
TORSDOF 3
ENDMDL
MODEL 5
REMARK VINA RESULT:      -7.7      2.272      6.123
REMARK  3 active torsions:
REMARK  status: ('A' for Active; 'I' for Inactive)
REMARK    1  A    between atoms: C_5  and  N_6 
REMARK       I    between atoms: N_6  and  C_7 
REMARK    2  A    between atoms: C_7  and  C_8 
REMARK    3  A    between atoms: C_11  and  N_12 
ROOT
HETATM    1  C   UNL     1      -3.498   5.219 -33.495  1.00  0.00     0.001 A 
HETATM    2  C   UNL     1      -3.889   4.996 -32.173  1.00  0.00     0.008 A 
HETATM    3  C   UNL     1      -5.123   4.412 -31.946  1.00  0.00    -0.043 A 
HETATM    4  C   UNL     1      -5.962   4.054 -33.014  1.00  0.00    -0.028 A 
HETATM    5  C   UNL     1      -7.184   3.308 -32.513  1.00  0.00     0.125 C 
HETATM    6  C   UNL     1      -7.239   3.934 -31.087  1.00  0.00     0.049 C 
HETATM    7  C   UNL     1      -5.780   4.124 -30.637  1.00  0.00     0.053 C 
HETATM    8  C   UNL     1      -7.849   3.217 -29.914  1.00  0.00     0.239 C 
HETATM    9  N   UNL     1      -6.780   2.273 -29.469  1.00  0.00    -0.074 N 
HETATM   10  H   UNL     1      -6.816   2.086 -28.460  1.00  0.00     0.277 HD
HETATM   11  H   UNL     1      -7.005   1.372 -29.934  1.00  0.00     0.277 HD
HETATM   12  C   UNL     1      -5.449   2.805 -29.942  1.00  0.00     0.242 C 
HETATM   13  C   UNL     1      -5.580   4.275 -34.329  1.00  0.00     0.010 A 
HETATM   14  C   UNL     1      -4.338   4.867 -34.564  1.00  0.00     0.001 A 
ENDROOT
BRANCH   5  15
HETATM   15  N   UNL     1      -6.869   1.899 -32.750  1.00  0.00    -0.348 N 
HETATM   16  C   UNL     1      -7.184   1.124 -33.833  1.00  0.00     0.252 C 
HETATM   17  O   UNL     1      -8.092   1.386 -34.609  1.00  0.00    -0.268 OA
HETATM   18  H   UNL     1      -6.012   1.617 -32.281  1.00  0.00     0.163 HD
BRANCH  16  19
HETATM   19  C   UNL     1      -6.406  -0.134 -33.988  1.00  0.00     0.032 A 
HETATM   20  C   UNL     1      -6.949  -1.261 -34.616  1.00  0.00     0.019 A 
HETATM   21  C   UNL     1      -6.186  -2.427 -34.734  1.00  0.00     0.024 A 
HETATM   22  C   UNL     1      -4.868  -2.471 -34.272  1.00  0.00     0.005 A 
HETATM   23  C   UNL     1      -4.351  -1.353 -33.611  1.00  0.00     0.024 A 
HETATM   24  C   UNL     1      -5.101  -0.179 -33.492  1.00  0.00     0.019 A 
BRANCH  22  25
HETATM   25  N   UNL     1      -4.168  -3.678 -34.266  1.00  0.00    -0.303 NA
HETATM   26  H   UNL     1      -4.273  -4.230 -33.419  1.00  0.00     0.124 HD
HETATM   27  H   UNL     1      -4.284  -4.241 -35.103  1.00  0.00     0.124 HD
ENDBRANCH  22  25
ENDBRANCH  16  19
ENDBRANCH   5  15
TORSDOF 3
ENDMDL
MODEL 6
REMARK VINA RESULT:      -7.5      3.214      6.448
REMARK  3 active torsions:
REMARK  status: ('A' for Active; 'I' for Inactive)
REMARK    1  A    between atoms: C_5  and  N_6 
REMARK       I    between atoms: N_6  and  C_7 
REMARK    2  A    between atoms: C_7  and  C_8 
REMARK    3  A    between atoms: C_11  and  N_12 
ROOT
HETATM    1  C   UNL     1     -12.309   2.676 -35.710  1.00  0.00     0.001 A 
HETATM    2  C   UNL     1     -11.479   3.707 -35.264  1.00  0.00     0.008 A 
HETATM    3  C   UNL     1     -10.734   3.497 -34.117  1.00  0.00    -0.043 A 
HETATM    4  C   UNL     1     -10.811   2.281 -33.417  1.00  0.00    -0.028 A 
HETATM    5  C   UNL     1      -9.801   2.246 -32.286  1.00  0.00     0.125 C 
HETATM    6  C   UNL     1      -9.712   3.781 -32.039  1.00  0.00     0.049 C 
HETATM    7  C   UNL     1      -9.826   4.453 -33.418  1.00  0.00     0.053 C 
HETATM    8  C   UNL     1      -8.488   4.436 -31.460  1.00  0.00     0.239 C 
HETATM    9  N   UNL     1      -7.557   4.560 -32.622  1.00  0.00    -0.074 N 
HETATM   10  H   UNL     1      -6.935   5.373 -32.542  1.00  0.00     0.277 HD
HETATM   11  H   UNL     1      -6.943   3.724 -32.565  1.00  0.00     0.277 HD
HETATM   12  C   UNL     1      -8.375   4.541 -33.890  1.00  0.00     0.242 C 
HETATM   13  C   UNL     1     -11.635   1.255 -33.854  1.00  0.00     0.010 A 
HETATM   14  C   UNL     1     -12.390   1.462 -35.008  1.00  0.00     0.001 A 
ENDROOT
BRANCH   5  15
HETATM   15  N   UNL     1      -8.687   1.462 -32.820  1.00  0.00    -0.348 N 
HETATM   16  C   UNL     1      -7.679   0.835 -32.139  1.00  0.00     0.252 C 
HETATM   17  O   UNL     1      -7.344   1.137 -31.002  1.00  0.00    -0.268 OA
HETATM   18  H   UNL     1      -8.927   1.011 -33.699  1.00  0.00     0.163 HD
BRANCH  16  19
HETATM   19  C   UNL     1      -6.928  -0.206 -32.890  1.00  0.00     0.032 A 
HETATM   20  C   UNL     1      -7.501  -0.891 -33.968  1.00  0.00     0.019 A 
HETATM   21  C   UNL     1      -6.763  -1.868 -34.642  1.00  0.00     0.024 A 
HETATM   22  C   UNL     1      -5.440  -2.142 -34.285  1.00  0.00     0.005 A 
HETATM   23  C   UNL     1      -4.892  -1.480 -33.182  1.00  0.00     0.024 A 
HETATM   24  C   UNL     1      -5.617  -0.496 -32.503  1.00  0.00     0.019 A 
BRANCH  22  25
HETATM   25  N   UNL     1      -4.764  -3.214 -34.869  1.00  0.00    -0.303 NA
HETATM   26  H   UNL     1      -4.408  -3.904 -34.215  1.00  0.00     0.124 HD
HETATM   27  H   UNL     1      -5.247  -3.645 -35.652  1.00  0.00     0.124 HD
ENDBRANCH  22  25
ENDBRANCH  16  19
ENDBRANCH   5  15
TORSDOF 3
ENDMDL
MODEL 7
REMARK VINA RESULT:      -7.4      2.477      6.078
REMARK  3 active torsions:
REMARK  status: ('A' for Active; 'I' for Inactive)
REMARK    1  A    between atoms: C_5  and  N_6 
REMARK       I    between atoms: N_6  and  C_7 
REMARK    2  A    between atoms: C_7  and  C_8 
REMARK    3  A    between atoms: C_11  and  N_12 
ROOT
HETATM    1  C   UNL     1      -4.384   5.293 -32.206  1.00  0.00     0.001 A 
HETATM    2  C   UNL     1      -5.494   5.013 -31.405  1.00  0.00     0.008 A 
HETATM    3  C   UNL     1      -6.534   4.288 -31.960  1.00  0.00    -0.043 A 
HETATM    4  C   UNL     1      -6.478   3.847 -33.293  1.00  0.00    -0.028 A 
HETATM    5  C   UNL     1      -7.665   2.959 -33.617  1.00  0.00     0.125 C 
HETATM    6  C   UNL     1      -8.662   3.560 -32.581  1.00  0.00     0.049 C 
HETATM    7  C   UNL     1      -7.835   3.913 -31.333  1.00  0.00     0.053 C 
HETATM    8  C   UNL     1      -9.800   2.766 -32.002  1.00  0.00     0.239 C 
HETATM    9  N   UNL     1      -9.162   1.947 -30.927  1.00  0.00    -0.074 N 
HETATM   10  H   UNL     1      -9.805   1.747 -30.152  1.00  0.00     0.277 HD
HETATM   11  H   UNL     1      -8.958   1.031 -31.372  1.00  0.00     0.277 HD
HETATM   12  C   UNL     1      -7.888   2.633 -30.500  1.00  0.00     0.242 C 
HETATM   13  C   UNL     1      -5.379   4.124 -34.093  1.00  0.00     0.010 A 
HETATM   14  C   UNL     1      -4.329   4.857 -33.540  1.00  0.00     0.001 A 
ENDROOT
BRANCH   5  15
HETATM   15  N   UNL     1      -7.138   1.599 -33.515  1.00  0.00    -0.348 N 
HETATM   16  C   UNL     1      -7.598   0.457 -34.112  1.00  0.00     0.252 C 
HETATM   17  O   UNL     1      -8.738   0.329 -34.535  1.00  0.00    -0.268 OA
HETATM   18  H   UNL     1      -6.137   1.592 -33.337  1.00  0.00     0.163 HD
BRANCH  16  19
HETATM   19  C   UNL     1      -6.650  -0.689 -34.156  1.00  0.00     0.032 A 
HETATM   20  C   UNL     1      -7.005  -1.914 -34.730  1.00  0.00     0.019 A 
HETATM   21  C   UNL     1      -6.086  -2.968 -34.744  1.00  0.00     0.024 A 
HETATM   22  C   UNL     1      -4.797  -2.802 -34.231  1.00  0.00     0.005 A 
HETATM   23  C   UNL     1      -4.467  -1.586 -33.625  1.00  0.00     0.024 A 
HETATM   24  C   UNL     1      -5.374  -0.522 -33.611  1.00  0.00     0.019 A 
BRANCH  22  25
HETATM   25  N   UNL     1      -3.941  -3.899 -34.121  1.00  0.00    -0.303 NA
HETATM   26  H   UNL     1      -4.405  -4.800 -34.061  1.00  0.00     0.124 HD
HETATM   27  H   UNL     1      -3.174  -3.909 -34.787  1.00  0.00     0.124 HD
ENDBRANCH  22  25
ENDBRANCH  16  19
ENDBRANCH   5  15
TORSDOF 3
ENDMDL
MODEL 8
REMARK VINA RESULT:      -7.2     15.016     16.716
REMARK  3 active torsions:
REMARK  status: ('A' for Active; 'I' for Inactive)
REMARK    1  A    between atoms: C_5  and  N_6 
REMARK       I    between atoms: N_6  and  C_7 
REMARK    2  A    between atoms: C_7  and  C_8 
REMARK    3  A    between atoms: C_11  and  N_12 
ROOT
HETATM    1  C   UNL     1      -5.959 -13.237 -33.992  1.00  0.00     0.001 A 
HETATM    2  C   UNL     1      -4.926 -12.874 -34.859  1.00  0.00     0.008 A 
HETATM    3  C   UNL     1      -4.814 -13.550 -36.062  1.00  0.00    -0.043 A 
HETATM    4  C   UNL     1      -5.712 -14.575 -36.403  1.00  0.00    -0.028 A 
HETATM    5  C   UNL     1      -5.467 -15.056 -37.820  1.00  0.00     0.125 C 
HETATM    6  C   UNL     1      -3.953 -14.695 -37.904  1.00  0.00     0.049 C 
HETATM    7  C   UNL     1      -3.774 -13.384 -37.120  1.00  0.00     0.053 C 
HETATM    8  C   UNL     1      -3.268 -14.389 -39.207  1.00  0.00     0.239 C 
HETATM    9  N   UNL     1      -3.633 -12.968 -39.486  1.00  0.00    -0.074 N 
HETATM   10  H   UNL     1      -2.906 -12.472 -40.015  1.00  0.00     0.277 HD
HETATM   11  H   UNL     1      -4.458 -13.020 -40.114  1.00  0.00     0.277 HD
HETATM   12  C   UNL     1      -3.993 -12.304 -38.179  1.00  0.00     0.242 C 
HETATM   13  C   UNL     1      -6.738 -14.941 -35.544  1.00  0.00     0.010 A 
HETATM   14  C   UNL     1      -6.854 -14.266 -34.330  1.00  0.00     0.001 A 
ENDROOT
BRANCH   5  15
HETATM   15  N   UNL     1      -6.491 -14.378 -38.614  1.00  0.00    -0.348 N 
HETATM   16  C   UNL     1      -7.664 -14.882 -39.106  1.00  0.00     0.252 C 
HETATM   17  O   UNL     1      -7.869 -16.076 -39.270  1.00  0.00    -0.268 OA
HETATM   18  H   UNL     1      -6.525 -13.381 -38.417  1.00  0.00     0.163 HD
BRANCH  16  19
HETATM   19  C   UNL     1      -8.683 -13.882 -39.524  1.00  0.00     0.032 A 
HETATM   20  C   UNL     1     -10.018 -14.242 -39.741  1.00  0.00     0.019 A 
HETATM   21  C   UNL     1     -10.943 -13.272 -40.140  1.00  0.00     0.024 A 
HETATM   22  C   UNL     1     -10.564 -11.935 -40.284  1.00  0.00     0.005 A 
HETATM   23  C   UNL     1      -9.220 -11.596 -40.104  1.00  0.00     0.024 A 
HETATM   24  C   UNL     1      -8.286 -12.554 -39.698  1.00  0.00     0.019 A 
BRANCH  22  25
HETATM   25  N   UNL     1     -11.458 -11.007 -40.820  1.00  0.00    -0.303 NA
HETATM   26  H   UNL     1     -11.353 -10.836 -41.815  1.00  0.00     0.124 HD
HETATM   27  H   UNL     1     -12.429 -11.153 -40.559  1.00  0.00     0.124 HD
ENDBRANCH  22  25
ENDBRANCH  16  19
ENDBRANCH   5  15
TORSDOF 3
ENDMDL
MODEL 9
REMARK VINA RESULT:      -7.0     15.308     16.776
REMARK  3 active torsions:
REMARK  status: ('A' for Active; 'I' for Inactive)
REMARK    1  A    between atoms: C_5  and  N_6 
REMARK       I    between atoms: N_6  and  C_7 
REMARK    2  A    between atoms: C_7  and  C_8 
REMARK    3  A    between atoms: C_11  and  N_12 
ROOT
HETATM    1  C   UNL     1     -10.273 -13.992 -40.418  1.00  0.00     0.001 A 
HETATM    2  C   UNL     1      -9.103 -14.502 -40.986  1.00  0.00     0.008 A 
HETATM    3  C   UNL     1      -7.893 -13.964 -40.585  1.00  0.00    -0.043 A 
HETATM    4  C   UNL     1      -7.841 -12.932 -39.633  1.00  0.00    -0.028 A 
HETATM    5  C   UNL     1      -6.405 -12.617 -39.259  1.00  0.00     0.125 C 
HETATM    6  C   UNL     1      -5.739 -13.069 -40.593  1.00  0.00     0.049 C 
HETATM    7  C   UNL     1      -6.526 -14.298 -41.079  1.00  0.00     0.053 C 
HETATM    8  C   UNL     1      -4.315 -13.548 -40.662  1.00  0.00     0.239 C 
HETATM    9  N   UNL     1      -4.385 -14.968 -40.205  1.00  0.00    -0.074 N 
HETATM   10  H   UNL     1      -3.663 -15.556 -40.637  1.00  0.00     0.277 HD
HETATM   11  H   UNL     1      -4.159 -14.936 -39.192  1.00  0.00     0.277 HD
HETATM   12  C   UNL     1      -5.792 -15.469 -40.426  1.00  0.00     0.242 C 
HETATM   13  C   UNL     1      -8.999 -12.420 -39.067  1.00  0.00     0.010 A 
HETATM   14  C   UNL     1     -10.222 -12.957 -39.471  1.00  0.00     0.001 A 
ENDROOT
BRANCH   5  15
HETATM   15  N   UNL     1      -6.199 -13.317 -37.991  1.00  0.00    -0.348 N 
HETATM   16  C   UNL     1      -5.269 -13.068 -37.018  1.00  0.00     0.252 C 
HETATM   17  O   UNL     1      -4.230 -12.455 -37.220  1.00  0.00    -0.268 OA
HETATM   18  H   UNL     1      -7.061 -13.723 -37.638  1.00  0.00     0.163 HD
BRANCH  16  19
HETATM   19  C   UNL     1      -5.542 -13.663 -35.683  1.00  0.00     0.032 A 
HETATM   20  C   UNL     1      -4.546 -14.327 -34.957  1.00  0.00     0.019 A 
HETATM   21  C   UNL     1      -4.847 -14.878 -33.708  1.00  0.00     0.024 A 
HETATM   22  C   UNL     1      -6.120 -14.737 -33.149  1.00  0.00     0.005 A 
HETATM   23  C   UNL     1      -7.116 -14.107 -33.900  1.00  0.00     0.024 A 
HETATM   24  C   UNL     1      -6.827 -13.545 -35.148  1.00  0.00     0.019 A 
BRANCH  22  25
HETATM   25  N   UNL     1      -6.446 -15.412 -31.972  1.00  0.00    -0.303 NA
HETATM   26  H   UNL     1      -6.372 -16.424 -32.024  1.00  0.00     0.124 HD
HETATM   27  H   UNL     1      -6.010 -15.041 -31.134  1.00  0.00     0.124 HD
ENDBRANCH  22  25
ENDBRANCH  16  19
ENDBRANCH   5  15
TORSDOF 3
ENDMDL
MODEL 10
REMARK VINA RESULT:      -7.0     15.409     17.481
REMARK  3 active torsions:
REMARK  status: ('A' for Active; 'I' for Inactive)
REMARK    1  A    between atoms: C_5  and  N_6 
REMARK       I    between atoms: N_6  and  C_7 
REMARK    2  A    between atoms: C_7  and  C_8 
REMARK    3  A    between atoms: C_11  and  N_12 
ROOT
HETATM    1  C   UNL     1      -2.031 -17.335 -42.318  1.00  0.00     0.001 A 
HETATM    2  C   UNL     1      -1.499 -17.088 -41.050  1.00  0.00     0.008 A 
HETATM    3  C   UNL     1      -1.587 -15.803 -40.543  1.00  0.00    -0.043 A 
HETATM    4  C   UNL     1      -2.192 -14.774 -41.283  1.00  0.00    -0.028 A 
HETATM    5  C   UNL     1      -2.290 -13.504 -40.458  1.00  0.00     0.125 C 
HETATM    6  C   UNL     1      -1.072 -13.769 -39.524  1.00  0.00     0.049 C 
HETATM    7  C   UNL     1      -1.052 -15.283 -39.251  1.00  0.00     0.053 C 
HETATM    8  C   UNL     1      -0.976 -13.190 -38.139  1.00  0.00     0.239 C 
HETATM    9  N   UNL     1      -1.824 -14.094 -37.306  1.00  0.00    -0.074 N 
HETATM   10  H   UNL     1      -1.496 -14.156 -36.335  1.00  0.00     0.277 HD
HETATM   11  H   UNL     1      -2.752 -13.631 -37.265  1.00  0.00     0.277 HD
HETATM   12  C   UNL     1      -1.921 -15.430 -38.002  1.00  0.00     0.242 C 
HETATM   13  C   UNL     1      -2.720 -15.013 -42.543  1.00  0.00     0.010 A 
HETATM   14  C   UNL     1      -2.631 -16.305 -43.060  1.00  0.00     0.001 A 
ENDROOT
BRANCH   5  15
HETATM   15  N   UNL     1      -3.672 -13.491 -39.978  1.00  0.00    -0.348 N 
HETATM   16  C   UNL     1      -4.313 -12.529 -39.245  1.00  0.00     0.252 C 
HETATM   17  O   UNL     1      -3.728 -11.697 -38.566  1.00  0.00    -0.268 OA
HETATM   18  H   UNL     1      -4.290 -14.021 -40.586  1.00  0.00     0.163 HD
BRANCH  16  19
HETATM   19  C   UNL     1      -5.799 -12.588 -39.243  1.00  0.00     0.032 A 
HETATM   20  C   UNL     1      -6.521 -12.867 -38.077  1.00  0.00     0.019 A 
HETATM   21  C   UNL     1      -7.918 -12.920 -38.120  1.00  0.00     0.024 A 
HETATM   22  C   UNL     1      -8.610 -12.654 -39.304  1.00  0.00     0.005 A 
HETATM   23  C   UNL     1      -7.876 -12.416 -40.470  1.00  0.00     0.024 A 
HETATM   24  C   UNL     1      -6.480 -12.353 -40.440  1.00  0.00     0.019 A 
BRANCH  22  25
HETATM   25  N   UNL     1      -9.989 -12.850 -39.368  1.00  0.00    -0.303 NA
HETATM   26  H   UNL     1     -10.285 -13.822 -39.364  1.00  0.00     0.124 HD
HETATM   27  H   UNL     1     -10.530 -12.285 -38.720  1.00  0.00     0.124 HD
ENDBRANCH  22  25
ENDBRANCH  16  19
ENDBRANCH   5  15
TORSDOF 3
ENDMDL
