MODEL 1
REMARK VINA RESULT:     -10.1      0.000      0.000
REMARK  6 active torsions:
REMARK  status: ('A' for Active; 'I' for Inactive)
REMARK    1  A    between atoms: C_7  and  C_8 
REMARK    2  A    between atoms: C_8  and  O_9 
REMARK    3  A    between atoms: O_9  and  C_10 
REMARK    4  A    between atoms: C_10  and  C_11 
REMARK       I    between atoms: C_11  and  N_12 
REMARK    5  A    between atoms: N_12  and  N_13 
REMARK    6  A    between atoms: C_17  and  C_18 
ROOT
HETATM    1  C   UNL     1      -4.586   4.669 -32.403  1.00  0.00     0.261 C 
HETATM    2  N   UNL     1      -4.704   3.680 -33.358  1.00  0.00    -0.255 N 
HETATM    3  O   UNL     1      -4.877   4.516 -31.217  1.00  0.00    -0.269 OA
HETATM    4  H   UNL     1      -4.717   3.941 -34.346  1.00  0.00     0.191 HD
ENDROOT
BRANCH   1   5
HETATM    5  C   UNL     1      -4.010   5.981 -32.943  1.00  0.00     0.283 C 
BRANCH   5   6
HETATM    6  O   UNL     1      -2.751   5.861 -33.607  1.00  0.00    -0.308 OA
BRANCH   6   7
HETATM    7  C   UNL     1      -1.854   6.841 -33.340  1.00  0.00     0.293 C 
HETATM    8  O   UNL     1      -1.656   7.818 -34.050  1.00  0.00    -0.259 OA
BRANCH   7   9
HETATM    9  C   UNL     1      -1.140   6.594 -32.059  1.00  0.00     0.040 A 
HETATM   10  C   UNL     1      -0.443   5.388 -31.921  1.00  0.00     0.020 A 
HETATM   11  C   UNL     1       0.253   5.082 -30.747  1.00  0.00     0.031 A 
HETATM   12  C   UNL     1       0.225   6.027 -29.717  1.00  0.00     0.043 A 
HETATM   13  C   UNL     1      -0.462   7.236 -29.812  1.00  0.00    -0.001 A 
HETATM   14  N   UNL     1       0.818   5.996 -28.476  1.00  0.00    -0.359 N 
HETATM   15  C   UNL     1      -0.272   7.937 -28.576  1.00  0.00    -0.027 A 
HETATM   16  C   UNL     1      -1.156   7.525 -31.006  1.00  0.00     0.032 A 
HETATM   17  C   UNL     1      -0.821   9.273 -28.217  1.00  0.00     0.051 C 
HETATM   18  C   UNL     1       0.537   7.143 -27.778  1.00  0.00     0.012 A 
HETATM   19  C   UNL     1       1.072   7.371 -26.411  1.00  0.00     0.068 C 
HETATM   20  H   UNL     1       1.389   5.234 -28.139  1.00  0.00     0.166 HD
ENDBRANCH   7   9
ENDBRANCH   6   7
ENDBRANCH   5   6
ENDBRANCH   1   5
BRANCH   2  21
HETATM   21  N   UNL     1      -5.399   2.537 -33.018  1.00  0.00    -0.167 N 
HETATM   22  C   UNL     1      -6.735   2.358 -33.250  1.00  0.00     0.345 A 
HETATM   23  O   UNL     1      -7.509   3.108 -33.823  1.00  0.00    -0.245 OA
HETATM   24  N   UNL     1      -7.083   1.116 -32.759  1.00  0.00    -0.319 N 
HETATM   25  C   UNL     1      -5.926   0.354 -32.310  1.00  0.00     0.141 A 
HETATM   26  H   UNL     1      -7.999   0.733 -32.948  1.00  0.00     0.166 HD
HETATM   27  C   UNL     1      -6.037   0.018 -30.820  1.00  0.00     0.055 C 
HETATM   28  C   UNL     1      -4.813   1.422 -32.476  1.00  0.00     0.279 A 
HETATM   29  O   UNL     1      -3.626   1.275 -32.201  1.00  0.00    -0.268 OA
BRANCH  25  30
HETATM   30  C   UNL     1      -5.770  -0.886 -33.189  1.00  0.00    -0.021 A 
HETATM   31  C   UNL     1      -4.537  -1.534 -33.376  1.00  0.00     0.010 A 
HETATM   32  C   UNL     1      -4.428  -2.649 -34.213  1.00  0.00     0.001 A 
HETATM   33  C   UNL     1      -5.547  -3.138 -34.881  1.00  0.00     0.000 A 
HETATM   34  C   UNL     1      -6.777  -2.513 -34.713  1.00  0.00     0.001 A 
HETATM   35  C   UNL     1      -6.889  -1.399 -33.879  1.00  0.00     0.010 A 
ENDBRANCH  25  30
ENDBRANCH   2  21
TORSDOF 6
ENDMDL
MODEL 2
REMARK VINA RESULT:     -10.0      1.840      9.258
REMARK  6 active torsions:
REMARK  status: ('A' for Active; 'I' for Inactive)
REMARK    1  A    between atoms: C_7  and  C_8 
REMARK    2  A    between atoms: C_8  and  O_9 
REMARK    3  A    between atoms: O_9  and  C_10 
REMARK    4  A    between atoms: C_10  and  C_11 
REMARK       I    between atoms: C_11  and  N_12 
REMARK    5  A    between atoms: N_12  and  N_13 
REMARK    6  A    between atoms: C_17  and  C_18 
ROOT
HETATM    1  C   UNL     1      -4.231   5.246 -33.266  1.00  0.00     0.261 C 
HETATM    2  N   UNL     1      -2.935   4.979 -33.661  1.00  0.00    -0.255 N 
HETATM    3  O   UNL     1      -4.537   6.143 -32.481  1.00  0.00    -0.269 OA
HETATM    4  H   UNL     1      -2.720   4.071 -34.078  1.00  0.00     0.191 HD
ENDROOT
BRANCH   1   5
HETATM    5  C   UNL     1      -5.275   4.346 -33.932  1.00  0.00     0.283 C 
BRANCH   5   6
HETATM    6  O   UNL     1      -5.844   3.348 -33.082  1.00  0.00    -0.308 OA
BRANCH   6   7
HETATM    7  C   UNL     1      -6.895   2.668 -33.602  1.00  0.00     0.293 C 
HETATM    8  O   UNL     1      -7.998   3.150 -33.820  1.00  0.00    -0.259 OA
BRANCH   7   9
HETATM    9  C   UNL     1      -6.540   1.254 -33.893  1.00  0.00     0.040 A 
HETATM   10  C   UNL     1      -7.288   0.578 -34.864  1.00  0.00     0.020 A 
HETATM   11  C   UNL     1      -7.015  -0.753 -35.194  1.00  0.00     0.031 A 
HETATM   12  C   UNL     1      -5.966  -1.384 -34.517  1.00  0.00     0.043 A 
HETATM   13  C   UNL     1      -5.202  -0.748 -33.540  1.00  0.00    -0.001 A 
HETATM   14  N   UNL     1      -5.479  -2.663 -34.644  1.00  0.00    -0.359 N 
HETATM   15  C   UNL     1      -4.234  -1.695 -33.069  1.00  0.00    -0.027 A 
HETATM   16  C   UNL     1      -5.493   0.596 -33.224  1.00  0.00     0.032 A 
HETATM   17  C   UNL     1      -3.201  -1.465 -32.023  1.00  0.00     0.051 C 
HETATM   18  C   UNL     1      -4.429  -2.866 -33.785  1.00  0.00     0.012 A 
HETATM   19  C   UNL     1      -3.708  -4.165 -33.732  1.00  0.00     0.068 C 
HETATM   20  H   UNL     1      -5.844  -3.349 -35.290  1.00  0.00     0.166 HD
ENDBRANCH   7   9
ENDBRANCH   6   7
ENDBRANCH   5   6
ENDBRANCH   1   5
BRANCH   2  21
HETATM   21  N   UNL     1      -1.912   5.592 -32.967  1.00  0.00    -0.167 N 
HETATM   22  C   UNL     1      -1.350   6.785 -33.330  1.00  0.00     0.345 A 
HETATM   23  O   UNL     1      -1.669   7.520 -34.251  1.00  0.00    -0.245 OA
HETATM   24  N   UNL     1      -0.350   7.071 -32.422  1.00  0.00    -0.319 N 
HETATM   25  C   UNL     1      -0.321   6.125 -31.315  1.00  0.00     0.141 A 
HETATM   26  H   UNL     1       0.104   7.974 -32.433  1.00  0.00     0.166 HD
HETATM   27  C   UNL     1       1.024   5.394 -31.256  1.00  0.00     0.055 C 
HETATM   28  C   UNL     1      -1.394   5.111 -31.791  1.00  0.00     0.279 A 
HETATM   29  O   UNL     1      -1.732   4.090 -31.202  1.00  0.00    -0.268 OA
BRANCH  25  30
HETATM   30  C   UNL     1      -0.654   6.860 -30.018  1.00  0.00    -0.021 A 
HETATM   31  C   UNL     1      -1.974   7.057 -29.574  1.00  0.00     0.010 A 
HETATM   32  C   UNL     1      -2.241   7.762 -28.396  1.00  0.00     0.001 A 
HETATM   33  C   UNL     1      -1.196   8.287 -27.639  1.00  0.00     0.000 A 
HETATM   34  C   UNL     1       0.117   8.107 -28.059  1.00  0.00     0.001 A 
HETATM   35  C   UNL     1       0.386   7.404 -29.235  1.00  0.00     0.010 A 
ENDBRANCH  25  30
ENDBRANCH   2  21
TORSDOF 6
ENDMDL
MODEL 3
REMARK VINA RESULT:      -9.9      1.975      8.894
REMARK  6 active torsions:
REMARK  status: ('A' for Active; 'I' for Inactive)
REMARK    1  A    between atoms: C_7  and  C_8 
REMARK    2  A    between atoms: C_8  and  O_9 
REMARK    3  A    between atoms: O_9  and  C_10 
REMARK    4  A    between atoms: C_10  and  C_11 
REMARK       I    between atoms: C_11  and  N_12 
REMARK    5  A    between atoms: N_12  and  N_13 
REMARK    6  A    between atoms: C_17  and  C_18 
ROOT
HETATM    1  C   UNL     1      -4.298   5.466 -33.372  1.00  0.00     0.261 C 
HETATM    2  N   UNL     1      -3.026   5.021 -33.668  1.00  0.00    -0.255 N 
HETATM    3  O   UNL     1      -4.535   6.470 -32.701  1.00  0.00    -0.269 OA
HETATM    4  H   UNL     1      -2.896   4.055 -33.978  1.00  0.00     0.191 HD
ENDROOT
BRANCH   1   5
HETATM    5  C   UNL     1      -5.408   4.616 -33.997  1.00  0.00     0.283 C 
BRANCH   5   6
HETATM    6  O   UNL     1      -5.209   3.204 -33.914  1.00  0.00    -0.308 OA
BRANCH   6   7
HETATM    7  C   UNL     1      -5.571   2.631 -32.741  1.00  0.00     0.293 C 
HETATM    8  O   UNL     1      -6.346   3.126 -31.934  1.00  0.00    -0.259 OA
BRANCH   7   9
HETATM    9  C   UNL     1      -4.918   1.308 -32.554  1.00  0.00     0.040 A 
HETATM   10  C   UNL     1      -3.965   1.187 -31.536  1.00  0.00     0.020 A 
HETATM   11  C   UNL     1      -3.307  -0.024 -31.298  1.00  0.00     0.031 A 
HETATM   12  C   UNL     1      -3.638  -1.109 -32.116  1.00  0.00     0.043 A 
HETATM   13  C   UNL     1      -4.576  -1.028 -33.144  1.00  0.00    -0.001 A 
HETATM   14  N   UNL     1      -3.164  -2.399 -32.102  1.00  0.00    -0.359 N 
HETATM   15  C   UNL     1      -4.648  -2.319 -33.762  1.00  0.00    -0.027 A 
HETATM   16  C   UNL     1      -5.229   0.203 -33.365  1.00  0.00     0.032 A 
HETATM   17  C   UNL     1      -5.514  -2.709 -34.907  1.00  0.00     0.051 C 
HETATM   18  C   UNL     1      -3.767  -3.146 -33.082  1.00  0.00     0.012 A 
HETATM   19  C   UNL     1      -3.445  -4.584 -33.274  1.00  0.00     0.068 C 
HETATM   20  H   UNL     1      -2.473  -2.744 -31.450  1.00  0.00     0.166 HD
ENDBRANCH   7   9
ENDBRANCH   6   7
ENDBRANCH   5   6
ENDBRANCH   1   5
BRANCH   2  21
HETATM   21  N   UNL     1      -1.970   5.593 -32.987  1.00  0.00    -0.167 N 
HETATM   22  C   UNL     1      -1.370   6.767 -33.353  1.00  0.00     0.345 A 
HETATM   23  O   UNL     1      -1.677   7.518 -34.265  1.00  0.00    -0.245 OA
HETATM   24  N   UNL     1      -0.347   7.011 -32.459  1.00  0.00    -0.319 N 
HETATM   25  C   UNL     1      -0.335   6.058 -31.358  1.00  0.00     0.141 A 
HETATM   26  H   UNL     1       0.139   7.897 -32.472  1.00  0.00     0.166 HD
HETATM   27  C   UNL     1       0.982   5.279 -31.323  1.00  0.00     0.055 C 
HETATM   28  C   UNL     1      -1.451   5.087 -31.822  1.00  0.00     0.279 A 
HETATM   29  O   UNL     1      -1.817   4.075 -31.233  1.00  0.00    -0.268 OA
BRANCH  25  30
HETATM   30  C   UNL     1      -0.622   6.798 -30.052  1.00  0.00    -0.021 A 
HETATM   31  C   UNL     1       0.373   7.065 -29.095  1.00  0.00     0.010 A 
HETATM   32  C   UNL     1       0.066   7.718 -27.897  1.00  0.00     0.001 A 
HETATM   33  C   UNL     1      -1.241   8.114 -27.629  1.00  0.00     0.000 A 
HETATM   34  C   UNL     1      -2.243   7.859 -28.558  1.00  0.00     0.001 A 
HETATM   35  C   UNL     1      -1.939   7.206 -29.755  1.00  0.00     0.010 A 
ENDBRANCH  25  30
ENDBRANCH   2  21
TORSDOF 6
ENDMDL
MODEL 4
REMARK VINA RESULT:      -9.7      2.151      9.001
REMARK  6 active torsions:
REMARK  status: ('A' for Active; 'I' for Inactive)
REMARK    1  A    between atoms: C_7  and  C_8 
REMARK    2  A    between atoms: C_8  and  O_9 
REMARK    3  A    between atoms: O_9  and  C_10 
REMARK    4  A    between atoms: C_10  and  C_11 
REMARK       I    between atoms: C_11  and  N_12 
REMARK    5  A    between atoms: N_12  and  N_13 
REMARK    6  A    between atoms: C_17  and  C_18 
ROOT
HETATM    1  C   UNL     1      -6.841   4.176 -33.206  1.00  0.00     0.261 C 
HETATM    2  N   UNL     1      -5.904   4.217 -32.193  1.00  0.00    -0.255 N 
HETATM    3  O   UNL     1      -6.653   4.636 -34.332  1.00  0.00    -0.269 OA
HETATM    4  H   UNL     1      -6.210   4.078 -31.227  1.00  0.00     0.191 HD
ENDROOT
BRANCH   1   5
HETATM    5  C   UNL     1      -8.136   3.457 -32.819  1.00  0.00     0.283 C 
BRANCH   5   6
HETATM    6  O   UNL     1      -8.006   2.049 -32.608  1.00  0.00    -0.308 OA
BRANCH   6   7
HETATM    7  C   UNL     1      -7.905   1.297 -33.730  1.00  0.00     0.293 C 
HETATM    8  O   UNL     1      -8.619   1.417 -34.716  1.00  0.00    -0.259 OA
BRANCH   7   9
HETATM    9  C   UNL     1      -6.801   0.307 -33.627  1.00  0.00     0.040 A 
HETATM   10  C   UNL     1      -5.624   0.705 -32.983  1.00  0.00     0.020 A 
HETATM   11  C   UNL     1      -4.540  -0.168 -32.844  1.00  0.00     0.031 A 
HETATM   12  C   UNL     1      -4.678  -1.455 -33.374  1.00  0.00     0.043 A 
HETATM   13  C   UNL     1      -5.831  -1.888 -34.028  1.00  0.00    -0.001 A 
HETATM   14  N   UNL     1      -3.793  -2.507 -33.375  1.00  0.00    -0.359 N 
HETATM   15  C   UNL     1      -5.608  -3.244 -34.436  1.00  0.00    -0.027 A 
HETATM   16  C   UNL     1      -6.912  -0.991 -34.155  1.00  0.00     0.032 A 
HETATM   17  C   UNL     1      -6.562  -4.120 -35.170  1.00  0.00     0.051 C 
HETATM   18  C   UNL     1      -4.340  -3.597 -34.003  1.00  0.00     0.012 A 
HETATM   19  C   UNL     1      -3.595  -4.877 -34.128  1.00  0.00     0.068 C 
HETATM   20  H   UNL     1      -2.873  -2.476 -32.959  1.00  0.00     0.166 HD
ENDBRANCH   7   9
ENDBRANCH   6   7
ENDBRANCH   5   6
ENDBRANCH   1   5
BRANCH   2  21
HETATM   21  N   UNL     1      -4.794   5.017 -32.375  1.00  0.00    -0.167 N 
HETATM   22  C   UNL     1      -4.808   6.380 -32.262  1.00  0.00     0.345 A 
HETATM   23  O   UNL     1      -5.739   7.101 -31.939  1.00  0.00    -0.245 OA
HETATM   24  N   UNL     1      -3.534   6.836 -32.533  1.00  0.00    -0.319 N 
HETATM   25  C   UNL     1      -2.578   5.748 -32.690  1.00  0.00     0.141 A 
HETATM   26  H   UNL     1      -3.296   7.806 -32.375  1.00  0.00     0.166 HD
HETATM   27  C   UNL     1      -1.950   5.769 -34.086  1.00  0.00     0.055 C 
HETATM   28  C   UNL     1      -3.535   4.529 -32.616  1.00  0.00     0.279 A 
HETATM   29  O   UNL     1      -3.211   3.351 -32.722  1.00  0.00    -0.268 OA
BRANCH  25  30
HETATM   30  C   UNL     1      -1.541   5.826 -31.570  1.00  0.00    -0.021 A 
HETATM   31  C   UNL     1      -1.774   6.512 -30.365  1.00  0.00     0.010 A 
HETATM   32  C   UNL     1      -0.788   6.587 -29.376  1.00  0.00     0.001 A 
HETATM   33  C   UNL     1       0.450   5.981 -29.571  1.00  0.00     0.000 A 
HETATM   34  C   UNL     1       0.705   5.300 -30.756  1.00  0.00     0.001 A 
HETATM   35  C   UNL     1      -0.278   5.224 -31.745  1.00  0.00     0.010 A 
ENDBRANCH  25  30
ENDBRANCH   2  21
TORSDOF 6
ENDMDL
MODEL 5
REMARK VINA RESULT:      -9.6      4.614      7.986
REMARK  6 active torsions:
REMARK  status: ('A' for Active; 'I' for Inactive)
REMARK    1  A    between atoms: C_7  and  C_8 
REMARK    2  A    between atoms: C_8  and  O_9 
REMARK    3  A    between atoms: O_9  and  C_10 
REMARK    4  A    between atoms: C_10  and  C_11 
REMARK       I    between atoms: C_11  and  N_12 
REMARK    5  A    between atoms: N_12  and  N_13 
REMARK    6  A    between atoms: C_17  and  C_18 
ROOT
HETATM    1  C   UNL     1      -6.600   3.719 -31.306  1.00  0.00     0.261 C 
HETATM    2  N   UNL     1      -7.442   2.649 -31.534  1.00  0.00    -0.255 N 
HETATM    3  O   UNL     1      -6.790   4.849 -31.755  1.00  0.00    -0.269 OA
HETATM    4  H   UNL     1      -7.095   1.700 -31.378  1.00  0.00     0.191 HD
ENDROOT
BRANCH   1   5
HETATM    5  C   UNL     1      -5.416   3.386 -30.393  1.00  0.00     0.283 C 
BRANCH   5   6
HETATM    6  O   UNL     1      -4.988   2.023 -30.430  1.00  0.00    -0.308 OA
BRANCH   6   7
HETATM    7  C   UNL     1      -3.896   1.774 -31.192  1.00  0.00     0.293 C 
HETATM    8  O   UNL     1      -2.953   2.541 -31.330  1.00  0.00    -0.259 OA
BRANCH   7   9
HETATM    9  C   UNL     1      -3.974   0.437 -31.838  1.00  0.00     0.040 A 
HETATM   10  C   UNL     1      -3.008  -0.514 -31.491  1.00  0.00     0.020 A 
HETATM   11  C   UNL     1      -3.014  -1.794 -32.054  1.00  0.00     0.031 A 
HETATM   12  C   UNL     1      -4.022  -2.087 -32.977  1.00  0.00     0.043 A 
HETATM   13  C   UNL     1      -4.999  -1.166 -33.354  1.00  0.00    -0.001 A 
HETATM   14  N   UNL     1      -4.273  -3.248 -33.669  1.00  0.00    -0.359 N 
HETATM   15  C   UNL     1      -5.849  -1.811 -34.311  1.00  0.00    -0.027 A 
HETATM   16  C   UNL     1      -4.975   0.119 -32.772  1.00  0.00     0.032 A 
HETATM   17  C   UNL     1      -7.031  -1.216 -34.994  1.00  0.00     0.051 C 
HETATM   18  C   UNL     1      -5.376  -3.104 -34.472  1.00  0.00     0.012 A 
HETATM   19  C   UNL     1      -5.874  -4.219 -35.317  1.00  0.00     0.068 C 
HETATM   20  H   UNL     1      -3.721  -4.091 -33.584  1.00  0.00     0.166 HD
ENDBRANCH   7   9
ENDBRANCH   6   7
ENDBRANCH   5   6
ENDBRANCH   1   5
BRANCH   2  21
HETATM   21  N   UNL     1      -8.416   2.793 -32.503  1.00  0.00    -0.167 N 
HETATM   22  C   UNL     1      -8.227   2.501 -33.826  1.00  0.00     0.345 A 
HETATM   23  O   UNL     1      -7.236   2.028 -34.360  1.00  0.00    -0.245 OA
HETATM   24  N   UNL     1      -9.402   2.787 -34.490  1.00  0.00    -0.319 N 
HETATM   25  C   UNL     1     -10.480   3.145 -33.578  1.00  0.00     0.141 A 
HETATM   26  H   UNL     1      -9.518   2.518 -35.457  1.00  0.00     0.166 HD
HETATM   27  C   UNL     1     -10.986   4.563 -33.860  1.00  0.00     0.055 C 
HETATM   28  C   UNL     1      -9.706   3.174 -32.235  1.00  0.00     0.279 A 
HETATM   29  O   UNL     1     -10.176   3.454 -31.137  1.00  0.00    -0.268 OA
BRANCH  25  30
HETATM   30  C   UNL     1     -11.583   2.092 -33.668  1.00  0.00    -0.021 A 
HETATM   31  C   UNL     1     -11.355   0.729 -33.413  1.00  0.00     0.010 A 
HETATM   32  C   UNL     1     -12.384  -0.211 -33.535  1.00  0.00     0.001 A 
HETATM   33  C   UNL     1     -13.661   0.193 -33.917  1.00  0.00     0.000 A 
HETATM   34  C   UNL     1     -13.911   1.535 -34.177  1.00  0.00     0.001 A 
HETATM   35  C   UNL     1     -12.884   2.475 -34.056  1.00  0.00     0.010 A 
ENDBRANCH  25  30
ENDBRANCH   2  21
TORSDOF 6
ENDMDL
MODEL 6
REMARK VINA RESULT:      -9.4      2.278      3.153
REMARK  6 active torsions:
REMARK  status: ('A' for Active; 'I' for Inactive)
REMARK    1  A    between atoms: C_7  and  C_8 
REMARK    2  A    between atoms: C_8  and  O_9 
REMARK    3  A    between atoms: O_9  and  C_10 
REMARK    4  A    between atoms: C_10  and  C_11 
REMARK       I    between atoms: C_11  and  N_12 
REMARK    5  A    between atoms: N_12  and  N_13 
REMARK    6  A    between atoms: C_17  and  C_18 
ROOT
HETATM    1  C   UNL     1      -2.383   4.412 -32.314  1.00  0.00     0.261 C 
HETATM    2  N   UNL     1      -2.953   4.078 -31.102  1.00  0.00    -0.255 N 
HETATM    3  O   UNL     1      -2.921   4.212 -33.403  1.00  0.00    -0.269 OA
HETATM    4  H   UNL     1      -2.357   4.009 -30.274  1.00  0.00     0.191 HD
ENDROOT
BRANCH   1   5
HETATM    5  C   UNL     1      -1.024   5.105 -32.186  1.00  0.00     0.283 C 
BRANCH   5   6
HETATM    6  O   UNL     1      -0.580   5.323 -30.845  1.00  0.00    -0.308 OA
BRANCH   6   7
HETATM    7  C   UNL     1       0.116   6.466 -30.638  1.00  0.00     0.293 C 
HETATM    8  O   UNL     1       0.867   6.982 -31.456  1.00  0.00    -0.259 OA
BRANCH   7   9
HETATM    9  C   UNL     1      -0.153   7.035 -29.291  1.00  0.00     0.040 A 
HETATM   10  C   UNL     1       0.881   7.732 -28.657  1.00  0.00     0.020 A 
HETATM   11  C   UNL     1       0.706   8.296 -27.390  1.00  0.00     0.031 A 
HETATM   12  C   UNL     1      -0.543   8.137 -26.780  1.00  0.00     0.043 A 
HETATM   13  C   UNL     1      -1.597   7.444 -27.375  1.00  0.00    -0.001 A 
HETATM   14  N   UNL     1      -0.993   8.587 -25.561  1.00  0.00    -0.359 N 
HETATM   15  C   UNL     1      -2.703   7.482 -26.466  1.00  0.00    -0.027 A 
HETATM   16  C   UNL     1      -1.398   6.885 -28.655  1.00  0.00     0.032 A 
HETATM   17  C   UNL     1      -4.046   6.873 -26.673  1.00  0.00     0.051 C 
HETATM   18  C   UNL     1      -2.296   8.209 -25.358  1.00  0.00     0.012 A 
HETATM   19  C   UNL     1      -3.029   8.582 -24.121  1.00  0.00     0.068 C 
HETATM   20  H   UNL     1      -0.436   9.129 -24.915  1.00  0.00     0.166 HD
ENDBRANCH   7   9
ENDBRANCH   6   7
ENDBRANCH   5   6
ENDBRANCH   1   5
BRANCH   2  21
HETATM   21  N   UNL     1      -4.073   3.270 -31.119  1.00  0.00    -0.167 N 
HETATM   22  C   UNL     1      -5.356   3.744 -31.148  1.00  0.00     0.345 A 
HETATM   23  O   UNL     1      -5.731   4.903 -31.221  1.00  0.00    -0.245 OA
HETATM   24  N   UNL     1      -6.204   2.655 -31.133  1.00  0.00    -0.319 N 
HETATM   25  C   UNL     1      -5.487   1.393 -31.248  1.00  0.00     0.141 A 
HETATM   26  H   UNL     1      -7.196   2.781 -31.283  1.00  0.00     0.166 HD
HETATM   27  C   UNL     1      -5.734   0.510 -30.022  1.00  0.00     0.055 C 
HETATM   28  C   UNL     1      -4.023   1.901 -31.183  1.00  0.00     0.279 A 
HETATM   29  O   UNL     1      -3.016   1.203 -31.217  1.00  0.00    -0.268 OA
BRANCH  25  30
HETATM   30  C   UNL     1      -5.879   0.711 -32.559  1.00  0.00    -0.021 A 
HETATM   31  C   UNL     1      -6.445   1.410 -33.639  1.00  0.00     0.010 A 
HETATM   32  C   UNL     1      -6.819   0.746 -34.812  1.00  0.00     0.001 A 
HETATM   33  C   UNL     1      -6.636  -0.629 -34.928  1.00  0.00     0.000 A 
HETATM   34  C   UNL     1      -6.080  -1.343 -33.873  1.00  0.00     0.001 A 
HETATM   35  C   UNL     1      -5.707  -0.682 -32.700  1.00  0.00     0.010 A 
ENDBRANCH  25  30
ENDBRANCH   2  21
TORSDOF 6
ENDMDL
MODEL 7
REMARK VINA RESULT:      -9.3      2.045      8.865
REMARK  6 active torsions:
REMARK  status: ('A' for Active; 'I' for Inactive)
REMARK    1  A    between atoms: C_7  and  C_8 
REMARK    2  A    between atoms: C_8  and  O_9 
REMARK    3  A    between atoms: O_9  and  C_10 
REMARK    4  A    between atoms: C_10  and  C_11 
REMARK       I    between atoms: C_11  and  N_12 
REMARK    5  A    between atoms: N_12  and  N_13 
REMARK    6  A    between atoms: C_17  and  C_18 
ROOT
HETATM    1  C   UNL     1      -5.742   5.228 -31.219  1.00  0.00     0.261 C 
HETATM    2  N   UNL     1      -5.251   5.967 -32.275  1.00  0.00    -0.255 N 
HETATM    3  O   UNL     1      -5.243   5.224 -30.094  1.00  0.00    -0.269 OA
HETATM    4  H   UNL     1      -5.527   5.719 -33.228  1.00  0.00     0.191 HD
ENDROOT
BRANCH   1   5
HETATM    5  C   UNL     1      -7.008   4.435 -31.558  1.00  0.00     0.283 C 
BRANCH   5   6
HETATM    6  O   UNL     1      -6.781   3.105 -32.029  1.00  0.00    -0.308 OA
BRANCH   6   7
HETATM    7  C   UNL     1      -6.658   2.975 -33.372  1.00  0.00     0.293 C 
HETATM    8  O   UNL     1      -6.717   3.900 -34.171  1.00  0.00    -0.259 OA
BRANCH   7   9
HETATM    9  C   UNL     1      -6.424   1.560 -33.764  1.00  0.00     0.040 A 
HETATM   10  C   UNL     1      -7.244   1.012 -34.757  1.00  0.00     0.020 A 
HETATM   11  C   UNL     1      -7.087  -0.311 -35.181  1.00  0.00     0.031 A 
HETATM   12  C   UNL     1      -6.079  -1.067 -34.573  1.00  0.00     0.043 A 
HETATM   13  C   UNL     1      -5.246  -0.561 -33.577  1.00  0.00    -0.001 A 
HETATM   14  N   UNL     1      -5.699  -2.370 -34.795  1.00  0.00    -0.359 N 
HETATM   15  C   UNL     1      -4.349  -1.611 -33.193  1.00  0.00    -0.027 A 
HETATM   16  C   UNL     1      -5.421   0.777 -33.166  1.00  0.00     0.032 A 
HETATM   17  C   UNL     1      -3.280  -1.535 -32.161  1.00  0.00     0.051 C 
HETATM   18  C   UNL     1      -4.652  -2.713 -33.979  1.00  0.00     0.012 A 
HETATM   19  C   UNL     1      -4.038  -4.065 -34.028  1.00  0.00     0.068 C 
HETATM   20  H   UNL     1      -6.131  -2.980 -35.475  1.00  0.00     0.166 HD
ENDBRANCH   7   9
ENDBRANCH   6   7
ENDBRANCH   5   6
ENDBRANCH   1   5
BRANCH   2  21
HETATM   21  N   UNL     1      -4.006   6.548 -32.130  1.00  0.00    -0.167 N 
HETATM   22  C   UNL     1      -3.804   7.811 -31.647  1.00  0.00     0.345 A 
HETATM   23  O   UNL     1      -4.635   8.598 -31.220  1.00  0.00    -0.245 OA
HETATM   24  N   UNL     1      -2.446   8.055 -31.667  1.00  0.00    -0.319 N 
HETATM   25  C   UNL     1      -1.677   6.874 -32.034  1.00  0.00     0.141 A 
HETATM   26  H   UNL     1      -2.071   8.884 -31.227  1.00  0.00     0.166 HD
HETATM   27  C   UNL     1      -0.866   7.123 -33.308  1.00  0.00     0.055 C 
HETATM   28  C   UNL     1      -2.827   5.894 -32.385  1.00  0.00     0.279 A 
HETATM   29  O   UNL     1      -2.697   4.742 -32.783  1.00  0.00    -0.268 OA
BRANCH  25  30
HETATM   30  C   UNL     1      -0.807   6.454 -30.849  1.00  0.00    -0.021 A 
HETATM   31  C   UNL     1      -0.005   5.300 -30.867  1.00  0.00     0.010 A 
HETATM   32  C   UNL     1       0.755   4.931 -29.752  1.00  0.00     0.001 A 
HETATM   33  C   UNL     1       0.725   5.706 -28.596  1.00  0.00     0.000 A 
HETATM   34  C   UNL     1      -0.063   6.851 -28.553  1.00  0.00     0.001 A 
HETATM   35  C   UNL     1      -0.822   7.220 -29.665  1.00  0.00     0.010 A 
ENDBRANCH  25  30
ENDBRANCH   2  21
TORSDOF 6
ENDMDL
MODEL 8
REMARK VINA RESULT:      -9.2      4.839      8.465
REMARK  6 active torsions:
REMARK  status: ('A' for Active; 'I' for Inactive)
REMARK    1  A    between atoms: C_7  and  C_8 
REMARK    2  A    between atoms: C_8  and  O_9 
REMARK    3  A    between atoms: O_9  and  C_10 
REMARK    4  A    between atoms: C_10  and  C_11 
REMARK       I    between atoms: C_11  and  N_12 
REMARK    5  A    between atoms: N_12  and  N_13 
REMARK    6  A    between atoms: C_17  and  C_18 
ROOT
HETATM    1  C   UNL     1      -8.484   2.982 -31.260  1.00  0.00     0.261 C 
HETATM    2  N   UNL     1      -8.534   2.466 -32.540  1.00  0.00    -0.255 N 
HETATM    3  O   UNL     1      -9.395   2.868 -30.440  1.00  0.00    -0.269 OA
HETATM    4  H   UNL     1      -7.888   2.826 -33.246  1.00  0.00     0.191 HD
ENDROOT
BRANCH   1   5
HETATM    5  C   UNL     1      -7.162   3.678 -30.928  1.00  0.00     0.283 C 
BRANCH   5   6
HETATM    6  O   UNL     1      -6.153   2.829 -30.375  1.00  0.00    -0.308 OA
BRANCH   6   7
HETATM    7  C   UNL     1      -4.988   2.783 -31.065  1.00  0.00     0.293 C 
HETATM    8  O   UNL     1      -4.216   3.724 -31.193  1.00  0.00    -0.259 OA
BRANCH   7   9
HETATM    9  C   UNL     1      -4.747   1.433 -31.641  1.00  0.00     0.040 A 
HETATM   10  C   UNL     1      -3.656   0.701 -31.159  1.00  0.00     0.020 A 
HETATM   11  C   UNL     1      -3.364  -0.575 -31.649  1.00  0.00     0.031 A 
HETATM   12  C   UNL     1      -4.205  -1.092 -32.641  1.00  0.00     0.043 A 
HETATM   13  C   UNL     1      -5.297  -0.393 -33.152  1.00  0.00    -0.001 A 
HETATM   14  N   UNL     1      -4.162  -2.305 -33.288  1.00  0.00    -0.359 N 
HETATM   15  C   UNL     1      -5.912  -1.224 -34.144  1.00  0.00    -0.027 A 
HETATM   16  C   UNL     1      -5.574   0.893 -32.641  1.00  0.00     0.032 A 
HETATM   17  C   UNL     1      -7.113  -0.895 -34.960  1.00  0.00     0.051 C 
HETATM   18  C   UNL     1      -5.189  -2.406 -34.192  1.00  0.00     0.012 A 
HETATM   19  C   UNL     1      -5.382  -3.627 -35.016  1.00  0.00     0.068 C 
HETATM   20  H   UNL     1      -3.471  -3.020 -33.109  1.00  0.00     0.166 HD
ENDBRANCH   7   9
ENDBRANCH   6   7
ENDBRANCH   5   6
ENDBRANCH   1   5
BRANCH   2  21
HETATM   21  N   UNL     1      -9.751   2.005 -33.001  1.00  0.00    -0.167 N 
HETATM   22  C   UNL     1     -10.199   0.725 -32.825  1.00  0.00     0.345 A 
HETATM   23  O   UNL     1      -9.664  -0.184 -32.211  1.00  0.00    -0.245 OA
HETATM   24  N   UNL     1     -11.433   0.626 -33.435  1.00  0.00    -0.319 N 
HETATM   25  C   UNL     1     -11.918   1.913 -33.916  1.00  0.00     0.141 A 
HETATM   26  H   UNL     1     -11.998  -0.202 -33.309  1.00  0.00     0.166 HD
HETATM   27  C   UNL     1     -12.129   1.886 -35.432  1.00  0.00     0.055 C 
HETATM   28  C   UNL     1     -10.680   2.800 -33.623  1.00  0.00     0.279 A 
HETATM   29  O   UNL     1     -10.574   3.996 -33.874  1.00  0.00    -0.268 OA
BRANCH  25  30
HETATM   30  C   UNL     1     -13.183   2.291 -33.146  1.00  0.00    -0.021 A 
HETATM   31  C   UNL     1     -14.389   1.581 -33.271  1.00  0.00     0.010 A 
HETATM   32  C   UNL     1     -15.535   1.976 -32.573  1.00  0.00     0.001 A 
HETATM   33  C   UNL     1     -15.499   3.091 -31.739  1.00  0.00     0.000 A 
HETATM   34  C   UNL     1     -14.319   3.811 -31.602  1.00  0.00     0.001 A 
HETATM   35  C   UNL     1     -13.174   3.419 -32.298  1.00  0.00     0.010 A 
ENDBRANCH  25  30
ENDBRANCH   2  21
TORSDOF 6
ENDMDL
MODEL 9
REMARK VINA RESULT:      -9.2      2.464      9.899
REMARK  6 active torsions:
REMARK  status: ('A' for Active; 'I' for Inactive)
REMARK    1  A    between atoms: C_7  and  C_8 
REMARK    2  A    between atoms: C_8  and  O_9 
REMARK    3  A    between atoms: O_9  and  C_10 
REMARK    4  A    between atoms: C_10  and  C_11 
REMARK       I    between atoms: C_11  and  N_12 
REMARK    5  A    between atoms: N_12  and  N_13 
REMARK    6  A    between atoms: C_17  and  C_18 
ROOT
HETATM    1  C   UNL     1      -4.839   5.396 -30.889  1.00  0.00     0.261 C 
HETATM    2  N   UNL     1      -3.766   5.477 -30.024  1.00  0.00    -0.255 N 
HETATM    3  O   UNL     1      -5.341   6.368 -31.452  1.00  0.00    -0.269 OA
HETATM    4  H   UNL     1      -3.580   4.699 -29.388  1.00  0.00     0.191 HD
ENDROOT
BRANCH   1   5
HETATM    5  C   UNL     1      -5.331   3.966 -31.127  1.00  0.00     0.283 C 
BRANCH   5   6
HETATM    6  O   UNL     1      -4.700   3.282 -32.212  1.00  0.00    -0.308 OA
BRANCH   6   7
HETATM    7  C   UNL     1      -3.699   2.436 -31.866  1.00  0.00     0.293 C 
HETATM    8  O   UNL     1      -2.702   2.758 -31.234  1.00  0.00    -0.259 OA
BRANCH   7   9
HETATM    9  C   UNL     1      -3.966   1.052 -32.338  1.00  0.00     0.040 A 
HETATM   10  C   UNL     1      -3.082   0.043 -31.939  1.00  0.00     0.020 A 
HETATM   11  C   UNL     1      -3.265  -1.284 -32.341  1.00  0.00     0.031 A 
HETATM   12  C   UNL     1      -4.365  -1.564 -33.158  1.00  0.00     0.043 A 
HETATM   13  C   UNL     1      -5.265  -0.587 -33.582  1.00  0.00    -0.001 A 
HETATM   14  N   UNL     1      -4.788  -2.760 -33.687  1.00  0.00    -0.359 N 
HETATM   15  C   UNL     1      -6.248  -1.235 -34.400  1.00  0.00    -0.027 A 
HETATM   16  C   UNL     1      -5.062   0.745 -33.163  1.00  0.00     0.032 A 
HETATM   17  C   UNL     1      -7.407  -0.592 -35.075  1.00  0.00     0.051 C 
HETATM   18  C   UNL     1      -5.927  -2.584 -34.431  1.00  0.00     0.012 A 
HETATM   19  C   UNL     1      -6.602  -3.724 -35.102  1.00  0.00     0.068 C 
HETATM   20  H   UNL     1      -4.324  -3.645 -33.534  1.00  0.00     0.166 HD
ENDBRANCH   7   9
ENDBRANCH   6   7
ENDBRANCH   5   6
ENDBRANCH   1   5
BRANCH   2  21
HETATM   21  N   UNL     1      -3.385   6.730 -29.588  1.00  0.00    -0.167 N 
HETATM   22  C   UNL     1      -3.933   7.361 -28.505  1.00  0.00     0.345 A 
HETATM   23  O   UNL     1      -4.773   6.935 -27.729  1.00  0.00    -0.245 OA
HETATM   24  N   UNL     1      -3.325   8.594 -28.387  1.00  0.00    -0.319 N 
HETATM   25  C   UNL     1      -2.222   8.760 -29.323  1.00  0.00     0.141 A 
HETATM   26  H   UNL     1      -3.492   9.168 -27.571  1.00  0.00     0.166 HD
HETATM   27  C   UNL     1      -2.476   9.939 -30.267  1.00  0.00     0.055 C 
HETATM   28  C   UNL     1      -2.361   7.452 -30.146  1.00  0.00     0.279 A 
HETATM   29  O   UNL     1      -1.661   7.120 -31.097  1.00  0.00    -0.268 OA
BRANCH  25  30
HETATM   30  C   UNL     1      -0.916   8.896 -28.541  1.00  0.00    -0.021 A 
HETATM   31  C   UNL     1       0.160   8.005 -28.697  1.00  0.00     0.010 A 
HETATM   32  C   UNL     1       1.328   8.144 -27.940  1.00  0.00     0.001 A 
HETATM   33  C   UNL     1       1.444   9.176 -27.012  1.00  0.00     0.000 A 
HETATM   34  C   UNL     1       0.393  10.069 -26.839  1.00  0.00     0.001 A 
HETATM   35  C   UNL     1      -0.775   9.931 -27.592  1.00  0.00     0.010 A 
ENDBRANCH  25  30
ENDBRANCH   2  21
TORSDOF 6
ENDMDL
MODEL 10
REMARK VINA RESULT:      -9.2      2.019      3.078
REMARK  6 active torsions:
REMARK  status: ('A' for Active; 'I' for Inactive)
REMARK    1  A    between atoms: C_7  and  C_8 
REMARK    2  A    between atoms: C_8  and  O_9 
REMARK    3  A    between atoms: O_9  and  C_10 
REMARK    4  A    between atoms: C_10  and  C_11 
REMARK       I    between atoms: C_11  and  N_12 
REMARK    5  A    between atoms: N_12  and  N_13 
REMARK    6  A    between atoms: C_17  and  C_18 
ROOT
HETATM    1  C   UNL     1      -2.345   4.335 -32.518  1.00  0.00     0.261 C 
HETATM    2  N   UNL     1      -2.800   3.927 -31.280  1.00  0.00    -0.255 N 
HETATM    3  O   UNL     1      -3.004   4.248 -33.553  1.00  0.00    -0.269 OA
HETATM    4  H   UNL     1      -2.125   3.766 -30.530  1.00  0.00     0.191 HD
ENDROOT
BRANCH   1   5
HETATM    5  C   UNL     1      -0.946   4.957 -32.484  1.00  0.00     0.283 C 
BRANCH   5   6
HETATM    6  O   UNL     1      -0.812   6.100 -31.638  1.00  0.00    -0.308 OA
BRANCH   6   7
HETATM    7  C   UNL     1      -0.300   5.859 -30.407  1.00  0.00     0.293 C 
HETATM    8  O   UNL     1       0.191   4.795 -30.053  1.00  0.00    -0.259 OA
BRANCH   7   9
HETATM    9  C   UNL     1      -0.393   7.057 -29.532  1.00  0.00     0.040 A 
HETATM   10  C   UNL     1      -1.419   7.974 -29.786  1.00  0.00     0.020 A 
HETATM   11  C   UNL     1      -1.573   9.125 -29.007  1.00  0.00     0.031 A 
HETATM   12  C   UNL     1      -0.662   9.325 -27.965  1.00  0.00     0.043 A 
HETATM   13  C   UNL     1       0.377   8.440 -27.683  1.00  0.00    -0.001 A 
HETATM   14  N   UNL     1      -0.582  10.347 -27.049  1.00  0.00    -0.359 N 
HETATM   15  C   UNL     1       1.100   8.969 -26.564  1.00  0.00    -0.027 A 
HETATM   16  C   UNL     1       0.512   7.284 -28.481  1.00  0.00     0.032 A 
HETATM   17  C   UNL     1       2.292   8.364 -25.910  1.00  0.00     0.051 C 
HETATM   18  C   UNL     1       0.469  10.145 -26.191  1.00  0.00     0.012 A 
HETATM   19  C   UNL     1       0.769  11.098 -25.091  1.00  0.00     0.068 C 
HETATM   20  H   UNL     1      -1.219  11.131 -27.014  1.00  0.00     0.166 HD
ENDBRANCH   7   9
ENDBRANCH   6   7
ENDBRANCH   5   6
ENDBRANCH   1   5
BRANCH   2  21
HETATM   21  N   UNL     1      -3.956   3.172 -31.237  1.00  0.00    -0.167 N 
HETATM   22  C   UNL     1      -5.216   3.702 -31.258  1.00  0.00     0.345 A 
HETATM   23  O   UNL     1      -5.540   4.874 -31.372  1.00  0.00    -0.245 OA
HETATM   24  N   UNL     1      -6.112   2.656 -31.178  1.00  0.00    -0.319 N 
HETATM   25  C   UNL     1      -5.456   1.358 -31.254  1.00  0.00     0.141 A 
HETATM   26  H   UNL     1      -7.101   2.821 -31.310  1.00  0.00     0.166 HD
HETATM   27  C   UNL     1      -5.712   0.540 -29.986  1.00  0.00     0.055 C 
HETATM   28  C   UNL     1      -3.970   1.801 -31.243  1.00  0.00     0.279 A 
HETATM   29  O   UNL     1      -2.995   1.056 -31.269  1.00  0.00    -0.268 OA
BRANCH  25  30
HETATM   30  C   UNL     1      -5.909   0.641 -32.525  1.00  0.00    -0.021 A 
HETATM   31  C   UNL     1      -5.779  -0.747 -32.702  1.00  0.00     0.010 A 
HETATM   32  C   UNL     1      -6.177  -1.364 -33.892  1.00  0.00     0.001 A 
HETATM   33  C   UNL     1      -6.712  -0.606 -34.930  1.00  0.00     0.000 A 
HETATM   34  C   UNL     1      -6.849   0.769 -34.780  1.00  0.00     0.001 A 
HETATM   35  C   UNL     1      -6.451   1.387 -33.593  1.00  0.00     0.010 A 
ENDBRANCH  25  30
ENDBRANCH   2  21
TORSDOF 6
ENDMDL
