MODEL 1
REMARK VINA RESULT:      -8.4      0.000      0.000
REMARK  4 active torsions:
REMARK  status: ('A' for Active; 'I' for Inactive)
REMARK    1  A    between atoms: C_6  and  C_7 
REMARK    2  A    between atoms: C_8  and  C_9 
REMARK       I    between atoms: C_9  and  N_10 
REMARK    3  A    between atoms: N_10  and  C_11 
REMARK    4  A    between atoms: C_18  and  C_19 
REMARK       I    between atoms: C_19  and  N_20 
ROOT
HETATM    1  C   UNL     1      -3.847   3.357 -32.459  1.00  0.00     0.035 A 
HETATM    2  C   UNL     1      -2.632   3.922 -32.036  1.00  0.00     0.046 A 
HETATM    3  C   UNL     1      -2.179   5.123 -32.621  1.00  0.00     0.030 A 
HETATM    4  C   UNL     1      -2.939   5.706 -33.625  1.00  0.00     0.063 A 
HETATM    5  N   UNL     1      -2.257   6.833 -33.990  1.00  0.00    -0.277 N 
HETATM    6  H   UNL     1      -2.520   7.505 -34.702  1.00  0.00     0.189 HD
HETATM    7  N   UNL     1      -1.121   7.042 -33.302  1.00  0.00    -0.168 NA
HETATM    8  C   UNL     1      -1.061   5.992 -32.453  1.00  0.00     0.156 A 
HETATM    9  C   UNL     1      -4.139   5.162 -34.083  1.00  0.00     0.034 A 
HETATM   10  C   UNL     1      -4.578   3.976 -33.476  1.00  0.00     0.032 A 
ENDROOT
BRANCH   1  11
HETATM   11  N   UNL     1      -4.254   2.165 -31.822  1.00  0.00    -0.327 N 
HETATM   12  C   UNL     1      -5.319   2.005 -30.962  1.00  0.00     0.227 C 
HETATM   13  O   UNL     1      -6.039   2.882 -30.507  1.00  0.00    -0.273 OA
HETATM   14  H   UNL     1      -3.667   1.356 -31.970  1.00  0.00     0.169 HD
BRANCH  12  15
HETATM   15  C   UNL     1      -5.511   0.610 -30.479  1.00  0.00     0.087 A 
HETATM   16  C   UNL     1      -6.349  -0.399 -31.247  1.00  0.00     0.032 A 
HETATM   17  C   UNL     1      -4.854  -0.587 -31.109  1.00  0.00     0.025 A 
BRANCH  16  18
HETATM   18  C   UNL     1      -6.922  -0.154 -32.626  1.00  0.00    -0.051 A 
HETATM   19  C   UNL     1      -8.210   0.373 -32.816  1.00  0.00     0.031 A 
HETATM   20  C   UNL     1      -8.727   0.581 -34.097  1.00  0.00     0.034 A 
HETATM   21  C   UNL     1      -7.983   0.241 -35.222  1.00  0.00     0.024 A 
HETATM   22 CL   UNL     1     -10.299   1.256 -34.287  1.00  0.00    -0.084 Cl
HETATM   23  C   UNL     1      -6.716  -0.311 -35.064  1.00  0.00     0.002 A 
HETATM   24  C   UNL     1      -6.197  -0.506 -33.780  1.00  0.00     0.007 A 
ENDBRANCH  16  18
ENDBRANCH  12  15
ENDBRANCH   1  11
BRANCH   8  25
HETATM   25  C   UNL     1       0.045   5.844 -31.497  1.00  0.00     0.270 C 
HETATM   26  N   UNL     1       0.415   7.009 -30.885  1.00  0.00    -0.365 N 
HETATM   27  H   UNL     1      -0.087   7.859 -31.116  1.00  0.00     0.159 HD
HETATM   28  H   UNL     1       1.152   7.006 -30.197  1.00  0.00     0.159 HD
HETATM   29  O   UNL     1       0.604   4.781 -31.242  1.00  0.00    -0.266 OA
ENDBRANCH   8  25
TORSDOF 4
ENDMDL
MODEL 2
REMARK VINA RESULT:      -8.3      2.365      2.892
REMARK  4 active torsions:
REMARK  status: ('A' for Active; 'I' for Inactive)
REMARK    1  A    between atoms: C_6  and  C_7 
REMARK    2  A    between atoms: C_8  and  C_9 
REMARK       I    between atoms: C_9  and  N_10 
REMARK    3  A    between atoms: N_10  and  C_11 
REMARK    4  A    between atoms: C_18  and  C_19 
REMARK       I    between atoms: C_19  and  N_20 
ROOT
HETATM    1  C   UNL     1      -4.889   4.015 -33.286  1.00  0.00     0.035 A 
HETATM    2  C   UNL     1      -3.783   4.232 -32.446  1.00  0.00     0.046 A 
HETATM    3  C   UNL     1      -2.716   5.040 -32.891  1.00  0.00     0.030 A 
HETATM    4  C   UNL     1      -2.775   5.584 -34.166  1.00  0.00     0.063 A 
HETATM    5  N   UNL     1      -1.621   6.301 -34.310  1.00  0.00    -0.277 N 
HETATM    6  H   UNL     1      -1.326   6.832 -35.122  1.00  0.00     0.189 HD
HETATM    7  N   UNL     1      -0.817   6.282 -33.232  1.00  0.00    -0.168 NA
HETATM    8  C   UNL     1      -1.482   5.505 -32.348  1.00  0.00     0.156 A 
HETATM    9  C   UNL     1      -3.848   5.373 -35.033  1.00  0.00     0.034 A 
HETATM   10  C   UNL     1      -4.905   4.579 -34.564  1.00  0.00     0.032 A 
ENDROOT
BRANCH   1  11
HETATM   11  N   UNL     1      -5.932   3.212 -32.776  1.00  0.00    -0.327 N 
HETATM   12  C   UNL     1      -6.691   2.297 -33.473  1.00  0.00     0.227 C 
HETATM   13  O   UNL     1      -6.677   2.090 -34.678  1.00  0.00    -0.273 OA
HETATM   14  H   UNL     1      -6.185   3.368 -31.810  1.00  0.00     0.169 HD
BRANCH  12  15
HETATM   15  C   UNL     1      -7.698   1.580 -32.644  1.00  0.00     0.087 A 
HETATM   16  C   UNL     1      -7.668   0.070 -32.469  1.00  0.00     0.032 A 
HETATM   17  C   UNL     1      -7.396   0.986 -31.295  1.00  0.00     0.025 A 
BRANCH  16  18
HETATM   18  C   UNL     1      -6.548  -0.821 -32.964  1.00  0.00    -0.051 A 
HETATM   19  C   UNL     1      -5.323  -0.924 -32.285  1.00  0.00     0.031 A 
HETATM   20  C   UNL     1      -4.296  -1.742 -32.763  1.00  0.00     0.034 A 
HETATM   21  C   UNL     1      -4.454  -2.455 -33.946  1.00  0.00     0.024 A 
HETATM   22 CL   UNL     1      -2.820  -1.864 -31.885  1.00  0.00    -0.084 Cl
HETATM   23  C   UNL     1      -5.646  -2.347 -34.655  1.00  0.00     0.002 A 
HETATM   24  C   UNL     1      -6.676  -1.537 -34.168  1.00  0.00     0.007 A 
ENDBRANCH  16  18
ENDBRANCH  12  15
ENDBRANCH   1  11
BRANCH   8  25
HETATM   25  C   UNL     1      -0.940   5.233 -31.010  1.00  0.00     0.270 C 
HETATM   26  N   UNL     1      -1.562   5.920 -30.004  1.00  0.00    -0.365 N 
HETATM   27  H   UNL     1      -2.331   6.536 -30.242  1.00  0.00     0.159 HD
HETATM   28  H   UNL     1      -1.276   5.784 -29.048  1.00  0.00     0.159 HD
HETATM   29  O   UNL     1      -0.016   4.458 -30.780  1.00  0.00    -0.266 OA
ENDBRANCH   8  25
TORSDOF 4
ENDMDL
MODEL 3
REMARK VINA RESULT:      -8.2      2.353      2.891
REMARK  4 active torsions:
REMARK  status: ('A' for Active; 'I' for Inactive)
REMARK    1  A    between atoms: C_6  and  C_7 
REMARK    2  A    between atoms: C_8  and  C_9 
REMARK       I    between atoms: C_9  and  N_10 
REMARK    3  A    between atoms: N_10  and  C_11 
REMARK    4  A    between atoms: C_18  and  C_19 
REMARK       I    between atoms: C_19  and  N_20 
ROOT
HETATM    1  C   UNL     1      -3.575   4.203 -31.606  1.00  0.00     0.035 A 
HETATM    2  C   UNL     1      -3.569   5.559 -31.238  1.00  0.00     0.046 A 
HETATM    3  C   UNL     1      -2.788   6.479 -31.969  1.00  0.00     0.030 A 
HETATM    4  C   UNL     1      -2.021   6.012 -33.027  1.00  0.00     0.063 A 
HETATM    5  N   UNL     1      -1.385   7.112 -33.529  1.00  0.00    -0.277 N 
HETATM    6  H   UNL     1      -0.739   7.143 -34.310  1.00  0.00     0.189 HD
HETATM    7  N   UNL     1      -1.682   8.262 -32.899  1.00  0.00    -0.168 NA
HETATM    8  C   UNL     1      -2.548   7.884 -31.932  1.00  0.00     0.156 A 
HETATM    9  C   UNL     1      -1.987   4.669 -33.406  1.00  0.00     0.034 A 
HETATM   10  C   UNL     1      -2.783   3.776 -32.675  1.00  0.00     0.032 A 
ENDROOT
BRANCH   1  11
HETATM   11  N   UNL     1      -4.390   3.338 -30.846  1.00  0.00    -0.327 N 
HETATM   12  C   UNL     1      -5.625   2.838 -31.198  1.00  0.00     0.227 C 
HETATM   13  O   UNL     1      -6.291   3.137 -32.178  1.00  0.00    -0.273 OA
HETATM   14  H   UNL     1      -4.055   3.105 -29.921  1.00  0.00     0.169 HD
BRANCH  12  15
HETATM   15  C   UNL     1      -6.223   1.918 -30.191  1.00  0.00     0.087 A 
HETATM   16  C   UNL     1      -6.303   0.418 -30.421  1.00  0.00     0.032 A 
HETATM   17  C   UNL     1      -5.414   0.983 -29.335  1.00  0.00     0.025 A 
BRANCH  16  18
HETATM   18  C   UNL     1      -5.654  -0.300 -31.585  1.00  0.00    -0.051 A 
HETATM   19  C   UNL     1      -6.397  -0.768 -32.681  1.00  0.00     0.031 A 
HETATM   20  C   UNL     1      -5.783  -1.439 -33.740  1.00  0.00     0.034 A 
HETATM   21  C   UNL     1      -4.414  -1.687 -33.721  1.00  0.00     0.024 A 
HETATM   22 CL   UNL     1      -6.726  -1.971 -35.079  1.00  0.00    -0.084 Cl
HETATM   23  C   UNL     1      -3.658  -1.261 -32.634  1.00  0.00     0.002 A 
HETATM   24  C   UNL     1      -4.274  -0.579 -31.581  1.00  0.00     0.007 A 
ENDBRANCH  16  18
ENDBRANCH  12  15
ENDBRANCH   1  11
BRANCH   8  25
HETATM   25  C   UNL     1      -3.134   8.862 -31.005  1.00  0.00     0.270 C 
HETATM   26  N   UNL     1      -2.482   8.956 -29.806  1.00  0.00    -0.365 N 
HETATM   27  H   UNL     1      -1.666   8.375 -29.651  1.00  0.00     0.159 HD
HETATM   28  H   UNL     1      -2.797   9.614 -29.111  1.00  0.00     0.159 HD
HETATM   29  O   UNL     1      -4.117   9.553 -31.255  1.00  0.00    -0.266 OA
ENDBRANCH   8  25
TORSDOF 4
ENDMDL
MODEL 4
REMARK VINA RESULT:      -8.1      3.714      8.056
REMARK  4 active torsions:
REMARK  status: ('A' for Active; 'I' for Inactive)
REMARK    1  A    between atoms: C_6  and  C_7 
REMARK    2  A    between atoms: C_8  and  C_9 
REMARK       I    between atoms: C_9  and  N_10 
REMARK    3  A    between atoms: N_10  and  C_11 
REMARK    4  A    between atoms: C_18  and  C_19 
REMARK       I    between atoms: C_19  and  N_20 
ROOT
HETATM    1  C   UNL     1      -4.147   3.619 -32.004  1.00  0.00     0.035 A 
HETATM    2  C   UNL     1      -4.408   2.264 -32.269  1.00  0.00     0.046 A 
HETATM    3  C   UNL     1      -5.207   1.519 -31.377  1.00  0.00     0.030 A 
HETATM    4  C   UNL     1      -5.697   2.142 -30.238  1.00  0.00     0.063 A 
HETATM    5  N   UNL     1      -6.418   1.185 -29.581  1.00  0.00    -0.277 N 
HETATM    6  H   UNL     1      -6.918   1.288 -28.705  1.00  0.00     0.189 HD
HETATM    7  N   UNL     1      -6.452  -0.009 -30.200  1.00  0.00    -0.168 NA
HETATM    8  C   UNL     1      -5.706   0.184 -31.311  1.00  0.00     0.156 A 
HETATM    9  C   UNL     1      -5.440   3.479 -29.933  1.00  0.00     0.034 A 
HETATM   10  C   UNL     1      -4.658   4.204 -30.843  1.00  0.00     0.032 A 
ENDROOT
BRANCH   1  11
HETATM   11  N   UNL     1      -3.357   4.314 -32.943  1.00  0.00    -0.327 N 
HETATM   12  C   UNL     1      -3.745   5.376 -33.732  1.00  0.00     0.227 C 
HETATM   13  O   UNL     1      -4.870   5.841 -33.843  1.00  0.00    -0.273 OA
HETATM   14  H   UNL     1      -2.423   3.957 -33.094  1.00  0.00     0.169 HD
BRANCH  12  15
HETATM   15  C   UNL     1      -2.666   5.917 -34.604  1.00  0.00     0.087 A 
HETATM   16  C   UNL     1      -1.589   6.845 -34.069  1.00  0.00     0.032 A 
HETATM   17  C   UNL     1      -1.237   5.453 -34.546  1.00  0.00     0.025 A 
BRANCH  16  18
HETATM   18  C   UNL     1      -1.402   7.175 -32.603  1.00  0.00    -0.051 A 
HETATM   19  C   UNL     1      -0.611   6.382 -31.756  1.00  0.00     0.031 A 
HETATM   20  C   UNL     1      -0.460   6.694 -30.403  1.00  0.00     0.034 A 
HETATM   21  C   UNL     1      -1.117   7.789 -29.853  1.00  0.00     0.024 A 
HETATM   22 CL   UNL     1       0.543   5.713 -29.404  1.00  0.00    -0.084 Cl
HETATM   23  C   UNL     1      -1.932   8.575 -30.662  1.00  0.00     0.002 A 
HETATM   24  C   UNL     1      -2.071   8.266 -32.019  1.00  0.00     0.007 A 
ENDBRANCH  16  18
ENDBRANCH  12  15
ENDBRANCH   1  11
BRANCH   8  25
HETATM   25  C   UNL     1      -5.494  -0.893 -32.287  1.00  0.00     0.270 C 
HETATM   26  N   UNL     1      -4.268  -1.492 -32.201  1.00  0.00    -0.365 N 
HETATM   27  H   UNL     1      -3.620  -1.170 -31.490  1.00  0.00     0.159 HD
HETATM   28  H   UNL     1      -4.035  -2.257 -32.815  1.00  0.00     0.159 HD
HETATM   29  O   UNL     1      -6.326  -1.253 -33.115  1.00  0.00    -0.266 OA
ENDBRANCH   8  25
TORSDOF 4
ENDMDL
MODEL 5
REMARK VINA RESULT:      -8.1      3.611      8.201
REMARK  4 active torsions:
REMARK  status: ('A' for Active; 'I' for Inactive)
REMARK    1  A    between atoms: C_6  and  C_7 
REMARK    2  A    between atoms: C_8  and  C_9 
REMARK       I    between atoms: C_9  and  N_10 
REMARK    3  A    between atoms: N_10  and  C_11 
REMARK    4  A    between atoms: C_18  and  C_19 
REMARK       I    between atoms: C_19  and  N_20 
ROOT
HETATM    1  C   UNL     1      -4.625   3.366 -32.638  1.00  0.00     0.035 A 
HETATM    2  C   UNL     1      -5.638   2.686 -33.334  1.00  0.00     0.046 A 
HETATM    3  C   UNL     1      -6.570   1.902 -32.622  1.00  0.00     0.030 A 
HETATM    4  C   UNL     1      -6.446   1.803 -31.244  1.00  0.00     0.063 A 
HETATM    5  N   UNL     1      -7.469   0.990 -30.844  1.00  0.00    -0.277 N 
HETATM    6  H   UNL     1      -7.684   0.697 -29.897  1.00  0.00     0.189 HD
HETATM    7  N   UNL     1      -8.260   0.560 -31.842  1.00  0.00    -0.168 NA
HETATM    8  C   UNL     1      -7.715   1.116 -32.947  1.00  0.00     0.156 A 
HETATM    9  C   UNL     1      -5.440   2.448 -30.523  1.00  0.00     0.034 A 
HETATM   10  C   UNL     1      -4.535   3.234 -31.250  1.00  0.00     0.032 A 
ENDROOT
BRANCH   1  11
HETATM   11  N   UNL     1      -3.735   4.148 -33.405  1.00  0.00    -0.327 N 
HETATM   12  C   UNL     1      -3.818   5.502 -33.650  1.00  0.00     0.227 C 
HETATM   13  O   UNL     1      -4.731   6.254 -33.342  1.00  0.00    -0.273 OA
HETATM   14  H   UNL     1      -2.989   3.650 -33.871  1.00  0.00     0.169 HD
BRANCH  12  15
HETATM   15  C   UNL     1      -2.703   6.044 -34.474  1.00  0.00     0.087 A 
HETATM   16  C   UNL     1      -1.428   6.582 -33.846  1.00  0.00     0.032 A 
HETATM   17  C   UNL     1      -1.400   5.325 -34.688  1.00  0.00     0.025 A 
BRANCH  16  18
HETATM   18  C   UNL     1      -1.093   6.473 -32.374  1.00  0.00    -0.051 A 
HETATM   19  C   UNL     1      -1.330   7.526 -31.475  1.00  0.00     0.031 A 
HETATM   20  C   UNL     1      -1.003   7.412 -30.122  1.00  0.00     0.034 A 
HETATM   21  C   UNL     1      -0.405   6.255 -29.635  1.00  0.00     0.024 A 
HETATM   22 CL   UNL     1      -1.337   8.715 -29.047  1.00  0.00    -0.084 Cl
HETATM   23  C   UNL     1      -0.130   5.207 -30.509  1.00  0.00     0.002 A 
HETATM   24  C   UNL     1      -0.470   5.320 -31.860  1.00  0.00     0.007 A 
ENDBRANCH  16  18
ENDBRANCH  12  15
ENDBRANCH   1  11
BRANCH   8  25
HETATM   25  C   UNL     1      -8.296   0.899 -34.279  1.00  0.00     0.270 C 
HETATM   26  N   UNL     1      -9.347   1.725 -34.571  1.00  0.00    -0.365 N 
HETATM   27  H   UNL     1      -9.633   2.409 -33.880  1.00  0.00     0.159 HD
HETATM   28  H   UNL     1      -9.799   1.667 -35.470  1.00  0.00     0.159 HD
HETATM   29  O   UNL     1      -7.894   0.065 -35.084  1.00  0.00    -0.266 OA
ENDBRANCH   8  25
TORSDOF 4
ENDMDL
MODEL 6
REMARK VINA RESULT:      -8.0      3.888      6.860
REMARK  4 active torsions:
REMARK  status: ('A' for Active; 'I' for Inactive)
REMARK    1  A    between atoms: C_6  and  C_7 
REMARK    2  A    between atoms: C_8  and  C_9 
REMARK       I    between atoms: C_9  and  N_10 
REMARK    3  A    between atoms: N_10  and  C_11 
REMARK    4  A    between atoms: C_18  and  C_19 
REMARK       I    between atoms: C_19  and  N_20 
ROOT
HETATM    1  C   UNL     1      -6.629   0.968 -33.978  1.00  0.00     0.035 A 
HETATM    2  C   UNL     1      -5.557   0.395 -33.273  1.00  0.00     0.046 A 
HETATM    3  C   UNL     1      -5.182  -0.939 -33.535  1.00  0.00     0.030 A 
HETATM    4  C   UNL     1      -5.902  -1.664 -34.474  1.00  0.00     0.063 A 
HETATM    5  N   UNL     1      -5.317  -2.899 -34.508  1.00  0.00    -0.277 N 
HETATM    6  H   UNL     1      -5.586  -3.689 -35.083  1.00  0.00     0.189 HD
HETATM    7  N   UNL     1      -4.266  -3.039 -33.680  1.00  0.00    -0.168 NA
HETATM    8  C   UNL     1      -4.173  -1.835 -33.072  1.00  0.00     0.156 A 
HETATM    9  C   UNL     1      -6.983  -1.133 -35.178  1.00  0.00     0.034 A 
HETATM   10  C   UNL     1      -7.329   0.200 -34.912  1.00  0.00     0.032 A 
ENDROOT
BRANCH   1  11
HETATM   11  N   UNL     1      -6.944   2.311 -33.682  1.00  0.00    -0.327 N 
HETATM   12  C   UNL     1      -7.337   2.823 -32.465  1.00  0.00     0.227 C 
HETATM   13  O   UNL     1      -7.591   2.196 -31.447  1.00  0.00    -0.273 OA
HETATM   14  H   UNL     1      -6.934   2.956 -34.461  1.00  0.00     0.169 HD
BRANCH  12  15
HETATM   15  C   UNL     1      -7.568   4.294 -32.465  1.00  0.00     0.087 A 
HETATM   16  C   UNL     1      -6.421   5.288 -32.375  1.00  0.00     0.032 A 
HETATM   17  C   UNL     1      -7.254   5.186 -33.635  1.00  0.00     0.025 A 
BRANCH  16  18
HETATM   18  C   UNL     1      -4.958   4.906 -32.445  1.00  0.00    -0.051 A 
HETATM   19  C   UNL     1      -4.189   5.110 -33.603  1.00  0.00     0.031 A 
HETATM   20  C   UNL     1      -2.843   4.740 -33.653  1.00  0.00     0.034 A 
HETATM   21  C   UNL     1      -2.236   4.130 -32.561  1.00  0.00     0.024 A 
HETATM   22 CL   UNL     1      -1.927   5.035 -35.081  1.00  0.00    -0.084 Cl
HETATM   23  C   UNL     1      -2.983   3.887 -31.412  1.00  0.00     0.002 A 
HETATM   24  C   UNL     1      -4.327   4.270 -31.360  1.00  0.00     0.007 A 
ENDBRANCH  16  18
ENDBRANCH  12  15
ENDBRANCH   1  11
BRANCH   8  25
HETATM   25  C   UNL     1      -3.126  -1.558 -32.079  1.00  0.00     0.270 C 
HETATM   26  N   UNL     1      -2.576  -2.679 -31.520  1.00  0.00    -0.365 N 
HETATM   27  H   UNL     1      -2.908  -3.586 -31.827  1.00  0.00     0.159 HD
HETATM   28  H   UNL     1      -1.835  -2.593 -30.842  1.00  0.00     0.159 HD
HETATM   29  O   UNL     1      -2.752  -0.434 -31.760  1.00  0.00    -0.266 OA
ENDBRANCH   8  25
TORSDOF 4
ENDMDL
MODEL 7
REMARK VINA RESULT:      -7.9      5.626      8.609
REMARK  4 active torsions:
REMARK  status: ('A' for Active; 'I' for Inactive)
REMARK    1  A    between atoms: C_6  and  C_7 
REMARK    2  A    between atoms: C_8  and  C_9 
REMARK       I    between atoms: C_9  and  N_10 
REMARK    3  A    between atoms: N_10  and  C_11 
REMARK    4  A    between atoms: C_18  and  C_19 
REMARK       I    between atoms: C_19  and  N_20 
ROOT
HETATM    1  C   UNL     1     -11.204   1.861 -34.425  1.00  0.00     0.035 A 
HETATM    2  C   UNL     1     -11.379   2.691 -33.304  1.00  0.00     0.046 A 
HETATM    3  C   UNL     1     -12.681   2.977 -32.843  1.00  0.00     0.030 A 
HETATM    4  C   UNL     1     -13.765   2.448 -33.529  1.00  0.00     0.063 A 
HETATM    5  N   UNL     1     -14.871   2.894 -32.861  1.00  0.00    -0.277 N 
HETATM    6  H   UNL     1     -15.841   2.703 -33.086  1.00  0.00     0.189 HD
HETATM    7  N   UNL     1     -14.602   3.660 -31.789  1.00  0.00    -0.168 NA
HETATM    8  C   UNL     1     -13.252   3.720 -31.767  1.00  0.00     0.156 A 
HETATM    9  C   UNL     1     -13.629   1.638 -34.657  1.00  0.00     0.034 A 
HETATM   10  C   UNL     1     -12.325   1.353 -35.087  1.00  0.00     0.032 A 
ENDROOT
BRANCH   1  11
HETATM   11  N   UNL     1      -9.878   1.598 -34.826  1.00  0.00    -0.327 N 
HETATM   12  C   UNL     1      -9.038   0.624 -34.330  1.00  0.00     0.227 C 
HETATM   13  O   UNL     1      -9.246  -0.118 -33.381  1.00  0.00    -0.273 OA
HETATM   14  H   UNL     1      -9.483   2.229 -35.510  1.00  0.00     0.169 HD
BRANCH  12  15
HETATM   15  C   UNL     1      -7.701   0.577 -34.984  1.00  0.00     0.087 A 
HETATM   16  C   UNL     1      -6.419   0.847 -34.215  1.00  0.00     0.032 A 
HETATM   17  C   UNL     1      -6.707  -0.531 -34.769  1.00  0.00     0.025 A 
BRANCH  16  18
HETATM   18  C   UNL     1      -6.350   1.021 -32.712  1.00  0.00    -0.051 A 
HETATM   19  C   UNL     1      -6.457   2.281 -32.102  1.00  0.00     0.031 A 
HETATM   20  C   UNL     1      -6.378   2.424 -30.715  1.00  0.00     0.034 A 
HETATM   21  C   UNL     1      -6.162   1.317 -29.902  1.00  0.00     0.024 A 
HETATM   22 CL   UNL     1      -6.544   3.983 -30.003  1.00  0.00    -0.084 Cl
HETATM   23  C   UNL     1      -6.022   0.059 -30.482  1.00  0.00     0.002 A 
HETATM   24  C   UNL     1      -6.113  -0.081 -31.870  1.00  0.00     0.007 A 
ENDBRANCH  16  18
ENDBRANCH  12  15
ENDBRANCH   1  11
BRANCH   8  25
HETATM   25  C   UNL     1     -12.536   4.467 -30.724  1.00  0.00     0.270 C 
HETATM   26  N   UNL     1     -11.901   3.676 -29.806  1.00  0.00    -0.365 N 
HETATM   27  H   UNL     1     -11.958   2.670 -29.911  1.00  0.00     0.159 HD
HETATM   28  H   UNL     1     -11.366   4.096 -29.063  1.00  0.00     0.159 HD
HETATM   29  O   UNL     1     -12.486   5.691 -30.658  1.00  0.00    -0.266 OA
ENDBRANCH   8  25
TORSDOF 4
ENDMDL
MODEL 8
REMARK VINA RESULT:      -7.7      5.218      8.878
REMARK  4 active torsions:
REMARK  status: ('A' for Active; 'I' for Inactive)
REMARK    1  A    between atoms: C_6  and  C_7 
REMARK    2  A    between atoms: C_8  and  C_9 
REMARK       I    between atoms: C_9  and  N_10 
REMARK    3  A    between atoms: N_10  and  C_11 
REMARK    4  A    between atoms: C_18  and  C_19 
REMARK       I    between atoms: C_19  and  N_20 
ROOT
HETATM    1  C   UNL     1     -10.004   2.091 -34.099  1.00  0.00     0.035 A 
HETATM    2  C   UNL     1     -11.286   1.519 -34.038  1.00  0.00     0.046 A 
HETATM    3  C   UNL     1     -12.362   2.269 -33.519  1.00  0.00     0.030 A 
HETATM    4  C   UNL     1     -12.119   3.555 -33.056  1.00  0.00     0.063 A 
HETATM    5  N   UNL     1     -13.328   4.019 -32.620  1.00  0.00    -0.277 N 
HETATM    6  H   UNL     1     -13.526   4.927 -32.214  1.00  0.00     0.189 HD
HETATM    7  N   UNL     1     -14.344   3.151 -32.771  1.00  0.00    -0.168 NA
HETATM    8  C   UNL     1     -13.760   2.065 -33.325  1.00  0.00     0.156 A 
HETATM    9  C   UNL     1     -10.855   4.146 -33.083  1.00  0.00     0.034 A 
HETATM   10  C   UNL     1      -9.804   3.388 -33.617  1.00  0.00     0.032 A 
ENDROOT
BRANCH   1  11
HETATM   11  N   UNL     1      -8.973   1.297 -34.644  1.00  0.00    -0.327 N 
HETATM   12  C   UNL     1      -8.498   0.101 -34.151  1.00  0.00     0.227 C 
HETATM   13  O   UNL     1      -8.802  -0.437 -33.097  1.00  0.00    -0.273 OA
HETATM   14  H   UNL     1      -8.496   1.675 -35.451  1.00  0.00     0.169 HD
BRANCH  12  15
HETATM   15  C   UNL     1      -7.421  -0.516 -34.974  1.00  0.00     0.087 A 
HETATM   16  C   UNL     1      -5.956  -0.422 -34.582  1.00  0.00     0.032 A 
HETATM   17  C   UNL     1      -6.671  -1.755 -34.571  1.00  0.00     0.025 A 
BRANCH  16  18
HETATM   18  C   UNL     1      -5.462   0.144 -33.267  1.00  0.00    -0.051 A 
HETATM   19  C   UNL     1      -5.345   1.526 -33.047  1.00  0.00     0.031 A 
HETATM   20  C   UNL     1      -4.876   2.030 -31.832  1.00  0.00     0.034 A 
HETATM   21  C   UNL     1      -4.484   1.167 -30.814  1.00  0.00     0.024 A 
HETATM   22 CL   UNL     1      -4.775   3.732 -31.592  1.00  0.00    -0.084 Cl
HETATM   23  C   UNL     1      -4.561  -0.208 -31.015  1.00  0.00     0.002 A 
HETATM   24  C   UNL     1      -5.042  -0.708 -32.229  1.00  0.00     0.007 A 
ENDBRANCH  16  18
ENDBRANCH  12  15
ENDBRANCH   1  11
BRANCH   8  25
HETATM   25  C   UNL     1     -14.539   0.867 -33.666  1.00  0.00     0.270 C 
HETATM   26  N   UNL     1     -15.734   1.133 -34.276  1.00  0.00    -0.365 N 
HETATM   27  H   UNL     1     -15.984   2.100 -34.452  1.00  0.00     0.159 HD
HETATM   28  H   UNL     1     -16.332   0.376 -34.567  1.00  0.00     0.159 HD
HETATM   29  O   UNL     1     -14.176  -0.284 -33.444  1.00  0.00    -0.266 OA
ENDBRANCH   8  25
TORSDOF 4
ENDMDL
MODEL 9
REMARK VINA RESULT:      -7.7      4.672      6.395
REMARK  4 active torsions:
REMARK  status: ('A' for Active; 'I' for Inactive)
REMARK    1  A    between atoms: C_6  and  C_7 
REMARK    2  A    between atoms: C_8  and  C_9 
REMARK       I    between atoms: C_9  and  N_10 
REMARK    3  A    between atoms: N_10  and  C_11 
REMARK    4  A    between atoms: C_18  and  C_19 
REMARK       I    between atoms: C_19  and  N_20 
ROOT
HETATM    1  C   UNL     1      -7.266   1.027 -33.852  1.00  0.00     0.035 A 
HETATM    2  C   UNL     1      -6.084   0.788 -33.132  1.00  0.00     0.046 A 
HETATM    3  C   UNL     1      -5.382  -0.421 -33.322  1.00  0.00     0.030 A 
HETATM    4  C   UNL     1      -5.895  -1.360 -34.204  1.00  0.00     0.063 A 
HETATM    5  N   UNL     1      -5.016  -2.406 -34.175  1.00  0.00    -0.277 N 
HETATM    6  H   UNL     1      -5.076  -3.272 -34.698  1.00  0.00     0.189 HD
HETATM    7  N   UNL     1      -3.964  -2.224 -33.357  1.00  0.00    -0.168 NA
HETATM    8  C   UNL     1      -4.178  -1.001 -32.823  1.00  0.00     0.156 A 
HETATM    9  C   UNL     1      -7.077  -1.165 -34.921  1.00  0.00     0.034 A 
HETATM   10  C   UNL     1      -7.749   0.051 -34.728  1.00  0.00     0.032 A 
ENDROOT
BRANCH   1  11
HETATM   11  N   UNL     1      -7.912   2.262 -33.631  1.00  0.00    -0.327 N 
HETATM   12  C   UNL     1      -8.765   2.579 -32.595  1.00  0.00     0.227 C 
HETATM   13  O   UNL     1      -9.204   1.823 -31.741  1.00  0.00    -0.273 OA
HETATM   14  H   UNL     1      -7.780   2.970 -34.340  1.00  0.00     0.169 HD
BRANCH  12  15
HETATM   15  C   UNL     1      -9.262   3.982 -32.620  1.00  0.00     0.087 A 
HETATM   16  C   UNL     1     -10.616   4.345 -33.207  1.00  0.00     0.032 A 
HETATM   17  C   UNL     1     -10.356   4.493 -31.724  1.00  0.00     0.025 A 
BRANCH  16  18
HETATM   18  C   UNL     1     -11.645   3.331 -33.662  1.00  0.00    -0.051 A 
HETATM   19  C   UNL     1     -12.795   3.047 -32.908  1.00  0.00     0.031 A 
HETATM   20  C   UNL     1     -13.727   2.099 -33.336  1.00  0.00     0.034 A 
HETATM   21  C   UNL     1     -13.522   1.390 -34.515  1.00  0.00     0.024 A 
HETATM   22 CL   UNL     1     -15.140   1.802 -32.398  1.00  0.00    -0.084 Cl
HETATM   23  C   UNL     1     -12.376   1.629 -35.266  1.00  0.00     0.002 A 
HETATM   24  C   UNL     1     -11.451   2.587 -34.840  1.00  0.00     0.007 A 
ENDBRANCH  16  18
ENDBRANCH  12  15
ENDBRANCH   1  11
BRANCH   8  25
HETATM   25  C   UNL     1      -3.236  -0.408 -31.865  1.00  0.00     0.270 C 
HETATM   26  N   UNL     1      -2.197  -1.229 -31.522  1.00  0.00    -0.365 N 
HETATM   27  H   UNL     1      -2.146  -2.149 -31.945  1.00  0.00     0.159 HD
HETATM   28  H   UNL     1      -1.486  -0.905 -30.886  1.00  0.00     0.159 HD
HETATM   29  O   UNL     1      -3.339   0.722 -31.399  1.00  0.00    -0.266 OA
ENDBRANCH   8  25
TORSDOF 4
ENDMDL
MODEL 10
REMARK VINA RESULT:      -7.6      2.466      3.088
REMARK  4 active torsions:
REMARK  status: ('A' for Active; 'I' for Inactive)
REMARK    1  A    between atoms: C_6  and  C_7 
REMARK    2  A    between atoms: C_8  and  C_9 
REMARK       I    between atoms: C_9  and  N_10 
REMARK    3  A    between atoms: N_10  and  C_11 
REMARK    4  A    between atoms: C_18  and  C_19 
REMARK       I    between atoms: C_19  and  N_20 
ROOT
HETATM    1  C   UNL     1      -5.298   5.021 -32.860  1.00  0.00     0.035 A 
HETATM    2  C   UNL     1      -4.522   6.015 -32.240  1.00  0.00     0.046 A 
HETATM    3  C   UNL     1      -3.407   6.553 -32.916  1.00  0.00     0.030 A 
HETATM    4  C   UNL     1      -3.089   6.066 -34.176  1.00  0.00     0.063 A 
HETATM    5  N   UNL     1      -1.982   6.764 -34.567  1.00  0.00    -0.277 N 
HETATM    6  H   UNL     1      -1.473   6.667 -35.439  1.00  0.00     0.189 HD
HETATM    7  N   UNL     1      -1.556   7.676 -33.676  1.00  0.00    -0.168 NA
HETATM    8  C   UNL     1      -2.428   7.556 -32.650  1.00  0.00     0.156 A 
HETATM    9  C   UNL     1      -3.826   5.066 -34.811  1.00  0.00     0.034 A 
HETATM   10  C   UNL     1      -4.939   4.556 -34.127  1.00  0.00     0.032 A 
ENDROOT
BRANCH   1  11
HETATM   11  N   UNL     1      -6.410   4.535 -32.139  1.00  0.00    -0.327 N 
HETATM   12  C   UNL     1      -7.628   4.146 -32.654  1.00  0.00     0.227 C 
HETATM   13  O   UNL     1      -8.008   4.251 -33.811  1.00  0.00    -0.273 OA
HETATM   14  H   UNL     1      -6.322   4.526 -31.132  1.00  0.00     0.169 HD
BRANCH  12  15
HETATM   15  C   UNL     1      -8.592   3.646 -31.635  1.00  0.00     0.087 A 
HETATM   16  C   UNL     1      -8.653   2.180 -31.238  1.00  0.00     0.032 A 
HETATM   17  C   UNL     1      -8.193   3.227 -30.247  1.00  0.00     0.025 A 
BRANCH  16  18
HETATM   18  C   UNL     1      -7.661   1.133 -31.695  1.00  0.00    -0.051 A 
HETATM   19  C   UNL     1      -7.814   0.439 -32.907  1.00  0.00     0.031 A 
HETATM   20  C   UNL     1      -6.895  -0.534 -33.307  1.00  0.00     0.034 A 
HETATM   21  C   UNL     1      -5.814  -0.860 -32.495  1.00  0.00     0.024 A 
HETATM   22 CL   UNL     1      -7.103  -1.341 -34.814  1.00  0.00    -0.084 Cl
HETATM   23  C   UNL     1      -5.654  -0.210 -31.275  1.00  0.00     0.002 A 
HETATM   24  C   UNL     1      -6.570   0.771 -30.884  1.00  0.00     0.007 A 
ENDBRANCH  16  18
ENDBRANCH  12  15
ENDBRANCH   1  11
BRANCH   8  25
HETATM   25  C   UNL     1      -2.320   8.398 -31.451  1.00  0.00     0.270 C 
HETATM   26  N   UNL     1      -1.701   7.789 -30.395  1.00  0.00    -0.365 N 
HETATM   27  H   UNL     1      -1.362   6.841 -30.512  1.00  0.00     0.159 HD
HETATM   28  H   UNL     1      -1.560   8.293 -29.533  1.00  0.00     0.159 HD
HETATM   29  O   UNL     1      -2.733   9.550 -31.373  1.00  0.00    -0.266 OA
ENDBRANCH   8  25
TORSDOF 4
ENDMDL
