MODEL 1
REMARK VINA RESULT:     -10.1      0.000      0.000
REMARK  5 active torsions:
REMARK  status: ('A' for Active; 'I' for Inactive)
REMARK    1  A    between atoms: C_2  and  C_3 
REMARK       I    between atoms: C_3  and  N_4 
REMARK    2  A    between atoms: N_4  and  N_5 
REMARK    3  A    between atoms: N_5  and  C_6 
REMARK    4  A    between atoms: N_7  and  C_8 
REMARK    5  A    between atoms: C_8  and  C_9 
ROOT
HETATM    1  C   UNL     1      -3.763   2.382 -32.044  1.00  0.00     0.200 A 
HETATM    2  N   UNL     1      -4.906   2.942 -32.578  1.00  0.00    -0.283 N 
HETATM    3  C   UNL     1      -5.818   2.169 -33.276  1.00  0.00     0.259 A 
HETATM    4  O   UNL     1      -6.835   2.650 -33.772  1.00  0.00    -0.267 OA
HETATM    5  C   UNL     1      -5.531   0.713 -33.397  1.00  0.00     0.049 A 
HETATM    6  C   UNL     1      -4.415   0.291 -32.770  1.00  0.00     0.083 A 
HETATM    7  C   UNL     1      -4.093  -1.161 -32.768  1.00  0.00    -0.000 A 
HETATM    8  C   UNL     1      -4.685  -2.013 -33.713  1.00  0.00    -0.044 A 
HETATM    9  C   UNL     1      -4.359  -3.376 -33.742  1.00  0.00     0.008 A 
HETATM   10  C   UNL     1      -3.464  -3.903 -32.813  1.00  0.00     0.001 A 
HETATM   11  C   UNL     1      -2.883  -3.072 -31.860  1.00  0.00     0.001 A 
HETATM   12  C   UNL     1      -3.192  -1.711 -31.840  1.00  0.00     0.014 A 
HETATM   13  C   UNL     1      -5.623  -1.423 -34.729  1.00  0.00     0.054 C 
HETATM   14  C   UNL     1      -6.464  -0.250 -34.152  1.00  0.00    -0.002 C 
HETATM   15  C   UNL     1      -7.568  -0.786 -33.208  1.00  0.00     0.015 C 
HETATM   16  C   UNL     1      -8.716   0.200 -33.348  1.00  0.00     0.001 C 
HETATM   17  C   UNL     1      -8.709   0.577 -34.821  1.00  0.00     0.001 C 
HETATM   18  C   UNL     1      -7.281   0.347 -35.329  1.00  0.00     0.015 C 
HETATM   19  N   UNL     1      -3.531   1.102 -32.120  1.00  0.00    -0.218 NA
ENDROOT
BRANCH   1  20
HETATM   20  N   UNL     1      -2.815   3.178 -31.415  1.00  0.00    -0.188 NA
HETATM   21  H   UNL     1      -3.178   3.840 -30.727  1.00  0.00     0.150 HD
BRANCH  20  22
HETATM   22  N   UNL     1      -1.952   3.848 -32.331  1.00  0.00    -0.189 NA
HETATM   23  C   UNL     1      -1.670   5.160 -31.996  1.00  0.00     0.210 C 
HETATM   24  O   UNL     1      -1.850   5.609 -30.864  1.00  0.00    -0.279 OA
HETATM   25  H   UNL     1      -2.211   3.648 -33.300  1.00  0.00     0.150 HD
BRANCH  23  26
HETATM   26  C   UNL     1      -1.148   5.991 -33.147  1.00  0.00     0.093 C 
HETATM   27  C   UNL     1      -1.513   5.349 -34.473  1.00  0.00     0.014 C 
ENDBRANCH  23  26
ENDBRANCH  20  22
ENDBRANCH   1  20
BRANCH   2  28
HETATM   28  C   UNL     1      -5.255   4.349 -32.367  1.00  0.00     0.173 C 
BRANCH  28  29
HETATM   29  C   UNL     1      -5.885   4.590 -31.010  1.00  0.00    -0.040 A 
HETATM   30  C   UNL     1      -7.180   4.133 -30.726  1.00  0.00     0.009 A 
HETATM   31  C   UNL     1      -7.758   4.366 -29.476  1.00  0.00     0.001 A 
HETATM   32  C   UNL     1      -7.048   5.057 -28.496  1.00  0.00     0.000 A 
HETATM   33  C   UNL     1      -5.759   5.512 -28.762  1.00  0.00     0.001 A 
HETATM   34  C   UNL     1      -5.180   5.277 -30.010  1.00  0.00     0.009 A 
ENDBRANCH  28  29
ENDBRANCH   2  28
TORSDOF 5
ENDMDL
MODEL 2
REMARK VINA RESULT:      -9.3      3.632      6.617
REMARK  5 active torsions:
REMARK  status: ('A' for Active; 'I' for Inactive)
REMARK    1  A    between atoms: C_2  and  C_3 
REMARK       I    between atoms: C_3  and  N_4 
REMARK    2  A    between atoms: N_4  and  N_5 
REMARK    3  A    between atoms: N_5  and  C_6 
REMARK    4  A    between atoms: N_7  and  C_8 
REMARK    5  A    between atoms: C_8  and  C_9 
ROOT
HETATM    1  C   UNL     1      -9.126   2.156 -34.228  1.00  0.00     0.200 A 
HETATM    2  N   UNL     1      -8.793   3.248 -33.452  1.00  0.00    -0.283 N 
HETATM    3  C   UNL     1      -7.668   3.231 -32.646  1.00  0.00     0.259 A 
HETATM    4  O   UNL     1      -7.361   4.187 -31.935  1.00  0.00    -0.267 OA
HETATM    5  C   UNL     1      -6.821   2.007 -32.677  1.00  0.00     0.049 A 
HETATM    6  C   UNL     1      -7.226   1.047 -33.531  1.00  0.00     0.083 A 
HETATM    7  C   UNL     1      -6.395  -0.177 -33.690  1.00  0.00    -0.000 A 
HETATM    8  C   UNL     1      -5.453  -0.517 -32.707  1.00  0.00    -0.044 A 
HETATM    9  C   UNL     1      -4.691  -1.688 -32.831  1.00  0.00     0.008 A 
HETATM   10  C   UNL     1      -4.845  -2.511 -33.945  1.00  0.00     0.001 A 
HETATM   11  C   UNL     1      -5.764  -2.175 -34.934  1.00  0.00     0.001 A 
HETATM   12  C   UNL     1      -6.536  -1.019 -34.805  1.00  0.00     0.014 A 
HETATM   13  C   UNL     1      -5.323   0.362 -31.496  1.00  0.00     0.054 C 
HETATM   14  C   UNL     1      -5.548   1.865 -31.824  1.00  0.00    -0.002 C 
HETATM   15  C   UNL     1      -4.325   2.446 -32.575  1.00  0.00     0.015 C 
HETATM   16  C   UNL     1      -4.265   3.905 -32.155  1.00  0.00     0.001 C 
HETATM   17  C   UNL     1      -4.666   3.891 -30.688  1.00  0.00     0.001 C 
HETATM   18  C   UNL     1      -5.519   2.636 -30.477  1.00  0.00     0.015 C 
HETATM   19  N   UNL     1      -8.364   1.100 -34.282  1.00  0.00    -0.218 NA
ENDROOT
BRANCH   1  20
HETATM   20  N   UNL     1     -10.298   2.150 -34.973  1.00  0.00    -0.188 NA
HETATM   21  H   UNL     1     -10.681   3.068 -35.203  1.00  0.00     0.150 HD
BRANCH  20  22
HETATM   22  N   UNL     1     -11.314   1.324 -34.407  1.00  0.00    -0.189 NA
HETATM   23  C   UNL     1     -12.555   1.455 -35.004  1.00  0.00     0.210 C 
HETATM   24  O   UNL     1     -12.706   1.959 -36.116  1.00  0.00    -0.279 OA
HETATM   25  H   UNL     1     -11.272   1.331 -33.386  1.00  0.00     0.150 HD
BRANCH  23  26
HETATM   26  C   UNL     1     -13.701   0.948 -34.158  1.00  0.00     0.093 C 
HETATM   27  C   UNL     1     -13.376  -0.422 -33.591  1.00  0.00     0.014 C 
ENDBRANCH  23  26
ENDBRANCH  20  22
ENDBRANCH   1  20
BRANCH   2  28
HETATM   28  C   UNL     1      -9.555   4.498 -33.499  1.00  0.00     0.173 C 
BRANCH  28  29
HETATM   29  C   UNL     1     -10.839   4.421 -32.697  1.00  0.00    -0.040 A 
HETATM   30  C   UNL     1     -10.816   4.097 -31.333  1.00  0.00     0.009 A 
HETATM   31  C   UNL     1     -12.004   4.018 -30.601  1.00  0.00     0.001 A 
HETATM   32  C   UNL     1     -13.226   4.263 -31.224  1.00  0.00     0.000 A 
HETATM   33  C   UNL     1     -13.263   4.590 -32.578  1.00  0.00     0.001 A 
HETATM   34  C   UNL     1     -12.077   4.672 -33.309  1.00  0.00     0.009 A 
ENDBRANCH  28  29
ENDBRANCH   2  28
TORSDOF 5
ENDMDL
MODEL 3
REMARK VINA RESULT:      -9.2      4.196      7.090
REMARK  5 active torsions:
REMARK  status: ('A' for Active; 'I' for Inactive)
REMARK    1  A    between atoms: C_2  and  C_3 
REMARK       I    between atoms: C_3  and  N_4 
REMARK    2  A    between atoms: N_4  and  N_5 
REMARK    3  A    between atoms: N_5  and  C_6 
REMARK    4  A    between atoms: N_7  and  C_8 
REMARK    5  A    between atoms: C_8  and  C_9 
ROOT
HETATM    1  C   UNL     1     -10.163   1.313 -33.491  1.00  0.00     0.200 A 
HETATM    2  N   UNL     1      -9.984   2.309 -32.553  1.00  0.00    -0.283 N 
HETATM    3  C   UNL     1      -8.815   2.392 -31.817  1.00  0.00     0.259 A 
HETATM    4  O   UNL     1      -8.641   3.263 -30.965  1.00  0.00    -0.267 OA
HETATM    5  C   UNL     1      -7.754   1.387 -32.101  1.00  0.00     0.049 A 
HETATM    6  C   UNL     1      -8.035   0.515 -33.088  1.00  0.00     0.083 A 
HETATM    7  C   UNL     1      -7.000  -0.473 -33.497  1.00  0.00    -0.000 A 
HETATM    8  C   UNL     1      -5.934  -0.768 -32.634  1.00  0.00    -0.044 A 
HETATM    9  C   UNL     1      -4.974  -1.725 -32.996  1.00  0.00     0.008 A 
HETATM   10  C   UNL     1      -5.057  -2.370 -34.228  1.00  0.00     0.001 A 
HETATM   11  C   UNL     1      -6.100  -2.073 -35.099  1.00  0.00     0.001 A 
HETATM   12  C   UNL     1      -7.067  -1.135 -34.734  1.00  0.00     0.014 A 
HETATM   13  C   UNL     1      -5.878  -0.088 -31.296  1.00  0.00     0.054 C 
HETATM   14  C   UNL     1      -6.413   1.371 -31.346  1.00  0.00    -0.002 C 
HETATM   15  C   UNL     1      -5.389   2.301 -32.042  1.00  0.00     0.015 C 
HETATM   16  C   UNL     1      -5.576   3.655 -31.377  1.00  0.00     0.001 C 
HETATM   17  C   UNL     1      -5.847   3.324 -29.918  1.00  0.00     0.001 C 
HETATM   18  C   UNL     1      -6.424   1.904 -29.888  1.00  0.00     0.015 C 
HETATM   19  N   UNL     1      -9.220   0.456 -33.764  1.00  0.00    -0.218 NA
ENDROOT
BRANCH   1  20
HETATM   20  N   UNL     1     -11.369   1.189 -34.169  1.00  0.00    -0.188 NA
HETATM   21  H   UNL     1     -11.596   1.949 -34.811  1.00  0.00     0.150 HD
BRANCH  20  22
HETATM   22  N   UNL     1     -12.472   0.934 -33.302  1.00  0.00    -0.189 NA
HETATM   23  C   UNL     1     -13.704   1.281 -33.827  1.00  0.00     0.210 C 
HETATM   24  O   UNL     1     -13.883   1.464 -35.030  1.00  0.00    -0.279 OA
HETATM   25  H   UNL     1     -12.264   1.221 -32.342  1.00  0.00     0.150 HD
BRANCH  23  26
HETATM   26  C   UNL     1     -14.793   1.436 -32.790  1.00  0.00     0.093 C 
HETATM   27  C   UNL     1     -14.614   2.732 -32.021  1.00  0.00     0.014 C 
ENDBRANCH  23  26
ENDBRANCH  20  22
ENDBRANCH   1  20
BRANCH   2  28
HETATM   28  C   UNL     1     -10.974   3.370 -32.346  1.00  0.00     0.173 C 
BRANCH  28  29
HETATM   29  C   UNL     1     -10.974   4.385 -33.471  1.00  0.00    -0.040 A 
HETATM   30  C   UNL     1     -12.158   4.703 -34.153  1.00  0.00     0.009 A 
HETATM   31  C   UNL     1     -12.150   5.633 -35.195  1.00  0.00     0.001 A 
HETATM   32  C   UNL     1     -10.960   6.256 -35.567  1.00  0.00     0.000 A 
HETATM   33  C   UNL     1      -9.778   5.954 -34.895  1.00  0.00     0.001 A 
HETATM   34  C   UNL     1      -9.785   5.026 -33.852  1.00  0.00     0.009 A 
ENDBRANCH  28  29
ENDBRANCH   2  28
TORSDOF 5
ENDMDL
MODEL 4
REMARK VINA RESULT:      -9.1      3.500      6.275
REMARK  5 active torsions:
REMARK  status: ('A' for Active; 'I' for Inactive)
REMARK    1  A    between atoms: C_2  and  C_3 
REMARK       I    between atoms: C_3  and  N_4 
REMARK    2  A    between atoms: N_4  and  N_5 
REMARK    3  A    between atoms: N_5  and  C_6 
REMARK    4  A    between atoms: N_7  and  C_8 
REMARK    5  A    between atoms: C_8  and  C_9 
ROOT
HETATM    1  C   UNL     1      -9.433   0.809 -32.554  1.00  0.00     0.200 A 
HETATM    2  N   UNL     1      -8.992   1.890 -31.817  1.00  0.00    -0.283 N 
HETATM    3  C   UNL     1      -7.653   2.034 -31.498  1.00  0.00     0.259 A 
HETATM    4  O   UNL     1      -7.240   2.981 -30.829  1.00  0.00    -0.267 OA
HETATM    5  C   UNL     1      -6.712   0.999 -32.008  1.00  0.00     0.049 A 
HETATM    6  C   UNL     1      -7.268   0.038 -32.771  1.00  0.00     0.083 A 
HETATM    7  C   UNL     1      -6.392  -0.991 -33.391  1.00  0.00    -0.000 A 
HETATM    8  C   UNL     1      -5.101  -1.210 -32.886  1.00  0.00    -0.044 A 
HETATM    9  C   UNL     1      -4.282  -2.203 -33.441  1.00  0.00     0.008 A 
HETATM   10  C   UNL     1      -4.733  -2.963 -34.519  1.00  0.00     0.001 A 
HETATM   11  C   UNL     1      -6.004  -2.743 -35.039  1.00  0.00     0.001 A 
HETATM   12  C   UNL     1      -6.829  -1.767 -34.477  1.00  0.00     0.014 A 
HETATM   13  C   UNL     1      -4.643  -0.405 -31.702  1.00  0.00     0.054 C 
HETATM   14  C   UNL     1      -5.201   1.045 -31.717  1.00  0.00    -0.002 C 
HETATM   15  C   UNL     1      -4.470   1.898 -32.783  1.00  0.00     0.015 C 
HETATM   16  C   UNL     1      -4.471   3.311 -32.222  1.00  0.00     0.001 C 
HETATM   17  C   UNL     1      -4.261   3.122 -30.727  1.00  0.00     0.001 C 
HETATM   18  C   UNL     1      -4.765   1.715 -30.386  1.00  0.00     0.015 C 
HETATM   19  N   UNL     1      -8.604  -0.076 -33.030  1.00  0.00    -0.218 NA
ENDROOT
BRANCH   1  20
HETATM   20  N   UNL     1     -10.788   0.630 -32.802  1.00  0.00    -0.188 NA
HETATM   21  H   UNL     1     -11.125  -0.332 -32.745  1.00  0.00     0.150 HD
BRANCH  20  22
HETATM   22  N   UNL     1     -11.214   1.228 -34.024  1.00  0.00    -0.189 NA
HETATM   23  C   UNL     1     -12.471   1.805 -33.970  1.00  0.00     0.210 C 
HETATM   24  O   UNL     1     -13.025   2.088 -32.908  1.00  0.00    -0.279 OA
HETATM   25  H   UNL     1     -10.998   0.631 -34.825  1.00  0.00     0.150 HD
BRANCH  23  26
HETATM   26  C   UNL     1     -13.102   2.032 -35.324  1.00  0.00     0.093 C 
HETATM   27  C   UNL     1     -12.427   3.189 -36.038  1.00  0.00     0.014 C 
ENDBRANCH  23  26
ENDBRANCH  20  22
ENDBRANCH   1  20
BRANCH   2  28
HETATM   28  C   UNL     1      -9.891   2.972 -31.407  1.00  0.00     0.173 C 
BRANCH  28  29
HETATM   29  C   UNL     1     -10.051   4.026 -32.485  1.00  0.00    -0.040 A 
HETATM   30  C   UNL     1      -9.132   4.123 -33.539  1.00  0.00     0.009 A 
HETATM   31  C   UNL     1      -9.280   5.102 -34.524  1.00  0.00     0.001 A 
HETATM   32  C   UNL     1     -10.350   5.994 -34.467  1.00  0.00     0.000 A 
HETATM   33  C   UNL     1     -11.273   5.906 -33.428  1.00  0.00     0.001 A 
HETATM   34  C   UNL     1     -11.127   4.926 -32.444  1.00  0.00     0.009 A 
ENDBRANCH  28  29
ENDBRANCH   2  28
TORSDOF 5
ENDMDL
MODEL 5
REMARK VINA RESULT:      -8.8      1.539      2.079
REMARK  5 active torsions:
REMARK  status: ('A' for Active; 'I' for Inactive)
REMARK    1  A    between atoms: C_2  and  C_3 
REMARK       I    between atoms: C_3  and  N_4 
REMARK    2  A    between atoms: N_4  and  N_5 
REMARK    3  A    between atoms: N_5  and  C_6 
REMARK    4  A    between atoms: N_7  and  C_8 
REMARK    5  A    between atoms: C_8  and  C_9 
ROOT
HETATM    1  C   UNL     1      -3.573   3.942 -31.453  1.00  0.00     0.200 A 
HETATM    2  N   UNL     1      -4.802   4.556 -31.596  1.00  0.00    -0.283 N 
HETATM    3  C   UNL     1      -5.903   3.847 -32.046  1.00  0.00     0.259 A 
HETATM    4  O   UNL     1      -7.003   4.378 -32.194  1.00  0.00    -0.267 OA
HETATM    5  C   UNL     1      -5.715   2.399 -32.335  1.00  0.00     0.049 A 
HETATM    6  C   UNL     1      -4.481   1.917 -32.086  1.00  0.00     0.083 A 
HETATM    7  C   UNL     1      -4.224   0.463 -32.267  1.00  0.00    -0.000 A 
HETATM    8  C   UNL     1      -5.093  -0.311 -33.051  1.00  0.00    -0.044 A 
HETATM    9  C   UNL     1      -4.838  -1.674 -33.257  1.00  0.00     0.008 A 
HETATM   10  C   UNL     1      -3.732  -2.279 -32.663  1.00  0.00     0.001 A 
HETATM   11  C   UNL     1      -2.872  -1.525 -31.870  1.00  0.00     0.001 A 
HETATM   12  C   UNL     1      -3.114  -0.164 -31.677  1.00  0.00     0.014 A 
HETATM   13  C   UNL     1      -6.263   0.363 -33.712  1.00  0.00     0.054 C 
HETATM   14  C   UNL     1      -6.860   1.506 -32.844  1.00  0.00    -0.002 C 
HETATM   15  C   UNL     1      -7.662   0.923 -31.655  1.00  0.00     0.015 C 
HETATM   16  C   UNL     1      -8.766   1.935 -31.394  1.00  0.00     0.001 C 
HETATM   17  C   UNL     1      -9.172   2.413 -32.780  1.00  0.00     0.001 C 
HETATM   18  C   UNL     1      -7.961   2.196 -33.693  1.00  0.00     0.015 C 
HETATM   19  N   UNL     1      -3.419   2.667 -31.672  1.00  0.00    -0.218 NA
ENDROOT
BRANCH   1  20
HETATM   20  N   UNL     1      -2.457   4.677 -31.078  1.00  0.00    -0.188 NA
HETATM   21  H   UNL     1      -2.647   5.555 -30.594  1.00  0.00     0.150 HD
BRANCH  20  22
HETATM   22  N   UNL     1      -1.547   4.897 -32.154  1.00  0.00    -0.189 NA
HETATM   23  C   UNL     1      -1.573   6.180 -32.671  1.00  0.00     0.210 C 
HETATM   24  O   UNL     1      -2.063   7.130 -32.062  1.00  0.00    -0.279 OA
HETATM   25  H   UNL     1      -1.557   4.117 -32.815  1.00  0.00     0.150 HD
BRANCH  23  26
HETATM   26  C   UNL     1      -0.969   6.300 -34.052  1.00  0.00     0.093 C 
HETATM   27  C   UNL     1      -1.508   5.212 -34.963  1.00  0.00     0.014 C 
ENDBRANCH  23  26
ENDBRANCH  20  22
ENDBRANCH   1  20
BRANCH   2  28
HETATM   28  C   UNL     1      -5.025   5.950 -31.207  1.00  0.00     0.173 C 
BRANCH  28  29
HETATM   29  C   UNL     1      -4.942   6.150 -29.707  1.00  0.00    -0.040 A 
HETATM   30  C   UNL     1      -5.688   5.345 -28.832  1.00  0.00     0.009 A 
HETATM   31  C   UNL     1      -5.614   5.540 -27.451  1.00  0.00     0.001 A 
HETATM   32  C   UNL     1      -4.795   6.540 -26.928  1.00  0.00     0.000 A 
HETATM   33  C   UNL     1      -4.046   7.343 -27.785  1.00  0.00     0.001 A 
HETATM   34  C   UNL     1      -4.117   7.147 -29.166  1.00  0.00     0.009 A 
ENDBRANCH  28  29
ENDBRANCH   2  28
TORSDOF 5
ENDMDL
MODEL 6
REMARK VINA RESULT:      -8.7      4.560      7.783
REMARK  5 active torsions:
REMARK  status: ('A' for Active; 'I' for Inactive)
REMARK    1  A    between atoms: C_2  and  C_3 
REMARK       I    between atoms: C_3  and  N_4 
REMARK    2  A    between atoms: N_4  and  N_5 
REMARK    3  A    between atoms: N_5  and  C_6 
REMARK    4  A    between atoms: N_7  and  C_8 
REMARK    5  A    between atoms: C_8  and  C_9 
ROOT
HETATM    1  C   UNL     1      -8.280   4.776 -33.421  1.00  0.00     0.200 A 
HETATM    2  N   UNL     1      -8.799   3.577 -32.975  1.00  0.00    -0.283 N 
HETATM    3  C   UNL     1     -10.118   3.237 -33.222  1.00  0.00     0.259 A 
HETATM    4  O   UNL     1     -10.605   2.181 -32.821  1.00  0.00    -0.267 OA
HETATM    5  C   UNL     1     -10.937   4.198 -34.011  1.00  0.00     0.049 A 
HETATM    6  C   UNL     1     -10.284   5.295 -34.441  1.00  0.00     0.083 A 
HETATM    7  C   UNL     1     -11.001   6.270 -35.306  1.00  0.00    -0.000 A 
HETATM    8  C   UNL     1     -12.404   6.275 -35.345  1.00  0.00    -0.044 A 
HETATM    9  C   UNL     1     -13.088   7.214 -36.129  1.00  0.00     0.008 A 
HETATM   10  C   UNL     1     -12.379   8.135 -36.899  1.00  0.00     0.001 A 
HETATM   11  C   UNL     1     -10.988   8.129 -36.882  1.00  0.00     0.001 A 
HETATM   12  C   UNL     1     -10.304   7.206 -36.088  1.00  0.00     0.014 A 
HETATM   13  C   UNL     1     -13.153   5.298 -34.483  1.00  0.00     0.054 C 
HETATM   14  C   UNL     1     -12.416   3.937 -34.347  1.00  0.00    -0.002 C 
HETATM   15  C   UNL     1     -12.537   3.120 -35.657  1.00  0.00     0.015 C 
HETATM   16  C   UNL     1     -12.535   1.666 -35.214  1.00  0.00     0.001 C 
HETATM   17  C   UNL     1     -13.332   1.667 -33.919  1.00  0.00     0.001 C 
HETATM   18  C   UNL     1     -13.223   3.080 -33.335  1.00  0.00     0.015 C 
HETATM   19  N   UNL     1      -8.988   5.599 -34.142  1.00  0.00    -0.218 NA
ENDROOT
BRANCH   1  20
HETATM   20  N   UNL     1      -6.980   5.144 -33.101  1.00  0.00    -0.188 NA
HETATM   21  H   UNL     1      -6.887   5.973 -32.513  1.00  0.00     0.150 HD
BRANCH  20  22
HETATM   22  N   UNL     1      -6.135   5.257 -34.244  1.00  0.00    -0.189 NA
HETATM   23  C   UNL     1      -4.859   4.754 -34.063  1.00  0.00     0.210 C 
HETATM   24  O   UNL     1      -4.574   3.982 -33.148  1.00  0.00    -0.279 OA
HETATM   25  H   UNL     1      -6.229   6.174 -34.686  1.00  0.00     0.150 HD
BRANCH  23  26
HETATM   26  C   UNL     1      -3.851   5.257 -35.072  1.00  0.00     0.093 C 
HETATM   27  C   UNL     1      -2.437   5.012 -34.576  1.00  0.00     0.014 C 
ENDBRANCH  23  26
ENDBRANCH  20  22
ENDBRANCH   1  20
BRANCH   2  28
HETATM   28  C   UNL     1      -7.973   2.575 -32.297  1.00  0.00     0.173 C 
BRANCH  28  29
HETATM   29  C   UNL     1      -7.604   1.420 -33.208  1.00  0.00    -0.040 A 
HETATM   30  C   UNL     1      -7.251   1.645 -34.547  1.00  0.00     0.009 A 
HETATM   31  C   UNL     1      -6.922   0.576 -35.383  1.00  0.00     0.001 A 
HETATM   32  C   UNL     1      -6.941  -0.728 -34.891  1.00  0.00     0.000 A 
HETATM   33  C   UNL     1      -7.285  -0.965 -33.563  1.00  0.00     0.001 A 
HETATM   34  C   UNL     1      -7.611   0.103 -32.725  1.00  0.00     0.009 A 
ENDBRANCH  28  29
ENDBRANCH   2  28
TORSDOF 5
ENDMDL
MODEL 7
REMARK VINA RESULT:      -8.7      2.692      6.222
REMARK  5 active torsions:
REMARK  status: ('A' for Active; 'I' for Inactive)
REMARK    1  A    between atoms: C_2  and  C_3 
REMARK       I    between atoms: C_3  and  N_4 
REMARK    2  A    between atoms: N_4  and  N_5 
REMARK    3  A    between atoms: N_5  and  C_6 
REMARK    4  A    between atoms: N_7  and  C_8 
REMARK    5  A    between atoms: C_8  and  C_9 
ROOT
HETATM    1  C   UNL     1      -7.430   4.761 -32.547  1.00  0.00     0.200 A 
HETATM    2  N   UNL     1      -6.487   3.776 -32.334  1.00  0.00    -0.283 N 
HETATM    3  C   UNL     1      -6.744   2.459 -32.678  1.00  0.00     0.259 A 
HETATM    4  O   UNL     1      -5.924   1.563 -32.483  1.00  0.00    -0.267 OA
HETATM    5  C   UNL     1      -8.058   2.161 -33.310  1.00  0.00     0.049 A 
HETATM    6  C   UNL     1      -8.854   3.228 -33.520  1.00  0.00     0.083 A 
HETATM    7  C   UNL     1     -10.151   3.035 -34.223  1.00  0.00    -0.000 A 
HETATM    8  C   UNL     1     -10.722   1.756 -34.303  1.00  0.00    -0.044 A 
HETATM    9  C   UNL     1     -11.962   1.572 -34.931  1.00  0.00     0.008 A 
HETATM   10  C   UNL     1     -12.625   2.655 -35.505  1.00  0.00     0.001 A 
HETATM   11  C   UNL     1     -12.061   3.925 -35.447  1.00  0.00     0.001 A 
HETATM   12  C   UNL     1     -10.835   4.114 -34.807  1.00  0.00     0.014 A 
HETATM   13  C   UNL     1     -10.010   0.605 -33.649  1.00  0.00     0.054 C 
HETATM   14  C   UNL     1      -8.464   0.737 -33.732  1.00  0.00    -0.002 C 
HETATM   15  C   UNL     1      -7.969   0.436 -35.168  1.00  0.00     0.015 C 
HETATM   16  C   UNL     1      -6.588  -0.171 -34.987  1.00  0.00     0.001 C 
HETATM   17  C   UNL     1      -6.715  -1.027 -33.737  1.00  0.00     0.001 C 
HETATM   18  C   UNL     1      -7.861  -0.434 -32.911  1.00  0.00     0.015 C 
HETATM   19  N   UNL     1      -8.565   4.504 -33.133  1.00  0.00    -0.218 NA
ENDROOT
BRANCH   1  20
HETATM   20  N   UNL     1      -7.196   6.064 -32.127  1.00  0.00    -0.188 NA
HETATM   21  H   UNL     1      -6.234   6.277 -31.859  1.00  0.00     0.150 HD
BRANCH  20  22
HETATM   22  N   UNL     1      -8.095   6.491 -31.106  1.00  0.00    -0.189 NA
HETATM   23  C   UNL     1      -7.552   6.502 -29.834  1.00  0.00     0.210 C 
HETATM   24  O   UNL     1      -6.338   6.484 -29.631  1.00  0.00    -0.279 OA
HETATM   25  H   UNL     1      -9.020   6.072 -31.226  1.00  0.00     0.150 HD
BRANCH  23  26
HETATM   26  C   UNL     1      -8.580   6.514 -28.726  1.00  0.00     0.093 C 
HETATM   27  C   UNL     1      -9.546   7.670 -28.911  1.00  0.00     0.014 C 
ENDBRANCH  23  26
ENDBRANCH  20  22
ENDBRANCH   1  20
BRANCH   2  28
HETATM   28  C   UNL     1      -5.150   4.076 -31.818  1.00  0.00     0.173 C 
BRANCH  28  29
HETATM   29  C   UNL     1      -4.178   4.450 -32.919  1.00  0.00    -0.040 A 
HETATM   30  C   UNL     1      -4.640   4.871 -34.175  1.00  0.00     0.009 A 
HETATM   31  C   UNL     1      -3.739   5.206 -35.188  1.00  0.00     0.001 A 
HETATM   32  C   UNL     1      -2.367   5.125 -34.959  1.00  0.00     0.000 A 
HETATM   33  C   UNL     1      -1.894   4.713 -33.715  1.00  0.00     0.001 A 
HETATM   34  C   UNL     1      -2.793   4.381 -32.701  1.00  0.00     0.009 A 
ENDBRANCH  28  29
ENDBRANCH   2  28
TORSDOF 5
ENDMDL
MODEL 8
REMARK VINA RESULT:      -8.6     15.632     17.712
REMARK  5 active torsions:
REMARK  status: ('A' for Active; 'I' for Inactive)
REMARK    1  A    between atoms: C_2  and  C_3 
REMARK       I    between atoms: C_3  and  N_4 
REMARK    2  A    between atoms: N_4  and  N_5 
REMARK    3  A    between atoms: N_5  and  C_6 
REMARK    4  A    between atoms: N_7  and  C_8 
REMARK    5  A    between atoms: C_8  and  C_9 
ROOT
HETATM    1  C   UNL     1      -5.090 -12.954 -39.375  1.00  0.00     0.200 A 
HETATM    2  N   UNL     1      -6.278 -12.832 -38.682  1.00  0.00    -0.283 N 
HETATM    3  C   UNL     1      -6.413 -13.351 -37.406  1.00  0.00     0.259 A 
HETATM    4  O   UNL     1      -7.466 -13.267 -36.776  1.00  0.00    -0.267 OA
HETATM    5  C   UNL     1      -5.221 -14.011 -36.805  1.00  0.00     0.049 A 
HETATM    6  C   UNL     1      -4.109 -13.998 -37.566  1.00  0.00     0.083 A 
HETATM    7  C   UNL     1      -2.848 -14.561 -37.013  1.00  0.00    -0.000 A 
HETATM    8  C   UNL     1      -2.892 -15.438 -35.918  1.00  0.00    -0.044 A 
HETATM    9  C   UNL     1      -1.712 -16.003 -35.415  1.00  0.00     0.008 A 
HETATM   10  C   UNL     1      -0.481 -15.676 -35.980  1.00  0.00     0.001 A 
HETATM   11  C   UNL     1      -0.423 -14.795 -37.055  1.00  0.00     0.001 A 
HETATM   12  C   UNL     1      -1.598 -14.245 -37.570  1.00  0.00     0.014 A 
HETATM   13  C   UNL     1      -4.230 -15.806 -35.342  1.00  0.00     0.054 C 
HETATM   14  C   UNL     1      -5.246 -14.631 -35.396  1.00  0.00    -0.002 C 
HETATM   15  C   UNL     1      -4.900 -13.563 -34.330  1.00  0.00     0.015 C 
HETATM   16  C   UNL     1      -6.237 -12.963 -33.928  1.00  0.00     0.001 C 
HETATM   17  C   UNL     1      -7.196 -14.144 -33.936  1.00  0.00     0.001 C 
HETATM   18  C   UNL     1      -6.609 -15.182 -34.899  1.00  0.00     0.015 C 
HETATM   19  N   UNL     1      -4.038 -13.499 -38.835  1.00  0.00    -0.218 NA
ENDROOT
BRANCH   1  20
HETATM   20  N   UNL     1      -4.988 -12.501 -40.684  1.00  0.00    -0.188 NA
HETATM   21  H   UNL     1      -5.851 -12.521 -41.228  1.00  0.00     0.150 HD
BRANCH  20  22
HETATM   22  N   UNL     1      -3.935 -13.132 -41.411  1.00  0.00    -0.189 NA
HETATM   23  C   UNL     1      -4.361 -14.073 -42.332  1.00  0.00     0.210 C 
HETATM   24  O   UNL     1      -5.521 -14.125 -42.738  1.00  0.00    -0.279 OA
HETATM   25  H   UNL     1      -3.158 -13.383 -40.797  1.00  0.00     0.150 HD
BRANCH  23  26
HETATM   26  C   UNL     1      -3.282 -15.038 -42.768  1.00  0.00     0.093 C 
HETATM   27  C   UNL     1      -2.266 -15.236 -41.659  1.00  0.00     0.014 C 
ENDBRANCH  23  26
ENDBRANCH  20  22
ENDBRANCH   1  20
BRANCH   2  28
HETATM   28  C   UNL     1      -7.419 -12.086 -39.218  1.00  0.00     0.173 C 
BRANCH  28  29
HETATM   29  C   UNL     1      -8.494 -12.999 -39.773  1.00  0.00    -0.040 A 
HETATM   30  C   UNL     1      -8.164 -14.238 -40.340  1.00  0.00     0.009 A 
HETATM   31  C   UNL     1      -9.159 -15.070 -40.858  1.00  0.00     0.001 A 
HETATM   32  C   UNL     1     -10.494 -14.674 -40.814  1.00  0.00     0.000 A 
HETATM   33  C   UNL     1     -10.837 -13.448 -40.250  1.00  0.00     0.001 A 
HETATM   34  C   UNL     1      -9.844 -12.617 -39.729  1.00  0.00     0.009 A 
ENDBRANCH  28  29
ENDBRANCH   2  28
TORSDOF 5
ENDMDL
MODEL 9
REMARK VINA RESULT:      -8.6      2.252      6.883
REMARK  5 active torsions:
REMARK  status: ('A' for Active; 'I' for Inactive)
REMARK    1  A    between atoms: C_2  and  C_3 
REMARK       I    between atoms: C_3  and  N_4 
REMARK    2  A    between atoms: N_4  and  N_5 
REMARK    3  A    between atoms: N_5  and  C_6 
REMARK    4  A    between atoms: N_7  and  C_8 
REMARK    5  A    between atoms: C_8  and  C_9 
ROOT
HETATM    1  C   UNL     1      -4.668   2.154 -31.875  1.00  0.00     0.200 A 
HETATM    2  N   UNL     1      -5.539   2.557 -30.883  1.00  0.00    -0.283 N 
HETATM    3  C   UNL     1      -5.481   3.838 -30.362  1.00  0.00     0.259 A 
HETATM    4  O   UNL     1      -6.238   4.212 -29.467  1.00  0.00    -0.267 OA
HETATM    5  C   UNL     1      -4.468   4.766 -30.935  1.00  0.00     0.049 A 
HETATM    6  C   UNL     1      -3.730   4.262 -31.944  1.00  0.00     0.083 A 
HETATM    7  C   UNL     1      -2.749   5.144 -32.633  1.00  0.00    -0.000 A 
HETATM    8  C   UNL     1      -2.306   6.321 -32.010  1.00  0.00    -0.044 A 
HETATM    9  C   UNL     1      -1.355   7.139 -32.636  1.00  0.00     0.008 A 
HETATM   10  C   UNL     1      -0.861   6.803 -33.895  1.00  0.00     0.001 A 
HETATM   11  C   UNL     1      -1.306   5.648 -34.530  1.00  0.00     0.001 A 
HETATM   12  C   UNL     1      -2.240   4.822 -33.901  1.00  0.00     0.014 A 
HETATM   13  C   UNL     1      -2.823   6.650 -30.638  1.00  0.00     0.054 C 
HETATM   14  C   UNL     1      -4.301   6.212 -30.437  1.00  0.00    -0.002 C 
HETATM   15  C   UNL     1      -5.257   7.161 -31.201  1.00  0.00     0.015 C 
HETATM   16  C   UNL     1      -6.532   7.181 -30.373  1.00  0.00     0.001 C 
HETATM   17  C   UNL     1      -6.046   7.143 -28.933  1.00  0.00     0.001 C 
HETATM   18  C   UNL     1      -4.661   6.487 -28.952  1.00  0.00     0.015 C 
HETATM   19  N   UNL     1      -3.806   2.978 -32.401  1.00  0.00    -0.218 NA
ENDROOT
BRANCH   1  20
HETATM   20  N   UNL     1      -4.680   0.845 -32.337  1.00  0.00    -0.188 NA
HETATM   21  H   UNL     1      -3.765   0.429 -32.515  1.00  0.00     0.150 HD
BRANCH  20  22
HETATM   22  N   UNL     1      -5.532   0.660 -33.466  1.00  0.00    -0.189 NA
HETATM   23  C   UNL     1      -6.001  -0.632 -33.622  1.00  0.00     0.210 C 
HETATM   24  O   UNL     1      -5.981  -1.459 -32.711  1.00  0.00    -0.279 OA
HETATM   25  H   UNL     1      -5.162   1.137 -34.291  1.00  0.00     0.150 HD
BRANCH  23  26
HETATM   26  C   UNL     1      -6.513  -0.937 -35.011  1.00  0.00     0.093 C 
HETATM   27  C   UNL     1      -7.619   0.030 -35.393  1.00  0.00     0.014 C 
ENDBRANCH  23  26
ENDBRANCH  20  22
ENDBRANCH   1  20
BRANCH   2  28
HETATM   28  C   UNL     1      -6.613   1.690 -30.392  1.00  0.00     0.173 C 
BRANCH  28  29
HETATM   29  C   UNL     1      -7.809   1.670 -31.323  1.00  0.00    -0.040 A 
HETATM   30  C   UNL     1      -8.188   2.820 -32.032  1.00  0.00     0.009 A 
HETATM   31  C   UNL     1      -9.296   2.797 -32.882  1.00  0.00     0.001 A 
HETATM   32  C   UNL     1     -10.037   1.627 -33.034  1.00  0.00     0.000 A 
HETATM   33  C   UNL     1      -9.669   0.477 -32.339  1.00  0.00     0.001 A 
HETATM   34  C   UNL     1      -8.560   0.497 -31.492  1.00  0.00     0.009 A 
ENDBRANCH  28  29
ENDBRANCH   2  28
TORSDOF 5
ENDMDL
MODEL 10
REMARK VINA RESULT:      -8.6      1.523      2.073
REMARK  5 active torsions:
REMARK  status: ('A' for Active; 'I' for Inactive)
REMARK    1  A    between atoms: C_2  and  C_3 
REMARK       I    between atoms: C_3  and  N_4 
REMARK    2  A    between atoms: N_4  and  N_5 
REMARK    3  A    between atoms: N_5  and  C_6 
REMARK    4  A    between atoms: N_7  and  C_8 
REMARK    5  A    between atoms: C_8  and  C_9 
ROOT
HETATM    1  C   UNL     1      -4.837   4.101 -32.379  1.00  0.00     0.200 A 
HETATM    2  N   UNL     1      -6.130   4.313 -32.815  1.00  0.00    -0.283 N 
HETATM    3  C   UNL     1      -6.915   3.261 -33.254  1.00  0.00     0.259 A 
HETATM    4  O   UNL     1      -8.063   3.430 -33.661  1.00  0.00    -0.267 OA
HETATM    5  C   UNL     1      -6.321   1.897 -33.206  1.00  0.00     0.049 A 
HETATM    6  C   UNL     1      -5.076   1.827 -32.695  1.00  0.00     0.083 A 
HETATM    7  C   UNL     1      -4.435   0.494 -32.532  1.00  0.00    -0.000 A 
HETATM    8  C   UNL     1      -4.921  -0.610 -33.249  1.00  0.00    -0.044 A 
HETATM    9  C   UNL     1      -4.300  -1.861 -33.129  1.00  0.00     0.008 A 
HETATM   10  C   UNL     1      -3.211  -2.025 -32.275  1.00  0.00     0.001 A 
HETATM   11  C   UNL     1      -2.731  -0.942 -31.546  1.00  0.00     0.001 A 
HETATM   12  C   UNL     1      -3.336   0.310 -31.677  1.00  0.00     0.014 A 
HETATM   13  C   UNL     1      -6.075  -0.409 -34.191  1.00  0.00     0.054 C 
HETATM   14  C   UNL     1      -7.090   0.647 -33.671  1.00  0.00    -0.002 C 
HETATM   15  C   UNL     1      -7.932   0.066 -32.509  1.00  0.00     0.015 C 
HETATM   16  C   UNL     1      -9.281   0.756 -32.620  1.00  0.00     0.001 C 
HETATM   17  C   UNL     1      -9.524   0.868 -34.117  1.00  0.00     0.001 C 
HETATM   18  C   UNL     1      -8.147   0.853 -34.789  1.00  0.00     0.015 C 
HETATM   19  N   UNL     1      -4.332   2.902 -32.304  1.00  0.00    -0.218 NA
ENDROOT
BRANCH   1  20
HETATM   20  N   UNL     1      -4.030   5.170 -32.015  1.00  0.00    -0.188 NA
HETATM   21  H   UNL     1      -3.723   5.773 -32.779  1.00  0.00     0.150 HD
BRANCH  20  22
HETATM   22  N   UNL     1      -2.914   4.781 -31.218  1.00  0.00    -0.189 NA
HETATM   23  C   UNL     1      -1.875   5.695 -31.204  1.00  0.00     0.210 C 
HETATM   24  O   UNL     1      -2.019   6.867 -31.549  1.00  0.00    -0.279 OA
HETATM   25  H   UNL     1      -2.681   3.796 -31.362  1.00  0.00     0.150 HD
BRANCH  23  26
HETATM   26  C   UNL     1      -0.553   5.117 -30.753  1.00  0.00     0.093 C 
HETATM   27  C   UNL     1       0.533   6.176 -30.800  1.00  0.00     0.014 C 
ENDBRANCH  23  26
ENDBRANCH  20  22
ENDBRANCH   1  20
BRANCH   2  28
HETATM   28  C   UNL     1      -6.763   5.633 -32.759  1.00  0.00     0.173 C 
BRANCH  28  29
HETATM   29  C   UNL     1      -7.318   5.949 -31.385  1.00  0.00    -0.040 A 
HETATM   30  C   UNL     1      -6.678   6.871 -30.544  1.00  0.00     0.009 A 
HETATM   31  C   UNL     1      -7.190   7.150 -29.275  1.00  0.00     0.001 A 
HETATM   32  C   UNL     1      -8.348   6.512 -28.832  1.00  0.00     0.000 A 
HETATM   33  C   UNL     1      -8.996   5.598 -29.659  1.00  0.00     0.001 A 
HETATM   34  C   UNL     1      -8.487   5.320 -30.929  1.00  0.00     0.009 A 
ENDBRANCH  28  29
ENDBRANCH   2  28
TORSDOF 5
ENDMDL
