MODEL 1
REMARK VINA RESULT:      -8.6      0.000      0.000
REMARK  4 active torsions:
REMARK  status: ('A' for Active; 'I' for Inactive)
REMARK    1  A    between atoms: O_2  and  C_3 
REMARK    2  A    between atoms: C_3  and  C_4 
REMARK    3  A    between atoms: C_12  and  N_13 
REMARK       I    between atoms: N_13  and  C_14 
REMARK    4  A    between atoms: C_14  and  C_15 
ROOT
HETATM    1  N   UNL     1      -7.515   0.538 -32.507  1.00  0.00    -0.323 N 
HETATM    2  C   UNL     1      -6.359   0.683 -33.246  1.00  0.00     0.258 C 
HETATM    3  O   UNL     1      -6.047   1.698 -33.863  1.00  0.00    -0.267 OA
HETATM    4  H   UNL     1      -7.634  -0.341 -32.019  1.00  0.00     0.169 HD
ENDROOT
BRANCH   1   5
HETATM    5  C   UNL     1      -8.565   1.466 -32.336  1.00  0.00     0.036 A 
HETATM    6  C   UNL     1      -8.524   2.539 -31.443  1.00  0.00     0.032 A 
HETATM    7  C   UNL     1      -9.593   3.438 -31.321  1.00  0.00     0.034 A 
HETATM    8  C   UNL     1     -10.709   3.220 -32.130  1.00  0.00     0.063 A 
HETATM    9  N   UNL     1     -11.887   3.899 -32.251  1.00  0.00    -0.277 N 
HETATM   10  C   UNL     1     -10.798   2.166 -33.029  1.00  0.00     0.031 A 
HETATM   11  N   UNL     1     -12.737   3.377 -33.149  1.00  0.00    -0.167 NA
HETATM   12  H   UNL     1     -12.174   4.731 -31.747  1.00  0.00     0.189 HD
HETATM   13  C   UNL     1     -12.084   2.302 -33.640  1.00  0.00     0.164 A 
HETATM   14  C   UNL     1      -9.707   1.277 -33.135  1.00  0.00     0.046 A 
BRANCH  13  15
HETATM   15  C   UNL     1     -12.664   1.419 -34.665  1.00  0.00     0.314 C 
HETATM   16  O   UNL     1     -12.497   1.582 -35.870  1.00  0.00    -0.257 OA
BRANCH  15  17
HETATM   17  O   UNL     1     -13.408   0.398 -34.135  1.00  0.00    -0.321 OA
HETATM   18  C   UNL     1     -14.817   0.563 -34.273  1.00  0.00     0.213 C 
ENDBRANCH  15  17
ENDBRANCH  13  15
ENDBRANCH   1   5
BRANCH   2  19
HETATM   19  C   UNL     1      -5.459  -0.484 -33.253  1.00  0.00     0.063 A 
HETATM   20  C   UNL     1      -5.564  -1.801 -33.835  1.00  0.00     0.046 A 
HETATM   21  C   UNL     1      -4.385  -2.493 -33.527  1.00  0.00     0.046 A 
HETATM   22  C   UNL     1      -6.524  -2.498 -34.600  1.00  0.00     0.130 A 
HETATM   23  C   UNL     1      -4.137  -3.810 -33.941  1.00  0.00     0.030 A 
HETATM   24  N   UNL     1      -3.594  -1.647 -32.791  1.00  0.00    -0.364 N 
HETATM   25  C   UNL     1      -5.118  -4.457 -34.698  1.00  0.00     0.005 A 
HETATM   26  C   UNL     1      -6.302  -3.809 -35.026  1.00  0.00     0.043 A 
HETATM   27  H   UNL     1      -2.678  -1.881 -32.430  1.00  0.00     0.165 HD
HETATM   28  C   UNL     1      -4.221  -0.449 -32.625  1.00  0.00     0.106 A 
HETATM   29  F   UNL     1      -7.685  -1.913 -34.936  1.00  0.00    -0.205 F 
ENDBRANCH   2  19
TORSDOF 4
ENDMDL
MODEL 2
REMARK VINA RESULT:      -8.5      2.428      7.724
REMARK  4 active torsions:
REMARK  status: ('A' for Active; 'I' for Inactive)
REMARK    1  A    between atoms: O_2  and  C_3 
REMARK    2  A    between atoms: C_3  and  C_4 
REMARK    3  A    between atoms: C_12  and  N_13 
REMARK       I    between atoms: N_13  and  C_14 
REMARK    4  A    between atoms: C_14  and  C_15 
ROOT
HETATM    1  N   UNL     1      -7.292   0.835 -33.333  1.00  0.00    -0.323 N 
HETATM    2  C   UNL     1      -8.555   0.863 -32.778  1.00  0.00     0.258 C 
HETATM    3  O   UNL     1      -8.849   0.386 -31.686  1.00  0.00    -0.267 OA
HETATM    4  H   UNL     1      -7.179   1.296 -34.227  1.00  0.00     0.169 HD
ENDROOT
BRANCH   1   5
HETATM    5  C   UNL     1      -6.121   0.243 -32.811  1.00  0.00     0.036 A 
HETATM    6  C   UNL     1      -5.298   0.846 -31.858  1.00  0.00     0.032 A 
HETATM    7  C   UNL     1      -4.150   0.208 -31.365  1.00  0.00     0.034 A 
HETATM    8  C   UNL     1      -3.859  -1.061 -31.866  1.00  0.00     0.063 A 
HETATM    9  N   UNL     1      -2.840  -1.929 -31.596  1.00  0.00    -0.277 N 
HETATM   10  C   UNL     1      -4.645  -1.699 -32.816  1.00  0.00     0.031 A 
HETATM   11  N   UNL     1      -2.893  -3.077 -32.290  1.00  0.00    -0.167 NA
HETATM   12  H   UNL     1      -2.074  -1.797 -30.946  1.00  0.00     0.189 HD
HETATM   13  C   UNL     1      -4.000  -2.955 -33.053  1.00  0.00     0.164 A 
HETATM   14  C   UNL     1      -5.796  -1.037 -33.293  1.00  0.00     0.046 A 
BRANCH  13  15
HETATM   15  C   UNL     1      -4.440  -4.001 -33.990  1.00  0.00     0.314 C 
HETATM   16  O   UNL     1      -4.161  -5.189 -33.855  1.00  0.00    -0.257 OA
BRANCH  15  17
HETATM   17  O   UNL     1      -5.192  -3.513 -35.025  1.00  0.00    -0.321 OA
HETATM   18  C   UNL     1      -6.417  -4.211 -35.243  1.00  0.00     0.213 C 
ENDBRANCH  15  17
ENDBRANCH  13  15
ENDBRANCH   1   5
BRANCH   2  19
HETATM   19  C   UNL     1      -9.588   1.539 -33.584  1.00  0.00     0.063 A 
HETATM   20  C   UNL     1     -10.968   1.230 -33.869  1.00  0.00     0.046 A 
HETATM   21  C   UNL     1     -11.468   2.248 -34.691  1.00  0.00     0.046 A 
HETATM   22  C   UNL     1     -11.870   0.200 -33.520  1.00  0.00     0.130 A 
HETATM   23  C   UNL     1     -12.788   2.277 -35.162  1.00  0.00     0.030 A 
HETATM   24  N   UNL     1     -10.446   3.139 -34.905  1.00  0.00    -0.364 N 
HETATM   25  C   UNL     1     -13.643   1.236 -34.789  1.00  0.00     0.005 A 
HETATM   26  C   UNL     1     -13.190   0.205 -33.975  1.00  0.00     0.043 A 
HETATM   27  H   UNL     1     -10.520   3.979 -35.465  1.00  0.00     0.165 HD
HETATM   28  C   UNL     1      -9.324   2.729 -34.249  1.00  0.00     0.106 A 
HETATM   29  F   UNL     1     -11.474  -0.818 -32.740  1.00  0.00    -0.205 F 
ENDBRANCH   2  19
TORSDOF 4
ENDMDL
MODEL 3
REMARK VINA RESULT:      -8.5      4.815      6.861
REMARK  4 active torsions:
REMARK  status: ('A' for Active; 'I' for Inactive)
REMARK    1  A    between atoms: O_2  and  C_3 
REMARK    2  A    between atoms: C_3  and  C_4 
REMARK    3  A    between atoms: C_12  and  N_13 
REMARK       I    between atoms: N_13  and  C_14 
REMARK    4  A    between atoms: C_14  and  C_15 
ROOT
HETATM    1  N   UNL     1      -4.231   0.651 -31.944  1.00  0.00    -0.323 N 
HETATM    2  C   UNL     1      -4.847   0.013 -33.001  1.00  0.00     0.258 C 
HETATM    3  O   UNL     1      -5.601   0.557 -33.803  1.00  0.00    -0.267 OA
HETATM    4  H   UNL     1      -3.606   0.091 -31.379  1.00  0.00     0.169 HD
ENDROOT
BRANCH   1   5
HETATM    5  C   UNL     1      -4.355   2.000 -31.546  1.00  0.00     0.036 A 
HETATM    6  C   UNL     1      -5.471   2.522 -30.888  1.00  0.00     0.032 A 
HETATM    7  C   UNL     1      -5.537   3.869 -30.505  1.00  0.00     0.034 A 
HETATM    8  C   UNL     1      -4.440   4.676 -30.809  1.00  0.00     0.063 A 
HETATM    9  N   UNL     1      -4.197   6.000 -30.577  1.00  0.00    -0.277 N 
HETATM   10  C   UNL     1      -3.312   4.204 -31.465  1.00  0.00     0.031 A 
HETATM   11  N   UNL     1      -3.008   6.430 -31.027  1.00  0.00    -0.167 NA
HETATM   12  H   UNL     1      -4.804   6.666 -30.113  1.00  0.00     0.189 HD
HETATM   13  C   UNL     1      -2.445   5.337 -31.582  1.00  0.00     0.164 A 
HETATM   14  C   UNL     1      -3.268   2.844 -31.837  1.00  0.00     0.046 A 
BRANCH  13  15
HETATM   15  C   UNL     1      -1.116   5.360 -32.215  1.00  0.00     0.314 C 
HETATM   16  O   UNL     1      -0.131   4.804 -31.737  1.00  0.00    -0.257 OA
BRANCH  15  17
HETATM   17  O   UNL     1      -1.092   6.064 -33.389  1.00  0.00    -0.321 OA
HETATM   18  C   UNL     1      -1.595   5.349 -34.515  1.00  0.00     0.213 C 
ENDBRANCH  15  17
ENDBRANCH  13  15
ENDBRANCH   1   5
BRANCH   2  19
HETATM   19  C   UNL     1      -4.537  -1.421 -33.146  1.00  0.00     0.063 A 
HETATM   20  C   UNL     1      -5.157  -2.489 -33.891  1.00  0.00     0.046 A 
HETATM   21  C   UNL     1      -4.413  -3.653 -33.660  1.00  0.00     0.046 A 
HETATM   22  C   UNL     1      -6.271  -2.612 -34.751  1.00  0.00     0.130 A 
HETATM   23  C   UNL     1      -4.727  -4.893 -34.235  1.00  0.00     0.030 A 
HETATM   24  N   UNL     1      -3.386  -3.320 -32.811  1.00  0.00    -0.364 N 
HETATM   25  C   UNL     1      -5.837  -4.964 -35.079  1.00  0.00     0.005 A 
HETATM   26  C   UNL     1      -6.605  -3.835 -35.337  1.00  0.00     0.043 A 
HETATM   27  H   UNL     1      -2.685  -3.966 -32.472  1.00  0.00     0.165 HD
HETATM   28  C   UNL     1      -3.448  -1.995 -32.502  1.00  0.00     0.106 A 
HETATM   29  F   UNL     1      -7.043  -1.549 -35.024  1.00  0.00    -0.205 F 
ENDBRANCH   2  19
TORSDOF 4
ENDMDL
MODEL 4
REMARK VINA RESULT:      -8.5      1.512      2.089
REMARK  4 active torsions:
REMARK  status: ('A' for Active; 'I' for Inactive)
REMARK    1  A    between atoms: O_2  and  C_3 
REMARK    2  A    between atoms: C_3  and  C_4 
REMARK    3  A    between atoms: C_12  and  N_13 
REMARK       I    between atoms: N_13  and  C_14 
REMARK    4  A    between atoms: C_14  and  C_15 
ROOT
HETATM    1  N   UNL     1      -7.647  -0.368 -33.209  1.00  0.00    -0.323 N 
HETATM    2  C   UNL     1      -6.867  -0.547 -34.333  1.00  0.00     0.258 C 
HETATM    3  O   UNL     1      -6.786   0.253 -35.261  1.00  0.00    -0.267 OA
HETATM    4  H   UNL     1      -7.596  -1.091 -32.502  1.00  0.00     0.169 HD
ENDROOT
BRANCH   1   5
HETATM    5  C   UNL     1      -8.514   0.705 -32.909  1.00  0.00     0.036 A 
HETATM    6  C   UNL     1      -8.236   1.696 -31.965  1.00  0.00     0.032 A 
HETATM    7  C   UNL     1      -9.130   2.746 -31.714  1.00  0.00     0.034 A 
HETATM    8  C   UNL     1     -10.317   2.766 -32.446  1.00  0.00     0.063 A 
HETATM    9  N   UNL     1     -11.372   3.633 -32.440  1.00  0.00    -0.277 N 
HETATM   10  C   UNL     1     -10.640   1.801 -33.391  1.00  0.00     0.031 A 
HETATM   11  N   UNL     1     -12.354   3.316 -33.298  1.00  0.00    -0.167 NA
HETATM   12  H   UNL     1     -11.482   4.465 -31.871  1.00  0.00     0.189 HD
HETATM   13  C   UNL     1     -11.923   2.185 -33.895  1.00  0.00     0.164 A 
HETATM   14  C   UNL     1      -9.722   0.756 -33.628  1.00  0.00     0.046 A 
BRANCH  13  15
HETATM   15  C   UNL     1     -12.709   1.476 -34.918  1.00  0.00     0.314 C 
HETATM   16  O   UNL     1     -12.696   1.779 -36.108  1.00  0.00    -0.257 OA
BRANCH  15  17
HETATM   17  O   UNL     1     -13.452   0.446 -34.408  1.00  0.00    -0.321 OA
HETATM   18  C   UNL     1     -14.805   0.786 -34.112  1.00  0.00     0.213 C 
ENDBRANCH  15  17
ENDBRANCH  13  15
ENDBRANCH   1   5
BRANCH   2  19
HETATM   19  C   UNL     1      -6.082  -1.794 -34.370  1.00  0.00     0.063 A 
HETATM   20  C   UNL     1      -4.985  -2.287 -33.574  1.00  0.00     0.046 A 
HETATM   21  C   UNL     1      -4.646  -3.556 -34.061  1.00  0.00     0.046 A 
HETATM   22  C   UNL     1      -4.230  -1.809 -32.480  1.00  0.00     0.130 A 
HETATM   23  C   UNL     1      -3.618  -4.339 -33.516  1.00  0.00     0.030 A 
HETATM   24  N   UNL     1      -5.490  -3.831 -35.108  1.00  0.00    -0.364 N 
HETATM   25  C   UNL     1      -2.901  -3.823 -32.434  1.00  0.00     0.005 A 
HETATM   26  C   UNL     1      -3.202  -2.568 -31.918  1.00  0.00     0.043 A 
HETATM   27  H   UNL     1      -5.476  -4.683 -35.653  1.00  0.00     0.165 HD
HETATM   28  C   UNL     1      -6.350  -2.791 -35.298  1.00  0.00     0.106 A 
HETATM   29  F   UNL     1      -4.483  -0.600 -31.952  1.00  0.00    -0.205 F 
ENDBRANCH   2  19
TORSDOF 4
ENDMDL
MODEL 5
REMARK VINA RESULT:      -8.3      4.643      7.176
REMARK  4 active torsions:
REMARK  status: ('A' for Active; 'I' for Inactive)
REMARK    1  A    between atoms: O_2  and  C_3 
REMARK    2  A    between atoms: C_3  and  C_4 
REMARK    3  A    between atoms: C_12  and  N_13 
REMARK       I    between atoms: N_13  and  C_14 
REMARK    4  A    between atoms: C_14  and  C_15 
ROOT
HETATM    1  N   UNL     1      -4.657   0.853 -32.529  1.00  0.00    -0.323 N 
HETATM    2  C   UNL     1      -5.713   0.312 -33.233  1.00  0.00     0.258 C 
HETATM    3  O   UNL     1      -6.783   0.880 -33.434  1.00  0.00    -0.267 OA
HETATM    4  H   UNL     1      -3.818   0.290 -32.465  1.00  0.00     0.169 HD
ENDROOT
BRANCH   1   5
HETATM    5  C   UNL     1      -4.590   2.106 -31.880  1.00  0.00     0.036 A 
HETATM    6  C   UNL     1      -5.600   2.619 -31.064  1.00  0.00     0.032 A 
HETATM    7  C   UNL     1      -5.477   3.867 -30.436  1.00  0.00     0.034 A 
HETATM    8  C   UNL     1      -4.299   4.582 -30.657  1.00  0.00     0.063 A 
HETATM    9  N   UNL     1      -3.878   5.798 -30.200  1.00  0.00    -0.277 N 
HETATM   10  C   UNL     1      -3.270   4.115 -31.462  1.00  0.00     0.031 A 
HETATM   11  N   UNL     1      -2.664   6.164 -30.640  1.00  0.00    -0.167 NA
HETATM   12  H   UNL     1      -4.375   6.430 -29.582  1.00  0.00     0.189 HD
HETATM   13  C   UNL     1      -2.271   5.139 -31.425  1.00  0.00     0.164 A 
HETATM   14  C   UNL     1      -3.417   2.855 -32.081  1.00  0.00     0.046 A 
BRANCH  13  15
HETATM   15  C   UNL     1      -0.978   5.126 -32.129  1.00  0.00     0.314 C 
HETATM   16  O   UNL     1       0.096   4.935 -31.565  1.00  0.00    -0.257 OA
BRANCH  15  17
HETATM   17  O   UNL     1      -1.097   5.348 -33.474  1.00  0.00    -0.321 OA
HETATM   18  C   UNL     1      -1.227   6.721 -33.836  1.00  0.00     0.213 C 
ENDBRANCH  15  17
ENDBRANCH  13  15
ENDBRANCH   1   5
BRANCH   2  19
HETATM   19  C   UNL     1      -5.488  -1.040 -33.775  1.00  0.00     0.063 A 
HETATM   20  C   UNL     1      -4.646  -2.136 -33.361  1.00  0.00     0.046 A 
HETATM   21  C   UNL     1      -4.856  -3.192 -34.258  1.00  0.00     0.046 A 
HETATM   22  C   UNL     1      -3.723  -2.368 -32.317  1.00  0.00     0.130 A 
HETATM   23  C   UNL     1      -4.203  -4.429 -34.155  1.00  0.00     0.030 A 
HETATM   24  N   UNL     1      -5.780  -2.768 -35.181  1.00  0.00    -0.364 N 
HETATM   25  C   UNL     1      -3.300  -4.610 -33.105  1.00  0.00     0.005 A 
HETATM   26  C   UNL     1      -3.059  -3.590 -32.192  1.00  0.00     0.043 A 
HETATM   27  H   UNL     1      -6.125  -3.326 -35.951  1.00  0.00     0.165 HD
HETATM   28  C   UNL     1      -6.165  -1.491 -34.901  1.00  0.00     0.106 A 
HETATM   29  F   UNL     1      -3.457  -1.410 -31.417  1.00  0.00    -0.205 F 
ENDBRANCH   2  19
TORSDOF 4
ENDMDL
MODEL 6
REMARK VINA RESULT:      -8.1      4.624      7.349
REMARK  4 active torsions:
REMARK  status: ('A' for Active; 'I' for Inactive)
REMARK    1  A    between atoms: O_2  and  C_3 
REMARK    2  A    between atoms: C_3  and  C_4 
REMARK    3  A    between atoms: C_12  and  N_13 
REMARK       I    between atoms: N_13  and  C_14 
REMARK    4  A    between atoms: C_14  and  C_15 
ROOT
HETATM    1  N   UNL     1      -5.777   2.381 -32.075  1.00  0.00    -0.323 N 
HETATM    2  C   UNL     1      -5.531   1.065 -31.744  1.00  0.00     0.258 C 
HETATM    3  O   UNL     1      -4.825   0.700 -30.808  1.00  0.00    -0.267 OA
HETATM    4  H   UNL     1      -6.406   2.543 -32.852  1.00  0.00     0.169 HD
ENDROOT
BRANCH   1   5
HETATM    5  C   UNL     1      -5.264   3.546 -31.465  1.00  0.00     0.036 A 
HETATM    6  C   UNL     1      -5.996   4.365 -30.603  1.00  0.00     0.032 A 
HETATM    7  C   UNL     1      -5.433   5.507 -30.015  1.00  0.00     0.034 A 
HETATM    8  C   UNL     1      -4.104   5.798 -30.325  1.00  0.00     0.063 A 
HETATM    9  N   UNL     1      -3.281   6.811 -29.925  1.00  0.00    -0.277 N 
HETATM   10  C   UNL     1      -3.337   5.016 -31.178  1.00  0.00     0.031 A 
HETATM   11  N   UNL     1      -2.046   6.758 -30.446  1.00  0.00    -0.167 NA
HETATM   12  H   UNL     1      -3.504   7.574 -29.295  1.00  0.00     0.189 HD
HETATM   13  C   UNL     1      -2.059   5.658 -31.226  1.00  0.00     0.164 A 
HETATM   14  C   UNL     1      -3.926   3.870 -31.754  1.00  0.00     0.046 A 
BRANCH  13  15
HETATM   15  C   UNL     1      -0.890   5.220 -32.006  1.00  0.00     0.314 C 
HETATM   16  O   UNL     1       0.155   4.828 -31.493  1.00  0.00    -0.257 OA
BRANCH  15  17
HETATM   17  O   UNL     1      -1.087   5.293 -33.358  1.00  0.00    -0.321 OA
HETATM   18  C   UNL     1      -1.242   6.619 -33.860  1.00  0.00     0.213 C 
ENDBRANCH  15  17
ENDBRANCH  13  15
ENDBRANCH   1   5
BRANCH   2  19
HETATM   19  C   UNL     1      -6.196   0.061 -32.593  1.00  0.00     0.063 A 
HETATM   20  C   UNL     1      -5.718  -1.111 -33.287  1.00  0.00     0.046 A 
HETATM   21  C   UNL     1      -6.814  -1.697 -33.932  1.00  0.00     0.046 A 
HETATM   22  C   UNL     1      -4.472  -1.758 -33.444  1.00  0.00     0.130 A 
HETATM   23  C   UNL     1      -6.718  -2.866 -34.702  1.00  0.00     0.030 A 
HETATM   24  N   UNL     1      -7.914  -0.924 -33.653  1.00  0.00    -0.364 N 
HETATM   25  C   UNL     1      -5.465  -3.470 -34.826  1.00  0.00     0.005 A 
HETATM   26  C   UNL     1      -4.349  -2.923 -34.204  1.00  0.00     0.043 A 
HETATM   27  H   UNL     1      -8.851  -1.110 -33.988  1.00  0.00     0.165 HD
HETATM   28  C   UNL     1      -7.559   0.121 -32.855  1.00  0.00     0.106 A 
HETATM   29  F   UNL     1      -3.368  -1.262 -32.865  1.00  0.00    -0.205 F 
ENDBRANCH   2  19
TORSDOF 4
ENDMDL
MODEL 7
REMARK VINA RESULT:      -8.0      2.484      8.242
REMARK  4 active torsions:
REMARK  status: ('A' for Active; 'I' for Inactive)
REMARK    1  A    between atoms: O_2  and  C_3 
REMARK    2  A    between atoms: C_3  and  C_4 
REMARK    3  A    between atoms: C_12  and  N_13 
REMARK       I    between atoms: N_13  and  C_14 
REMARK    4  A    between atoms: C_14  and  C_15 
ROOT
HETATM    1  N   UNL     1      -8.557   0.362 -34.236  1.00  0.00    -0.323 N 
HETATM    2  C   UNL     1      -9.639   0.492 -33.389  1.00  0.00     0.258 C 
HETATM    3  O   UNL     1      -9.752  -0.077 -32.307  1.00  0.00    -0.267 OA
HETATM    4  H   UNL     1      -8.576   0.914 -35.083  1.00  0.00     0.169 HD
ENDROOT
BRANCH   1   5
HETATM    5  C   UNL     1      -7.412  -0.447 -34.071  1.00  0.00     0.036 A 
HETATM    6  C   UNL     1      -7.133  -1.575 -34.847  1.00  0.00     0.032 A 
HETATM    7  C   UNL     1      -5.973  -2.338 -34.647  1.00  0.00     0.034 A 
HETATM    8  C   UNL     1      -5.102  -1.927 -33.637  1.00  0.00     0.063 A 
HETATM    9  N   UNL     1      -3.915  -2.440 -33.200  1.00  0.00    -0.277 N 
HETATM   10  C   UNL     1      -5.339  -0.817 -32.838  1.00  0.00     0.031 A 
HETATM   11  N   UNL     1      -3.359  -1.761 -32.185  1.00  0.00    -0.167 NA
HETATM   12  H   UNL     1      -3.428  -3.256 -33.556  1.00  0.00     0.189 HD
HETATM   13  C   UNL     1      -4.225  -0.755 -31.943  1.00  0.00     0.164 A 
HETATM   14  C   UNL     1      -6.511  -0.064 -33.061  1.00  0.00     0.046 A 
BRANCH  13  15
HETATM   15  C   UNL     1      -4.007   0.245 -30.885  1.00  0.00     0.314 C 
HETATM   16  O   UNL     1      -4.693   0.314 -29.869  1.00  0.00    -0.257 OA
BRANCH  15  17
HETATM   17  O   UNL     1      -2.961   1.089 -31.150  1.00  0.00    -0.321 OA
HETATM   18  C   UNL     1      -3.350   2.391 -31.580  1.00  0.00     0.213 C 
ENDBRANCH  15  17
ENDBRANCH  13  15
ENDBRANCH   1   5
BRANCH   2  19
HETATM   19  C   UNL     1     -10.703   1.401 -33.852  1.00  0.00     0.063 A 
HETATM   20  C   UNL     1     -10.699   2.779 -34.279  1.00  0.00     0.046 A 
HETATM   21  C   UNL     1     -12.013   3.119 -34.625  1.00  0.00     0.046 A 
HETATM   22  C   UNL     1      -9.726   3.794 -34.423  1.00  0.00     0.130 A 
HETATM   23  C   UNL     1     -12.382   4.388 -35.093  1.00  0.00     0.030 A 
HETATM   24  N   UNL     1     -12.791   2.006 -34.419  1.00  0.00    -0.364 N 
HETATM   25  C   UNL     1     -11.384   5.357 -35.219  1.00  0.00     0.005 A 
HETATM   26  C   UNL     1     -10.066   5.066 -34.888  1.00  0.00     0.043 A 
HETATM   27  H   UNL     1     -13.787   1.958 -34.586  1.00  0.00     0.165 HD
HETATM   28  C   UNL     1     -12.021   0.978 -33.963  1.00  0.00     0.106 A 
HETATM   29  F   UNL     1      -8.443   3.558 -34.110  1.00  0.00    -0.205 F 
ENDBRANCH   2  19
TORSDOF 4
ENDMDL
MODEL 8
REMARK VINA RESULT:      -7.9     14.767     18.120
REMARK  4 active torsions:
REMARK  status: ('A' for Active; 'I' for Inactive)
REMARK    1  A    between atoms: O_2  and  C_3 
REMARK    2  A    between atoms: C_3  and  C_4 
REMARK    3  A    between atoms: C_12  and  N_13 
REMARK       I    between atoms: N_13  and  C_14 
REMARK    4  A    between atoms: C_14  and  C_15 
ROOT
HETATM    1  N   UNL     1      -3.493 -14.180 -38.688  1.00  0.00    -0.323 N 
HETATM    2  C   UNL     1      -4.095 -13.094 -38.087  1.00  0.00     0.258 C 
HETATM    3  O   UNL     1      -3.522 -12.045 -37.805  1.00  0.00    -0.267 OA
HETATM    4  H   UNL     1      -4.089 -14.971 -38.896  1.00  0.00     0.169 HD
ENDROOT
BRANCH   1   5
HETATM    5  C   UNL     1      -2.139 -14.335 -39.057  1.00  0.00     0.036 A 
HETATM    6  C   UNL     1      -1.620 -13.971 -40.301  1.00  0.00     0.032 A 
HETATM    7  C   UNL     1      -0.263 -14.138 -40.612  1.00  0.00     0.034 A 
HETATM    8  C   UNL     1       0.558 -14.685 -39.625  1.00  0.00     0.063 A 
HETATM    9  N   UNL     1       1.893 -14.968 -39.611  1.00  0.00    -0.277 N 
HETATM   10  C   UNL     1       0.088 -15.065 -38.375  1.00  0.00     0.031 A 
HETATM   11  N   UNL     1       2.333 -15.502 -38.461  1.00  0.00    -0.167 NA
HETATM   12  H   UNL     1       2.562 -14.820 -40.358  1.00  0.00     0.189 HD
HETATM   13  C   UNL     1       1.233 -15.573 -37.683  1.00  0.00     0.164 A 
HETATM   14  C   UNL     1      -1.281 -14.884 -38.086  1.00  0.00     0.046 A 
BRANCH  13  15
HETATM   15  C   UNL     1       1.259 -16.114 -36.315  1.00  0.00     0.314 C 
HETATM   16  O   UNL     1       0.257 -16.228 -35.614  1.00  0.00    -0.257 OA
BRANCH  15  17
HETATM   17  O   UNL     1       2.514 -16.476 -35.904  1.00  0.00    -0.321 OA
HETATM   18  C   UNL     1       2.689 -16.493 -34.489  1.00  0.00     0.213 C 
ENDBRANCH  15  17
ENDBRANCH  13  15
ENDBRANCH   1   5
BRANCH   2  19
HETATM   19  C   UNL     1      -5.532 -13.244 -37.797  1.00  0.00     0.063 A 
HETATM   20  C   UNL     1      -6.721 -12.991 -38.573  1.00  0.00     0.046 A 
HETATM   21  C   UNL     1      -7.824 -13.334 -37.780  1.00  0.00     0.046 A 
HETATM   22  C   UNL     1      -7.002 -12.511 -39.872  1.00  0.00     0.130 A 
HETATM   23  C   UNL     1      -9.151 -13.221 -38.220  1.00  0.00     0.030 A 
HETATM   24  N   UNL     1      -7.339 -13.775 -36.574  1.00  0.00    -0.364 N 
HETATM   25  C   UNL     1      -9.378 -12.743 -39.513  1.00  0.00     0.005 A 
HETATM   26  C   UNL     1      -8.314 -12.390 -40.334  1.00  0.00     0.043 A 
HETATM   27  H   UNL     1      -7.912 -14.091 -35.802  1.00  0.00     0.165 HD
HETATM   28  C   UNL     1      -5.978 -13.728 -36.574  1.00  0.00     0.106 A 
HETATM   29  F   UNL     1      -6.006 -12.154 -40.698  1.00  0.00    -0.205 F 
ENDBRANCH   2  19
TORSDOF 4
ENDMDL
MODEL 9
REMARK VINA RESULT:      -7.8      2.609      7.844
REMARK  4 active torsions:
REMARK  status: ('A' for Active; 'I' for Inactive)
REMARK    1  A    between atoms: O_2  and  C_3 
REMARK    2  A    between atoms: C_3  and  C_4 
REMARK    3  A    between atoms: C_12  and  N_13 
REMARK       I    between atoms: N_13  and  C_14 
REMARK    4  A    between atoms: C_14  and  C_15 
ROOT
HETATM    1  N   UNL     1      -8.009   0.681 -33.077  1.00  0.00    -0.323 N 
HETATM    2  C   UNL     1      -9.220   0.673 -32.416  1.00  0.00     0.258 C 
HETATM    3  O   UNL     1      -9.365   0.418 -31.224  1.00  0.00    -0.267 OA
HETATM    4  H   UNL     1      -8.027   0.941 -34.055  1.00  0.00     0.169 HD
ENDROOT
BRANCH   1   5
HETATM    5  C   UNL     1      -6.731   0.373 -32.561  1.00  0.00     0.036 A 
HETATM    6  C   UNL     1      -6.067   1.144 -31.605  1.00  0.00     0.032 A 
HETATM    7  C   UNL     1      -4.801   0.786 -31.119  1.00  0.00     0.034 A 
HETATM    8  C   UNL     1      -4.224  -0.378 -31.630  1.00  0.00     0.063 A 
HETATM    9  N   UNL     1      -3.031  -0.988 -31.369  1.00  0.00    -0.277 N 
HETATM   10  C   UNL     1      -4.844  -1.174 -32.583  1.00  0.00     0.031 A 
HETATM   11  N   UNL     1      -2.819  -2.112 -32.072  1.00  0.00    -0.167 NA
HETATM   12  H   UNL     1      -2.314  -0.687 -30.719  1.00  0.00     0.189 HD
HETATM   13  C   UNL     1      -3.927  -2.244 -32.831  1.00  0.00     0.164 A 
HETATM   14  C   UNL     1      -6.119  -0.794 -33.054  1.00  0.00     0.046 A 
BRANCH  13  15
HETATM   15  C   UNL     1      -4.116  -3.357 -33.776  1.00  0.00     0.314 C 
HETATM   16  O   UNL     1      -3.590  -4.458 -33.636  1.00  0.00    -0.257 OA
BRANCH  15  17
HETATM   17  O   UNL     1      -4.937  -3.039 -34.824  1.00  0.00    -0.321 OA
HETATM   18  C   UNL     1      -5.928  -4.022 -35.114  1.00  0.00     0.213 C 
ENDBRANCH  15  17
ENDBRANCH  13  15
ENDBRANCH   1   5
BRANCH   2  19
HETATM   19  C   UNL     1     -10.394   1.016 -33.239  1.00  0.00     0.063 A 
HETATM   20  C   UNL     1     -10.704   2.141 -34.087  1.00  0.00     0.046 A 
HETATM   21  C   UNL     1     -11.974   1.920 -34.636  1.00  0.00     0.046 A 
HETATM   22  C   UNL     1     -10.050   3.334 -34.468  1.00  0.00     0.130 A 
HETATM   23  C   UNL     1     -12.595   2.815 -35.519  1.00  0.00     0.030 A 
HETATM   24  N   UNL     1     -12.427   0.720 -34.148  1.00  0.00    -0.364 N 
HETATM   25  C   UNL     1     -11.908   3.980 -35.866  1.00  0.00     0.005 A 
HETATM   26  C   UNL     1     -10.646   4.241 -35.346  1.00  0.00     0.043 A 
HETATM   27  H   UNL     1     -13.321   0.304 -34.376  1.00  0.00     0.165 HD
HETATM   28  C   UNL     1     -11.495   0.172 -33.319  1.00  0.00     0.106 A 
HETATM   29  F   UNL     1      -8.833   3.629 -33.986  1.00  0.00    -0.205 F 
ENDBRANCH   2  19
TORSDOF 4
ENDMDL
MODEL 10
REMARK VINA RESULT:      -7.8      5.518      8.164
REMARK  4 active torsions:
REMARK  status: ('A' for Active; 'I' for Inactive)
REMARK    1  A    between atoms: O_2  and  C_3 
REMARK    2  A    between atoms: C_3  and  C_4 
REMARK    3  A    between atoms: C_12  and  N_13 
REMARK       I    between atoms: N_13  and  C_14 
REMARK    4  A    between atoms: C_14  and  C_15 
ROOT
HETATM    1  N   UNL     1      -3.603   2.569 -32.513  1.00  0.00    -0.323 N 
HETATM    2  C   UNL     1      -4.105   1.624 -31.642  1.00  0.00     0.258 C 
HETATM    3  O   UNL     1      -4.680   1.881 -30.588  1.00  0.00    -0.267 OA
HETATM    4  H   UNL     1      -3.181   2.221 -33.365  1.00  0.00     0.169 HD
ENDROOT
BRANCH   1   5
HETATM    5  C   UNL     1      -3.603   3.974 -32.373  1.00  0.00     0.036 A 
HETATM    6  C   UNL     1      -4.657   4.800 -32.769  1.00  0.00     0.032 A 
HETATM    7  C   UNL     1      -4.608   6.190 -32.597  1.00  0.00     0.034 A 
HETATM    8  C   UNL     1      -3.459   6.724 -32.011  1.00  0.00     0.063 A 
HETATM    9  N   UNL     1      -3.109   8.008 -31.709  1.00  0.00    -0.277 N 
HETATM   10  C   UNL     1      -2.385   5.944 -31.605  1.00  0.00     0.031 A 
HETATM   11  N   UNL     1      -1.898   8.133 -31.144  1.00  0.00    -0.167 NA
HETATM   12  H   UNL     1      -3.654   8.849 -31.865  1.00  0.00     0.189 HD
HETATM   13  C   UNL     1      -1.431   6.869 -31.073  1.00  0.00     0.164 A 
HETATM   14  C   UNL     1      -2.460   4.546 -31.786  1.00  0.00     0.046 A 
BRANCH  13  15
HETATM   15  C   UNL     1      -0.109   6.538 -30.516  1.00  0.00     0.314 C 
HETATM   16  O   UNL     1       0.943   6.711 -31.126  1.00  0.00    -0.257 OA
BRANCH  15  17
HETATM   17  O   UNL     1      -0.174   6.021 -29.250  1.00  0.00    -0.321 OA
HETATM   18  C   UNL     1       0.600   6.728 -28.284  1.00  0.00     0.213 C 
ENDBRANCH  15  17
ENDBRANCH  13  15
ENDBRANCH   1   5
BRANCH   2  19
HETATM   19  C   UNL     1      -3.929   0.221 -32.056  1.00  0.00     0.063 A 
HETATM   20  C   UNL     1      -4.609  -0.611 -33.020  1.00  0.00     0.046 A 
HETATM   21  C   UNL     1      -3.996  -1.871 -32.997  1.00  0.00     0.046 A 
HETATM   22  C   UNL     1      -5.679  -0.446 -33.926  1.00  0.00     0.130 A 
HETATM   23  C   UNL     1      -4.398  -2.935 -33.816  1.00  0.00     0.030 A 
HETATM   24  N   UNL     1      -2.991  -1.820 -32.063  1.00  0.00    -0.364 N 
HETATM   25  C   UNL     1      -5.461  -2.722 -34.697  1.00  0.00     0.005 A 
HETATM   26  C   UNL     1      -6.099  -1.489 -34.754  1.00  0.00     0.043 A 
HETATM   27  H   UNL     1      -2.377  -2.591 -31.833  1.00  0.00     0.165 HD
HETATM   28  C   UNL     1      -2.940  -0.580 -31.500  1.00  0.00     0.106 A 
HETATM   29  F   UNL     1      -6.327   0.727 -34.010  1.00  0.00    -0.205 F 
ENDBRANCH   2  19
TORSDOF 4
ENDMDL
