MODEL 1
REMARK VINA RESULT:      -8.5      0.000      0.000
REMARK  9 active torsions:
REMARK  status: ('A' for Active; 'I' for Inactive)
REMARK    1  A    between atoms: C_5  and  N_6 
REMARK       I    between atoms: N_6  and  C_7 
REMARK    2  A    between atoms: C_7  and  C_8 
REMARK    3  A    between atoms: C_8  and  S_9 
REMARK    4  A    between atoms: S_9  and  C_10 
REMARK    5  A    between atoms: C_11  and  C_12 
REMARK       I    between atoms: C_12  and  N_13 
REMARK    6  A    between atoms: N_13  and  C_14 
REMARK    7  A    between atoms: C_14  and  C_15 
REMARK    8  A    between atoms: C_15  and  N_16 
REMARK    9  A    between atoms: C_15  and  C_22 
ROOT
HETATM    1  C   UNL     1      -3.485   4.236 -32.602  1.00  0.00     0.016 A 
HETATM    2  C   UNL     1      -4.151   4.479 -33.814  1.00  0.00     0.048 A 
HETATM    3  C   UNL     1      -3.505   5.141 -34.873  1.00  0.00     0.018 A 
HETATM    4  C   UNL     1      -2.189   5.570 -34.730  1.00  0.00     0.001 A 
HETATM    5  C   UNL     1      -1.530   5.375 -33.520  1.00  0.00     0.001 A 
HETATM    6  C   UNL     1      -2.181   4.735 -32.463  1.00  0.00     0.019 A 
ENDROOT
BRANCH   2   7
HETATM    7  C   UNL     1      -5.565   4.126 -34.051  1.00  0.00     0.253 C 
HETATM    8  N   UNL     1      -6.500   5.084 -33.694  1.00  0.00    -0.354 N 
HETATM    9  H   UNL     1      -6.122   5.906 -33.233  1.00  0.00     0.162 HD
HETATM   10  O   UNL     1      -5.866   3.005 -34.438  1.00  0.00    -0.268 OA
BRANCH   8  11
HETATM   11  C   UNL     1      -7.847   4.656 -33.311  1.00  0.00     0.161 C 
BRANCH  11  12
HETATM   12  C   UNL     1      -7.926   3.746 -32.052  1.00  0.00     0.245 C 
BRANCH  12  13
HETATM   13  N   UNL     1      -8.548   4.354 -30.787  1.00  0.00    -0.061 N 
HETATM   14  H   UNL     1      -9.305   3.702 -30.543  1.00  0.00     0.280 HD
HETATM   15  C   UNL     1      -9.195   5.722 -30.833  1.00  0.00     0.236 C 
HETATM   16  C   UNL     1      -8.282   6.638 -30.032  1.00  0.00     0.029 C 
HETATM   17  C   UNL     1      -7.063   5.808 -29.676  1.00  0.00     0.029 C 
HETATM   18  C   UNL     1      -7.610   4.402 -29.609  1.00  0.00     0.236 C 
ENDBRANCH  12  13
BRANCH  12  19
HETATM   19  C   UNL     1      -8.630   2.449 -32.402  1.00  0.00     0.015 A 
HETATM   20  S   UNL     1      -9.394   2.260 -33.931  1.00  0.00    -0.104 SA
HETATM   21  C   UNL     1      -9.873   0.663 -33.569  1.00  0.00     0.050 A 
HETATM   22  C   UNL     1      -9.460   0.271 -32.316  1.00  0.00     0.008 A 
HETATM   23  C   UNL     1      -8.746   1.303 -31.638  1.00  0.00     0.017 A 
ENDBRANCH  12  19
ENDBRANCH  11  12
ENDBRANCH   8  11
ENDBRANCH   2   7
BRANCH   1  24
HETATM   24  S   UNL     1      -4.263   3.423 -31.212  1.00  0.00    -0.120 SA
BRANCH  24  25
HETATM   25  C   UNL     1      -3.486   1.765 -31.267  1.00  0.00     0.182 C 
BRANCH  25  26
HETATM   26  C   UNL     1      -4.487   0.684 -31.640  1.00  0.00     0.231 C 
HETATM   27  N   UNL     1      -4.490   0.407 -33.000  1.00  0.00    -0.327 N 
HETATM   28  H   UNL     1      -4.027   1.059 -33.617  1.00  0.00     0.169 HD
HETATM   29  O   UNL     1      -5.170   0.125 -30.788  1.00  0.00    -0.272 OA
BRANCH  27  30
HETATM   30  C   UNL     1      -5.052  -0.719 -33.635  1.00  0.00     0.034 A 
HETATM   31  C   UNL     1      -6.372  -0.786 -34.082  1.00  0.00     0.030 A 
HETATM   32  C   UNL     1      -6.877  -1.971 -34.626  1.00  0.00     0.009 A 
HETATM   33  C   UNL     1      -6.071  -3.108 -34.731  1.00  0.00    -0.062 A 
HETATM   34  C   UNL     1      -6.620  -4.369 -35.330  1.00  0.00     0.048 C 
HETATM   35  C   UNL     1      -4.740  -3.034 -34.313  1.00  0.00     0.009 A 
HETATM   36  C   UNL     1      -4.238  -1.852 -33.763  1.00  0.00     0.030 A 
ENDBRANCH  27  30
ENDBRANCH  25  26
ENDBRANCH  24  25
ENDBRANCH   1  24
TORSDOF 9
ENDMDL
MODEL 2
REMARK VINA RESULT:      -8.3      4.559      6.761
REMARK  9 active torsions:
REMARK  status: ('A' for Active; 'I' for Inactive)
REMARK    1  A    between atoms: C_5  and  N_6 
REMARK       I    between atoms: N_6  and  C_7 
REMARK    2  A    between atoms: C_7  and  C_8 
REMARK    3  A    between atoms: C_8  and  S_9 
REMARK    4  A    between atoms: S_9  and  C_10 
REMARK    5  A    between atoms: C_11  and  C_12 
REMARK       I    between atoms: C_12  and  N_13 
REMARK    6  A    between atoms: N_13  and  C_14 
REMARK    7  A    between atoms: C_14  and  C_15 
REMARK    8  A    between atoms: C_15  and  N_16 
REMARK    9  A    between atoms: C_15  and  C_22 
ROOT
HETATM    1  C   UNL     1      -2.544   4.339 -32.484  1.00  0.00     0.016 A 
HETATM    2  C   UNL     1      -1.493   5.189 -32.107  1.00  0.00     0.048 A 
HETATM    3  C   UNL     1      -0.987   6.151 -32.998  1.00  0.00     0.018 A 
HETATM    4  C   UNL     1      -1.524   6.271 -34.277  1.00  0.00     0.001 A 
HETATM    5  C   UNL     1      -2.538   5.407 -34.680  1.00  0.00     0.001 A 
HETATM    6  C   UNL     1      -3.024   4.438 -33.798  1.00  0.00     0.019 A 
ENDROOT
BRANCH   2   7
HETATM    7  C   UNL     1      -0.806   5.106 -30.803  1.00  0.00     0.253 C 
HETATM    8  N   UNL     1      -1.281   5.945 -29.809  1.00  0.00    -0.354 N 
HETATM    9  H   UNL     1      -2.009   6.591 -30.099  1.00  0.00     0.162 HD
HETATM   10  O   UNL     1       0.191   4.409 -30.673  1.00  0.00    -0.268 OA
BRANCH   8  11
HETATM   11  C   UNL     1      -0.367   6.391 -28.756  1.00  0.00     0.161 C 
BRANCH  11  12
HETATM   12  C   UNL     1      -1.036   7.114 -27.552  1.00  0.00     0.245 C 
BRANCH  12  13
HETATM   13  N   UNL     1      -0.114   7.589 -26.421  1.00  0.00    -0.061 N 
HETATM   14  H   UNL     1      -0.342   6.966 -25.635  1.00  0.00     0.280 HD
HETATM   15  C   UNL     1      -0.240   8.994 -25.869  1.00  0.00     0.236 C 
HETATM   16  C   UNL     1       1.016   9.726 -26.314  1.00  0.00     0.029 C 
HETATM   17  C   UNL     1       1.755   8.771 -27.233  1.00  0.00     0.029 C 
HETATM   18  C   UNL     1       1.354   7.412 -26.714  1.00  0.00     0.236 C 
ENDBRANCH  12  13
BRANCH  12  19
HETATM   19  C   UNL     1      -1.877   8.271 -28.055  1.00  0.00     0.015 A 
HETATM   20  S   UNL     1      -3.472   8.510 -27.460  1.00  0.00    -0.104 SA
HETATM   21  C   UNL     1      -3.693   9.905 -28.418  1.00  0.00     0.050 A 
HETATM   22  C   UNL     1      -2.580  10.193 -29.175  1.00  0.00     0.008 A 
HETATM   23  C   UNL     1      -1.532   9.249 -28.971  1.00  0.00     0.017 A 
ENDBRANCH  12  19
ENDBRANCH  11  12
ENDBRANCH   8  11
ENDBRANCH   2   7
BRANCH   1  24
HETATM   24  S   UNL     1      -3.212   3.080 -31.403  1.00  0.00    -0.120 SA
BRANCH  24  25
HETATM   25  C   UNL     1      -4.910   2.886 -32.059  1.00  0.00     0.182 C 
BRANCH  25  26
HETATM   26  C   UNL     1      -5.350   1.431 -32.069  1.00  0.00     0.231 C 
HETATM   27  N   UNL     1      -5.510   0.931 -33.354  1.00  0.00    -0.327 N 
HETATM   28  H   UNL     1      -5.543   1.592 -34.118  1.00  0.00     0.169 HD
HETATM   29  O   UNL     1      -5.499   0.803 -31.026  1.00  0.00    -0.272 OA
BRANCH  27  30
HETATM   30  C   UNL     1      -5.607  -0.423 -33.732  1.00  0.00     0.034 A 
HETATM   31  C   UNL     1      -4.536  -1.316 -33.716  1.00  0.00     0.030 A 
HETATM   32  C   UNL     1      -4.695  -2.623 -34.188  1.00  0.00     0.009 A 
HETATM   33  C   UNL     1      -5.928  -3.057 -34.683  1.00  0.00    -0.062 A 
HETATM   34  C   UNL     1      -6.091  -4.465 -35.173  1.00  0.00     0.048 C 
HETATM   35  C   UNL     1      -7.011  -2.174 -34.670  1.00  0.00     0.009 A 
HETATM   36  C   UNL     1      -6.849  -0.867 -34.206  1.00  0.00     0.030 A 
ENDBRANCH  27  30
ENDBRANCH  25  26
ENDBRANCH  24  25
ENDBRANCH   1  24
TORSDOF 9
ENDMDL
MODEL 3
REMARK VINA RESULT:      -8.3      1.775      3.210
REMARK  9 active torsions:
REMARK  status: ('A' for Active; 'I' for Inactive)
REMARK    1  A    between atoms: C_5  and  N_6 
REMARK       I    between atoms: N_6  and  C_7 
REMARK    2  A    between atoms: C_7  and  C_8 
REMARK    3  A    between atoms: C_8  and  S_9 
REMARK    4  A    between atoms: S_9  and  C_10 
REMARK    5  A    between atoms: C_11  and  C_12 
REMARK       I    between atoms: C_12  and  N_13 
REMARK    6  A    between atoms: N_13  and  C_14 
REMARK    7  A    between atoms: C_14  and  C_15 
REMARK    8  A    between atoms: C_15  and  N_16 
REMARK    9  A    between atoms: C_15  and  C_22 
ROOT
HETATM    1  C   UNL     1      -4.017   4.147 -32.652  1.00  0.00     0.016 A 
HETATM    2  C   UNL     1      -4.789   4.165 -33.824  1.00  0.00     0.048 A 
HETATM    3  C   UNL     1      -4.366   4.881 -34.957  1.00  0.00     0.018 A 
HETATM    4  C   UNL     1      -3.167   5.588 -34.930  1.00  0.00     0.001 A 
HETATM    5  C   UNL     1      -2.411   5.614 -33.762  1.00  0.00     0.001 A 
HETATM    6  C   UNL     1      -2.846   4.918 -32.630  1.00  0.00     0.019 A 
ENDROOT
BRANCH   2   7
HETATM    7  C   UNL     1      -6.106   3.506 -33.943  1.00  0.00     0.253 C 
HETATM    8  N   UNL     1      -7.201   4.257 -33.549  1.00  0.00    -0.354 N 
HETATM    9  H   UNL     1      -6.982   5.163 -33.147  1.00  0.00     0.162 HD
HETATM   10  O   UNL     1      -6.180   2.329 -34.267  1.00  0.00    -0.268 OA
BRANCH   8  11
HETATM   11  C   UNL     1      -8.394   3.570 -33.052  1.00  0.00     0.161 C 
BRANCH  11  12
HETATM   12  C   UNL     1      -9.657   3.689 -33.951  1.00  0.00     0.245 C 
BRANCH  12  13
HETATM   13  N   UNL     1     -10.141   2.411 -34.650  1.00  0.00    -0.061 N 
HETATM   14  H   UNL     1      -9.934   2.576 -35.644  1.00  0.00     0.280 HD
HETATM   15  C   UNL     1     -11.603   2.019 -34.604  1.00  0.00     0.236 C 
HETATM   16  C   UNL     1     -11.671   0.780 -33.725  1.00  0.00     0.029 C 
HETATM   17  C   UNL     1     -10.273   0.582 -33.170  1.00  0.00     0.029 C 
HETATM   18  C   UNL     1      -9.389   1.170 -34.243  1.00  0.00     0.236 C 
ENDBRANCH  12  13
BRANCH  12  19
HETATM   19  C   UNL     1     -10.792   4.307 -33.158  1.00  0.00     0.015 A 
HETATM   20  S   UNL     1     -11.740   5.570 -33.838  1.00  0.00    -0.104 SA
HETATM   21  C   UNL     1     -12.723   5.672 -32.446  1.00  0.00     0.050 A 
HETATM   22  C   UNL     1     -12.348   4.764 -31.482  1.00  0.00     0.008 A 
HETATM   23  C   UNL     1     -11.231   3.978 -31.889  1.00  0.00     0.017 A 
ENDBRANCH  12  19
ENDBRANCH  11  12
ENDBRANCH   8  11
ENDBRANCH   2   7
BRANCH   1  24
HETATM   24  S   UNL     1      -4.517   3.276 -31.172  1.00  0.00    -0.120 SA
BRANCH  24  25
HETATM   25  C   UNL     1      -3.582   1.709 -31.326  1.00  0.00     0.182 C 
BRANCH  25  26
HETATM   26  C   UNL     1      -4.498   0.529 -31.606  1.00  0.00     0.231 C 
HETATM   27  N   UNL     1      -4.509   0.168 -32.946  1.00  0.00    -0.327 N 
HETATM   28  H   UNL     1      -4.115   0.816 -33.613  1.00  0.00     0.169 HD
HETATM   29  O   UNL     1      -5.113  -0.029 -30.703  1.00  0.00    -0.272 OA
BRANCH  27  30
HETATM   30  C   UNL     1      -4.990  -1.037 -33.496  1.00  0.00     0.034 A 
HETATM   31  C   UNL     1      -4.205  -2.172 -33.696  1.00  0.00     0.030 A 
HETATM   32  C   UNL     1      -4.738  -3.301 -34.327  1.00  0.00     0.009 A 
HETATM   33  C   UNL     1      -6.064  -3.312 -34.769  1.00  0.00    -0.062 A 
HETATM   34  C   UNL     1      -6.628  -4.533 -35.431  1.00  0.00     0.048 C 
HETATM   35  C   UNL     1      -6.861  -2.187 -34.542  1.00  0.00     0.009 A 
HETATM   36  C   UNL     1      -6.326  -1.057 -33.918  1.00  0.00     0.030 A 
ENDBRANCH  27  30
ENDBRANCH  25  26
ENDBRANCH  24  25
ENDBRANCH   1  24
TORSDOF 9
ENDMDL
MODEL 4
REMARK VINA RESULT:      -8.2      1.725      3.179
REMARK  9 active torsions:
REMARK  status: ('A' for Active; 'I' for Inactive)
REMARK    1  A    between atoms: C_5  and  N_6 
REMARK       I    between atoms: N_6  and  C_7 
REMARK    2  A    between atoms: C_7  and  C_8 
REMARK    3  A    between atoms: C_8  and  S_9 
REMARK    4  A    between atoms: S_9  and  C_10 
REMARK    5  A    between atoms: C_11  and  C_12 
REMARK       I    between atoms: C_12  and  N_13 
REMARK    6  A    between atoms: N_13  and  C_14 
REMARK    7  A    between atoms: C_14  and  C_15 
REMARK    8  A    between atoms: C_15  and  N_16 
REMARK    9  A    between atoms: C_15  and  C_22 
ROOT
HETATM    1  C   UNL     1      -3.678   4.043 -32.649  1.00  0.00     0.016 A 
HETATM    2  C   UNL     1      -4.551   4.304 -33.716  1.00  0.00     0.048 A 
HETATM    3  C   UNL     1      -4.095   4.943 -34.882  1.00  0.00     0.018 A 
HETATM    4  C   UNL     1      -2.763   5.330 -34.992  1.00  0.00     0.001 A 
HETATM    5  C   UNL     1      -1.895   5.116 -33.926  1.00  0.00     0.001 A 
HETATM    6  C   UNL     1      -2.356   4.500 -32.760  1.00  0.00     0.019 A 
ENDROOT
BRANCH   2   7
HETATM    7  C   UNL     1      -5.995   3.997 -33.681  1.00  0.00     0.253 C 
HETATM    8  N   UNL     1      -6.837   5.058 -33.395  1.00  0.00    -0.354 N 
HETATM    9  H   UNL     1      -6.371   5.930 -33.163  1.00  0.00     0.162 HD
HETATM   10  O   UNL     1      -6.383   2.842 -33.792  1.00  0.00    -0.268 OA
BRANCH   8  11
HETATM   11  C   UNL     1      -8.126   4.792 -32.753  1.00  0.00     0.161 C 
BRANCH  11  12
HETATM   12  C   UNL     1      -9.223   4.195 -33.679  1.00  0.00     0.245 C 
BRANCH  12  13
HETATM   13  N   UNL     1     -10.098   3.076 -33.096  1.00  0.00    -0.061 N 
HETATM   14  H   UNL     1     -10.867   3.576 -32.632  1.00  0.00     0.280 HD
HETATM   15  C   UNL     1      -9.541   2.134 -32.050  1.00  0.00     0.236 C 
HETATM   16  C   UNL     1      -9.413   0.782 -32.735  1.00  0.00     0.029 C 
HETATM   17  C   UNL     1      -9.757   1.019 -34.194  1.00  0.00     0.029 C 
HETATM   18  C   UNL     1     -10.718   2.182 -34.139  1.00  0.00     0.236 C 
ENDBRANCH  12  13
BRANCH  12  19
HETATM   19  C   UNL     1     -10.099   5.310 -34.216  1.00  0.00     0.015 A 
HETATM   20  S   UNL     1     -11.364   5.963 -33.252  1.00  0.00    -0.104 SA
HETATM   21  C   UNL     1     -11.803   7.080 -34.466  1.00  0.00     0.050 A 
HETATM   22  C   UNL     1     -11.006   6.968 -35.583  1.00  0.00     0.008 A 
HETATM   23  C   UNL     1     -10.025   5.944 -35.443  1.00  0.00     0.017 A 
ENDBRANCH  12  19
ENDBRANCH  11  12
ENDBRANCH   8  11
ENDBRANCH   2   7
BRANCH   1  24
HETATM   24  S   UNL     1      -4.206   3.258 -31.131  1.00  0.00    -0.120 SA
BRANCH  24  25
HETATM   25  C   UNL     1      -3.447   1.598 -31.285  1.00  0.00     0.182 C 
BRANCH  25  26
HETATM   26  C   UNL     1      -4.468   0.543 -31.674  1.00  0.00     0.231 C 
HETATM   27  N   UNL     1      -4.461   0.269 -33.035  1.00  0.00    -0.327 N 
HETATM   28  H   UNL     1      -3.973   0.912 -33.644  1.00  0.00     0.169 HD
HETATM   29  O   UNL     1      -5.176  -0.001 -30.833  1.00  0.00    -0.272 OA
BRANCH  27  30
HETATM   30  C   UNL     1      -5.042  -0.841 -33.681  1.00  0.00     0.034 A 
HETATM   31  C   UNL     1      -6.352  -0.869 -34.158  1.00  0.00     0.030 A 
HETATM   32  C   UNL     1      -6.880  -2.040 -34.712  1.00  0.00     0.009 A 
HETATM   33  C   UNL     1      -6.107  -3.201 -34.795  1.00  0.00    -0.062 A 
HETATM   34  C   UNL     1      -6.679  -4.447 -35.403  1.00  0.00     0.048 C 
HETATM   35  C   UNL     1      -4.784  -3.167 -34.345  1.00  0.00     0.009 A 
HETATM   36  C   UNL     1      -4.259  -1.999 -33.786  1.00  0.00     0.030 A 
ENDBRANCH  27  30
ENDBRANCH  25  26
ENDBRANCH  24  25
ENDBRANCH   1  24
TORSDOF 9
ENDMDL
MODEL 5
REMARK VINA RESULT:      -8.1      3.536      6.890
REMARK  9 active torsions:
REMARK  status: ('A' for Active; 'I' for Inactive)
REMARK    1  A    between atoms: C_5  and  N_6 
REMARK       I    between atoms: N_6  and  C_7 
REMARK    2  A    between atoms: C_7  and  C_8 
REMARK    3  A    between atoms: C_8  and  S_9 
REMARK    4  A    between atoms: S_9  and  C_10 
REMARK    5  A    between atoms: C_11  and  C_12 
REMARK       I    between atoms: C_12  and  N_13 
REMARK    6  A    between atoms: N_13  and  C_14 
REMARK    7  A    between atoms: C_14  and  C_15 
REMARK    8  A    between atoms: C_15  and  N_16 
REMARK    9  A    between atoms: C_15  and  C_22 
ROOT
HETATM    1  C   UNL     1      -5.687   4.007 -31.172  1.00  0.00     0.016 A 
HETATM    2  C   UNL     1      -5.512   5.197 -30.449  1.00  0.00     0.048 A 
HETATM    3  C   UNL     1      -6.468   5.621 -29.511  1.00  0.00     0.018 A 
HETATM    4  C   UNL     1      -7.613   4.860 -29.288  1.00  0.00     0.001 A 
HETATM    5  C   UNL     1      -7.821   3.699 -30.027  1.00  0.00     0.001 A 
HETATM    6  C   UNL     1      -6.878   3.292 -30.973  1.00  0.00     0.019 A 
ENDROOT
BRANCH   2   7
HETATM    7  C   UNL     1      -4.371   6.113 -30.653  1.00  0.00     0.253 C 
HETATM    8  N   UNL     1      -3.314   5.976 -29.768  1.00  0.00    -0.354 N 
HETATM    9  H   UNL     1      -3.462   5.308 -29.018  1.00  0.00     0.162 HD
HETATM   10  O   UNL     1      -4.434   7.002 -31.491  1.00  0.00    -0.268 OA
BRANCH   8  11
HETATM   11  C   UNL     1      -2.473   7.139 -29.478  1.00  0.00     0.161 C 
BRANCH  11  12
HETATM   12  C   UNL     1      -0.941   6.875 -29.489  1.00  0.00     0.245 C 
BRANCH  12  13
HETATM   13  N   UNL     1      -0.248   6.835 -30.858  1.00  0.00    -0.061 N 
HETATM   14  H   UNL     1       0.618   7.372 -30.716  1.00  0.00     0.280 HD
HETATM   15  C   UNL     1      -0.910   7.452 -32.071  1.00  0.00     0.236 C 
HETATM   16  C   UNL     1      -1.302   6.288 -32.967  1.00  0.00     0.029 C 
HETATM   17  C   UNL     1      -0.990   5.029 -32.178  1.00  0.00     0.029 C 
HETATM   18  C   UNL     1       0.159   5.450 -31.295  1.00  0.00     0.236 C 
ENDBRANCH  12  13
BRANCH  12  19
HETATM   19  C   UNL     1      -0.244   7.874 -28.585  1.00  0.00     0.015 A 
HETATM   20  S   UNL     1      -1.159   9.019 -27.687  1.00  0.00    -0.104 SA
HETATM   21  C   UNL     1       0.244   9.682 -26.976  1.00  0.00     0.050 A 
HETATM   22  C   UNL     1       1.388   9.048 -27.403  1.00  0.00     0.008 A 
HETATM   23  C   UNL     1       1.109   8.007 -28.336  1.00  0.00     0.017 A 
ENDBRANCH  12  19
ENDBRANCH  11  12
ENDBRANCH   8  11
ENDBRANCH   2   7
BRANCH   1  24
HETATM   24  S   UNL     1      -4.517   3.431 -32.396  1.00  0.00    -0.120 SA
BRANCH  24  25
HETATM   25  C   UNL     1      -3.640   2.109 -31.482  1.00  0.00     0.182 C 
BRANCH  25  26
HETATM   26  C   UNL     1      -4.300   0.754 -31.674  1.00  0.00     0.231 C 
HETATM   27  N   UNL     1      -4.877   0.615 -32.928  1.00  0.00    -0.327 N 
HETATM   28  H   UNL     1      -5.002   1.448 -33.487  1.00  0.00     0.169 HD
HETATM   29  O   UNL     1      -4.270  -0.101 -30.795  1.00  0.00    -0.272 OA
BRANCH  27  30
HETATM   30  C   UNL     1      -5.293  -0.583 -33.543  1.00  0.00     0.034 A 
HETATM   31  C   UNL     1      -6.624  -0.899 -33.816  1.00  0.00     0.030 A 
HETATM   32  C   UNL     1      -6.961  -2.147 -34.351  1.00  0.00     0.009 A 
HETATM   33  C   UNL     1      -5.973  -3.098 -34.621  1.00  0.00    -0.062 A 
HETATM   34  C   UNL     1      -6.346  -4.427 -35.208  1.00  0.00     0.048 C 
HETATM   35  C   UNL     1      -4.637  -2.772 -34.377  1.00  0.00     0.009 A 
HETATM   36  C   UNL     1      -4.301  -1.529 -33.836  1.00  0.00     0.030 A 
ENDBRANCH  27  30
ENDBRANCH  25  26
ENDBRANCH  24  25
ENDBRANCH   1  24
TORSDOF 9
ENDMDL
MODEL 6
REMARK VINA RESULT:      -7.9      3.126      6.094
REMARK  9 active torsions:
REMARK  status: ('A' for Active; 'I' for Inactive)
REMARK    1  A    between atoms: C_5  and  N_6 
REMARK       I    between atoms: N_6  and  C_7 
REMARK    2  A    between atoms: C_7  and  C_8 
REMARK    3  A    between atoms: C_8  and  S_9 
REMARK    4  A    between atoms: S_9  and  C_10 
REMARK    5  A    between atoms: C_11  and  C_12 
REMARK       I    between atoms: C_12  and  N_13 
REMARK    6  A    between atoms: N_13  and  C_14 
REMARK    7  A    between atoms: C_14  and  C_15 
REMARK    8  A    between atoms: C_15  and  N_16 
REMARK    9  A    between atoms: C_15  and  C_22 
ROOT
HETATM    1  C   UNL     1      -5.849   3.604 -31.397  1.00  0.00     0.016 A 
HETATM    2  C   UNL     1      -5.879   4.789 -30.645  1.00  0.00     0.048 A 
HETATM    3  C   UNL     1      -6.927   5.048 -29.745  1.00  0.00     0.018 A 
HETATM    4  C   UNL     1      -7.958   4.126 -29.589  1.00  0.00     0.001 A 
HETATM    5  C   UNL     1      -7.965   2.967 -30.358  1.00  0.00     0.001 A 
HETATM    6  C   UNL     1      -6.933   2.722 -31.267  1.00  0.00     0.019 A 
ENDROOT
BRANCH   2   7
HETATM    7  C   UNL     1      -4.874   5.863 -30.778  1.00  0.00     0.253 C 
HETATM    8  N   UNL     1      -3.884   5.894 -29.811  1.00  0.00    -0.354 N 
HETATM    9  H   UNL     1      -3.991   5.219 -29.060  1.00  0.00     0.162 HD
HETATM   10  O   UNL     1      -5.000   6.724 -31.638  1.00  0.00    -0.268 OA
BRANCH   8  11
HETATM   11  C   UNL     1      -3.251   7.173 -29.480  1.00  0.00     0.161 C 
BRANCH  11  12
HETATM   12  C   UNL     1      -1.748   7.291 -29.859  1.00  0.00     0.245 C 
BRANCH  12  13
HETATM   13  N   UNL     1      -0.742   6.542 -28.974  1.00  0.00    -0.061 N 
HETATM   14  H   UNL     1      -0.834   5.560 -29.266  1.00  0.00     0.280 HD
HETATM   15  C   UNL     1      -0.905   6.531 -27.469  1.00  0.00     0.236 C 
HETATM   16  C   UNL     1       0.238   7.372 -26.922  1.00  0.00     0.029 C 
HETATM   17  C   UNL     1       0.936   7.967 -28.132  1.00  0.00     0.029 C 
HETATM   18  C   UNL     1       0.693   6.939 -29.210  1.00  0.00     0.236 C 
ENDBRANCH  12  13
BRANCH  12  19
HETATM   19  C   UNL     1      -1.554   6.897 -31.310  1.00  0.00     0.015 A 
HETATM   20  S   UNL     1      -1.205   5.267 -31.729  1.00  0.00    -0.104 SA
HETATM   21  C   UNL     1      -1.168   5.633 -33.396  1.00  0.00     0.050 A 
HETATM   22  C   UNL     1      -1.420   6.964 -33.638  1.00  0.00     0.008 A 
HETATM   23  C   UNL     1      -1.638   7.697 -32.435  1.00  0.00     0.017 A 
ENDBRANCH  12  19
ENDBRANCH  11  12
ENDBRANCH   8  11
ENDBRANCH   2   7
BRANCH   1  24
HETATM   24  S   UNL     1      -4.556   3.232 -32.575  1.00  0.00    -0.120 SA
BRANCH  24  25
HETATM   25  C   UNL     1      -3.502   2.077 -31.622  1.00  0.00     0.182 C 
BRANCH  25  26
HETATM   26  C   UNL     1      -3.993   0.643 -31.729  1.00  0.00     0.231 C 
HETATM   27  N   UNL     1      -4.782   0.432 -32.851  1.00  0.00    -0.327 N 
HETATM   28  H   UNL     1      -5.130   1.243 -33.344  1.00  0.00     0.169 HD
HETATM   29  O   UNL     1      -3.670  -0.205 -30.905  1.00  0.00    -0.272 OA
BRANCH  27  30
HETATM   30  C   UNL     1      -5.141  -0.809 -33.415  1.00  0.00     0.034 A 
HETATM   31  C   UNL     1      -4.230  -1.818 -33.724  1.00  0.00     0.030 A 
HETATM   32  C   UNL     1      -4.657  -2.988 -34.361  1.00  0.00     0.009 A 
HETATM   33  C   UNL     1      -6.001  -3.166 -34.700  1.00  0.00    -0.062 A 
HETATM   34  C   UNL     1      -6.449  -4.430 -35.370  1.00  0.00     0.048 C 
HETATM   35  C   UNL     1      -6.920  -2.169 -34.364  1.00  0.00     0.009 A 
HETATM   36  C   UNL     1      -6.492  -0.998 -33.734  1.00  0.00     0.030 A 
ENDBRANCH  27  30
ENDBRANCH  25  26
ENDBRANCH  24  25
ENDBRANCH   1  24
TORSDOF 9
ENDMDL
MODEL 7
REMARK VINA RESULT:      -7.9      2.587      6.782
REMARK  9 active torsions:
REMARK  status: ('A' for Active; 'I' for Inactive)
REMARK    1  A    between atoms: C_5  and  N_6 
REMARK       I    between atoms: N_6  and  C_7 
REMARK    2  A    between atoms: C_7  and  C_8 
REMARK    3  A    between atoms: C_8  and  S_9 
REMARK    4  A    between atoms: S_9  and  C_10 
REMARK    5  A    between atoms: C_11  and  C_12 
REMARK       I    between atoms: C_12  and  N_13 
REMARK    6  A    between atoms: N_13  and  C_14 
REMARK    7  A    between atoms: C_14  and  C_15 
REMARK    8  A    between atoms: C_15  and  N_16 
REMARK    9  A    between atoms: C_15  and  C_22 
ROOT
HETATM    1  C   UNL     1      -6.677  -0.650 -33.337  1.00  0.00     0.016 A 
HETATM    2  C   UNL     1      -5.327  -0.647 -32.955  1.00  0.00     0.048 A 
HETATM    3  C   UNL     1      -4.436  -1.619 -33.442  1.00  0.00     0.018 A 
HETATM    4  C   UNL     1      -4.887  -2.605 -34.314  1.00  0.00     0.001 A 
HETATM    5  C   UNL     1      -6.231  -2.647 -34.669  1.00  0.00     0.001 A 
HETATM    6  C   UNL     1      -7.119  -1.692 -34.166  1.00  0.00     0.019 A 
ENDROOT
BRANCH   2   7
HETATM    7  C   UNL     1      -4.757   0.311 -31.986  1.00  0.00     0.253 C 
HETATM    8  N   UNL     1      -4.446   1.566 -32.482  1.00  0.00    -0.354 N 
HETATM    9  H   UNL     1      -4.572   1.679 -33.483  1.00  0.00     0.162 HD
HETATM   10  O   UNL     1      -4.484  -0.049 -30.849  1.00  0.00    -0.268 OA
BRANCH   8  11
HETATM   11  C   UNL     1      -3.377   2.338 -31.846  1.00  0.00     0.161 C 
BRANCH  11  12
HETATM   12  C   UNL     1      -3.780   3.755 -31.350  1.00  0.00     0.245 C 
BRANCH  12  13
HETATM   13  N   UNL     1      -3.429   4.942 -32.259  1.00  0.00    -0.061 N 
HETATM   14  H   UNL     1      -4.311   5.464 -32.339  1.00  0.00     0.280 HD
HETATM   15  C   UNL     1      -2.970   4.706 -33.682  1.00  0.00     0.236 C 
HETATM   16  C   UNL     1      -1.500   5.094 -33.712  1.00  0.00     0.029 C 
HETATM   17  C   UNL     1      -1.117   5.397 -32.275  1.00  0.00     0.029 C 
HETATM   18  C   UNL     1      -2.411   5.883 -31.668  1.00  0.00     0.236 C 
ENDBRANCH  12  13
BRANCH  12  19
HETATM   19  C   UNL     1      -5.259   3.778 -31.017  1.00  0.00     0.015 A 
HETATM   20  S   UNL     1      -6.385   4.486 -32.108  1.00  0.00    -0.104 SA
HETATM   21  C   UNL     1      -7.705   4.108 -31.095  1.00  0.00     0.050 A 
HETATM   22  C   UNL     1      -7.308   3.453 -29.951  1.00  0.00     0.008 A 
HETATM   23  C   UNL     1      -5.896   3.266 -29.902  1.00  0.00     0.017 A 
ENDBRANCH  12  19
ENDBRANCH  11  12
ENDBRANCH   8  11
ENDBRANCH   2   7
BRANCH   1  24
HETATM   24  S   UNL     1      -7.862   0.545 -32.730  1.00  0.00    -0.120 SA
BRANCH  24  25
HETATM   25  C   UNL     1      -8.122   1.597 -34.206  1.00  0.00     0.182 C 
BRANCH  25  26
HETATM   26  C   UNL     1      -9.499   2.238 -34.209  1.00  0.00     0.231 C 
HETATM   27  N   UNL     1     -10.515   1.319 -33.987  1.00  0.00    -0.327 N 
HETATM   28  H   UNL     1     -10.290   0.337 -34.066  1.00  0.00     0.169 HD
HETATM   29  O   UNL     1      -9.640   3.447 -34.362  1.00  0.00    -0.272 OA
BRANCH  27  30
HETATM   30  C   UNL     1     -11.850   1.599 -33.628  1.00  0.00     0.034 A 
HETATM   31  C   UNL     1     -12.256   2.767 -32.983  1.00  0.00     0.030 A 
HETATM   32  C   UNL     1     -13.587   2.931 -32.585  1.00  0.00     0.009 A 
HETATM   33  C   UNL     1     -14.531   1.929 -32.825  1.00  0.00    -0.062 A 
HETATM   34  C   UNL     1     -15.958   2.122 -32.406  1.00  0.00     0.048 C 
HETATM   35  C   UNL     1     -14.133   0.772 -33.498  1.00  0.00     0.009 A 
HETATM   36  C   UNL     1     -12.802   0.605 -33.890  1.00  0.00     0.030 A 
ENDBRANCH  27  30
ENDBRANCH  25  26
ENDBRANCH  24  25
ENDBRANCH   1  24
TORSDOF 9
ENDMDL
MODEL 8
REMARK VINA RESULT:      -7.8      3.923      7.273
REMARK  9 active torsions:
REMARK  status: ('A' for Active; 'I' for Inactive)
REMARK    1  A    between atoms: C_5  and  N_6 
REMARK       I    between atoms: N_6  and  C_7 
REMARK    2  A    between atoms: C_7  and  C_8 
REMARK    3  A    between atoms: C_8  and  S_9 
REMARK    4  A    between atoms: S_9  and  C_10 
REMARK    5  A    between atoms: C_11  and  C_12 
REMARK       I    between atoms: C_12  and  N_13 
REMARK    6  A    between atoms: N_13  and  C_14 
REMARK    7  A    between atoms: C_14  and  C_15 
REMARK    8  A    between atoms: C_15  and  N_16 
REMARK    9  A    between atoms: C_15  and  C_22 
ROOT
HETATM    1  C   UNL     1      -3.262   6.585 -32.884  1.00  0.00     0.016 A 
HETATM    2  C   UNL     1      -3.488   5.456 -33.688  1.00  0.00     0.048 A 
HETATM    3  C   UNL     1      -2.499   4.986 -34.568  1.00  0.00     0.018 A 
HETATM    4  C   UNL     1      -1.273   5.640 -34.656  1.00  0.00     0.001 A 
HETATM    5  C   UNL     1      -1.049   6.785 -33.897  1.00  0.00     0.001 A 
HETATM    6  C   UNL     1      -2.043   7.262 -33.038  1.00  0.00     0.019 A 
ENDROOT
BRANCH   2   7
HETATM    7  C   UNL     1      -4.771   4.726 -33.724  1.00  0.00     0.253 C 
HETATM    8  N   UNL     1      -4.847   3.588 -32.939  1.00  0.00    -0.354 N 
HETATM    9  H   UNL     1      -3.983   3.326 -32.473  1.00  0.00     0.162 HD
HETATM   10  O   UNL     1      -5.656   5.070 -34.496  1.00  0.00    -0.268 OA
BRANCH   8  11
HETATM   11  C   UNL     1      -5.753   2.508 -33.336  1.00  0.00     0.161 C 
BRANCH  11  12
HETATM   12  C   UNL     1      -5.745   1.257 -32.412  1.00  0.00     0.245 C 
BRANCH  12  13
HETATM   13  N   UNL     1      -6.800   1.203 -31.298  1.00  0.00    -0.061 N 
HETATM   14  H   UNL     1      -7.070   0.211 -31.258  1.00  0.00     0.280 HD
HETATM   15  C   UNL     1      -8.099   1.968 -31.435  1.00  0.00     0.236 C 
HETATM   16  C   UNL     1      -8.027   3.092 -30.413  1.00  0.00     0.029 C 
HETATM   17  C   UNL     1      -6.630   3.033 -29.823  1.00  0.00     0.029 C 
HETATM   18  C   UNL     1      -6.268   1.572 -29.937  1.00  0.00     0.236 C 
ENDBRANCH  12  13
BRANCH  12  19
HETATM   19  C   UNL     1      -5.819  -0.001 -33.256  1.00  0.00     0.015 A 
HETATM   20  S   UNL     1      -7.045  -0.177 -34.449  1.00  0.00    -0.104 SA
HETATM   21  C   UNL     1      -6.459  -1.709 -34.920  1.00  0.00     0.050 A 
HETATM   22  C   UNL     1      -5.352  -2.085 -34.194  1.00  0.00     0.008 A 
HETATM   23  C   UNL     1      -4.983  -1.102 -33.230  1.00  0.00     0.017 A 
ENDBRANCH  12  19
ENDBRANCH  11  12
ENDBRANCH   8  11
ENDBRANCH   2   7
BRANCH   1  24
HETATM   24  S   UNL     1      -4.492   7.244 -31.766  1.00  0.00    -0.120 SA
BRANCH  24  25
HETATM   25  C   UNL     1      -4.246   6.201 -30.282  1.00  0.00     0.182 C 
BRANCH  25  26
HETATM   26  C   UNL     1      -3.448   6.922 -29.209  1.00  0.00     0.231 C 
HETATM   27  N   UNL     1      -2.173   6.397 -29.049  1.00  0.00    -0.327 N 
HETATM   28  H   UNL     1      -1.976   5.498 -29.467  1.00  0.00     0.169 HD
HETATM   29  O   UNL     1      -3.914   7.880 -28.602  1.00  0.00    -0.272 OA
BRANCH  27  30
HETATM   30  C   UNL     1      -1.085   6.996 -28.382  1.00  0.00     0.034 A 
HETATM   31  C   UNL     1      -0.070   7.703 -29.025  1.00  0.00     0.030 A 
HETATM   32  C   UNL     1       1.020   8.195 -28.299  1.00  0.00     0.009 A 
HETATM   33  C   UNL     1       1.112   7.986 -26.920  1.00  0.00    -0.062 A 
HETATM   34  C   UNL     1       2.278   8.531 -26.151  1.00  0.00     0.048 C 
HETATM   35  C   UNL     1       0.080   7.305 -26.270  1.00  0.00     0.009 A 
HETATM   36  C   UNL     1      -1.005   6.808 -26.996  1.00  0.00     0.030 A 
ENDBRANCH  27  30
ENDBRANCH  25  26
ENDBRANCH  24  25
ENDBRANCH   1  24
TORSDOF 9
ENDMDL
MODEL 9
REMARK VINA RESULT:      -7.8      2.605      6.782
REMARK  9 active torsions:
REMARK  status: ('A' for Active; 'I' for Inactive)
REMARK    1  A    between atoms: C_5  and  N_6 
REMARK       I    between atoms: N_6  and  C_7 
REMARK    2  A    between atoms: C_7  and  C_8 
REMARK    3  A    between atoms: C_8  and  S_9 
REMARK    4  A    between atoms: S_9  and  C_10 
REMARK    5  A    between atoms: C_11  and  C_12 
REMARK       I    between atoms: C_12  and  N_13 
REMARK    6  A    between atoms: N_13  and  C_14 
REMARK    7  A    between atoms: C_14  and  C_15 
REMARK    8  A    between atoms: C_15  and  N_16 
REMARK    9  A    between atoms: C_15  and  C_22 
ROOT
HETATM    1  C   UNL     1      -5.984  -0.615 -34.227  1.00  0.00     0.016 A 
HETATM    2  C   UNL     1      -4.816  -0.903 -33.503  1.00  0.00     0.048 A 
HETATM    3  C   UNL     1      -4.286  -2.204 -33.475  1.00  0.00     0.018 A 
HETATM    4  C   UNL     1      -4.919  -3.232 -34.167  1.00  0.00     0.001 A 
HETATM    5  C   UNL     1      -6.101  -2.972 -34.854  1.00  0.00     0.001 A 
HETATM    6  C   UNL     1      -6.636  -1.681 -34.863  1.00  0.00     0.019 A 
ENDROOT
BRANCH   2   7
HETATM    7  C   UNL     1      -4.101   0.094 -32.682  1.00  0.00     0.253 C 
HETATM    8  N   UNL     1      -4.849   0.728 -31.704  1.00  0.00    -0.354 N 
HETATM    9  H   UNL     1      -5.838   0.498 -31.699  1.00  0.00     0.162 HD
HETATM   10  O   UNL     1      -2.946   0.399 -32.947  1.00  0.00    -0.268 OA
BRANCH   8  11
HETATM   11  C   UNL     1      -4.470   2.078 -31.280  1.00  0.00     0.161 C 
BRANCH  11  12
HETATM   12  C   UNL     1      -5.074   3.237 -32.122  1.00  0.00     0.245 C 
BRANCH  12  13
HETATM   13  N   UNL     1      -6.174   4.081 -31.463  1.00  0.00    -0.061 N 
HETATM   14  H   UNL     1      -5.905   5.051 -31.675  1.00  0.00     0.280 HD
HETATM   15  C   UNL     1      -6.377   4.039 -29.963  1.00  0.00     0.236 C 
HETATM   16  C   UNL     1      -7.704   3.329 -29.745  1.00  0.00     0.029 C 
HETATM   17  C   UNL     1      -8.152   2.850 -31.114  1.00  0.00     0.029 C 
HETATM   18  C   UNL     1      -7.544   3.865 -32.052  1.00  0.00     0.236 C 
ENDBRANCH  12  13
BRANCH  12  19
HETATM   19  C   UNL     1      -3.961   4.137 -32.624  1.00  0.00     0.015 A 
HETATM   20  S   UNL     1      -4.213   5.831 -32.770  1.00  0.00    -0.104 SA
HETATM   21  C   UNL     1      -2.618   6.089 -33.319  1.00  0.00     0.050 A 
HETATM   22  C   UNL     1      -1.900   4.917 -33.388  1.00  0.00     0.008 A 
HETATM   23  C   UNL     1      -2.675   3.788 -32.992  1.00  0.00     0.017 A 
ENDBRANCH  12  19
ENDBRANCH  11  12
ENDBRANCH   8  11
ENDBRANCH   2   7
BRANCH   1  24
HETATM   24  S   UNL     1      -6.719   1.015 -34.279  1.00  0.00    -0.120 SA
BRANCH  24  25
HETATM   25  C   UNL     1      -8.357   0.663 -35.017  1.00  0.00     0.182 C 
BRANCH  25  26
HETATM   26  C   UNL     1      -9.471   0.744 -33.988  1.00  0.00     0.231 C 
HETATM   27  N   UNL     1     -10.522   1.551 -34.401  1.00  0.00    -0.327 N 
HETATM   28  H   UNL     1     -10.368   2.157 -35.195  1.00  0.00     0.169 HD
HETATM   29  O   UNL     1      -9.413   0.118 -32.935  1.00  0.00    -0.272 OA
BRANCH  27  30
HETATM   30  C   UNL     1     -11.818   1.606 -33.850  1.00  0.00     0.034 A 
HETATM   31  C   UNL     1     -12.778   0.608 -34.014  1.00  0.00     0.030 A 
HETATM   32  C   UNL     1     -14.070   0.777 -33.505  1.00  0.00     0.009 A 
HETATM   33  C   UNL     1     -14.422   1.947 -32.827  1.00  0.00    -0.062 A 
HETATM   34  C   UNL     1     -15.807   2.111 -32.274  1.00  0.00     0.048 C 
HETATM   35  C   UNL     1     -13.453   2.935 -32.635  1.00  0.00     0.009 A 
HETATM   36  C   UNL     1     -12.165   2.768 -33.149  1.00  0.00     0.030 A 
ENDBRANCH  27  30
ENDBRANCH  25  26
ENDBRANCH  24  25
ENDBRANCH   1  24
TORSDOF 9
ENDMDL
MODEL 10
REMARK VINA RESULT:      -7.7      2.948      6.657
REMARK  9 active torsions:
REMARK  status: ('A' for Active; 'I' for Inactive)
REMARK    1  A    between atoms: C_5  and  N_6 
REMARK       I    between atoms: N_6  and  C_7 
REMARK    2  A    between atoms: C_7  and  C_8 
REMARK    3  A    between atoms: C_8  and  S_9 
REMARK    4  A    between atoms: S_9  and  C_10 
REMARK    5  A    between atoms: C_11  and  C_12 
REMARK       I    between atoms: C_12  and  N_13 
REMARK    6  A    between atoms: N_13  and  C_14 
REMARK    7  A    between atoms: C_14  and  C_15 
REMARK    8  A    between atoms: C_15  and  N_16 
REMARK    9  A    between atoms: C_15  and  C_22 
ROOT
HETATM    1  C   UNL     1      -5.974   1.209 -32.932  1.00  0.00     0.016 A 
HETATM    2  C   UNL     1      -6.844   0.309 -33.567  1.00  0.00     0.048 A 
HETATM    3  C   UNL     1      -6.434  -1.000 -33.871  1.00  0.00     0.018 A 
HETATM    4  C   UNL     1      -5.148  -1.423 -33.548  1.00  0.00     0.001 A 
HETATM    5  C   UNL     1      -4.259  -0.530 -32.957  1.00  0.00     0.001 A 
HETATM    6  C   UNL     1      -4.664   0.778 -32.674  1.00  0.00     0.019 A 
ENDROOT
BRANCH   2   7
HETATM    7  C   UNL     1      -8.205   0.670 -34.013  1.00  0.00     0.253 C 
HETATM    8  N   UNL     1      -9.136   0.891 -33.012  1.00  0.00    -0.354 N 
HETATM    9  H   UNL     1      -8.808   0.709 -32.069  1.00  0.00     0.162 HD
HETATM   10  O   UNL     1      -8.489   0.657 -35.203  1.00  0.00    -0.268 OA
BRANCH   8  11
HETATM   11  C   UNL     1     -10.553   0.649 -33.291  1.00  0.00     0.161 C 
BRANCH  11  12
HETATM   12  C   UNL     1     -11.393   1.913 -33.627  1.00  0.00     0.245 C 
BRANCH  12  13
HETATM   13  N   UNL     1     -11.005   2.697 -34.888  1.00  0.00    -0.061 N 
HETATM   14  H   UNL     1     -10.527   2.003 -35.477  1.00  0.00     0.280 HD
HETATM   15  C   UNL     1     -10.054   3.872 -34.798  1.00  0.00     0.236 C 
HETATM   16  C   UNL     1     -10.893   5.107 -35.083  1.00  0.00     0.029 C 
HETATM   17  C   UNL     1     -12.329   4.625 -35.179  1.00  0.00     0.029 C 
HETATM   18  C   UNL     1     -12.184   3.207 -35.677  1.00  0.00     0.236 C 
ENDBRANCH  12  13
BRANCH  12  19
HETATM   19  C   UNL     1     -12.865   1.550 -33.676  1.00  0.00     0.015 A 
HETATM   20  S   UNL     1     -14.007   2.420 -32.730  1.00  0.00    -0.104 SA
HETATM   21  C   UNL     1     -15.309   1.492 -33.328  1.00  0.00     0.050 A 
HETATM   22  C   UNL     1     -14.894   0.542 -34.232  1.00  0.00     0.008 A 
HETATM   23  C   UNL     1     -13.482   0.570 -34.432  1.00  0.00     0.017 A 
ENDBRANCH  12  19
ENDBRANCH  11  12
ENDBRANCH   8  11
ENDBRANCH   2   7
BRANCH   1  24
HETATM   24  S   UNL     1      -6.431   2.894 -32.543  1.00  0.00    -0.120 SA
BRANCH  24  25
HETATM   25  C   UNL     1      -6.172   3.732 -34.150  1.00  0.00     0.182 C 
BRANCH  25  26
HETATM   26  C   UNL     1      -4.956   4.642 -34.124  1.00  0.00     0.231 C 
HETATM   27  N   UNL     1      -4.423   4.784 -32.851  1.00  0.00    -0.327 N 
HETATM   28  H   UNL     1      -4.983   4.479 -32.067  1.00  0.00     0.169 HD
HETATM   29  O   UNL     1      -4.513   5.145 -35.152  1.00  0.00    -0.272 OA
BRANCH  27  30
HETATM   30  C   UNL     1      -3.151   5.290 -32.514  1.00  0.00     0.034 A 
HETATM   31  C   UNL     1      -1.961   4.581 -32.680  1.00  0.00     0.030 A 
HETATM   32  C   UNL     1      -0.747   5.122 -32.242  1.00  0.00     0.009 A 
HETATM   33  C   UNL     1      -0.705   6.378 -31.630  1.00  0.00    -0.062 A 
HETATM   34  C   UNL     1       0.603   6.953 -31.177  1.00  0.00     0.048 C 
HETATM   35  C   UNL     1      -1.892   7.102 -31.491  1.00  0.00     0.009 A 
HETATM   36  C   UNL     1      -3.105   6.559 -31.923  1.00  0.00     0.030 A 
ENDBRANCH  27  30
ENDBRANCH  25  26
ENDBRANCH  24  25
ENDBRANCH   1  24
TORSDOF 9
ENDMDL
