MODEL 1
REMARK VINA RESULT:      -8.2      0.000      0.000
REMARK  10 active torsions:
REMARK  status: ('A' for Active; 'I' for Inactive)
REMARK    1  A    between atoms: C_2  and  O_3 
REMARK    2  A    between atoms: O_3  and  C_4 
REMARK    3  A    between atoms: C_5  and  O_6 
REMARK    4  A    between atoms: O_6  and  C_7 
REMARK    5  A    between atoms: C_7  and  C_8 
REMARK       I    between atoms: C_8  and  N_9 
REMARK    6  A    between atoms: N_9  and  C_10 
REMARK    7  A    between atoms: C_18  and  C_19 
REMARK    8  A    between atoms: C_19  and  N_20 
REMARK    9  A    between atoms: N_20  and  C_21 
REMARK   10  A    between atoms: C_24  and  N_25 
ROOT
HETATM    1  C   UNL     1      -4.064   5.709 -31.312  1.00  0.00     0.103 A 
HETATM    2  C   UNL     1      -2.979   5.814 -32.199  1.00  0.00     0.120 A 
HETATM    3  C   UNL     1      -3.095   5.349 -33.513  1.00  0.00     0.047 A 
HETATM    4 BR   UNL     1      -1.633   5.373 -34.720  1.00  0.00    -0.048 Br
HETATM    5  C   UNL     1      -4.314   4.843 -33.969  1.00  0.00     0.031 A 
HETATM    6  C   UNL     1      -5.421   4.774 -33.110  1.00  0.00    -0.036 A 
HETATM    7  C   UNL     1      -5.283   5.209 -31.780  1.00  0.00     0.048 A 
ENDROOT
BRANCH   6   8
HETATM    8  C   UNL     1      -6.748   4.255 -33.615  1.00  0.00     0.158 C 
BRANCH   8   9
HETATM    9  N   UNL     1      -7.141   3.084 -32.838  1.00  0.00    -0.386 N 
HETATM   10  H   UNL     1      -8.118   3.121 -32.549  1.00  0.00     0.160 HD
BRANCH   9  11
HETATM   11  C   UNL     1      -6.734   1.811 -33.229  1.00  0.00     0.028 A 
HETATM   12  C   UNL     1      -6.157   0.879 -32.358  1.00  0.00     0.031 A 
HETATM   13  C   UNL     1      -5.811  -0.408 -32.792  1.00  0.00     0.039 A 
HETATM   14  C   UNL     1      -6.070  -0.791 -34.107  1.00  0.00     0.134 A 
HETATM   15  C   UNL     1      -6.696   0.100 -34.977  1.00  0.00     0.039 A 
HETATM   16  C   UNL     1      -7.036   1.382 -34.530  1.00  0.00     0.031 A 
BRANCH  14  17
HETATM   17  N   UNL     1      -5.657  -2.137 -34.548  1.00  0.00    -0.041 N 
HETATM   18  H   UNL     1      -5.310  -2.028 -35.509  1.00  0.00     0.286 HD
HETATM   19  C   UNL     1      -4.504  -2.667 -33.734  1.00  0.00     0.241 C 
HETATM   20  C   UNL     1      -4.042  -3.986 -34.345  1.00  0.00     0.028 C 
HETATM   21  C   UNL     1      -5.190  -4.986 -34.468  1.00  0.00     0.003 C 
HETATM   22  C   UNL     1      -6.371  -4.394 -35.230  1.00  0.00     0.028 C 
HETATM   23  C   UNL     1      -6.834  -3.077 -34.617  1.00  0.00     0.241 C 
ENDBRANCH  14  17
ENDBRANCH   9  11
ENDBRANCH   8   9
ENDBRANCH   6   8
BRANCH   1  24
HETATM   24  O   UNL     1      -3.850   6.169 -30.039  1.00  0.00    -0.349 OA
BRANCH  24  25
HETATM   25  C   UNL     1      -4.934   6.809 -29.365  1.00  0.00     0.171 C 
HETATM   26  C   UNL     1      -4.568   7.058 -27.913  1.00  0.00     0.034 C 
ENDBRANCH  24  25
ENDBRANCH   1  24
BRANCH   2  27
HETATM   27  O   UNL     1      -1.789   6.322 -31.735  1.00  0.00    -0.338 OA
BRANCH  27  28
HETATM   28  C   UNL     1      -0.996   5.272 -31.169  1.00  0.00     0.278 C 
BRANCH  28  29
HETATM   29  C   UNL     1      -0.303   5.722 -29.885  1.00  0.00     0.242 C 
HETATM   30  N   UNL     1      -0.806   6.891 -29.355  1.00  0.00    -0.351 N 
HETATM   31  H   UNL     1      -1.674   7.215 -29.774  1.00  0.00     0.163 HD
HETATM   32  O   UNL     1       0.657   5.109 -29.427  1.00  0.00    -0.271 OA
BRANCH  30  33
HETATM   33  C   UNL     1      -0.341   7.533 -28.119  1.00  0.00     0.022 C 
HETATM   34  C   UNL     1       1.091   8.069 -28.279  1.00  0.00     0.037 C 
HETATM   35  C   UNL     1      -1.269   8.723 -27.820  1.00  0.00     0.037 C 
HETATM   36  C   UNL     1      -0.406   6.552 -26.938  1.00  0.00     0.037 C 
ENDBRANCH  30  33
ENDBRANCH  28  29
ENDBRANCH  27  28
ENDBRANCH   2  27
TORSDOF 10
ENDMDL
MODEL 2
REMARK VINA RESULT:      -8.1      1.774      2.863
REMARK  10 active torsions:
REMARK  status: ('A' for Active; 'I' for Inactive)
REMARK    1  A    between atoms: C_2  and  O_3 
REMARK    2  A    between atoms: O_3  and  C_4 
REMARK    3  A    between atoms: C_5  and  O_6 
REMARK    4  A    between atoms: O_6  and  C_7 
REMARK    5  A    between atoms: C_7  and  C_8 
REMARK       I    between atoms: C_8  and  N_9 
REMARK    6  A    between atoms: N_9  and  C_10 
REMARK    7  A    between atoms: C_18  and  C_19 
REMARK    8  A    between atoms: C_19  and  N_20 
REMARK    9  A    between atoms: N_20  and  C_21 
REMARK   10  A    between atoms: C_24  and  N_25 
ROOT
HETATM    1  C   UNL     1      -4.131   5.532 -32.428  1.00  0.00     0.103 A 
HETATM    2  C   UNL     1      -4.643   6.687 -31.812  1.00  0.00     0.120 A 
HETATM    3  C   UNL     1      -5.993   7.021 -31.953  1.00  0.00     0.047 A 
HETATM    4 BR   UNL     1      -6.713   8.619 -31.230  1.00  0.00    -0.048 Br
HETATM    5  C   UNL     1      -6.854   6.170 -32.649  1.00  0.00     0.031 A 
HETATM    6  C   UNL     1      -6.370   4.989 -33.230  1.00  0.00    -0.036 A 
HETATM    7  C   UNL     1      -5.003   4.681 -33.115  1.00  0.00     0.048 A 
ENDROOT
BRANCH   6   8
HETATM    8  C   UNL     1      -7.310   4.053 -33.955  1.00  0.00     0.158 C 
BRANCH   8   9
HETATM    9  N   UNL     1      -7.582   2.890 -33.117  1.00  0.00    -0.386 N 
HETATM   10  H   UNL     1      -8.536   2.887 -32.758  1.00  0.00     0.160 HD
BRANCH   9  11
HETATM   11  C   UNL     1      -7.139   1.626 -33.499  1.00  0.00     0.028 A 
HETATM   12  C   UNL     1      -7.366   1.074 -34.765  1.00  0.00     0.031 A 
HETATM   13  C   UNL     1      -6.854  -0.182 -35.115  1.00  0.00     0.039 A 
HETATM   14  C   UNL     1      -6.074  -0.893 -34.204  1.00  0.00     0.134 A 
HETATM   15  C   UNL     1      -5.786  -0.339 -32.958  1.00  0.00     0.039 A 
HETATM   16  C   UNL     1      -6.305   0.916 -32.622  1.00  0.00     0.031 A 
BRANCH  14  17
HETATM   17  N   UNL     1      -5.584  -2.232 -34.585  1.00  0.00    -0.041 N 
HETATM   18  H   UNL     1      -5.182  -2.131 -35.525  1.00  0.00     0.286 HD
HETATM   19  C   UNL     1      -4.464  -2.698 -33.689  1.00  0.00     0.241 C 
HETATM   20  C   UNL     1      -3.916  -4.011 -34.238  1.00  0.00     0.028 C 
HETATM   21  C   UNL     1      -5.015  -5.058 -34.406  1.00  0.00     0.003 C 
HETATM   22  C   UNL     1      -6.169  -4.530 -35.253  1.00  0.00     0.028 C 
HETATM   23  C   UNL     1      -6.718  -3.219 -34.702  1.00  0.00     0.241 C 
ENDBRANCH  14  17
ENDBRANCH   9  11
ENDBRANCH   8   9
ENDBRANCH   6   8
BRANCH   1  24
HETATM   24  O   UNL     1      -2.792   5.297 -32.255  1.00  0.00    -0.349 OA
BRANCH  24  25
HETATM   25  C   UNL     1      -2.064   4.725 -33.341  1.00  0.00     0.171 C 
HETATM   26  C   UNL     1      -1.428   5.821 -34.176  1.00  0.00     0.034 C 
ENDBRANCH  24  25
ENDBRANCH   1  24
BRANCH   2  27
HETATM   27  O   UNL     1      -3.782   7.509 -31.124  1.00  0.00    -0.338 OA
BRANCH  27  28
HETATM   28  C   UNL     1      -3.763   7.147 -29.738  1.00  0.00     0.278 C 
BRANCH  28  29
HETATM   29  C   UNL     1      -2.336   7.059 -29.202  1.00  0.00     0.242 C 
HETATM   30  N   UNL     1      -1.388   6.790 -30.166  1.00  0.00    -0.351 N 
HETATM   31  H   UNL     1      -1.720   6.854 -31.125  1.00  0.00     0.163 HD
HETATM   32  O   UNL     1      -2.095   7.161 -28.002  1.00  0.00    -0.271 OA
BRANCH  30  33
HETATM   33  C   UNL     1       0.057   6.675 -29.929  1.00  0.00     0.022 C 
HETATM   34  C   UNL     1       0.414   5.299 -29.345  1.00  0.00     0.037 C 
HETATM   35  C   UNL     1       0.775   6.824 -31.282  1.00  0.00     0.037 C 
HETATM   36  C   UNL     1       0.545   7.788 -28.990  1.00  0.00     0.037 C 
ENDBRANCH  30  33
ENDBRANCH  28  29
ENDBRANCH  27  28
ENDBRANCH   2  27
TORSDOF 10
ENDMDL
MODEL 3
REMARK VINA RESULT:      -8.1      1.950      2.979
REMARK  10 active torsions:
REMARK  status: ('A' for Active; 'I' for Inactive)
REMARK    1  A    between atoms: C_2  and  O_3 
REMARK    2  A    between atoms: O_3  and  C_4 
REMARK    3  A    between atoms: C_5  and  O_6 
REMARK    4  A    between atoms: O_6  and  C_7 
REMARK    5  A    between atoms: C_7  and  C_8 
REMARK       I    between atoms: C_8  and  N_9 
REMARK    6  A    between atoms: N_9  and  C_10 
REMARK    7  A    between atoms: C_18  and  C_19 
REMARK    8  A    between atoms: C_19  and  N_20 
REMARK    9  A    between atoms: N_20  and  C_21 
REMARK   10  A    between atoms: C_24  and  N_25 
ROOT
HETATM    1  C   UNL     1      -4.698   6.076 -32.885  1.00  0.00     0.103 A 
HETATM    2  C   UNL     1      -5.217   6.685 -31.729  1.00  0.00     0.120 A 
HETATM    3  C   UNL     1      -6.548   6.469 -31.356  1.00  0.00     0.047 A 
HETATM    4 BR   UNL     1      -7.328   7.345 -29.866  1.00  0.00    -0.048 Br
HETATM    5  C   UNL     1      -7.346   5.592 -32.093  1.00  0.00     0.031 A 
HETATM    6  C   UNL     1      -6.830   4.938 -33.222  1.00  0.00    -0.036 A 
HETATM    7  C   UNL     1      -5.502   5.191 -33.611  1.00  0.00     0.048 A 
ENDROOT
BRANCH   6   8
HETATM    8  C   UNL     1      -7.685   3.964 -33.999  1.00  0.00     0.158 C 
BRANCH   8   9
HETATM    9  N   UNL     1      -7.942   2.782 -33.182  1.00  0.00    -0.386 N 
HETATM   10  H   UNL     1      -8.922   2.700 -32.917  1.00  0.00     0.160 HD
BRANCH   9  11
HETATM   11  C   UNL     1      -7.360   1.560 -33.510  1.00  0.00     0.028 A 
HETATM   12  C   UNL     1      -6.582   0.807 -32.622  1.00  0.00     0.031 A 
HETATM   13  C   UNL     1      -6.061  -0.441 -32.988  1.00  0.00     0.039 A 
HETATM   14  C   UNL     1      -6.342  -0.970 -34.246  1.00  0.00     0.134 A 
HETATM   15  C   UNL     1      -7.162  -0.266 -35.126  1.00  0.00     0.039 A 
HETATM   16  C   UNL     1      -7.675   0.980 -34.748  1.00  0.00     0.031 A 
BRANCH  14  17
HETATM   17  N   UNL     1      -5.746  -2.268 -34.619  1.00  0.00    -0.041 N 
HETATM   18  H   UNL     1      -5.355  -2.141 -35.561  1.00  0.00     0.286 HD
HETATM   19  C   UNL     1      -4.590  -2.634 -33.723  1.00  0.00     0.241 C 
HETATM   20  C   UNL     1      -3.939  -3.903 -34.264  1.00  0.00     0.028 C 
HETATM   21  C   UNL     1      -4.949  -5.037 -34.421  1.00  0.00     0.003 C 
HETATM   22  C   UNL     1      -6.144  -4.610 -35.269  1.00  0.00     0.028 C 
HETATM   23  C   UNL     1      -6.796  -3.344 -34.726  1.00  0.00     0.241 C 
ENDBRANCH  14  17
ENDBRANCH   9  11
ENDBRANCH   8   9
ENDBRANCH   6   8
BRANCH   1  24
HETATM   24  O   UNL     1      -3.393   6.364 -33.184  1.00  0.00    -0.349 OA
BRANCH  24  25
HETATM   25  C   UNL     1      -2.481   5.275 -33.328  1.00  0.00     0.171 C 
HETATM   26  C   UNL     1      -1.881   5.280 -34.723  1.00  0.00     0.034 C 
ENDBRANCH  24  25
ENDBRANCH   1  24
BRANCH   2  27
HETATM   27  O   UNL     1      -4.415   7.540 -31.012  1.00  0.00    -0.338 OA
BRANCH  27  28
HETATM   28  C   UNL     1      -3.654   6.803 -30.047  1.00  0.00     0.278 C 
BRANCH  28  29
HETATM   29  C   UNL     1      -2.180   7.201 -30.073  1.00  0.00     0.242 C 
HETATM   30  N   UNL     1      -1.311   6.150 -29.875  1.00  0.00    -0.351 N 
HETATM   31  H   UNL     1      -1.736   5.227 -29.909  1.00  0.00     0.163 HD
HETATM   32  O   UNL     1      -1.835   8.373 -30.197  1.00  0.00    -0.271 OA
BRANCH  30  33
HETATM   33  C   UNL     1       0.155   6.248 -29.875  1.00  0.00     0.022 C 
HETATM   34  C   UNL     1       0.649   7.148 -28.731  1.00  0.00     0.037 C 
HETATM   35  C   UNL     1       0.727   4.836 -29.657  1.00  0.00     0.037 C 
HETATM   36  C   UNL     1       0.665   6.781 -31.222  1.00  0.00     0.037 C 
ENDBRANCH  30  33
ENDBRANCH  28  29
ENDBRANCH  27  28
ENDBRANCH   2  27
TORSDOF 10
ENDMDL
MODEL 4
REMARK VINA RESULT:      -8.0      2.948      4.934
REMARK  10 active torsions:
REMARK  status: ('A' for Active; 'I' for Inactive)
REMARK    1  A    between atoms: C_2  and  O_3 
REMARK    2  A    between atoms: O_3  and  C_4 
REMARK    3  A    between atoms: C_5  and  O_6 
REMARK    4  A    between atoms: O_6  and  C_7 
REMARK    5  A    between atoms: C_7  and  C_8 
REMARK       I    between atoms: C_8  and  N_9 
REMARK    6  A    between atoms: N_9  and  C_10 
REMARK    7  A    between atoms: C_18  and  C_19 
REMARK    8  A    between atoms: C_19  and  N_20 
REMARK    9  A    between atoms: N_20  and  C_21 
REMARK   10  A    between atoms: C_24  and  N_25 
ROOT
HETATM    1  C   UNL     1      -3.365   3.753 -31.793  1.00  0.00     0.103 A 
HETATM    2  C   UNL     1      -4.318   4.611 -31.218  1.00  0.00     0.120 A 
HETATM    3  C   UNL     1      -5.472   4.088 -30.626  1.00  0.00     0.047 A 
HETATM    4 BR   UNL     1      -6.837   5.203 -29.928  1.00  0.00    -0.048 Br
HETATM    5  C   UNL     1      -5.647   2.705 -30.542  1.00  0.00     0.031 A 
HETATM    6  C   UNL     1      -4.683   1.833 -31.068  1.00  0.00    -0.036 A 
HETATM    7  C   UNL     1      -3.545   2.370 -31.695  1.00  0.00     0.048 A 
ENDROOT
BRANCH   6   8
HETATM    8  C   UNL     1      -4.860   0.337 -30.947  1.00  0.00     0.158 C 
BRANCH   8   9
HETATM    9  N   UNL     1      -5.304  -0.206 -32.227  1.00  0.00    -0.386 N 
HETATM   10  H   UNL     1      -5.095  -1.199 -32.320  1.00  0.00     0.160 HD
BRANCH   9  11
HETATM   11  C   UNL     1      -6.550   0.140 -32.745  1.00  0.00     0.028 A 
HETATM   12  C   UNL     1      -7.738   0.093 -32.005  1.00  0.00     0.031 A 
HETATM   13  C   UNL     1      -8.958   0.501 -32.560  1.00  0.00     0.039 A 
HETATM   14  C   UNL     1      -8.999   0.995 -33.863  1.00  0.00     0.134 A 
HETATM   15  C   UNL     1      -7.821   1.106 -34.598  1.00  0.00     0.039 A 
HETATM   16  C   UNL     1      -6.609   0.694 -34.032  1.00  0.00     0.031 A 
BRANCH  14  17
HETATM   17  N   UNL     1     -10.305   1.378 -34.435  1.00  0.00    -0.041 N 
HETATM   18  H   UNL     1     -10.329   0.977 -35.381  1.00  0.00     0.286 HD
HETATM   19  C   UNL     1     -11.453   0.762 -33.678  1.00  0.00     0.241 C 
HETATM   20  C   UNL     1     -12.749   1.079 -34.418  1.00  0.00     0.028 C 
HETATM   21  C   UNL     1     -12.923   2.581 -34.638  1.00  0.00     0.003 C 
HETATM   22  C   UNL     1     -11.710   3.189 -35.337  1.00  0.00     0.028 C 
HETATM   23  C   UNL     1     -10.416   2.873 -34.596  1.00  0.00     0.241 C 
ENDBRANCH  14  17
ENDBRANCH   9  11
ENDBRANCH   8   9
ENDBRANCH   6   8
BRANCH   1  24
HETATM   24  O   UNL     1      -2.279   4.357 -32.370  1.00  0.00    -0.349 OA
BRANCH  24  25
HETATM   25  C   UNL     1      -2.243   4.455 -33.794  1.00  0.00     0.171 C 
HETATM   26  C   UNL     1      -1.597   5.765 -34.209  1.00  0.00     0.034 C 
ENDBRANCH  24  25
ENDBRANCH   1  24
BRANCH   2  27
HETATM   27  O   UNL     1      -4.125   5.970 -31.304  1.00  0.00    -0.338 OA
BRANCH  27  28
HETATM   28  C   UNL     1      -3.666   6.479 -30.046  1.00  0.00     0.278 C 
BRANCH  28  29
HETATM   29  C   UNL     1      -2.217   6.953 -30.128  1.00  0.00     0.242 C 
HETATM   30  N   UNL     1      -1.289   5.976 -29.837  1.00  0.00    -0.351 N 
HETATM   31  H   UNL     1      -1.662   5.032 -29.775  1.00  0.00     0.163 HD
HETATM   32  O   UNL     1      -1.939   8.124 -30.372  1.00  0.00    -0.271 OA
BRANCH  30  33
HETATM   33  C   UNL     1       0.169   6.155 -29.863  1.00  0.00     0.022 C 
HETATM   34  C   UNL     1       0.635   6.704 -31.221  1.00  0.00     0.037 C 
HETATM   35  C   UNL     1       0.544   7.177 -28.777  1.00  0.00     0.037 C 
HETATM   36  C   UNL     1       0.885   4.830 -29.558  1.00  0.00     0.037 C 
ENDBRANCH  30  33
ENDBRANCH  28  29
ENDBRANCH  27  28
ENDBRANCH   2  27
TORSDOF 10
ENDMDL
MODEL 5
REMARK VINA RESULT:      -7.7      1.390      2.048
REMARK  10 active torsions:
REMARK  status: ('A' for Active; 'I' for Inactive)
REMARK    1  A    between atoms: C_2  and  O_3 
REMARK    2  A    between atoms: O_3  and  C_4 
REMARK    3  A    between atoms: C_5  and  O_6 
REMARK    4  A    between atoms: O_6  and  C_7 
REMARK    5  A    between atoms: C_7  and  C_8 
REMARK       I    between atoms: C_8  and  N_9 
REMARK    6  A    between atoms: N_9  and  C_10 
REMARK    7  A    between atoms: C_18  and  C_19 
REMARK    8  A    between atoms: C_19  and  N_20 
REMARK    9  A    between atoms: N_20  and  C_21 
REMARK   10  A    between atoms: C_24  and  N_25 
ROOT
HETATM    1  C   UNL     1      -6.199   5.829 -31.652  1.00  0.00     0.103 A 
HETATM    2  C   UNL     1      -5.070   5.940 -32.482  1.00  0.00     0.120 A 
HETATM    3  C   UNL     1      -5.023   5.257 -33.702  1.00  0.00     0.047 A 
HETATM    4 BR   UNL     1      -3.486   5.290 -34.813  1.00  0.00    -0.048 Br
HETATM    5  C   UNL     1      -6.127   4.518 -34.132  1.00  0.00     0.031 A 
HETATM    6  C   UNL     1      -7.280   4.435 -33.337  1.00  0.00    -0.036 A 
HETATM    7  C   UNL     1      -7.303   5.094 -32.095  1.00  0.00     0.048 A 
ENDROOT
BRANCH   6   8
HETATM    8  C   UNL     1      -8.486   3.661 -33.819  1.00  0.00     0.158 C 
BRANCH   8   9
HETATM    9  N   UNL     1      -8.626   2.439 -33.032  1.00  0.00    -0.386 N 
HETATM   10  H   UNL     1      -9.584   2.289 -32.720  1.00  0.00     0.160 HD
BRANCH   9  11
HETATM   11  C   UNL     1      -7.991   1.267 -33.434  1.00  0.00     0.028 A 
HETATM   12  C   UNL     1      -8.006   0.787 -34.749  1.00  0.00     0.031 A 
HETATM   13  C   UNL     1      -7.309  -0.374 -35.109  1.00  0.00     0.039 A 
HETATM   14  C   UNL     1      -6.555  -1.056 -34.156  1.00  0.00     0.134 A 
HETATM   15  C   UNL     1      -6.477  -0.565 -32.854  1.00  0.00     0.039 A 
HETATM   16  C   UNL     1      -7.179   0.594 -32.508  1.00  0.00     0.031 A 
BRANCH  14  17
HETATM   17  N   UNL     1      -5.864  -2.298 -34.555  1.00  0.00    -0.041 N 
HETATM   18  H   UNL     1      -5.459  -2.113 -35.481  1.00  0.00     0.286 HD
HETATM   19  C   UNL     1      -4.712  -2.621 -33.639  1.00  0.00     0.241 C 
HETATM   20  C   UNL     1      -3.964  -3.824 -34.204  1.00  0.00     0.028 C 
HETATM   21  C   UNL     1      -4.894  -5.015 -34.428  1.00  0.00     0.003 C 
HETATM   22  C   UNL     1      -6.091  -4.636 -35.295  1.00  0.00     0.028 C 
HETATM   23  C   UNL     1      -6.839  -3.435 -34.729  1.00  0.00     0.241 C 
ENDBRANCH  14  17
ENDBRANCH   9  11
ENDBRANCH   8   9
ENDBRANCH   6   8
BRANCH   1  24
HETATM   24  O   UNL     1      -6.146   6.514 -30.467  1.00  0.00    -0.349 OA
BRANCH  24  25
HETATM   25  C   UNL     1      -5.975   5.763 -29.264  1.00  0.00     0.171 C 
HETATM   26  C   UNL     1      -5.146   6.555 -28.270  1.00  0.00     0.034 C 
ENDBRANCH  24  25
ENDBRANCH   1  24
BRANCH   2  27
HETATM   27  O   UNL     1      -3.996   6.678 -32.047  1.00  0.00    -0.338 OA
BRANCH  27  28
HETATM   28  C   UNL     1      -3.024   5.817 -31.441  1.00  0.00     0.278 C 
BRANCH  28  29
HETATM   29  C   UNL     1      -2.120   6.582 -30.477  1.00  0.00     0.242 C 
HETATM   30  N   UNL     1      -1.151   5.805 -29.880  1.00  0.00    -0.351 N 
HETATM   31  H   UNL     1      -1.042   4.873 -30.273  1.00  0.00     0.163 HD
HETATM   32  O   UNL     1      -2.306   7.770 -30.231  1.00  0.00    -0.271 OA
BRANCH  30  33
HETATM   33  C   UNL     1      -0.138   6.289 -28.932  1.00  0.00     0.022 C 
HETATM   34  C   UNL     1      -0.750   6.527 -27.542  1.00  0.00     0.037 C 
HETATM   35  C   UNL     1       0.948   5.207 -28.799  1.00  0.00     0.037 C 
HETATM   36  C   UNL     1       0.517   7.580 -29.447  1.00  0.00     0.037 C 
ENDBRANCH  30  33
ENDBRANCH  28  29
ENDBRANCH  27  28
ENDBRANCH   2  27
TORSDOF 10
ENDMDL
MODEL 6
REMARK VINA RESULT:      -7.6      2.766      4.682
REMARK  10 active torsions:
REMARK  status: ('A' for Active; 'I' for Inactive)
REMARK    1  A    between atoms: C_2  and  O_3 
REMARK    2  A    between atoms: O_3  and  C_4 
REMARK    3  A    between atoms: C_5  and  O_6 
REMARK    4  A    between atoms: O_6  and  C_7 
REMARK    5  A    between atoms: C_7  and  C_8 
REMARK       I    between atoms: C_8  and  N_9 
REMARK    6  A    between atoms: N_9  and  C_10 
REMARK    7  A    between atoms: C_18  and  C_19 
REMARK    8  A    between atoms: C_19  and  N_20 
REMARK    9  A    between atoms: N_20  and  C_21 
REMARK   10  A    between atoms: C_24  and  N_25 
ROOT
HETATM    1  C   UNL     1      -5.459   3.954 -30.227  1.00  0.00     0.103 A 
HETATM    2  C   UNL     1      -4.496   4.534 -31.071  1.00  0.00     0.120 A 
HETATM    3  C   UNL     1      -3.627   3.725 -31.810  1.00  0.00     0.047 A 
HETATM    4 BR   UNL     1      -2.244   4.454 -32.884  1.00  0.00    -0.048 Br
HETATM    5  C   UNL     1      -3.758   2.336 -31.765  1.00  0.00     0.031 A 
HETATM    6  C   UNL     1      -4.745   1.741 -30.964  1.00  0.00    -0.036 A 
HETATM    7  C   UNL     1      -5.589   2.561 -30.196  1.00  0.00     0.048 A 
ENDROOT
BRANCH   6   8
HETATM    8  C   UNL     1      -4.906   0.238 -30.942  1.00  0.00     0.158 C 
BRANCH   8   9
HETATM    9  N   UNL     1      -5.313  -0.228 -32.264  1.00  0.00    -0.386 N 
HETATM   10  H   UNL     1      -5.197  -1.235 -32.372  1.00  0.00     0.160 HD
BRANCH   9  11
HETATM   11  C   UNL     1      -6.480   0.254 -32.852  1.00  0.00     0.028 A 
HETATM   12  C   UNL     1      -6.543   0.753 -34.158  1.00  0.00     0.031 A 
HETATM   13  C   UNL     1      -7.754   1.179 -34.718  1.00  0.00     0.039 A 
HETATM   14  C   UNL     1      -8.934   1.080 -33.982  1.00  0.00     0.134 A 
HETATM   15  C   UNL     1      -8.906   0.533 -32.701  1.00  0.00     0.039 A 
HETATM   16  C   UNL     1      -7.689   0.112 -32.154  1.00  0.00     0.031 A 
BRANCH  14  17
HETATM   17  N   UNL     1     -10.187   1.576 -34.583  1.00  0.00    -0.041 N 
HETATM   18  H   UNL     1     -10.184   1.250 -35.557  1.00  0.00     0.286 HD
HETATM   19  C   UNL     1     -11.403   0.967 -33.932  1.00  0.00     0.241 C 
HETATM   20  C   UNL     1     -12.641   1.411 -34.704  1.00  0.00     0.028 C 
HETATM   21  C   UNL     1     -12.727   2.932 -34.813  1.00  0.00     0.003 C 
HETATM   22  C   UNL     1     -11.451   3.524 -35.404  1.00  0.00     0.028 C 
HETATM   23  C   UNL     1     -10.214   3.083 -34.631  1.00  0.00     0.241 C 
ENDBRANCH  14  17
ENDBRANCH   9  11
ENDBRANCH   8   9
ENDBRANCH   6   8
BRANCH   1  24
HETATM   24  O   UNL     1      -6.250   4.824 -29.526  1.00  0.00    -0.349 OA
BRANCH  24  25
HETATM   25  C   UNL     1      -7.615   4.960 -29.921  1.00  0.00     0.171 C 
HETATM   26  C   UNL     1      -8.320   5.962 -29.025  1.00  0.00     0.034 C 
ENDBRANCH  24  25
ENDBRANCH   1  24
BRANCH   2  27
HETATM   27  O   UNL     1      -4.386   5.904 -31.109  1.00  0.00    -0.338 OA
BRANCH  27  28
HETATM   28  C   UNL     1      -3.778   6.379 -29.902  1.00  0.00     0.278 C 
BRANCH  28  29
HETATM   29  C   UNL     1      -2.370   6.912 -30.155  1.00  0.00     0.242 C 
HETATM   30  N   UNL     1      -1.366   6.094 -29.682  1.00  0.00    -0.351 N 
HETATM   31  H   UNL     1      -1.669   5.170 -29.383  1.00  0.00     0.163 HD
HETATM   32  O   UNL     1      -2.184   8.007 -30.679  1.00  0.00    -0.271 OA
BRANCH  30  33
HETATM   33  C   UNL     1       0.074   6.354 -29.811  1.00  0.00     0.022 C 
HETATM   34  C   UNL     1       0.525   7.460 -28.842  1.00  0.00     0.037 C 
HETATM   35  C   UNL     1       0.826   5.062 -29.449  1.00  0.00     0.037 C 
HETATM   36  C   UNL     1       0.430   6.741 -31.254  1.00  0.00     0.037 C 
ENDBRANCH  30  33
ENDBRANCH  28  29
ENDBRANCH  27  28
ENDBRANCH   2  27
TORSDOF 10
ENDMDL
MODEL 7
REMARK VINA RESULT:      -7.6      2.124      3.275
REMARK  10 active torsions:
REMARK  status: ('A' for Active; 'I' for Inactive)
REMARK    1  A    between atoms: C_2  and  O_3 
REMARK    2  A    between atoms: O_3  and  C_4 
REMARK    3  A    between atoms: C_5  and  O_6 
REMARK    4  A    between atoms: O_6  and  C_7 
REMARK    5  A    between atoms: C_7  and  C_8 
REMARK       I    between atoms: C_8  and  N_9 
REMARK    6  A    between atoms: N_9  and  C_10 
REMARK    7  A    between atoms: C_18  and  C_19 
REMARK    8  A    between atoms: C_19  and  N_20 
REMARK    9  A    between atoms: N_20  and  C_21 
REMARK   10  A    between atoms: C_24  and  N_25 
ROOT
HETATM    1  C   UNL     1      -6.068   3.056 -30.797  1.00  0.00     0.103 A 
HETATM    2  C   UNL     1      -5.852   4.438 -30.927  1.00  0.00     0.120 A 
HETATM    3  C   UNL     1      -6.783   5.238 -31.598  1.00  0.00     0.047 A 
HETATM    4 BR   UNL     1      -6.492   7.089 -31.890  1.00  0.00    -0.048 Br
HETATM    5  C   UNL     1      -7.966   4.675 -32.081  1.00  0.00     0.031 A 
HETATM    6  C   UNL     1      -8.220   3.305 -31.919  1.00  0.00    -0.036 A 
HETATM    7  C   UNL     1      -7.261   2.503 -31.276  1.00  0.00     0.048 A 
ENDROOT
BRANCH   6   8
HETATM    8  C   UNL     1      -9.516   2.705 -32.414  1.00  0.00     0.158 C 
BRANCH   8   9
HETATM    9  N   UNL     1      -9.349   2.257 -33.793  1.00  0.00    -0.386 N 
HETATM   10  H   UNL     1      -9.197   3.032 -34.436  1.00  0.00     0.160 HD
BRANCH   9  11
HETATM   11  C   UNL     1      -8.561   1.145 -34.082  1.00  0.00     0.028 A 
HETATM   12  C   UNL     1      -7.482   1.169 -34.974  1.00  0.00     0.031 A 
HETATM   13  C   UNL     1      -6.691   0.034 -35.191  1.00  0.00     0.039 A 
HETATM   14  C   UNL     1      -6.951  -1.140 -34.487  1.00  0.00     0.134 A 
HETATM   15  C   UNL     1      -7.983  -1.172 -33.551  1.00  0.00     0.039 A 
HETATM   16  C   UNL     1      -8.766  -0.031 -33.345  1.00  0.00     0.031 A 
BRANCH  14  17
HETATM   17  N   UNL     1      -6.127  -2.332 -34.767  1.00  0.00    -0.041 N 
HETATM   18  H   UNL     1      -5.779  -2.218 -35.727  1.00  0.00     0.286 HD
HETATM   19  C   UNL     1      -4.913  -2.399 -33.876  1.00  0.00     0.241 C 
HETATM   20  C   UNL     1      -4.042  -3.567 -34.328  1.00  0.00     0.028 C 
HETATM   21  C   UNL     1      -4.824  -4.878 -34.362  1.00  0.00     0.003 C 
HETATM   22  C   UNL     1      -6.088  -4.755 -35.209  1.00  0.00     0.028 C 
HETATM   23  C   UNL     1      -6.959  -3.589 -34.755  1.00  0.00     0.241 C 
ENDBRANCH  14  17
ENDBRANCH   9  11
ENDBRANCH   8   9
ENDBRANCH   6   8
BRANCH   1  24
HETATM   24  O   UNL     1      -5.092   2.350 -30.145  1.00  0.00    -0.349 OA
BRANCH  24  25
HETATM   25  C   UNL     1      -4.229   1.520 -30.923  1.00  0.00     0.171 C 
HETATM   26  C   UNL     1      -4.760   0.098 -30.949  1.00  0.00     0.034 C 
ENDBRANCH  24  25
ENDBRANCH   1  24
BRANCH   2  27
HETATM   27  O   UNL     1      -4.685   4.976 -30.438  1.00  0.00    -0.338 OA
BRANCH  27  28
HETATM   28  C   UNL     1      -3.704   5.046 -31.480  1.00  0.00     0.278 C 
BRANCH  28  29
HETATM   29  C   UNL     1      -2.544   5.962 -31.098  1.00  0.00     0.242 C 
HETATM   30  N   UNL     1      -1.466   5.304 -30.547  1.00  0.00    -0.351 N 
HETATM   31  H   UNL     1      -1.498   4.290 -30.618  1.00  0.00     0.163 HD
HETATM   32  O   UNL     1      -2.622   7.181 -31.226  1.00  0.00    -0.271 OA
BRANCH  30  33
HETATM   33  C   UNL     1      -0.214   5.938 -30.113  1.00  0.00     0.022 C 
HETATM   34  C   UNL     1       0.449   6.702 -31.271  1.00  0.00     0.037 C 
HETATM   35  C   UNL     1      -0.551   6.948 -29.002  1.00  0.00     0.037 C 
HETATM   36  C   UNL     1       0.758   4.892 -29.547  1.00  0.00     0.037 C 
ENDBRANCH  30  33
ENDBRANCH  28  29
ENDBRANCH  27  28
ENDBRANCH   2  27
TORSDOF 10
ENDMDL
MODEL 8
REMARK VINA RESULT:      -7.3      3.654      9.659
REMARK  10 active torsions:
REMARK  status: ('A' for Active; 'I' for Inactive)
REMARK    1  A    between atoms: C_2  and  O_3 
REMARK    2  A    between atoms: O_3  and  C_4 
REMARK    3  A    between atoms: C_5  and  O_6 
REMARK    4  A    between atoms: O_6  and  C_7 
REMARK    5  A    between atoms: C_7  and  C_8 
REMARK       I    between atoms: C_8  and  N_9 
REMARK    6  A    between atoms: N_9  and  C_10 
REMARK    7  A    between atoms: C_18  and  C_19 
REMARK    8  A    between atoms: C_19  and  N_20 
REMARK    9  A    between atoms: N_20  and  C_21 
REMARK   10  A    between atoms: C_24  and  N_25 
ROOT
HETATM    1  C   UNL     1      -5.542   4.705 -33.395  1.00  0.00     0.103 A 
HETATM    2  C   UNL     1      -5.233   3.583 -32.608  1.00  0.00     0.120 A 
HETATM    3  C   UNL     1      -3.909   3.150 -32.486  1.00  0.00     0.047 A 
HETATM    4 BR   UNL     1      -3.448   1.584 -31.520  1.00  0.00    -0.048 Br
HETATM    5  C   UNL     1      -2.880   3.874 -33.091  1.00  0.00     0.031 A 
HETATM    6  C   UNL     1      -3.165   5.024 -33.842  1.00  0.00    -0.036 A 
HETATM    7  C   UNL     1      -4.503   5.429 -33.990  1.00  0.00     0.048 A 
ENDROOT
BRANCH   6   8
HETATM    8  C   UNL     1      -2.046   5.824 -34.469  1.00  0.00     0.158 C 
BRANCH   8   9
HETATM    9  N   UNL     1      -2.061   7.183 -33.937  1.00  0.00    -0.386 N 
HETATM   10  H   UNL     1      -2.909   7.688 -34.191  1.00  0.00     0.160 HD
BRANCH   9  11
HETATM   11  C   UNL     1      -1.648   7.432 -32.631  1.00  0.00     0.028 A 
HETATM   12  C   UNL     1      -2.407   8.150 -31.699  1.00  0.00     0.031 A 
HETATM   13  C   UNL     1      -1.966   8.330 -30.382  1.00  0.00     0.039 A 
HETATM   14  C   UNL     1      -0.763   7.760 -29.968  1.00  0.00     0.134 A 
HETATM   15  C   UNL     1      -0.018   6.992 -30.861  1.00  0.00     0.039 A 
HETATM   16  C   UNL     1      -0.470   6.822 -32.173  1.00  0.00     0.031 A 
BRANCH  14  17
HETATM   17  N   UNL     1      -0.303   8.001 -28.586  1.00  0.00    -0.041 N 
HETATM   18  H   UNL     1      -0.693   8.911 -28.312  1.00  0.00     0.286 HD
HETATM   19  C   UNL     1      -0.862   6.987 -27.622  1.00  0.00     0.241 C 
HETATM   20  C   UNL     1      -0.466   7.392 -26.206  1.00  0.00     0.028 C 
HETATM   21  C   UNL     1       1.045   7.571 -26.068  1.00  0.00     0.003 C 
HETATM   22  C   UNL     1       1.591   8.544 -27.109  1.00  0.00     0.028 C 
HETATM   23  C   UNL     1       1.197   8.137 -28.524  1.00  0.00     0.241 C 
ENDBRANCH  14  17
ENDBRANCH   9  11
ENDBRANCH   8   9
ENDBRANCH   6   8
BRANCH   1  24
HETATM   24  O   UNL     1      -6.868   5.041 -33.475  1.00  0.00    -0.349 OA
BRANCH  24  25
HETATM   25  C   UNL     1      -7.296   6.245 -32.837  1.00  0.00     0.171 C 
HETATM   26  C   UNL     1      -8.022   5.919 -31.545  1.00  0.00     0.034 C 
ENDBRANCH  24  25
ENDBRANCH   1  24
BRANCH   2  27
HETATM   27  O   UNL     1      -6.258   2.887 -32.013  1.00  0.00    -0.338 OA
BRANCH  27  28
HETATM   28  C   UNL     1      -6.563   1.715 -32.778  1.00  0.00     0.278 C 
BRANCH  28  29
HETATM   29  C   UNL     1      -7.893   1.855 -33.515  1.00  0.00     0.242 C 
HETATM   30  N   UNL     1      -8.843   2.578 -32.825  1.00  0.00    -0.351 N 
HETATM   31  H   UNL     1      -8.499   3.069 -32.004  1.00  0.00     0.163 HD
HETATM   32  O   UNL     1      -8.088   1.307 -34.596  1.00  0.00    -0.271 OA
BRANCH  30  33
HETATM   33  C   UNL     1     -10.196   2.882 -33.310  1.00  0.00     0.022 C 
HETATM   34  C   UNL     1     -10.971   1.595 -33.633  1.00  0.00     0.037 C 
HETATM   35  C   UNL     1     -10.946   3.628 -32.192  1.00  0.00     0.037 C 
HETATM   36  C   UNL     1     -10.139   3.787 -34.550  1.00  0.00     0.037 C 
ENDBRANCH  30  33
ENDBRANCH  28  29
ENDBRANCH  27  28
ENDBRANCH   2  27
TORSDOF 10
ENDMDL
MODEL 9
REMARK VINA RESULT:      -7.2      1.474      2.075
REMARK  10 active torsions:
REMARK  status: ('A' for Active; 'I' for Inactive)
REMARK    1  A    between atoms: C_2  and  O_3 
REMARK    2  A    between atoms: O_3  and  C_4 
REMARK    3  A    between atoms: C_5  and  O_6 
REMARK    4  A    between atoms: O_6  and  C_7 
REMARK    5  A    between atoms: C_7  and  C_8 
REMARK       I    between atoms: C_8  and  N_9 
REMARK    6  A    between atoms: N_9  and  C_10 
REMARK    7  A    between atoms: C_18  and  C_19 
REMARK    8  A    between atoms: C_19  and  N_20 
REMARK    9  A    between atoms: N_20  and  C_21 
REMARK   10  A    between atoms: C_24  and  N_25 
ROOT
HETATM    1  C   UNL     1      -5.075   6.151 -30.997  1.00  0.00     0.103 A 
HETATM    2  C   UNL     1      -3.680   6.104 -30.831  1.00  0.00     0.120 A 
HETATM    3  C   UNL     1      -2.885   5.402 -31.744  1.00  0.00     0.047 A 
HETATM    4 BR   UNL     1      -1.012   5.219 -31.512  1.00  0.00    -0.048 Br
HETATM    5  C   UNL     1      -3.469   4.805 -32.862  1.00  0.00     0.031 A 
HETATM    6  C   UNL     1      -4.854   4.883 -33.069  1.00  0.00    -0.036 A 
HETATM    7  C   UNL     1      -5.649   5.558 -32.126  1.00  0.00     0.048 A 
ENDROOT
BRANCH   6   8
HETATM    8  C   UNL     1      -5.479   4.263 -34.298  1.00  0.00     0.158 C 
BRANCH   8   9
HETATM    9  N   UNL     1      -6.535   3.340 -33.894  1.00  0.00    -0.386 N 
HETATM   10  H   UNL     1      -7.440   3.590 -34.289  1.00  0.00     0.160 HD
BRANCH   9  11
HETATM   11  C   UNL     1      -6.304   1.966 -33.884  1.00  0.00     0.028 A 
HETATM   12  C   UNL     1      -5.616   1.302 -32.862  1.00  0.00     0.031 A 
HETATM   13  C   UNL     1      -5.454  -0.089 -32.877  1.00  0.00     0.039 A 
HETATM   14  C   UNL     1      -6.012  -0.843 -33.908  1.00  0.00     0.134 A 
HETATM   15  C   UNL     1      -6.750  -0.211 -34.907  1.00  0.00     0.039 A 
HETATM   16  C   UNL     1      -6.903   1.180 -34.880  1.00  0.00     0.031 A 
BRANCH  14  17
HETATM   17  N   UNL     1      -5.790  -2.302 -33.920  1.00  0.00    -0.041 N 
HETATM   18  H   UNL     1      -6.006  -2.630 -32.970  1.00  0.00     0.286 HD
HETATM   19  C   UNL     1      -6.745  -3.010 -34.846  1.00  0.00     0.241 C 
HETATM   20  C   UNL     1      -6.552  -4.515 -34.686  1.00  0.00     0.028 C 
HETATM   21  C   UNL     1      -5.099  -4.927 -34.907  1.00  0.00     0.003 C 
HETATM   22  C   UNL     1      -4.149  -4.137 -34.011  1.00  0.00     0.028 C 
HETATM   23  C   UNL     1      -4.341  -2.634 -34.173  1.00  0.00     0.241 C 
ENDBRANCH  14  17
ENDBRANCH   9  11
ENDBRANCH   8   9
ENDBRANCH   6   8
BRANCH   1  24
HETATM   24  O   UNL     1      -5.773   6.841 -30.042  1.00  0.00    -0.349 OA
BRANCH  24  25
HETATM   25  C   UNL     1      -6.707   6.119 -29.239  1.00  0.00     0.171 C 
HETATM   26  C   UNL     1      -6.027   5.608 -27.982  1.00  0.00     0.034 C 
ENDBRANCH  24  25
ENDBRANCH   1  24
BRANCH   2  27
HETATM   27  O   UNL     1      -3.121   6.704 -29.728  1.00  0.00    -0.338 OA
BRANCH  27  28
HETATM   28  C   UNL     1      -2.760   8.055 -30.036  1.00  0.00     0.278 C 
BRANCH  28  29
HETATM   29  C   UNL     1      -1.731   8.600 -29.048  1.00  0.00     0.242 C 
HETATM   30  N   UNL     1      -1.105   7.629 -28.297  1.00  0.00    -0.351 N 
HETATM   31  H   UNL     1      -1.270   6.674 -28.604  1.00  0.00     0.163 HD
HETATM   32  O   UNL     1      -1.548   9.807 -28.914  1.00  0.00    -0.271 OA
BRANCH  30  33
HETATM   33  C   UNL     1      -0.061   7.874 -27.292  1.00  0.00     0.022 C 
HETATM   34  C   UNL     1       0.284   6.585 -26.528  1.00  0.00     0.037 C 
HETATM   35  C   UNL     1       1.205   8.351 -28.025  1.00  0.00     0.037 C 
HETATM   36  C   UNL     1      -0.499   8.968 -26.307  1.00  0.00     0.037 C 
ENDBRANCH  30  33
ENDBRANCH  28  29
ENDBRANCH  27  28
ENDBRANCH   2  27
TORSDOF 10
ENDMDL
MODEL 10
REMARK VINA RESULT:      -6.9      1.893      2.301
REMARK  10 active torsions:
REMARK  status: ('A' for Active; 'I' for Inactive)
REMARK    1  A    between atoms: C_2  and  O_3 
REMARK    2  A    between atoms: O_3  and  C_4 
REMARK    3  A    between atoms: C_5  and  O_6 
REMARK    4  A    between atoms: O_6  and  C_7 
REMARK    5  A    between atoms: C_7  and  C_8 
REMARK       I    between atoms: C_8  and  N_9 
REMARK    6  A    between atoms: N_9  and  C_10 
REMARK    7  A    between atoms: C_18  and  C_19 
REMARK    8  A    between atoms: C_19  and  N_20 
REMARK    9  A    between atoms: N_20  and  C_21 
REMARK   10  A    between atoms: C_24  and  N_25 
ROOT
HETATM    1  C   UNL     1      -3.826   7.461 -31.431  1.00  0.00     0.103 A 
HETATM    2  C   UNL     1      -2.473   7.113 -31.276  1.00  0.00     0.120 A 
HETATM    3  C   UNL     1      -1.981   5.930 -31.837  1.00  0.00     0.047 A 
HETATM    4 BR   UNL     1      -0.191   5.362 -31.572  1.00  0.00    -0.048 Br
HETATM    5  C   UNL     1      -2.816   5.125 -32.613  1.00  0.00     0.031 A 
HETATM    6  C   UNL     1      -4.157   5.482 -32.818  1.00  0.00    -0.036 A 
HETATM    7  C   UNL     1      -4.653   6.653 -32.219  1.00  0.00     0.048 A 
ENDROOT
BRANCH   6   8
HETATM    8  C   UNL     1      -5.052   4.626 -33.686  1.00  0.00     0.158 C 
BRANCH   8   9
HETATM    9  N   UNL     1      -5.819   3.714 -32.843  1.00  0.00    -0.386 N 
HETATM   10  H   UNL     1      -6.767   4.049 -32.674  1.00  0.00     0.160 HD
BRANCH   9  11
HETATM   11  C   UNL     1      -5.755   2.339 -33.053  1.00  0.00     0.028 A 
HETATM   12  C   UNL     1      -4.838   1.498 -32.411  1.00  0.00     0.031 A 
HETATM   13  C   UNL     1      -4.849   0.112 -32.621  1.00  0.00     0.039 A 
HETATM   14  C   UNL     1      -5.808  -0.456 -33.458  1.00  0.00     0.134 A 
HETATM   15  C   UNL     1      -6.767   0.354 -34.063  1.00  0.00     0.039 A 
HETATM   16  C   UNL     1      -6.744   1.735 -33.845  1.00  0.00     0.031 A 
BRANCH  14  17
HETATM   17  N   UNL     1      -5.769  -1.913 -33.693  1.00  0.00    -0.041 N 
HETATM   18  H   UNL     1      -6.010  -2.352 -32.796  1.00  0.00     0.286 HD
HETATM   19  C   UNL     1      -6.818  -2.352 -34.681  1.00  0.00     0.241 C 
HETATM   20  C   UNL     1      -6.812  -3.876 -34.752  1.00  0.00     0.028 C 
HETATM   21  C   UNL     1      -5.424  -4.423 -35.081  1.00  0.00     0.003 C 
HETATM   22  C   UNL     1      -4.371  -3.898 -34.109  1.00  0.00     0.028 C 
HETATM   23  C   UNL     1      -4.376  -2.375 -34.040  1.00  0.00     0.241 C 
ENDBRANCH  14  17
ENDBRANCH   9  11
ENDBRANCH   8   9
ENDBRANCH   6   8
BRANCH   1  24
HETATM   24  O   UNL     1      -4.223   8.625 -30.828  1.00  0.00    -0.349 OA
BRANCH  24  25
HETATM   25  C   UNL     1      -5.531   9.119 -31.116  1.00  0.00     0.171 C 
HETATM   26  C   UNL     1      -5.515  10.636 -31.162  1.00  0.00     0.034 C 
ENDBRANCH  24  25
ENDBRANCH   1  24
BRANCH   2  27
HETATM   27  O   UNL     1      -1.663   7.921 -30.515  1.00  0.00    -0.338 OA
BRANCH  27  28
HETATM   28  C   UNL     1      -1.657   7.467 -29.156  1.00  0.00     0.278 C 
BRANCH  28  29
HETATM   29  C   UNL     1      -0.389   7.904 -28.424  1.00  0.00     0.242 C 
HETATM   30  N   UNL     1      -0.619   8.455 -27.182  1.00  0.00    -0.351 N 
HETATM   31  H   UNL     1      -1.569   8.350 -26.833  1.00  0.00     0.163 HD
HETATM   32  O   UNL     1       0.717   7.816 -28.951  1.00  0.00    -0.271 OA
BRANCH  30  33
HETATM   33  C   UNL     1       0.418   8.936 -26.260  1.00  0.00     0.022 C 
HETATM   34  C   UNL     1       1.098  10.204 -26.804  1.00  0.00     0.037 C 
HETATM   35  C   UNL     1      -0.257   9.289 -24.924  1.00  0.00     0.037 C 
HETATM   36  C   UNL     1       1.469   7.844 -26.006  1.00  0.00     0.037 C 
ENDBRANCH  30  33
ENDBRANCH  28  29
ENDBRANCH  27  28
ENDBRANCH   2  27
TORSDOF 10
ENDMDL
