MODEL 1
REMARK VINA RESULT:      -8.9      0.000      0.000
REMARK  5 active torsions:
REMARK  status: ('A' for Active; 'I' for Inactive)
REMARK    1  A    between atoms: C_3  and  O_4 
REMARK    2  A    between atoms: O_4  and  C_5 
REMARK    3  A    between atoms: C_5  and  C_6 
REMARK       I    between atoms: C_6  and  N_7 
REMARK    4  A    between atoms: N_7  and  N_8 
REMARK    5  A    between atoms: C_9  and  C_10 
ROOT
HETATM    1  C   UNL     1      -3.357   0.184 -31.476  1.00  0.00     0.261 C 
HETATM    2  N   UNL     1      -4.067   1.310 -31.891  1.00  0.00    -0.246 N 
HETATM    3  O   UNL     1      -2.279   0.198 -30.883  1.00  0.00    -0.269 OA
HETATM    4  H   UNL     1      -4.810   1.165 -32.569  1.00  0.00     0.192 HD
ENDROOT
BRANCH   2   5
HETATM    5  N   UNL     1      -3.550   2.586 -31.883  1.00  0.00    -0.184 NA
HETATM    6  C   UNL     1      -3.008   3.010 -32.980  1.00  0.00     0.153 C 
BRANCH   6   7
HETATM    7  C   UNL     1      -2.514   4.374 -33.078  1.00  0.00     0.018 A 
HETATM    8  C   UNL     1      -1.573   5.065 -32.242  1.00  0.00     0.004 A 
HETATM    9  C   UNL     1      -1.452   6.365 -32.733  1.00  0.00     0.043 A 
HETATM   10  C   UNL     1      -0.818   4.717 -31.101  1.00  0.00     0.014 A 
HETATM   11  C   UNL     1      -0.624   7.329 -32.146  1.00  0.00     0.030 A 
HETATM   12  N   UNL     1      -2.277   6.463 -33.828  1.00  0.00    -0.358 N 
HETATM   13  C   UNL     1       0.109   6.956 -31.017  1.00  0.00     0.002 A 
HETATM   14  C   UNL     1       0.016   5.668 -30.500  1.00  0.00     0.001 A 
HETATM   15  H   UNL     1      -2.387   7.302 -34.380  1.00  0.00     0.166 HD
HETATM   16  C   UNL     1      -2.930   5.277 -34.050  1.00  0.00     0.018 A 
HETATM   17  C   UNL     1      -3.890   5.125 -35.174  1.00  0.00     0.069 C 
ENDBRANCH   6   7
ENDBRANCH   2   5
BRANCH   1  18
HETATM   18  C   UNL     1      -4.003  -1.125 -31.921  1.00  0.00     0.280 C 
BRANCH  18  19
HETATM   19  O   UNL     1      -4.284  -1.100 -33.317  1.00  0.00    -0.342 OA
BRANCH  19  20
HETATM   20  C   UNL     1      -4.835  -2.251 -33.822  1.00  0.00     0.075 A 
HETATM   21  C   UNL     1      -6.136  -2.154 -34.344  1.00  0.00    -0.029 A 
HETATM   22  C   UNL     1      -6.919  -0.872 -34.280  1.00  0.00     0.051 C 
HETATM   23  C   UNL     1      -6.750  -3.304 -34.867  1.00  0.00     0.009 A 
HETATM   24  C   UNL     1      -6.069  -4.519 -34.907  1.00  0.00     0.001 A 
HETATM   25  C   UNL     1      -4.768  -4.601 -34.419  1.00  0.00     0.003 A 
HETATM   26  C   UNL     1      -4.151  -3.470 -33.880  1.00  0.00     0.037 A 
ENDBRANCH  19  20
ENDBRANCH  18  19
ENDBRANCH   1  18
TORSDOF 5
ENDMDL
MODEL 2
REMARK VINA RESULT:      -8.7      5.257      9.177
REMARK  5 active torsions:
REMARK  status: ('A' for Active; 'I' for Inactive)
REMARK    1  A    between atoms: C_3  and  O_4 
REMARK    2  A    between atoms: O_4  and  C_5 
REMARK    3  A    between atoms: C_5  and  C_6 
REMARK       I    between atoms: C_6  and  N_7 
REMARK    4  A    between atoms: N_7  and  N_8 
REMARK    5  A    between atoms: C_9  and  C_10 
ROOT
HETATM    1  C   UNL     1      -9.839   1.060 -32.759  1.00  0.00     0.261 C 
HETATM    2  N   UNL     1      -8.496   1.227 -32.422  1.00  0.00    -0.246 N 
HETATM    3  O   UNL     1     -10.403  -0.020 -32.929  1.00  0.00    -0.269 OA
HETATM    4  H   UNL     1      -8.100   2.156 -32.545  1.00  0.00     0.192 HD
ENDROOT
BRANCH   2   5
HETATM    5  N   UNL     1      -7.569   0.210 -32.445  1.00  0.00    -0.184 NA
HETATM    6  C   UNL     1      -6.857   0.083 -33.519  1.00  0.00     0.153 C 
BRANCH   6   7
HETATM    7  C   UNL     1      -5.802  -0.914 -33.590  1.00  0.00     0.018 A 
HETATM    8  C   UNL     1      -5.850  -2.261 -34.085  1.00  0.00     0.004 A 
HETATM    9  C   UNL     1      -4.584  -2.818 -33.908  1.00  0.00     0.043 A 
HETATM   10  C   UNL     1      -6.856  -3.071 -34.657  1.00  0.00     0.014 A 
HETATM   11  C   UNL     1      -4.272  -4.135 -34.268  1.00  0.00     0.030 A 
HETATM   12  N   UNL     1      -3.792  -1.852 -33.337  1.00  0.00    -0.358 N 
HETATM   13  C   UNL     1      -5.288  -4.913 -34.829  1.00  0.00     0.002 A 
HETATM   14  C   UNL     1      -6.563  -4.391 -35.023  1.00  0.00     0.001 A 
HETATM   15  H   UNL     1      -2.820  -1.987 -33.096  1.00  0.00     0.166 HD
HETATM   16  C   UNL     1      -4.506  -0.699 -33.131  1.00  0.00     0.018 A 
HETATM   17  C   UNL     1      -3.877   0.499 -32.515  1.00  0.00     0.069 C 
ENDBRANCH   6   7
ENDBRANCH   2   5
BRANCH   1  18
HETATM   18  C   UNL     1     -10.560   2.382 -33.009  1.00  0.00     0.280 C 
BRANCH  18  19
HETATM   19  O   UNL     1     -11.717   2.180 -33.815  1.00  0.00    -0.342 OA
BRANCH  19  20
HETATM   20  C   UNL     1     -12.913   2.428 -33.190  1.00  0.00     0.075 A 
HETATM   21  C   UNL     1     -13.925   1.467 -33.354  1.00  0.00    -0.029 A 
HETATM   22  C   UNL     1     -13.737   0.266 -34.238  1.00  0.00     0.051 C 
HETATM   23  C   UNL     1     -15.172   1.675 -32.741  1.00  0.00     0.009 A 
HETATM   24  C   UNL     1     -15.395   2.798 -31.947  1.00  0.00     0.001 A 
HETATM   25  C   UNL     1     -14.379   3.729 -31.760  1.00  0.00     0.003 A 
HETATM   26  C   UNL     1     -13.140   3.545 -32.377  1.00  0.00     0.037 A 
ENDBRANCH  19  20
ENDBRANCH  18  19
ENDBRANCH   1  18
TORSDOF 5
ENDMDL
MODEL 3
REMARK VINA RESULT:      -8.6      1.552      2.086
REMARK  5 active torsions:
REMARK  status: ('A' for Active; 'I' for Inactive)
REMARK    1  A    between atoms: C_3  and  O_4 
REMARK    2  A    between atoms: O_4  and  C_5 
REMARK    3  A    between atoms: C_5  and  C_6 
REMARK       I    between atoms: C_6  and  N_7 
REMARK    4  A    between atoms: N_7  and  N_8 
REMARK    5  A    between atoms: C_9  and  C_10 
ROOT
HETATM    1  C   UNL     1      -3.166  -0.207 -31.664  1.00  0.00     0.261 C 
HETATM    2  N   UNL     1      -3.858   0.831 -32.285  1.00  0.00    -0.246 N 
HETATM    3  O   UNL     1      -2.217  -0.072 -30.893  1.00  0.00    -0.269 OA
HETATM    4  H   UNL     1      -4.454   0.585 -33.071  1.00  0.00     0.192 HD
ENDROOT
BRANCH   2   5
HETATM    5  N   UNL     1      -3.434   2.141 -32.285  1.00  0.00    -0.184 NA
HETATM    6  C   UNL     1      -4.324   3.050 -32.039  1.00  0.00     0.153 C 
BRANCH   6   7
HETATM    7  C   UNL     1      -3.940   4.448 -31.940  1.00  0.00     0.018 A 
HETATM    8  C   UNL     1      -3.005   5.195 -32.733  1.00  0.00     0.004 A 
HETATM    9  C   UNL     1      -2.967   6.494 -32.223  1.00  0.00     0.043 A 
HETATM   10  C   UNL     1      -2.170   4.891 -33.830  1.00  0.00     0.014 A 
HETATM   11  C   UNL     1      -2.143   7.496 -32.749  1.00  0.00     0.030 A 
HETATM   12  N   UNL     1      -3.848   6.541 -31.170  1.00  0.00    -0.358 N 
HETATM   13  C   UNL     1      -1.327   7.165 -33.833  1.00  0.00     0.002 A 
HETATM   14  C   UNL     1      -1.339   5.881 -34.369  1.00  0.00     0.001 A 
HETATM   15  H   UNL     1      -4.020   7.367 -30.613  1.00  0.00     0.166 HD
HETATM   16  C   UNL     1      -4.440   5.319 -30.978  1.00  0.00     0.018 A 
HETATM   17  C   UNL     1      -5.431   5.105 -29.890  1.00  0.00     0.069 C 
ENDBRANCH   6   7
ENDBRANCH   2   5
BRANCH   1  18
HETATM   18  C   UNL     1      -3.633  -1.589 -32.114  1.00  0.00     0.280 C 
BRANCH  18  19
HETATM   19  O   UNL     1      -3.824  -1.622 -33.525  1.00  0.00    -0.342 OA
BRANCH  19  20
HETATM   20  C   UNL     1      -4.629  -2.635 -33.981  1.00  0.00     0.075 A 
HETATM   21  C   UNL     1      -5.924  -2.278 -34.396  1.00  0.00    -0.029 A 
HETATM   22  C   UNL     1      -6.432  -0.868 -34.271  1.00  0.00     0.051 C 
HETATM   23  C   UNL     1      -6.792  -3.277 -34.865  1.00  0.00     0.009 A 
HETATM   24  C   UNL     1      -6.368  -4.602 -34.957  1.00  0.00     0.001 A 
HETATM   25  C   UNL     1      -5.075  -4.944 -34.576  1.00  0.00     0.003 A 
HETATM   26  C   UNL     1      -4.205  -3.965 -34.092  1.00  0.00     0.037 A 
ENDBRANCH  19  20
ENDBRANCH  18  19
ENDBRANCH   1  18
TORSDOF 5
ENDMDL
MODEL 4
REMARK VINA RESULT:      -8.5      2.109      8.821
REMARK  5 active torsions:
REMARK  status: ('A' for Active; 'I' for Inactive)
REMARK    1  A    between atoms: C_3  and  O_4 
REMARK    2  A    between atoms: O_4  and  C_5 
REMARK    3  A    between atoms: C_5  and  C_6 
REMARK       I    between atoms: C_6  and  N_7 
REMARK    4  A    between atoms: N_7  and  N_8 
REMARK    5  A    between atoms: C_9  and  C_10 
ROOT
HETATM    1  C   UNL     1      -4.103   2.455 -31.677  1.00  0.00     0.261 C 
HETATM    2  N   UNL     1      -3.864   1.102 -31.442  1.00  0.00    -0.246 N 
HETATM    3  O   UNL     1      -5.100   2.918 -32.228  1.00  0.00    -0.269 OA
HETATM    4  H   UNL     1      -2.912   0.835 -31.201  1.00  0.00     0.192 HD
ENDROOT
BRANCH   2   5
HETATM    5  N   UNL     1      -4.614   0.086 -31.989  1.00  0.00    -0.184 NA
HETATM    6  C   UNL     1      -4.578  -0.049 -33.277  1.00  0.00     0.153 C 
BRANCH   6   7
HETATM    7  C   UNL     1      -5.276  -1.148 -33.922  1.00  0.00     0.018 A 
HETATM    8  C   UNL     1      -4.940  -2.543 -33.964  1.00  0.00     0.004 A 
HETATM    9  C   UNL     1      -5.910  -3.185 -34.734  1.00  0.00     0.043 A 
HETATM   10  C   UNL     1      -3.892  -3.326 -33.433  1.00  0.00     0.014 A 
HETATM   11  C   UNL     1      -5.887  -4.559 -35.001  1.00  0.00     0.030 A 
HETATM   12  N   UNL     1      -6.806  -2.226 -35.138  1.00  0.00    -0.358 N 
HETATM   13  C   UNL     1      -4.837  -5.308 -34.464  1.00  0.00     0.002 A 
HETATM   14  C   UNL     1      -3.852  -4.703 -33.689  1.00  0.00     0.001 A 
HETATM   15  H   UNL     1      -7.615  -2.414 -35.714  1.00  0.00     0.166 HD
HETATM   16  C   UNL     1      -6.441  -0.990 -34.666  1.00  0.00     0.018 A 
HETATM   17  C   UNL     1      -7.245   0.222 -34.972  1.00  0.00     0.069 C 
ENDBRANCH   6   7
ENDBRANCH   2   5
BRANCH   1  18
HETATM   18  C   UNL     1      -2.935   3.348 -31.268  1.00  0.00     0.280 C 
BRANCH  18  19
HETATM   19  O   UNL     1      -2.237   3.823 -32.416  1.00  0.00    -0.342 OA
BRANCH  19  20
HETATM   20  C   UNL     1      -1.974   5.169 -32.422  1.00  0.00     0.075 A 
HETATM   21  C   UNL     1      -1.891   5.793 -33.678  1.00  0.00    -0.029 A 
HETATM   22  C   UNL     1      -2.003   5.010 -34.957  1.00  0.00     0.051 C 
HETATM   23  C   UNL     1      -1.616   7.169 -33.742  1.00  0.00     0.009 A 
HETATM   24  C   UNL     1      -1.466   7.919 -32.577  1.00  0.00     0.001 A 
HETATM   25  C   UNL     1      -1.582   7.303 -31.335  1.00  0.00     0.003 A 
HETATM   26  C   UNL     1      -1.838   5.932 -31.256  1.00  0.00     0.037 A 
ENDBRANCH  19  20
ENDBRANCH  18  19
ENDBRANCH   1  18
TORSDOF 5
ENDMDL
MODEL 5
REMARK VINA RESULT:      -8.4      1.511      2.326
REMARK  5 active torsions:
REMARK  status: ('A' for Active; 'I' for Inactive)
REMARK    1  A    between atoms: C_3  and  O_4 
REMARK    2  A    between atoms: O_4  and  C_5 
REMARK    3  A    between atoms: C_5  and  C_6 
REMARK       I    between atoms: C_6  and  N_7 
REMARK    4  A    between atoms: N_7  and  N_8 
REMARK    5  A    between atoms: C_9  and  C_10 
ROOT
HETATM    1  C   UNL     1      -6.367   1.913 -33.127  1.00  0.00     0.261 C 
HETATM    2  N   UNL     1      -5.505   2.408 -32.150  1.00  0.00    -0.246 N 
HETATM    3  O   UNL     1      -6.426   2.304 -34.292  1.00  0.00    -0.269 OA
HETATM    4  H   UNL     1      -5.717   2.173 -31.183  1.00  0.00     0.192 HD
ENDROOT
BRANCH   2   5
HETATM    5  N   UNL     1      -4.752   3.550 -32.301  1.00  0.00    -0.184 NA
HETATM    6  C   UNL     1      -3.522   3.401 -32.681  1.00  0.00     0.153 C 
BRANCH   6   7
HETATM    7  C   UNL     1      -2.687   4.562 -32.943  1.00  0.00     0.018 A 
HETATM    8  C   UNL     1      -1.640   5.131 -32.143  1.00  0.00     0.004 A 
HETATM    9  C   UNL     1      -1.163   6.256 -32.816  1.00  0.00     0.043 A 
HETATM   10  C   UNL     1      -1.057   4.808 -30.898  1.00  0.00     0.014 A 
HETATM   11  C   UNL     1      -0.141   7.070 -32.313  1.00  0.00     0.030 A 
HETATM   12  N   UNL     1      -1.880   6.365 -33.982  1.00  0.00    -0.358 N 
HETATM   13  C   UNL     1       0.415   6.727 -31.078  1.00  0.00     0.002 A 
HETATM   14  C   UNL     1      -0.034   5.611 -30.378  1.00  0.00     0.001 A 
HETATM   15  H   UNL     1      -1.742   7.097 -34.665  1.00  0.00     0.166 HD
HETATM   16  C   UNL     1      -2.808   5.359 -34.077  1.00  0.00     0.018 A 
HETATM   17  C   UNL     1      -3.720   5.258 -35.246  1.00  0.00     0.069 C 
ENDBRANCH   6   7
ENDBRANCH   2   5
BRANCH   1  18
HETATM   18  C   UNL     1      -7.343   0.871 -32.589  1.00  0.00     0.280 C 
BRANCH  18  19
HETATM   19  O   UNL     1      -6.644  -0.264 -32.086  1.00  0.00    -0.342 OA
BRANCH  19  20
HETATM   20  C   UNL     1      -6.207  -1.148 -33.040  1.00  0.00     0.075 A 
HETATM   21  C   UNL     1      -4.841  -1.479 -33.020  1.00  0.00    -0.029 A 
HETATM   22  C   UNL     1      -3.887  -0.833 -32.053  1.00  0.00     0.051 C 
HETATM   23  C   UNL     1      -4.339  -2.374 -33.978  1.00  0.00     0.009 A 
HETATM   24  C   UNL     1      -5.187  -2.961 -34.915  1.00  0.00     0.001 A 
HETATM   25  C   UNL     1      -6.545  -2.657 -34.909  1.00  0.00     0.003 A 
HETATM   26  C   UNL     1      -7.055  -1.755 -33.973  1.00  0.00     0.037 A 
ENDBRANCH  19  20
ENDBRANCH  18  19
ENDBRANCH   1  18
TORSDOF 5
ENDMDL
MODEL 6
REMARK VINA RESULT:      -8.3      2.111      3.173
REMARK  5 active torsions:
REMARK  status: ('A' for Active; 'I' for Inactive)
REMARK    1  A    between atoms: C_3  and  O_4 
REMARK    2  A    between atoms: O_4  and  C_5 
REMARK    3  A    between atoms: C_5  and  C_6 
REMARK       I    between atoms: C_6  and  N_7 
REMARK    4  A    between atoms: N_7  and  N_8 
REMARK    5  A    between atoms: C_9  and  C_10 
ROOT
HETATM    1  C   UNL     1      -7.388   0.385 -33.260  1.00  0.00     0.261 C 
HETATM    2  N   UNL     1      -6.521   1.293 -33.866  1.00  0.00    -0.246 N 
HETATM    3  O   UNL     1      -7.971   0.559 -32.191  1.00  0.00    -0.269 OA
HETATM    4  H   UNL     1      -5.927   0.939 -34.612  1.00  0.00     0.192 HD
ENDROOT
BRANCH   2   5
HETATM    5  N   UNL     1      -6.033   2.419 -33.242  1.00  0.00    -0.184 NA
HETATM    6  C   UNL     1      -4.885   2.317 -32.652  1.00  0.00     0.153 C 
BRANCH   6   7
HETATM    7  C   UNL     1      -4.265   3.482 -32.042  1.00  0.00     0.018 A 
HETATM    8  C   UNL     1      -3.185   4.297 -32.523  1.00  0.00     0.004 A 
HETATM    9  C   UNL     1      -2.938   5.276 -31.559  1.00  0.00     0.043 A 
HETATM   10  C   UNL     1      -2.377   4.291 -33.681  1.00  0.00     0.014 A 
HETATM   11  C   UNL     1      -1.932   6.241 -31.692  1.00  0.00     0.030 A 
HETATM   12  N   UNL     1      -3.835   5.075 -30.538  1.00  0.00    -0.358 N 
HETATM   13  C   UNL     1      -1.149   6.208 -32.848  1.00  0.00     0.002 A 
HETATM   14  C   UNL     1      -1.366   5.248 -33.831  1.00  0.00     0.001 A 
HETATM   15  H   UNL     1      -3.879   5.643 -29.704  1.00  0.00     0.166 HD
HETATM   16  C   UNL     1      -4.639   3.996 -30.805  1.00  0.00     0.018 A 
HETATM   17  C   UNL     1      -5.691   3.562 -29.848  1.00  0.00     0.069 C 
ENDBRANCH   6   7
ENDBRANCH   2   5
BRANCH   1  18
HETATM   18  C   UNL     1      -7.484  -0.940 -34.011  1.00  0.00     0.280 C 
BRANCH  18  19
HETATM   19  O   UNL     1      -6.303  -1.175 -34.772  1.00  0.00    -0.342 OA
BRANCH  19  20
HETATM   20  C   UNL     1      -5.733  -2.411 -34.598  1.00  0.00     0.075 A 
HETATM   21  C   UNL     1      -4.522  -2.456 -33.887  1.00  0.00    -0.029 A 
HETATM   22  C   UNL     1      -3.840  -1.203 -33.410  1.00  0.00     0.051 C 
HETATM   23  C   UNL     1      -3.892  -3.695 -33.685  1.00  0.00     0.009 A 
HETATM   24  C   UNL     1      -4.476  -4.873 -34.149  1.00  0.00     0.001 A 
HETATM   25  C   UNL     1      -5.692  -4.826 -34.823  1.00  0.00     0.003 A 
HETATM   26  C   UNL     1      -6.321  -3.599 -35.046  1.00  0.00     0.037 A 
ENDBRANCH  19  20
ENDBRANCH  18  19
ENDBRANCH   1  18
TORSDOF 5
ENDMDL
MODEL 7
REMARK VINA RESULT:      -8.0      4.704      7.096
REMARK  5 active torsions:
REMARK  status: ('A' for Active; 'I' for Inactive)
REMARK    1  A    between atoms: C_3  and  O_4 
REMARK    2  A    between atoms: O_4  and  C_5 
REMARK    3  A    between atoms: C_5  and  C_6 
REMARK       I    between atoms: C_6  and  N_7 
REMARK    4  A    between atoms: N_7  and  N_8 
REMARK    5  A    between atoms: C_9  and  C_10 
ROOT
HETATM    1  C   UNL     1      -5.415   0.255 -31.862  1.00  0.00     0.261 C 
HETATM    2  N   UNL     1      -6.742  -0.159 -31.967  1.00  0.00    -0.246 N 
HETATM    3  O   UNL     1      -5.040   1.413 -31.686  1.00  0.00    -0.269 OA
HETATM    4  H   UNL     1      -6.908  -1.088 -32.345  1.00  0.00     0.192 HD
ENDROOT
BRANCH   2   5
HETATM    5  N   UNL     1      -7.804   0.705 -32.101  1.00  0.00    -0.184 NA
HETATM    6  C   UNL     1      -8.100   1.097 -33.300  1.00  0.00     0.153 C 
BRANCH   6   7
HETATM    7  C   UNL     1      -9.258   1.943 -33.534  1.00  0.00     0.018 A 
HETATM    8  C   UNL     1     -10.647   1.587 -33.607  1.00  0.00     0.004 A 
HETATM    9  C   UNL     1     -11.364   2.753 -33.879  1.00  0.00     0.043 A 
HETATM   10  C   UNL     1     -11.370   0.380 -33.484  1.00  0.00     0.014 A 
HETATM   11  C   UNL     1     -12.756   2.775 -34.035  1.00  0.00     0.030 A 
HETATM   12  N   UNL     1     -10.454   3.779 -33.959  1.00  0.00    -0.358 N 
HETATM   13  C   UNL     1     -13.443   1.565 -33.909  1.00  0.00     0.002 A 
HETATM   14  C   UNL     1     -12.762   0.383 -33.637  1.00  0.00     0.001 A 
HETATM   15  H   UNL     1     -10.701   4.740 -34.149  1.00  0.00     0.166 HD
HETATM   16  C   UNL     1      -9.179   3.313 -33.760  1.00  0.00     0.018 A 
HETATM   17  C   UNL     1      -8.008   4.227 -33.805  1.00  0.00     0.069 C 
ENDBRANCH   6   7
ENDBRANCH   2   5
BRANCH   1  18
HETATM   18  C   UNL     1      -4.417  -0.876 -32.093  1.00  0.00     0.280 C 
BRANCH  18  19
HETATM   19  O   UNL     1      -4.316  -1.184 -33.481  1.00  0.00    -0.342 OA
BRANCH  19  20
HETATM   20  C   UNL     1      -4.534  -2.500 -33.803  1.00  0.00     0.075 A 
HETATM   21  C   UNL     1      -5.649  -2.778 -34.612  1.00  0.00    -0.029 A 
HETATM   22  C   UNL     1      -6.604  -1.697 -35.037  1.00  0.00     0.051 C 
HETATM   23  C   UNL     1      -5.923  -4.109 -34.966  1.00  0.00     0.009 A 
HETATM   24  C   UNL     1      -5.081  -5.141 -34.556  1.00  0.00     0.001 A 
HETATM   25  C   UNL     1      -3.960  -4.857 -33.783  1.00  0.00     0.003 A 
HETATM   26  C   UNL     1      -3.684  -3.540 -33.409  1.00  0.00     0.037 A 
ENDBRANCH  19  20
ENDBRANCH  18  19
ENDBRANCH   1  18
TORSDOF 5
ENDMDL
MODEL 8
REMARK VINA RESULT:      -8.0      2.345      9.069
REMARK  5 active torsions:
REMARK  status: ('A' for Active; 'I' for Inactive)
REMARK    1  A    between atoms: C_3  and  O_4 
REMARK    2  A    between atoms: O_4  and  C_5 
REMARK    3  A    between atoms: C_5  and  C_6 
REMARK       I    between atoms: C_6  and  N_7 
REMARK    4  A    between atoms: N_7  and  N_8 
REMARK    5  A    between atoms: C_9  and  C_10 
ROOT
HETATM    1  C   UNL     1      -3.897   3.990 -32.262  1.00  0.00     0.261 C 
HETATM    2  N   UNL     1      -3.741   2.746 -31.655  1.00  0.00    -0.246 N 
HETATM    3  O   UNL     1      -4.270   4.179 -33.419  1.00  0.00    -0.269 OA
HETATM    4  H   UNL     1      -3.206   2.716 -30.790  1.00  0.00     0.192 HD
ENDROOT
BRANCH   2   5
HETATM    5  N   UNL     1      -3.779   1.551 -32.337  1.00  0.00    -0.184 NA
HETATM    6  C   UNL     1      -4.902   0.906 -32.337  1.00  0.00     0.153 C 
BRANCH   6   7
HETATM    7  C   UNL     1      -5.046  -0.321 -33.104  1.00  0.00     0.018 A 
HETATM    8  C   UNL     1      -4.398  -1.589 -32.925  1.00  0.00     0.004 A 
HETATM    9  C   UNL     1      -4.851  -2.438 -33.935  1.00  0.00     0.043 A 
HETATM   10  C   UNL     1      -3.452  -2.099 -32.008  1.00  0.00     0.014 A 
HETATM   11  C   UNL     1      -4.411  -3.760 -34.076  1.00  0.00     0.030 A 
HETATM   12  N   UNL     1      -5.746  -1.723 -34.693  1.00  0.00    -0.358 N 
HETATM   13  C   UNL     1      -3.475  -4.235 -33.155  1.00  0.00     0.002 A 
HETATM   14  C   UNL     1      -3.000  -3.419 -32.134  1.00  0.00     0.001 A 
HETATM   15  H   UNL     1      -6.230  -2.096 -35.499  1.00  0.00     0.166 HD
HETATM   16  C   UNL     1      -5.874  -0.444 -34.214  1.00  0.00     0.018 A 
HETATM   17  C   UNL     1      -6.780   0.537 -34.868  1.00  0.00     0.069 C 
ENDBRANCH   6   7
ENDBRANCH   2   5
BRANCH   1  18
HETATM   18  C   UNL     1      -3.452   5.148 -31.372  1.00  0.00     0.280 C 
BRANCH  18  19
HETATM   19  O   UNL     1      -2.032   5.250 -31.348  1.00  0.00    -0.342 OA
BRANCH  19  20
HETATM   20  C   UNL     1      -1.531   6.220 -30.517  1.00  0.00     0.075 A 
HETATM   21  C   UNL     1      -0.145   6.203 -30.286  1.00  0.00    -0.029 A 
HETATM   22  C   UNL     1       0.736   5.124 -30.853  1.00  0.00     0.051 C 
HETATM   23  C   UNL     1       0.420   7.170 -29.438  1.00  0.00     0.009 A 
HETATM   24  C   UNL     1      -0.374   8.161 -28.863  1.00  0.00     0.001 A 
HETATM   25  C   UNL     1      -1.740   8.193 -29.122  1.00  0.00     0.003 A 
HETATM   26  C   UNL     1      -2.318   7.228 -29.949  1.00  0.00     0.037 A 
ENDBRANCH  19  20
ENDBRANCH  18  19
ENDBRANCH   1  18
TORSDOF 5
ENDMDL
MODEL 9
REMARK VINA RESULT:      -7.9      2.226      9.173
REMARK  5 active torsions:
REMARK  status: ('A' for Active; 'I' for Inactive)
REMARK    1  A    between atoms: C_3  and  O_4 
REMARK    2  A    between atoms: O_4  and  C_5 
REMARK    3  A    between atoms: C_5  and  C_6 
REMARK       I    between atoms: C_6  and  N_7 
REMARK    4  A    between atoms: N_7  and  N_8 
REMARK    5  A    between atoms: C_9  and  C_10 
ROOT
HETATM    1  C   UNL     1      -3.907   2.986 -32.314  1.00  0.00     0.261 C 
HETATM    2  N   UNL     1      -3.841   1.645 -31.939  1.00  0.00    -0.246 N 
HETATM    3  O   UNL     1      -4.845   3.517 -32.906  1.00  0.00    -0.269 OA
HETATM    4  H   UNL     1      -2.928   1.282 -31.676  1.00  0.00     0.192 HD
ENDROOT
BRANCH   2   5
HETATM    5  N   UNL     1      -4.728   0.685 -32.370  1.00  0.00    -0.184 NA
HETATM    6  C   UNL     1      -4.492   0.136 -33.519  1.00  0.00     0.153 C 
BRANCH   6   7
HETATM    7  C   UNL     1      -5.335  -0.943 -34.006  1.00  0.00     0.018 A 
HETATM    8  C   UNL     1      -5.065  -2.351 -34.075  1.00  0.00     0.004 A 
HETATM    9  C   UNL     1      -6.179  -2.964 -34.648  1.00  0.00     0.043 A 
HETATM   10  C   UNL     1      -3.970  -3.170 -33.720  1.00  0.00     0.014 A 
HETATM   11  C   UNL     1      -6.256  -4.343 -34.884  1.00  0.00     0.030 A 
HETATM   12  N   UNL     1      -7.096  -1.975 -34.909  1.00  0.00    -0.358 N 
HETATM   13  C   UNL     1      -5.157  -5.126 -34.523  1.00  0.00     0.002 A 
HETATM   14  C   UNL     1      -4.029  -4.550 -33.948  1.00  0.00     0.001 A 
HETATM   15  H   UNL     1      -8.001  -2.138 -35.330  1.00  0.00     0.166 HD
HETATM   16  C   UNL     1      -6.606  -0.749 -34.537  1.00  0.00     0.018 A 
HETATM   17  C   UNL     1      -7.405   0.490 -34.724  1.00  0.00     0.069 C 
ENDBRANCH   6   7
ENDBRANCH   2   5
BRANCH   1  18
HETATM   18  C   UNL     1      -2.623   3.754 -32.009  1.00  0.00     0.280 C 
BRANCH  18  19
HETATM   19  O   UNL     1      -2.919   5.006 -31.397  1.00  0.00    -0.342 OA
BRANCH  19  20
HETATM   20  C   UNL     1      -1.825   5.731 -30.995  1.00  0.00     0.075 A 
HETATM   21  C   UNL     1      -2.032   6.679 -29.978  1.00  0.00    -0.029 A 
HETATM   22  C   UNL     1      -3.400   6.945 -29.414  1.00  0.00     0.051 C 
HETATM   23  C   UNL     1      -0.947   7.453 -29.534  1.00  0.00     0.009 A 
HETATM   24  C   UNL     1       0.328   7.261 -30.063  1.00  0.00     0.001 A 
HETATM   25  C   UNL     1       0.533   6.298 -31.046  1.00  0.00     0.003 A 
HETATM   26  C   UNL     1      -0.539   5.532 -31.510  1.00  0.00     0.037 A 
ENDBRANCH  19  20
ENDBRANCH  18  19
ENDBRANCH   1  18
TORSDOF 5
ENDMDL
MODEL 10
REMARK VINA RESULT:      -7.8      2.223      2.706
REMARK  5 active torsions:
REMARK  status: ('A' for Active; 'I' for Inactive)
REMARK    1  A    between atoms: C_3  and  O_4 
REMARK    2  A    between atoms: O_4  and  C_5 
REMARK    3  A    between atoms: C_5  and  C_6 
REMARK       I    between atoms: C_6  and  N_7 
REMARK    4  A    between atoms: N_7  and  N_8 
REMARK    5  A    between atoms: C_9  and  C_10 
ROOT
HETATM    1  C   UNL     1      -6.499   2.434 -31.427  1.00  0.00     0.261 C 
HETATM    2  N   UNL     1      -5.106   2.388 -31.396  1.00  0.00    -0.246 N 
HETATM    3  O   UNL     1      -7.174   3.387 -31.815  1.00  0.00    -0.269 OA
HETATM    4  H   UNL     1      -4.680   1.652 -30.839  1.00  0.00     0.192 HD
ENDROOT
BRANCH   2   5
HETATM    5  N   UNL     1      -4.300   3.486 -31.594  1.00  0.00    -0.184 NA
HETATM    6  C   UNL     1      -3.484   3.446 -32.599  1.00  0.00     0.153 C 
BRANCH   6   7
HETATM    7  C   UNL     1      -2.658   4.597 -32.924  1.00  0.00     0.018 A 
HETATM    8  C   UNL     1      -1.591   5.195 -32.172  1.00  0.00     0.004 A 
HETATM    9  C   UNL     1      -1.135   6.297 -32.897  1.00  0.00     0.043 A 
HETATM   10  C   UNL     1      -0.974   4.917 -30.933  1.00  0.00     0.014 A 
HETATM   11  C   UNL     1      -0.102   7.130 -32.450  1.00  0.00     0.030 A 
HETATM   12  N   UNL     1      -1.884   6.364 -34.046  1.00  0.00    -0.358 N 
HETATM   13  C   UNL     1       0.488   6.831 -31.220  1.00  0.00     0.002 A 
HETATM   14  C   UNL     1       0.061   5.740 -30.470  1.00  0.00     0.001 A 
HETATM   15  H   UNL     1      -1.767   7.073 -34.758  1.00  0.00     0.166 HD
HETATM   16  C   UNL     1      -2.812   5.354 -34.081  1.00  0.00     0.018 A 
HETATM   17  C   UNL     1      -3.755   5.211 -35.220  1.00  0.00     0.069 C 
ENDBRANCH   6   7
ENDBRANCH   2   5
BRANCH   1  18
HETATM   18  C   UNL     1      -7.151   1.193 -30.822  1.00  0.00     0.280 C 
BRANCH  18  19
HETATM   19  O   UNL     1      -8.120   0.648 -31.713  1.00  0.00    -0.342 OA
BRANCH  19  20
HETATM   20  C   UNL     1      -7.608   0.034 -32.827  1.00  0.00     0.075 A 
HETATM   21  C   UNL     1      -8.172   0.391 -34.064  1.00  0.00    -0.029 A 
HETATM   22  C   UNL     1      -9.336   1.338 -34.156  1.00  0.00     0.051 C 
HETATM   23  C   UNL     1      -7.689  -0.213 -35.236  1.00  0.00     0.009 A 
HETATM   24  C   UNL     1      -6.637  -1.127 -35.184  1.00  0.00     0.001 A 
HETATM   25  C   UNL     1      -6.060  -1.451 -33.961  1.00  0.00     0.003 A 
HETATM   26  C   UNL     1      -6.541  -0.872 -32.785  1.00  0.00     0.037 A 
ENDBRANCH  19  20
ENDBRANCH  18  19
ENDBRANCH   1  18
TORSDOF 5
ENDMDL
