MODEL 1
REMARK VINA RESULT:      -7.3      0.000      0.000
REMARK  10 active torsions:
REMARK  status: ('A' for Active; 'I' for Inactive)
REMARK    1  A    between atoms: C_2  and  N_3 
REMARK    2  A    between atoms: N_7  and  C_8 
REMARK    3  A    between atoms: C_8  and  C_9 
REMARK    4  A    between atoms: C_9  and  N_10 
REMARK    5  A    between atoms: N_10  and  C_11 
REMARK    6  A    between atoms: C_13  and  C_14 
REMARK    7  A    between atoms: C_14  and  N_15 
REMARK    8  A    between atoms: C_23  and  C_24 
REMARK    9  A    between atoms: C_24  and  O_25 
REMARK   10  A    between atoms: O_25  and  C_26 
ROOT
HETATM    1  C   UNL     1      -8.540   1.521 -31.690  1.00  0.00     0.139 A 
HETATM    2  N   UNL     1      -9.711   1.993 -32.191  1.00  0.00    -0.214 NA
HETATM    3  C   UNL     1     -10.108   1.624 -33.418  1.00  0.00     0.155 A 
HETATM    4  N   UNL     1      -9.449   0.812 -34.253  1.00  0.00    -0.224 NA
HETATM    5  C   UNL     1      -8.283   0.378 -33.749  1.00  0.00     0.115 A 
HETATM    6  C   UNL     1      -7.751   0.672 -32.506  1.00  0.00     0.053 A 
HETATM    7  S   UNL     1      -7.305  -0.643 -34.676  1.00  0.00    -0.063 SA
HETATM    8  C   UNL     1      -6.079  -0.695 -33.480  1.00  0.00     0.089 A 
HETATM    9  C   UNL     1      -6.434   0.058 -32.356  1.00  0.00    -0.022 A 
HETATM   10  C   UNL     1      -5.559   0.245 -31.150  1.00  0.00     0.051 C 
ENDROOT
BRANCH   1  11
HETATM   11  N   UNL     1      -8.149   1.907 -30.416  1.00  0.00    -0.372 N 
HETATM   12  H   UNL     1      -8.517   1.328 -29.666  1.00  0.00     0.161 HD
BRANCH  11  13
HETATM   13  C   UNL     1      -8.022   3.326 -30.125  1.00  0.00     0.156 C 
BRANCH  13  14
HETATM   14  C   UNL     1      -6.703   3.926 -30.723  1.00  0.00     0.236 C 
HETATM   15  C   UNL     1      -5.598   3.839 -29.651  1.00  0.00     0.044 C 
BRANCH  14  16
HETATM   16  N   UNL     1      -6.876   5.307 -31.277  1.00  0.00     0.097 N 
HETATM   17  C   UNL     1      -7.542   5.321 -32.601  1.00  0.00     0.300 C 
HETATM   18  C   UNL     1      -6.692   4.779 -33.775  1.00  0.00     0.265 C 
HETATM   19  N   UNL     1      -5.347   5.487 -33.855  1.00  0.00    -0.068 N 
HETATM   20  H   UNL     1      -5.536   6.462 -34.127  1.00  0.00     0.280 HD
HETATM   21  C   UNL     1      -4.652   5.551 -32.495  1.00  0.00     0.265 C 
HETATM   22  C   UNL     1      -5.614   6.076 -31.410  1.00  0.00     0.300 C 
BRANCH  19  23
HETATM   23  C   UNL     1      -4.413   4.899 -34.895  1.00  0.00     0.230 C 
HETATM   24  C   UNL     1      -3.012   5.466 -34.772  1.00  0.00     0.034 C 
ENDBRANCH  19  23
ENDBRANCH  14  16
ENDBRANCH  13  14
ENDBRANCH  11  13
ENDBRANCH   1  11
BRANCH   3  25
HETATM   25  C   UNL     1     -11.424   2.174 -33.943  1.00  0.00     0.314 C 
BRANCH  25  26
HETATM   26  N   UNL     1     -12.655   1.675 -33.182  1.00  0.00    -0.072 N 
HETATM   27  H   UNL     1     -12.284   1.408 -32.255  1.00  0.00     0.279 HD
HETATM   28  C   UNL     1     -13.659   2.761 -32.927  1.00  0.00     0.269 C 
HETATM   29  C   UNL     1     -13.267   0.463 -33.806  1.00  0.00     0.269 C 
ENDBRANCH  25  26
ENDBRANCH   3  25
BRANCH   8  30
HETATM   30  C   UNL     1      -4.857  -1.464 -33.711  1.00  0.00     0.300 C 
HETATM   31  O   UNL     1      -3.744  -0.977 -33.866  1.00  0.00    -0.259 OA
BRANCH  30  32
HETATM   32  O   UNL     1      -5.119  -2.803 -33.764  1.00  0.00    -0.317 OA
BRANCH  32  33
HETATM   33  C   UNL     1      -5.179  -3.396 -35.070  1.00  0.00     0.174 C 
HETATM   34  C   UNL     1      -6.303  -4.415 -35.118  1.00  0.00     0.034 C 
ENDBRANCH  32  33
ENDBRANCH  30  32
ENDBRANCH   8  30
TORSDOF 10
ENDMDL
MODEL 2
REMARK VINA RESULT:      -7.2      2.066      6.579
REMARK  10 active torsions:
REMARK  status: ('A' for Active; 'I' for Inactive)
REMARK    1  A    between atoms: C_2  and  N_3 
REMARK    2  A    between atoms: N_7  and  C_8 
REMARK    3  A    between atoms: C_8  and  C_9 
REMARK    4  A    between atoms: C_9  and  N_10 
REMARK    5  A    between atoms: N_10  and  C_11 
REMARK    6  A    between atoms: C_13  and  C_14 
REMARK    7  A    between atoms: C_14  and  N_15 
REMARK    8  A    between atoms: C_23  and  C_24 
REMARK    9  A    between atoms: C_24  and  O_25 
REMARK   10  A    between atoms: O_25  and  C_26 
ROOT
HETATM    1  C   UNL     1      -6.848   1.720 -33.380  1.00  0.00     0.139 A 
HETATM    2  N   UNL     1      -6.551   2.967 -32.931  1.00  0.00    -0.214 NA
HETATM    3  C   UNL     1      -5.326   3.227 -32.450  1.00  0.00     0.155 A 
HETATM    4  N   UNL     1      -4.314   2.358 -32.347  1.00  0.00    -0.224 NA
HETATM    5  C   UNL     1      -4.637   1.126 -32.771  1.00  0.00     0.115 A 
HETATM    6  C   UNL     1      -5.853   0.715 -33.291  1.00  0.00     0.053 A 
HETATM    7  S   UNL     1      -3.486  -0.109 -32.694  1.00  0.00    -0.063 SA
HETATM    8  C   UNL     1      -4.580  -1.282 -33.297  1.00  0.00     0.089 A 
HETATM    9  C   UNL     1      -5.827  -0.716 -33.578  1.00  0.00    -0.022 A 
HETATM   10  C   UNL     1      -7.013  -1.487 -34.083  1.00  0.00     0.051 C 
ENDROOT
BRANCH   1  11
HETATM   11  N   UNL     1      -8.117   1.471 -33.881  1.00  0.00    -0.372 N 
HETATM   12  H   UNL     1      -8.133   1.004 -34.784  1.00  0.00     0.161 HD
BRANCH  11  13
HETATM   13  C   UNL     1      -9.164   2.454 -33.652  1.00  0.00     0.156 C 
BRANCH  13  14
HETATM   14  C   UNL     1     -10.559   1.775 -33.426  1.00  0.00     0.236 C 
HETATM   15  C   UNL     1     -10.332   0.276 -33.146  1.00  0.00     0.044 C 
BRANCH  14  16
HETATM   16  N   UNL     1     -11.529   2.023 -34.541  1.00  0.00     0.097 N 
HETATM   17  C   UNL     1     -12.009   3.425 -34.590  1.00  0.00     0.300 C 
HETATM   18  C   UNL     1     -12.966   3.836 -33.445  1.00  0.00     0.265 C 
HETATM   19  N   UNL     1     -14.146   2.878 -33.342  1.00  0.00    -0.068 N 
HETATM   20  H   UNL     1     -14.715   3.010 -34.189  1.00  0.00     0.280 HD
HETATM   21  C   UNL     1     -13.699   1.416 -33.352  1.00  0.00     0.265 C 
HETATM   22  C   UNL     1     -12.725   1.147 -34.518  1.00  0.00     0.300 C 
BRANCH  19  23
HETATM   23  C   UNL     1     -15.040   3.146 -32.147  1.00  0.00     0.230 C 
HETATM   24  C   UNL     1     -16.350   2.388 -32.250  1.00  0.00     0.034 C 
ENDBRANCH  19  23
ENDBRANCH  14  16
ENDBRANCH  13  14
ENDBRANCH  11  13
ENDBRANCH   1  11
BRANCH   3  25
HETATM   25  C   UNL     1      -5.032   4.635 -31.957  1.00  0.00     0.314 C 
BRANCH  25  26
HETATM   26  N   UNL     1      -3.620   5.128 -32.284  1.00  0.00    -0.072 N 
HETATM   27  H   UNL     1      -3.095   4.261 -32.492  1.00  0.00     0.279 HD
HETATM   28  C   UNL     1      -3.569   5.950 -33.539  1.00  0.00     0.269 C 
HETATM   29  C   UNL     1      -2.962   5.806 -31.127  1.00  0.00     0.269 C 
ENDBRANCH  25  26
ENDBRANCH   3  25
BRANCH   8  30
HETATM   30  C   UNL     1      -4.154  -2.672 -33.459  1.00  0.00     0.300 C 
HETATM   31  O   UNL     1      -3.481  -3.296 -32.647  1.00  0.00    -0.259 OA
BRANCH  30  32
HETATM   32  O   UNL     1      -4.576  -3.181 -34.652  1.00  0.00    -0.317 OA
BRANCH  32  33
HETATM   33  C   UNL     1      -5.039  -4.541 -34.646  1.00  0.00     0.174 C 
HETATM   34  C   UNL     1      -6.356  -4.636 -35.393  1.00  0.00     0.034 C 
ENDBRANCH  32  33
ENDBRANCH  30  32
ENDBRANCH   8  30
TORSDOF 10
ENDMDL
MODEL 3
REMARK VINA RESULT:      -7.2      3.362      7.214
REMARK  10 active torsions:
REMARK  status: ('A' for Active; 'I' for Inactive)
REMARK    1  A    between atoms: C_2  and  N_3 
REMARK    2  A    between atoms: N_7  and  C_8 
REMARK    3  A    between atoms: C_8  and  C_9 
REMARK    4  A    between atoms: C_9  and  N_10 
REMARK    5  A    between atoms: N_10  and  C_11 
REMARK    6  A    between atoms: C_13  and  C_14 
REMARK    7  A    between atoms: C_14  and  N_15 
REMARK    8  A    between atoms: C_23  and  C_24 
REMARK    9  A    between atoms: C_24  and  O_25 
REMARK   10  A    between atoms: O_25  and  C_26 
ROOT
HETATM    1  C   UNL     1      -7.827   2.388 -32.506  1.00  0.00     0.139 A 
HETATM    2  N   UNL     1      -6.750   3.213 -32.536  1.00  0.00    -0.214 NA
HETATM    3  C   UNL     1      -6.783   4.326 -33.286  1.00  0.00     0.155 A 
HETATM    4  N   UNL     1      -7.800   4.733 -34.054  1.00  0.00    -0.224 NA
HETATM    5  C   UNL     1      -8.844   3.889 -34.031  1.00  0.00     0.115 A 
HETATM    6  C   UNL     1      -8.950   2.714 -33.306  1.00  0.00     0.053 A 
HETATM    7  S   UNL     1     -10.213   4.233 -34.960  1.00  0.00    -0.063 SA
HETATM    8  C   UNL     1     -11.001   2.786 -34.490  1.00  0.00     0.089 A 
HETATM    9  C   UNL     1     -10.217   2.048 -33.598  1.00  0.00    -0.022 A 
HETATM   10  C   UNL     1     -10.607   0.714 -33.030  1.00  0.00     0.051 C 
ENDROOT
BRANCH   1  11
HETATM   11  N   UNL     1      -7.778   1.246 -31.719  1.00  0.00    -0.372 N 
HETATM   12  H   UNL     1      -7.571   1.416 -30.739  1.00  0.00     0.161 HD
BRANCH  11  13
HETATM   13  C   UNL     1      -7.223   0.029 -32.288  1.00  0.00     0.156 C 
BRANCH  13  14
HETATM   14  C   UNL     1      -5.865  -0.362 -31.610  1.00  0.00     0.236 C 
HETATM   15  C   UNL     1      -5.755   0.391 -30.269  1.00  0.00     0.044 C 
BRANCH  14  16
HETATM   16  N   UNL     1      -4.675  -0.156 -32.497  1.00  0.00     0.097 N 
HETATM   17  C   UNL     1      -4.848  -0.749 -33.845  1.00  0.00     0.300 C 
HETATM   18  C   UNL     1      -4.822  -2.296 -33.894  1.00  0.00     0.265 C 
HETATM   19  N   UNL     1      -3.567  -2.848 -33.232  1.00  0.00    -0.068 N 
HETATM   20  H   UNL     1      -2.770  -2.576 -33.824  1.00  0.00     0.280 HD
HETATM   21  C   UNL     1      -3.316  -2.215 -31.863  1.00  0.00     0.265 C 
HETATM   22  C   UNL     1      -3.401  -0.677 -31.945  1.00  0.00     0.300 C 
BRANCH  19  23
HETATM   23  C   UNL     1      -3.556  -4.361 -33.121  1.00  0.00     0.230 C 
HETATM   24  C   UNL     1      -4.434  -5.004 -34.177  1.00  0.00     0.034 C 
ENDBRANCH  19  23
ENDBRANCH  14  16
ENDBRANCH  13  14
ENDBRANCH  11  13
ENDBRANCH   1  11
BRANCH   3  25
HETATM   25  C   UNL     1      -5.557   5.225 -33.292  1.00  0.00     0.314 C 
BRANCH  25  26
HETATM   26  N   UNL     1      -4.307   4.569 -33.884  1.00  0.00    -0.072 N 
HETATM   27  H   UNL     1      -4.622   3.618 -34.142  1.00  0.00     0.279 HD
HETATM   28  C   UNL     1      -3.863   5.216 -35.163  1.00  0.00     0.269 C 
HETATM   29  C   UNL     1      -3.197   4.440 -32.892  1.00  0.00     0.269 C 
ENDBRANCH  25  26
ENDBRANCH   3  25
BRANCH   8  30
HETATM   30  C   UNL     1     -12.328   2.466 -35.016  1.00  0.00     0.300 C 
HETATM   31  O   UNL     1     -12.543   1.706 -35.952  1.00  0.00    -0.259 OA
BRANCH  30  32
HETATM   32  O   UNL     1     -13.301   3.150 -34.347  1.00  0.00    -0.317 OA
BRANCH  32  33
HETATM   33  C   UNL     1     -13.948   2.459 -33.268  1.00  0.00     0.174 C 
HETATM   34  C   UNL     1     -13.850   3.286 -31.999  1.00  0.00     0.034 C 
ENDBRANCH  32  33
ENDBRANCH  30  32
ENDBRANCH   8  30
TORSDOF 10
ENDMDL
MODEL 4
REMARK VINA RESULT:      -6.8      2.881      6.039
REMARK  10 active torsions:
REMARK  status: ('A' for Active; 'I' for Inactive)
REMARK    1  A    between atoms: C_2  and  N_3 
REMARK    2  A    between atoms: N_7  and  C_8 
REMARK    3  A    between atoms: C_8  and  C_9 
REMARK    4  A    between atoms: C_9  and  N_10 
REMARK    5  A    between atoms: N_10  and  C_11 
REMARK    6  A    between atoms: C_13  and  C_14 
REMARK    7  A    between atoms: C_14  and  N_15 
REMARK    8  A    between atoms: C_23  and  C_24 
REMARK    9  A    between atoms: C_24  and  O_25 
REMARK   10  A    between atoms: O_25  and  C_26 
ROOT
HETATM    1  C   UNL     1      -8.018   2.564 -31.482  1.00  0.00     0.139 A 
HETATM    2  N   UNL     1      -9.368   2.517 -31.628  1.00  0.00    -0.214 NA
HETATM    3  C   UNL     1     -10.011   3.540 -32.212  1.00  0.00     0.155 A 
HETATM    4  N   UNL     1      -9.453   4.661 -32.683  1.00  0.00    -0.224 NA
HETATM    5  C   UNL     1      -8.124   4.698 -32.505  1.00  0.00     0.115 A 
HETATM    6  C   UNL     1      -7.332   3.722 -31.925  1.00  0.00     0.053 A 
HETATM    7  S   UNL     1      -7.253   6.052 -33.021  1.00  0.00    -0.063 SA
HETATM    8  C   UNL     1      -5.770   5.428 -32.434  1.00  0.00     0.089 A 
HETATM    9  C   UNL     1      -5.942   4.165 -31.860  1.00  0.00    -0.022 A 
HETATM   10  C   UNL     1      -4.842   3.368 -31.220  1.00  0.00     0.051 C 
ENDROOT
BRANCH   1  11
HETATM   11  N   UNL     1      -7.369   1.495 -30.883  1.00  0.00    -0.372 N 
HETATM   12  H   UNL     1      -6.463   1.720 -30.481  1.00  0.00     0.161 HD
BRANCH  11  13
HETATM   13  C   UNL     1      -7.491   0.177 -31.485  1.00  0.00     0.156 C 
BRANCH  13  14
HETATM   14  C   UNL     1      -6.089  -0.458 -31.781  1.00  0.00     0.236 C 
HETATM   15  C   UNL     1      -5.118  -0.042 -30.657  1.00  0.00     0.044 C 
BRANCH  14  16
HETATM   16  N   UNL     1      -5.570  -0.143 -33.150  1.00  0.00     0.097 N 
HETATM   17  C   UNL     1      -6.545  -0.448 -34.224  1.00  0.00     0.300 C 
HETATM   18  C   UNL     1      -6.791  -1.953 -34.485  1.00  0.00     0.265 C 
HETATM   19  N   UNL     1      -5.483  -2.691 -34.737  1.00  0.00    -0.068 N 
HETATM   20  H   UNL     1      -5.114  -2.349 -35.635  1.00  0.00     0.280 HD
HETATM   21  C   UNL     1      -4.425  -2.355 -33.685  1.00  0.00     0.265 C 
HETATM   22  C   UNL     1      -4.301  -0.829 -33.498  1.00  0.00     0.300 C 
BRANCH  19  23
HETATM   23  C   UNL     1      -5.649  -4.194 -34.855  1.00  0.00     0.230 C 
HETATM   24  C   UNL     1      -4.516  -4.935 -34.171  1.00  0.00     0.034 C 
ENDBRANCH  19  23
ENDBRANCH  14  16
ENDBRANCH  13  14
ENDBRANCH  11  13
ENDBRANCH   1  11
BRANCH   3  25
HETATM   25  C   UNL     1     -11.522   3.449 -32.357  1.00  0.00     0.314 C 
BRANCH  25  26
HETATM   26  N   UNL     1     -12.002   2.204 -33.106  1.00  0.00    -0.072 N 
HETATM   27  H   UNL     1     -11.677   1.417 -32.517  1.00  0.00     0.279 HD
HETATM   28  C   UNL     1     -13.498   2.094 -33.151  1.00  0.00     0.269 C 
HETATM   29  C   UNL     1     -11.376   2.065 -34.456  1.00  0.00     0.269 C 
ENDBRANCH  25  26
ENDBRANCH   3  25
BRANCH   8  30
HETATM   30  C   UNL     1      -4.537   6.204 -32.573  1.00  0.00     0.300 C 
HETATM   31  O   UNL     1      -4.005   6.837 -31.670  1.00  0.00    -0.259 OA
BRANCH  30  32
HETATM   32  O   UNL     1      -4.068   6.160 -33.854  1.00  0.00    -0.317 OA
BRANCH  32  33
HETATM   33  C   UNL     1      -2.651   5.998 -34.017  1.00  0.00     0.174 C 
HETATM   34  C   UNL     1      -2.265   4.558 -33.737  1.00  0.00     0.034 C 
ENDBRANCH  32  33
ENDBRANCH  30  32
ENDBRANCH   8  30
TORSDOF 10
ENDMDL
MODEL 5
REMARK VINA RESULT:      -6.7      2.239      6.105
REMARK  10 active torsions:
REMARK  status: ('A' for Active; 'I' for Inactive)
REMARK    1  A    between atoms: C_2  and  N_3 
REMARK    2  A    between atoms: N_7  and  C_8 
REMARK    3  A    between atoms: C_8  and  C_9 
REMARK    4  A    between atoms: C_9  and  N_10 
REMARK    5  A    between atoms: N_10  and  C_11 
REMARK    6  A    between atoms: C_13  and  C_14 
REMARK    7  A    between atoms: C_14  and  N_15 
REMARK    8  A    between atoms: C_23  and  C_24 
REMARK    9  A    between atoms: C_24  and  O_25 
REMARK   10  A    between atoms: O_25  and  C_26 
ROOT
HETATM    1  C   UNL     1      -5.134   3.562 -33.388  1.00  0.00     0.139 A 
HETATM    2  N   UNL     1      -4.191   4.266 -32.710  1.00  0.00    -0.214 NA
HETATM    3  C   UNL     1      -3.252   3.614 -32.005  1.00  0.00     0.155 A 
HETATM    4  N   UNL     1      -3.135   2.287 -31.879  1.00  0.00    -0.224 NA
HETATM    5  C   UNL     1      -4.092   1.613 -32.535  1.00  0.00     0.115 A 
HETATM    6  C   UNL     1      -5.116   2.148 -33.299  1.00  0.00     0.053 A 
HETATM    7  S   UNL     1      -4.114  -0.076 -32.469  1.00  0.00    -0.063 SA
HETATM    8  C   UNL     1      -5.541  -0.179 -33.412  1.00  0.00     0.089 A 
HETATM    9  C   UNL     1      -5.988   1.088 -33.797  1.00  0.00    -0.022 A 
HETATM   10  C   UNL     1      -7.233   1.341 -34.597  1.00  0.00     0.051 C 
ENDROOT
BRANCH   1  11
HETATM   11  N   UNL     1      -6.092   4.252 -34.117  1.00  0.00    -0.372 N 
HETATM   12  H   UNL     1      -5.801   4.518 -35.054  1.00  0.00     0.161 HD
BRANCH  11  13
HETATM   13  C   UNL     1      -6.952   5.196 -33.422  1.00  0.00     0.156 C 
BRANCH  13  14
HETATM   14  C   UNL     1      -8.447   4.726 -33.419  1.00  0.00     0.236 C 
HETATM   15  C   UNL     1      -9.240   5.618 -34.396  1.00  0.00     0.044 C 
BRANCH  14  16
HETATM   16  N   UNL     1      -9.052   4.675 -32.050  1.00  0.00     0.097 N 
HETATM   17  C   UNL     1      -8.175   4.015 -31.053  1.00  0.00     0.300 C 
HETATM   18  C   UNL     1      -8.019   2.484 -31.221  1.00  0.00     0.265 C 
HETATM   19  N   UNL     1      -9.375   1.793 -31.268  1.00  0.00    -0.068 N 
HETATM   20  H   UNL     1      -9.794   1.890 -30.333  1.00  0.00     0.280 HD
HETATM   21  C   UNL     1     -10.334   2.481 -32.239  1.00  0.00     0.265 C 
HETATM   22  C   UNL     1     -10.373   4.003 -31.988  1.00  0.00     0.300 C 
BRANCH  19  23
HETATM   23  C   UNL     1      -9.288   0.311 -31.576  1.00  0.00     0.230 C 
HETATM   24  C   UNL     1     -10.152  -0.063 -32.766  1.00  0.00     0.034 C 
ENDBRANCH  19  23
ENDBRANCH  14  16
ENDBRANCH  13  14
ENDBRANCH  11  13
ENDBRANCH   1  11
BRANCH   3  25
HETATM   25  C   UNL     1      -2.214   4.437 -31.260  1.00  0.00     0.314 C 
BRANCH  25  26
HETATM   26  N   UNL     1      -2.246   5.930 -31.594  1.00  0.00    -0.072 N 
HETATM   27  H   UNL     1      -3.068   6.030 -32.214  1.00  0.00     0.279 HD
HETATM   28  C   UNL     1      -2.530   6.787 -30.394  1.00  0.00     0.269 C 
HETATM   29  C   UNL     1      -1.036   6.381 -32.346  1.00  0.00     0.269 C 
ENDBRANCH  25  26
ENDBRANCH   3  25
BRANCH   8  30
HETATM   30  C   UNL     1      -6.128  -1.483 -33.718  1.00  0.00     0.300 C 
HETATM   31  O   UNL     1      -7.328  -1.732 -33.695  1.00  0.00    -0.259 OA
BRANCH  30  32
HETATM   32  O   UNL     1      -5.163  -2.405 -34.004  1.00  0.00    -0.317 OA
BRANCH  32  33
HETATM   33  C   UNL     1      -5.328  -3.157 -35.215  1.00  0.00     0.174 C 
HETATM   34  C   UNL     1      -5.953  -4.503 -34.900  1.00  0.00     0.034 C 
ENDBRANCH  32  33
ENDBRANCH  30  32
ENDBRANCH   8  30
TORSDOF 10
ENDMDL
MODEL 6
REMARK VINA RESULT:      -6.7      3.213      5.698
REMARK  10 active torsions:
REMARK  status: ('A' for Active; 'I' for Inactive)
REMARK    1  A    between atoms: C_2  and  N_3 
REMARK    2  A    between atoms: N_7  and  C_8 
REMARK    3  A    between atoms: C_8  and  C_9 
REMARK    4  A    between atoms: C_9  and  N_10 
REMARK    5  A    between atoms: N_10  and  C_11 
REMARK    6  A    between atoms: C_13  and  C_14 
REMARK    7  A    between atoms: C_14  and  N_15 
REMARK    8  A    between atoms: C_23  and  C_24 
REMARK    9  A    between atoms: C_24  and  O_25 
REMARK   10  A    between atoms: O_25  and  C_26 
ROOT
HETATM    1  C   UNL     1      -7.253   1.305 -31.242  1.00  0.00     0.139 A 
HETATM    2  N   UNL     1      -6.356   0.344 -31.584  1.00  0.00    -0.214 NA
HETATM    3  C   UNL     1      -6.525  -0.351 -32.719  1.00  0.00     0.155 A 
HETATM    4  N   UNL     1      -7.528  -0.209 -33.594  1.00  0.00    -0.224 NA
HETATM    5  C   UNL     1      -8.417   0.726 -33.222  1.00  0.00     0.115 A 
HETATM    6  C   UNL     1      -8.370   1.518 -32.087  1.00  0.00     0.053 A 
HETATM    7  S   UNL     1      -9.764   1.027 -34.197  1.00  0.00    -0.063 SA
HETATM    8  C   UNL     1     -10.394   2.195 -33.114  1.00  0.00     0.089 A 
HETATM    9  C   UNL     1      -9.554   2.369 -32.010  1.00  0.00    -0.022 A 
HETATM   10  C   UNL     1      -9.842   3.293 -30.862  1.00  0.00     0.051 C 
ENDROOT
BRANCH   1  11
HETATM   11  N   UNL     1      -7.058   2.019 -30.068  1.00  0.00    -0.372 N 
HETATM   12  H   UNL     1      -7.812   2.657 -29.830  1.00  0.00     0.161 HD
BRANCH  11  13
HETATM   13  C   UNL     1      -5.714   2.466 -29.738  1.00  0.00     0.156 C 
BRANCH  13  14
HETATM   14  C   UNL     1      -5.528   3.998 -30.014  1.00  0.00     0.236 C 
HETATM   15  C   UNL     1      -6.750   4.748 -29.445  1.00  0.00     0.044 C 
BRANCH  14  16
HETATM   16  N   UNL     1      -5.264   4.316 -31.454  1.00  0.00     0.097 N 
HETATM   17  C   UNL     1      -4.302   3.382 -32.086  1.00  0.00     0.300 C 
HETATM   18  C   UNL     1      -2.835   3.526 -31.615  1.00  0.00     0.265 C 
HETATM   19  N   UNL     1      -2.347   4.961 -31.758  1.00  0.00    -0.068 N 
HETATM   20  H   UNL     1      -2.296   5.161 -32.767  1.00  0.00     0.280 HD
HETATM   21  C   UNL     1      -3.342   5.964 -31.175  1.00  0.00     0.265 C 
HETATM   22  C   UNL     1      -4.768   5.692 -31.697  1.00  0.00     0.300 C 
BRANCH  19  23
HETATM   23  C   UNL     1      -0.965   5.192 -31.178  1.00  0.00     0.230 C 
HETATM   24  C   UNL     1      -0.398   6.532 -31.606  1.00  0.00     0.034 C 
ENDBRANCH  19  23
ENDBRANCH  14  16
ENDBRANCH  13  14
ENDBRANCH  11  13
ENDBRANCH   1  11
BRANCH   3  25
HETATM   25  C   UNL     1      -5.499  -1.417 -33.068  1.00  0.00     0.314 C 
BRANCH  25  26
HETATM   26  N   UNL     1      -4.150  -1.237 -32.367  1.00  0.00    -0.072 N 
HETATM   27  H   UNL     1      -4.403  -0.908 -31.420  1.00  0.00     0.279 HD
HETATM   28  C   UNL     1      -3.419  -2.533 -32.172  1.00  0.00     0.269 C 
HETATM   29  C   UNL     1      -3.300  -0.191 -33.012  1.00  0.00     0.269 C 
ENDBRANCH  25  26
ENDBRANCH   3  25
BRANCH   8  30
HETATM   30  C   UNL     1     -11.660   2.866 -33.408  1.00  0.00     0.300 C 
HETATM   31  O   UNL     1     -11.767   3.909 -34.042  1.00  0.00    -0.259 OA
BRANCH  30  32
HETATM   32  O   UNL     1     -12.714   2.196 -32.857  1.00  0.00    -0.317 OA
BRANCH  32  33
HETATM   33  C   UNL     1     -13.677   1.646 -33.769  1.00  0.00     0.174 C 
HETATM   34  C   UNL     1     -13.488   0.144 -33.869  1.00  0.00     0.034 C 
ENDBRANCH  32  33
ENDBRANCH  30  32
ENDBRANCH   8  30
TORSDOF 10
ENDMDL
MODEL 7
REMARK VINA RESULT:      -6.6      2.776      3.991
REMARK  10 active torsions:
REMARK  status: ('A' for Active; 'I' for Inactive)
REMARK    1  A    between atoms: C_2  and  N_3 
REMARK    2  A    between atoms: N_7  and  C_8 
REMARK    3  A    between atoms: C_8  and  C_9 
REMARK    4  A    between atoms: C_9  and  N_10 
REMARK    5  A    between atoms: N_10  and  C_11 
REMARK    6  A    between atoms: C_13  and  C_14 
REMARK    7  A    between atoms: C_14  and  N_15 
REMARK    8  A    between atoms: C_23  and  C_24 
REMARK    9  A    between atoms: C_24  and  O_25 
REMARK   10  A    between atoms: O_25  and  C_26 
ROOT
HETATM    1  C   UNL     1      -5.658   2.532 -32.640  1.00  0.00     0.139 A 
HETATM    2  N   UNL     1      -6.813   3.232 -32.781  1.00  0.00    -0.214 NA
HETATM    3  C   UNL     1      -7.930   2.600 -33.175  1.00  0.00     0.155 A 
HETATM    4  N   UNL     1      -8.044   1.299 -33.467  1.00  0.00    -0.224 NA
HETATM    5  C   UNL     1      -6.885   0.633 -33.346  1.00  0.00     0.115 A 
HETATM    6  C   UNL     1      -5.663   1.150 -32.950  1.00  0.00     0.053 A 
HETATM    7  S   UNL     1      -6.835  -1.020 -33.696  1.00  0.00    -0.063 SA
HETATM    8  C   UNL     1      -5.151  -1.119 -33.397  1.00  0.00     0.089 A 
HETATM    9  C   UNL     1      -4.631   0.118 -33.005  1.00  0.00    -0.022 A 
HETATM   10  C   UNL     1      -3.181   0.372 -32.708  1.00  0.00     0.051 C 
ENDROOT
BRANCH   1  11
HETATM   11  N   UNL     1      -4.514   3.200 -32.225  1.00  0.00    -0.372 N 
HETATM   12  H   UNL     1      -4.507   3.459 -31.242  1.00  0.00     0.161 HD
BRANCH  11  13
HETATM   13  C   UNL     1      -3.886   4.141 -33.138  1.00  0.00     0.156 C 
BRANCH  13  14
HETATM   14  C   UNL     1      -3.597   5.517 -32.445  1.00  0.00     0.236 C 
HETATM   15  C   UNL     1      -4.909   6.327 -32.405  1.00  0.00     0.044 C 
BRANCH  14  16
HETATM   16  N   UNL     1      -2.462   6.271 -33.069  1.00  0.00     0.097 N 
HETATM   17  C   UNL     1      -1.209   5.482 -33.133  1.00  0.00     0.300 C 
HETATM   18  C   UNL     1      -0.513   5.234 -31.773  1.00  0.00     0.265 C 
HETATM   19  N   UNL     1      -0.275   6.540 -31.029  1.00  0.00    -0.068 N 
HETATM   20  H   UNL     1       0.429   7.067 -31.565  1.00  0.00     0.280 HD
HETATM   21  C   UNL     1      -1.527   7.415 -30.993  1.00  0.00     0.265 C 
HETATM   22  C   UNL     1      -2.140   7.556 -32.402  1.00  0.00     0.300 C 
BRANCH  19  23
HETATM   23  C   UNL     1       0.273   6.347 -29.628  1.00  0.00     0.230 C 
HETATM   24  C   UNL     1       0.552   7.676 -28.951  1.00  0.00     0.034 C 
ENDBRANCH  19  23
ENDBRANCH  14  16
ENDBRANCH  13  14
ENDBRANCH  11  13
ENDBRANCH   1  11
BRANCH   3  25
HETATM   25  C   UNL     1      -9.203   3.418 -33.321  1.00  0.00     0.314 C 
BRANCH  25  26
HETATM   26  N   UNL     1      -9.792   3.897 -31.992  1.00  0.00    -0.072 N 
HETATM   27  H   UNL     1     -10.814   3.854 -32.142  1.00  0.00     0.279 HD
HETATM   28  C   UNL     1      -9.502   2.959 -30.857  1.00  0.00     0.269 C 
HETATM   29  C   UNL     1      -9.426   5.311 -31.675  1.00  0.00     0.269 C 
ENDBRANCH  25  26
ENDBRANCH   3  25
BRANCH   8  30
HETATM   30  C   UNL     1      -4.448  -2.392 -33.560  1.00  0.00     0.300 C 
HETATM   31  O   UNL     1      -3.635  -2.847 -32.764  1.00  0.00    -0.259 OA
BRANCH  30  32
HETATM   32  O   UNL     1      -4.790  -2.998 -34.734  1.00  0.00    -0.317 OA
BRANCH  32  33
HETATM   33  C   UNL     1      -5.209  -4.369 -34.654  1.00  0.00     0.174 C 
HETATM   34  C   UNL     1      -6.574  -4.525 -35.296  1.00  0.00     0.034 C 
ENDBRANCH  32  33
ENDBRANCH  30  32
ENDBRANCH   8  30
TORSDOF 10
ENDMDL
MODEL 8
REMARK VINA RESULT:      -6.6      3.167      7.346
REMARK  10 active torsions:
REMARK  status: ('A' for Active; 'I' for Inactive)
REMARK    1  A    between atoms: C_2  and  N_3 
REMARK    2  A    between atoms: N_7  and  C_8 
REMARK    3  A    between atoms: C_8  and  C_9 
REMARK    4  A    between atoms: C_9  and  N_10 
REMARK    5  A    between atoms: N_10  and  C_11 
REMARK    6  A    between atoms: C_13  and  C_14 
REMARK    7  A    between atoms: C_14  and  N_15 
REMARK    8  A    between atoms: C_23  and  C_24 
REMARK    9  A    between atoms: C_24  and  O_25 
REMARK   10  A    between atoms: O_25  and  C_26 
ROOT
HETATM    1  C   UNL     1      -6.855   2.011 -33.315  1.00  0.00     0.139 A 
HETATM    2  N   UNL     1      -6.644   0.671 -33.240  1.00  0.00    -0.214 NA
HETATM    3  C   UNL     1      -5.435   0.207 -32.887  1.00  0.00     0.155 A 
HETATM    4  N   UNL     1      -4.357   0.944 -32.594  1.00  0.00    -0.224 NA
HETATM    5  C   UNL     1      -4.581   2.263 -32.701  1.00  0.00     0.115 A 
HETATM    6  C   UNL     1      -5.769   2.882 -33.050  1.00  0.00     0.053 A 
HETATM    7  S   UNL     1      -3.323   3.348 -32.389  1.00  0.00    -0.063 SA
HETATM    8  C   UNL     1      -4.290   4.710 -32.769  1.00  0.00     0.089 A 
HETATM    9  C   UNL     1      -5.590   4.330 -33.115  1.00  0.00    -0.022 A 
HETATM   10  C   UNL     1      -6.669   5.285 -33.538  1.00  0.00     0.051 C 
ENDROOT
BRANCH   1  11
HETATM   11  N   UNL     1      -8.113   2.473 -33.674  1.00  0.00    -0.372 N 
HETATM   12  H   UNL     1      -8.112   3.178 -34.407  1.00  0.00     0.161 HD
BRANCH  11  13
HETATM   13  C   UNL     1      -9.121   2.630 -32.639  1.00  0.00     0.156 C 
BRANCH  13  14
HETATM   14  C   UNL     1     -10.492   1.999 -33.063  1.00  0.00     0.236 C 
HETATM   15  C   UNL     1     -10.280   0.491 -33.306  1.00  0.00     0.044 C 
BRANCH  14  16
HETATM   16  N   UNL     1     -11.134   2.695 -34.224  1.00  0.00     0.097 N 
HETATM   17  C   UNL     1     -11.452   4.116 -33.943  1.00  0.00     0.300 C 
HETATM   18  C   UNL     1     -12.615   4.348 -32.949  1.00  0.00     0.265 C 
HETATM   19  N   UNL     1     -13.870   3.604 -33.384  1.00  0.00    -0.068 N 
HETATM   20  H   UNL     1     -14.201   4.052 -34.250  1.00  0.00     0.280 HD
HETATM   21  C   UNL     1     -13.575   2.148 -33.745  1.00  0.00     0.265 C 
HETATM   22  C   UNL     1     -12.378   2.052 -34.713  1.00  0.00     0.300 C 
BRANCH  19  23
HETATM   23  C   UNL     1     -14.998   3.677 -32.374  1.00  0.00     0.230 C 
HETATM   24  C   UNL     1     -15.416   2.297 -31.903  1.00  0.00     0.034 C 
ENDBRANCH  19  23
ENDBRANCH  14  16
ENDBRANCH  13  14
ENDBRANCH  11  13
ENDBRANCH   1  11
BRANCH   3  25
HETATM   25  C   UNL     1      -5.238  -1.299 -32.813  1.00  0.00     0.314 C 
BRANCH  25  26
HETATM   26  N   UNL     1      -5.329  -2.005 -34.168  1.00  0.00    -0.072 N 
HETATM   27  H   UNL     1      -5.106  -1.263 -34.853  1.00  0.00     0.279 HD
HETATM   28  C   UNL     1      -4.274  -3.058 -34.345  1.00  0.00     0.269 C 
HETATM   29  C   UNL     1      -6.702  -2.516 -34.463  1.00  0.00     0.269 C 
ENDBRANCH  25  26
ENDBRANCH   3  25
BRANCH   8  30
HETATM   30  C   UNL     1      -3.723   6.057 -32.703  1.00  0.00     0.300 C 
HETATM   31  O   UNL     1      -3.625   6.724 -31.680  1.00  0.00    -0.259 OA
BRANCH  30  32
HETATM   32  O   UNL     1      -3.344   6.494 -33.939  1.00  0.00    -0.317 OA
BRANCH  32  33
HETATM   33  C   UNL     1      -1.935   6.656 -34.161  1.00  0.00     0.174 C 
HETATM   34  C   UNL     1      -1.362   5.387 -34.763  1.00  0.00     0.034 C 
ENDBRANCH  32  33
ENDBRANCH  30  32
ENDBRANCH   8  30
TORSDOF 10
ENDMDL
MODEL 9
REMARK VINA RESULT:      -6.6      2.208      6.285
REMARK  10 active torsions:
REMARK  status: ('A' for Active; 'I' for Inactive)
REMARK    1  A    between atoms: C_2  and  N_3 
REMARK    2  A    between atoms: N_7  and  C_8 
REMARK    3  A    between atoms: C_8  and  C_9 
REMARK    4  A    between atoms: C_9  and  N_10 
REMARK    5  A    between atoms: N_10  and  C_11 
REMARK    6  A    between atoms: C_13  and  C_14 
REMARK    7  A    between atoms: C_14  and  N_15 
REMARK    8  A    between atoms: C_23  and  C_24 
REMARK    9  A    between atoms: C_24  and  O_25 
REMARK   10  A    between atoms: O_25  and  C_26 
ROOT
HETATM    1  C   UNL     1      -5.593   1.788 -32.781  1.00  0.00     0.139 A 
HETATM    2  N   UNL     1      -5.069   2.936 -32.278  1.00  0.00    -0.214 NA
HETATM    3  C   UNL     1      -3.832   2.931 -31.758  1.00  0.00     0.155 A 
HETATM    4  N   UNL     1      -3.016   1.875 -31.664  1.00  0.00    -0.224 NA
HETATM    5  C   UNL     1      -3.563   0.747 -32.142  1.00  0.00     0.115 A 
HETATM    6  C   UNL     1      -4.820   0.603 -32.706  1.00  0.00     0.053 A 
HETATM    7  S   UNL     1      -2.682  -0.694 -32.085  1.00  0.00    -0.063 SA
HETATM    8  C   UNL     1      -3.968  -1.606 -32.757  1.00  0.00     0.089 A 
HETATM    9  C   UNL     1      -5.069  -0.795 -33.047  1.00  0.00    -0.022 A 
HETATM   10  C   UNL     1      -6.368  -1.297 -33.609  1.00  0.00     0.051 C 
ENDROOT
BRANCH   1  11
HETATM   11  N   UNL     1      -6.870   1.813 -33.321  1.00  0.00    -0.372 N 
HETATM   12  H   UNL     1      -7.114   0.993 -33.870  1.00  0.00     0.161 HD
BRANCH  11  13
HETATM   13  C   UNL     1      -7.404   3.080 -33.794  1.00  0.00     0.156 C 
BRANCH  13  14
HETATM   14  C   UNL     1      -8.971   3.065 -33.852  1.00  0.00     0.236 C 
HETATM   15  C   UNL     1      -9.454   4.449 -34.330  1.00  0.00     0.044 C 
BRANCH  14  16
HETATM   16  N   UNL     1      -9.610   2.632 -32.569  1.00  0.00     0.097 N 
HETATM   17  C   UNL     1      -9.710   1.158 -32.440  1.00  0.00     0.300 C 
HETATM   18  C   UNL     1     -10.743   0.482 -33.373  1.00  0.00     0.265 C 
HETATM   19  N   UNL     1     -12.118   1.118 -33.227  1.00  0.00    -0.068 N 
HETATM   20  H   UNL     1     -12.459   0.884 -32.283  1.00  0.00     0.280 HD
HETATM   21  C   UNL     1     -12.053   2.644 -33.290  1.00  0.00     0.265 C 
HETATM   22  C   UNL     1     -10.966   3.188 -32.340  1.00  0.00     0.300 C 
BRANCH  19  23
HETATM   23  C   UNL     1     -13.137   0.594 -34.220  1.00  0.00     0.230 C 
HETATM   24  C   UNL     1     -14.556   0.853 -33.753  1.00  0.00     0.034 C 
ENDBRANCH  19  23
ENDBRANCH  14  16
ENDBRANCH  13  14
ENDBRANCH  11  13
ENDBRANCH   1  11
BRANCH   3  25
HETATM   25  C   UNL     1      -3.281   4.236 -31.205  1.00  0.00     0.314 C 
BRANCH  25  26
HETATM   26  N   UNL     1      -3.570   5.456 -32.083  1.00  0.00    -0.072 N 
HETATM   27  H   UNL     1      -4.355   5.150 -32.684  1.00  0.00     0.279 HD
HETATM   28  C   UNL     1      -4.085   6.627 -31.298  1.00  0.00     0.269 C 
HETATM   29  C   UNL     1      -2.420   5.819 -32.965  1.00  0.00     0.269 C 
ENDBRANCH  25  26
ENDBRANCH   3  25
BRANCH   8  30
HETATM   30  C   UNL     1      -3.820  -3.047 -32.961  1.00  0.00     0.300 C 
HETATM   31  O   UNL     1      -3.310  -3.818 -32.158  1.00  0.00    -0.259 OA
BRANCH  30  32
HETATM   32  O   UNL     1      -4.299  -3.423 -34.183  1.00  0.00    -0.317 OA
BRANCH  32  33
HETATM   33  C   UNL     1      -4.847  -4.747 -34.281  1.00  0.00     0.174 C 
HETATM   34  C   UNL     1      -6.255  -4.677 -34.844  1.00  0.00     0.034 C 
ENDBRANCH  32  33
ENDBRANCH  30  32
ENDBRANCH   8  30
TORSDOF 10
ENDMDL
MODEL 10
REMARK VINA RESULT:      -6.6     16.090     18.096
REMARK  10 active torsions:
REMARK  status: ('A' for Active; 'I' for Inactive)
REMARK    1  A    between atoms: C_2  and  N_3 
REMARK    2  A    between atoms: N_7  and  C_8 
REMARK    3  A    between atoms: C_8  and  C_9 
REMARK    4  A    between atoms: C_9  and  N_10 
REMARK    5  A    between atoms: N_10  and  C_11 
REMARK    6  A    between atoms: C_13  and  C_14 
REMARK    7  A    between atoms: C_14  and  N_15 
REMARK    8  A    between atoms: C_23  and  C_24 
REMARK    9  A    between atoms: C_24  and  O_25 
REMARK   10  A    between atoms: O_25  and  C_26 
ROOT
HETATM    1  C   UNL     1      -4.635 -13.164 -37.210  1.00  0.00     0.139 A 
HETATM    2  N   UNL     1      -3.298 -13.192 -37.451  1.00  0.00    -0.214 NA
HETATM    3  C   UNL     1      -2.844 -13.037 -38.704  1.00  0.00     0.155 A 
HETATM    4  N   UNL     1      -3.589 -12.858 -39.801  1.00  0.00    -0.224 NA
HETATM    5  C   UNL     1      -4.907 -12.861 -39.544  1.00  0.00     0.115 A 
HETATM    6  C   UNL     1      -5.516 -13.007 -38.309  1.00  0.00     0.053 A 
HETATM    7  S   UNL     1      -6.002 -12.668 -40.816  1.00  0.00    -0.063 SA
HETATM    8  C   UNL     1      -7.360 -12.835 -39.785  1.00  0.00     0.089 A 
HETATM    9  C   UNL     1      -6.969 -13.017 -38.455  1.00  0.00    -0.022 A 
HETATM   10  C   UNL     1      -7.919 -13.232 -37.313  1.00  0.00     0.051 C 
ENDROOT
BRANCH   1  11
HETATM   11  N   UNL     1      -5.087 -13.319 -35.908  1.00  0.00    -0.372 N 
HETATM   12  H   UNL     1      -5.349 -12.453 -35.445  1.00  0.00     0.161 HD
BRANCH  11  13
HETATM   13  C   UNL     1      -4.464 -14.330 -35.068  1.00  0.00     0.156 C 
BRANCH  13  14
HETATM   14  C   UNL     1      -5.521 -15.329 -34.482  1.00  0.00     0.236 C 
HETATM   15  C   UNL     1      -6.217 -16.046 -35.657  1.00  0.00     0.044 C 
BRANCH  14  16
HETATM   16  N   UNL     1      -6.485 -14.687 -33.534  1.00  0.00     0.097 N 
HETATM   17  C   UNL     1      -5.815 -13.947 -32.437  1.00  0.00     0.300 C 
HETATM   18  C   UNL     1      -5.109 -14.830 -31.380  1.00  0.00     0.265 C 
HETATM   19  N   UNL     1      -6.059 -15.872 -30.808  1.00  0.00    -0.068 N 
HETATM   20  H   UNL     1      -6.768 -15.364 -30.260  1.00  0.00     0.280 HD
HETATM   21  C   UNL     1      -6.821 -16.616 -31.905  1.00  0.00     0.265 C 
HETATM   22  C   UNL     1      -7.448 -15.626 -32.908  1.00  0.00     0.300 C 
BRANCH  19  23
HETATM   23  C   UNL     1      -5.386 -16.859 -29.874  1.00  0.00     0.230 C 
HETATM   24  C   UNL     1      -6.340 -17.354 -28.803  1.00  0.00     0.034 C 
ENDBRANCH  19  23
ENDBRANCH  14  16
ENDBRANCH  13  14
ENDBRANCH  11  13
ENDBRANCH   1  11
BRANCH   3  25
HETATM   25  C   UNL     1      -1.341 -13.074 -38.932  1.00  0.00     0.314 C 
BRANCH  25  26
HETATM   26  N   UNL     1      -0.764 -14.486 -39.052  1.00  0.00    -0.072 N 
HETATM   27  H   UNL     1      -1.594 -15.082 -39.214  1.00  0.00     0.279 HD
HETATM   28  C   UNL     1       0.108 -14.657 -40.262  1.00  0.00     0.269 C 
HETATM   29  C   UNL     1      -0.097 -14.946 -37.796  1.00  0.00     0.269 C 
ENDBRANCH  25  26
ENDBRANCH   3  25
BRANCH   8  30
HETATM   30  C   UNL     1      -8.714 -12.776 -40.335  1.00  0.00     0.300 C 
HETATM   31  O   UNL     1      -9.409 -11.767 -40.373  1.00  0.00    -0.259 OA
BRANCH  30  32
HETATM   32  O   UNL     1      -9.123 -14.002 -40.773  1.00  0.00    -0.317 OA
BRANCH  32  33
HETATM   33  C   UNL     1     -10.130 -14.663 -39.993  1.00  0.00     0.174 C 
HETATM   34  C   UNL     1      -9.544 -15.905 -39.347  1.00  0.00     0.034 C 
ENDBRANCH  32  33
ENDBRANCH  30  32
ENDBRANCH   8  30
TORSDOF 10
ENDMDL
