MODEL 1
REMARK VINA RESULT:      -8.1      0.000      0.000
REMARK  8 active torsions:
REMARK  status: ('A' for Active; 'I' for Inactive)
REMARK    1  A    between atoms: C_2  and  C_3 
REMARK    2  A    between atoms: C_3  and  S_4 
REMARK    3  A    between atoms: S_4  and  C_5 
REMARK    4  A    between atoms: N_6  and  C_7 
REMARK    5  A    between atoms: C_8  and  O_9 
REMARK    6  A    between atoms: C_15  and  C_16 
REMARK    7  A    between atoms: C_16  and  N_17 
REMARK       I    between atoms: N_17  and  C_18 
REMARK    8  A    between atoms: C_18  and  C_19 
ROOT
HETATM    1  C   UNL     1      -5.050   4.856 -30.751  1.00  0.00     0.196 A 
HETATM    2  N   UNL     1      -4.164   4.134 -31.531  1.00  0.00    -0.271 N 
HETATM    3  C   UNL     1      -4.315   2.826 -31.087  1.00  0.00     0.153 A 
HETATM    4  N   UNL     1      -5.213   2.789 -30.118  1.00  0.00    -0.132 NA
HETATM    5  N   UNL     1      -5.680   4.060 -29.918  1.00  0.00    -0.122 NA
ENDROOT
BRANCH   3   6
HETATM    6  C   UNL     1      -3.505   1.662 -31.529  1.00  0.00     0.204 C 
BRANCH   6   7
HETATM    7  N   UNL     1      -4.391   0.657 -32.073  1.00  0.00    -0.350 N 
HETATM    8  C   UNL     1      -3.916  -0.307 -32.936  1.00  0.00     0.252 C 
HETATM    9  O   UNL     1      -2.721  -0.425 -33.199  1.00  0.00    -0.268 OA
HETATM   10  H   UNL     1      -5.379   0.868 -32.046  1.00  0.00     0.163 HD
BRANCH   8  11
HETATM   11  C   UNL     1      -4.918  -1.200 -33.588  1.00  0.00     0.032 A 
HETATM   12  C   UNL     1      -4.661  -2.546 -33.883  1.00  0.00     0.023 A 
HETATM   13  C   UNL     1      -5.652  -3.346 -34.474  1.00  0.00    -0.061 A 
HETATM   14  C   UNL     1      -5.375  -4.784 -34.806  1.00  0.00     0.048 C 
HETATM   15  C   UNL     1      -6.887  -2.777 -34.807  1.00  0.00     0.007 A 
HETATM   16  C   UNL     1      -7.141  -1.432 -34.535  1.00  0.00     0.002 A 
HETATM   17  C   UNL     1      -6.161  -0.648 -33.927  1.00  0.00     0.017 A 
ENDBRANCH   8  11
ENDBRANCH   6   7
ENDBRANCH   3   6
BRANCH   2  18
HETATM   18  C   UNL     1      -3.349   4.592 -32.595  1.00  0.00     0.076 A 
HETATM   19  C   UNL     1      -1.975   4.810 -32.410  1.00  0.00     0.095 A 
HETATM   20  C   UNL     1      -1.212   5.267 -33.491  1.00  0.00     0.039 A 
HETATM   21  C   UNL     1      -1.811   5.520 -34.728  1.00  0.00     0.003 A 
HETATM   22  C   UNL     1      -3.176   5.311 -34.901  1.00  0.00     0.002 A 
HETATM   23  C   UNL     1      -3.949   4.847 -33.839  1.00  0.00     0.033 A 
BRANCH  19  24
HETATM   24  O   UNL     1      -1.421   4.451 -31.210  1.00  0.00    -0.354 OA
HETATM   25  C   UNL     1      -0.317   5.241 -30.777  1.00  0.00     0.210 C 
ENDBRANCH  19  24
ENDBRANCH   2  18
BRANCH   1  26
HETATM   26  S   UNL     1      -5.467   6.526 -30.980  1.00  0.00    -0.090 SA
BRANCH  26  27
HETATM   27  C   UNL     1      -3.905   7.305 -30.478  1.00  0.00     0.082 C 
BRANCH  27  28
HETATM   28  C   UNL     1      -3.405   8.217 -31.595  1.00  0.00     0.006 C 
HETATM   29  C   UNL     1      -1.906   8.450 -31.487  1.00  0.00     0.006 C 
ENDBRANCH  27  28
ENDBRANCH  26  27
ENDBRANCH   1  26
TORSDOF 8
ENDMDL
MODEL 2
REMARK VINA RESULT:      -8.1      2.568      4.411
REMARK  8 active torsions:
REMARK  status: ('A' for Active; 'I' for Inactive)
REMARK    1  A    between atoms: C_2  and  C_3 
REMARK    2  A    between atoms: C_3  and  S_4 
REMARK    3  A    between atoms: S_4  and  C_5 
REMARK    4  A    between atoms: N_6  and  C_7 
REMARK    5  A    between atoms: C_8  and  O_9 
REMARK    6  A    between atoms: C_15  and  C_16 
REMARK    7  A    between atoms: C_16  and  N_17 
REMARK       I    between atoms: N_17  and  C_18 
REMARK    8  A    between atoms: C_18  and  C_19 
ROOT
HETATM    1  C   UNL     1      -4.893   4.844 -32.477  1.00  0.00     0.196 A 
HETATM    2  N   UNL     1      -5.587   3.647 -32.498  1.00  0.00    -0.271 N 
HETATM    3  C   UNL     1      -6.317   3.703 -33.679  1.00  0.00     0.153 A 
HETATM    4  N   UNL     1      -6.074   4.847 -34.295  1.00  0.00    -0.132 NA
HETATM    5  N   UNL     1      -5.173   5.554 -33.546  1.00  0.00    -0.122 NA
ENDROOT
BRANCH   3   6
HETATM    6  C   UNL     1      -7.319   2.703 -34.127  1.00  0.00     0.204 C 
BRANCH   6   7
HETATM    7  N   UNL     1      -6.644   1.452 -34.393  1.00  0.00    -0.350 N 
HETATM    8  C   UNL     1      -7.230   0.251 -34.059  1.00  0.00     0.252 C 
HETATM    9  O   UNL     1      -8.377   0.176 -33.624  1.00  0.00    -0.268 OA
HETATM   10  H   UNL     1      -5.644   1.504 -34.537  1.00  0.00     0.163 HD
BRANCH   8  11
HETATM   11  C   UNL     1      -6.402  -0.982 -34.205  1.00  0.00     0.032 A 
HETATM   12  C   UNL     1      -6.915  -2.189 -34.700  1.00  0.00     0.023 A 
HETATM   13  C   UNL     1      -6.083  -3.311 -34.841  1.00  0.00    -0.061 A 
HETATM   14  C   UNL     1      -6.632  -4.610 -35.355  1.00  0.00     0.048 C 
HETATM   15  C   UNL     1      -4.743  -3.227 -34.442  1.00  0.00     0.007 A 
HETATM   16  C   UNL     1      -4.233  -2.035 -33.929  1.00  0.00     0.002 A 
HETATM   17  C   UNL     1      -5.058  -0.917 -33.813  1.00  0.00     0.017 A 
ENDBRANCH   8  11
ENDBRANCH   6   7
ENDBRANCH   3   6
BRANCH   2  18
HETATM   18  C   UNL     1      -5.516   2.569 -31.582  1.00  0.00     0.076 A 
HETATM   19  C   UNL     1      -6.484   2.411 -30.577  1.00  0.00     0.095 A 
HETATM   20  C   UNL     1      -6.369   1.332 -29.693  1.00  0.00     0.039 A 
HETATM   21  C   UNL     1      -5.299   0.439 -29.796  1.00  0.00     0.003 A 
HETATM   22  C   UNL     1      -4.338   0.608 -30.788  1.00  0.00     0.002 A 
HETATM   23  C   UNL     1      -4.443   1.671 -31.683  1.00  0.00     0.033 A 
BRANCH  19  24
HETATM   24  O   UNL     1      -7.564   3.253 -30.584  1.00  0.00    -0.354 OA
HETATM   25  C   UNL     1      -8.825   2.639 -30.837  1.00  0.00     0.210 C 
ENDBRANCH  19  24
ENDBRANCH   2  18
BRANCH   1  26
HETATM   26  S   UNL     1      -3.647   5.268 -31.345  1.00  0.00    -0.090 SA
BRANCH  26  27
HETATM   27  C   UNL     1      -2.215   4.510 -32.165  1.00  0.00     0.082 C 
BRANCH  27  28
HETATM   28  C   UNL     1      -1.556   5.527 -33.092  1.00  0.00     0.006 C 
HETATM   29  C   UNL     1      -1.667   5.100 -34.548  1.00  0.00     0.006 C 
ENDBRANCH  27  28
ENDBRANCH  26  27
ENDBRANCH   1  26
TORSDOF 8
ENDMDL
MODEL 3
REMARK VINA RESULT:      -7.7      3.401      5.070
REMARK  8 active torsions:
REMARK  status: ('A' for Active; 'I' for Inactive)
REMARK    1  A    between atoms: C_2  and  C_3 
REMARK    2  A    between atoms: C_3  and  S_4 
REMARK    3  A    between atoms: S_4  and  C_5 
REMARK    4  A    between atoms: N_6  and  C_7 
REMARK    5  A    between atoms: C_8  and  O_9 
REMARK    6  A    between atoms: C_15  and  C_16 
REMARK    7  A    between atoms: C_16  and  N_17 
REMARK       I    between atoms: N_17  and  C_18 
REMARK    8  A    between atoms: C_18  and  C_19 
ROOT
HETATM    1  C   UNL     1      -7.786   2.905 -30.732  1.00  0.00     0.196 A 
HETATM    2  N   UNL     1      -6.867   2.172 -31.459  1.00  0.00    -0.271 N 
HETATM    3  C   UNL     1      -5.689   2.293 -30.731  1.00  0.00     0.153 A 
HETATM    4  N   UNL     1      -5.904   3.045 -29.666  1.00  0.00    -0.132 NA
HETATM    5  N   UNL     1      -7.221   3.417 -29.662  1.00  0.00    -0.122 NA
ENDROOT
BRANCH   3   6
HETATM    6  C   UNL     1      -4.359   1.776 -31.142  1.00  0.00     0.204 C 
BRANCH   6   7
HETATM    7  N   UNL     1      -4.519   0.436 -31.663  1.00  0.00    -0.350 N 
HETATM    8  C   UNL     1      -3.463  -0.448 -31.667  1.00  0.00     0.252 C 
HETATM    9  O   UNL     1      -2.383  -0.187 -31.143  1.00  0.00    -0.268 OA
HETATM   10  H   UNL     1      -5.306   0.286 -32.280  1.00  0.00     0.163 HD
BRANCH   8  11
HETATM   11  C   UNL     1      -3.657  -1.748 -32.375  1.00  0.00     0.032 A 
HETATM   12  C   UNL     1      -4.495  -1.890 -33.490  1.00  0.00     0.023 A 
HETATM   13  C   UNL     1      -4.620  -3.132 -34.132  1.00  0.00    -0.061 A 
HETATM   14  C   UNL     1      -5.528  -3.292 -35.317  1.00  0.00     0.048 C 
HETATM   15  C   UNL     1      -3.932  -4.241 -33.623  1.00  0.00     0.007 A 
HETATM   16  C   UNL     1      -3.114  -4.110 -32.501  1.00  0.00     0.002 A 
HETATM   17  C   UNL     1      -2.976  -2.869 -31.880  1.00  0.00     0.017 A 
ENDBRANCH   8  11
ENDBRANCH   6   7
ENDBRANCH   3   6
BRANCH   2  18
HETATM   18  C   UNL     1      -7.078   1.401 -32.629  1.00  0.00     0.076 A 
HETATM   19  C   UNL     1      -6.614   1.843 -33.878  1.00  0.00     0.095 A 
HETATM   20  C   UNL     1      -6.851   1.048 -35.006  1.00  0.00     0.039 A 
HETATM   21  C   UNL     1      -7.555  -0.154 -34.894  1.00  0.00     0.003 A 
HETATM   22  C   UNL     1      -8.022  -0.579 -33.654  1.00  0.00     0.002 A 
HETATM   23  C   UNL     1      -7.786   0.194 -32.519  1.00  0.00     0.033 A 
BRANCH  19  24
HETATM   24  O   UNL     1      -5.843   2.974 -33.916  1.00  0.00    -0.354 OA
HETATM   25  C   UNL     1      -6.554   4.201 -34.060  1.00  0.00     0.210 C 
ENDBRANCH  19  24
ENDBRANCH   2  18
BRANCH   1  26
HETATM   26  S   UNL     1      -9.496   2.960 -31.029  1.00  0.00    -0.090 SA
BRANCH  26  27
HETATM   27  C   UNL     1      -9.535   4.170 -32.383  1.00  0.00     0.082 C 
BRANCH  27  28
HETATM   28  C   UNL     1     -10.107   3.517 -33.637  1.00  0.00     0.006 C 
HETATM   29  C   UNL     1     -10.727   2.164 -33.321  1.00  0.00     0.006 C 
ENDBRANCH  27  28
ENDBRANCH  26  27
ENDBRANCH   1  26
TORSDOF 8
ENDMDL
MODEL 4
REMARK VINA RESULT:      -7.6      3.021      7.685
REMARK  8 active torsions:
REMARK  status: ('A' for Active; 'I' for Inactive)
REMARK    1  A    between atoms: C_2  and  C_3 
REMARK    2  A    between atoms: C_3  and  S_4 
REMARK    3  A    between atoms: S_4  and  C_5 
REMARK    4  A    between atoms: N_6  and  C_7 
REMARK    5  A    between atoms: C_8  and  O_9 
REMARK    6  A    between atoms: C_15  and  C_16 
REMARK    7  A    between atoms: C_16  and  N_17 
REMARK       I    between atoms: N_17  and  C_18 
REMARK    8  A    between atoms: C_18  and  C_19 
ROOT
HETATM    1  C   UNL     1      -8.617   3.633 -33.003  1.00  0.00     0.196 A 
HETATM    2  N   UNL     1      -7.445   3.094 -33.502  1.00  0.00    -0.271 N 
HETATM    3  C   UNL     1      -6.649   4.203 -33.761  1.00  0.00     0.153 A 
HETATM    4  N   UNL     1      -7.308   5.304 -33.446  1.00  0.00    -0.132 NA
HETATM    5  N   UNL     1      -8.536   4.944 -32.959  1.00  0.00    -0.122 NA
ENDROOT
BRANCH   3   6
HETATM    6  C   UNL     1      -5.316   4.180 -34.415  1.00  0.00     0.204 C 
BRANCH   6   7
HETATM    7  N   UNL     1      -4.379   4.915 -33.594  1.00  0.00    -0.350 N 
HETATM    8  C   UNL     1      -3.183   5.358 -34.115  1.00  0.00     0.252 C 
HETATM    9  O   UNL     1      -2.902   5.246 -35.306  1.00  0.00    -0.268 OA
HETATM   10  H   UNL     1      -4.491   4.821 -32.593  1.00  0.00     0.163 HD
BRANCH   8  11
HETATM   11  C   UNL     1      -2.199   5.955 -33.165  1.00  0.00     0.032 A 
HETATM   12  C   UNL     1      -1.240   5.193 -32.482  1.00  0.00     0.023 A 
HETATM   13  C   UNL     1      -0.322   5.813 -31.619  1.00  0.00    -0.061 A 
HETATM   14  C   UNL     1       0.696   4.998 -30.875  1.00  0.00     0.048 C 
HETATM   15  C   UNL     1      -0.400   7.195 -31.412  1.00  0.00     0.007 A 
HETATM   16  C   UNL     1      -1.365   7.955 -32.072  1.00  0.00     0.002 A 
HETATM   17  C   UNL     1      -2.260   7.338 -32.946  1.00  0.00     0.017 A 
ENDBRANCH   8  11
ENDBRANCH   6   7
ENDBRANCH   3   6
BRANCH   2  18
HETATM   18  C   UNL     1      -7.090   1.730 -33.643  1.00  0.00     0.076 A 
HETATM   19  C   UNL     1      -6.410   1.052 -32.618  1.00  0.00     0.095 A 
HETATM   20  C   UNL     1      -6.077  -0.295 -32.806  1.00  0.00     0.039 A 
HETATM   21  C   UNL     1      -6.398  -0.948 -33.999  1.00  0.00     0.003 A 
HETATM   22  C   UNL     1      -7.063  -0.266 -35.014  1.00  0.00     0.002 A 
HETATM   23  C   UNL     1      -7.412   1.072 -34.840  1.00  0.00     0.033 A 
BRANCH  19  24
HETATM   24  O   UNL     1      -6.210   1.708 -31.433  1.00  0.00    -0.354 OA
HETATM   25  C   UNL     1      -4.849   1.910 -31.061  1.00  0.00     0.210 C 
ENDBRANCH  19  24
ENDBRANCH   2  18
BRANCH   1  26
HETATM   26  S   UNL     1      -9.925   2.732 -32.303  1.00  0.00    -0.090 SA
BRANCH  26  27
HETATM   27  C   UNL     1     -10.787   2.215 -33.815  1.00  0.00     0.082 C 
BRANCH  27  28
HETATM   28  C   UNL     1     -11.134   0.732 -33.726  1.00  0.00     0.006 C 
HETATM   29  C   UNL     1     -10.175  -0.004 -32.802  1.00  0.00     0.006 C 
ENDBRANCH  27  28
ENDBRANCH  26  27
ENDBRANCH   1  26
TORSDOF 8
ENDMDL
MODEL 5
REMARK VINA RESULT:      -7.5      2.341      3.656
REMARK  8 active torsions:
REMARK  status: ('A' for Active; 'I' for Inactive)
REMARK    1  A    between atoms: C_2  and  C_3 
REMARK    2  A    between atoms: C_3  and  S_4 
REMARK    3  A    between atoms: S_4  and  C_5 
REMARK    4  A    between atoms: N_6  and  C_7 
REMARK    5  A    between atoms: C_8  and  O_9 
REMARK    6  A    between atoms: C_15  and  C_16 
REMARK    7  A    between atoms: C_16  and  N_17 
REMARK       I    between atoms: N_17  and  C_18 
REMARK    8  A    between atoms: C_18  and  C_19 
ROOT
HETATM    1  C   UNL     1      -3.560   4.196 -32.522  1.00  0.00     0.196 A 
HETATM    2  N   UNL     1      -4.658   3.423 -32.190  1.00  0.00    -0.271 N 
HETATM    3  C   UNL     1      -4.128   2.407 -31.405  1.00  0.00     0.153 A 
HETATM    4  N   UNL     1      -2.822   2.569 -31.293  1.00  0.00    -0.132 NA
HETATM    5  N   UNL     1      -2.470   3.698 -31.984  1.00  0.00    -0.122 NA
ENDROOT
BRANCH   3   6
HETATM    6  C   UNL     1      -4.879   1.239 -30.877  1.00  0.00     0.204 C 
BRANCH   6   7
HETATM    7  N   UNL     1      -4.814   0.166 -31.844  1.00  0.00    -0.350 N 
HETATM    8  C   UNL     1      -5.963  -0.338 -32.414  1.00  0.00     0.252 C 
HETATM    9  O   UNL     1      -7.069   0.157 -32.214  1.00  0.00    -0.268 OA
HETATM   10  H   UNL     1      -3.964  -0.383 -31.850  1.00  0.00     0.163 HD
BRANCH   8  11
HETATM   11  C   UNL     1      -5.829  -1.554 -33.269  1.00  0.00     0.032 A 
HETATM   12  C   UNL     1      -4.695  -2.377 -33.251  1.00  0.00     0.023 A 
HETATM   13  C   UNL     1      -4.635  -3.524 -34.060  1.00  0.00    -0.061 A 
HETATM   14  C   UNL     1      -3.416  -4.400 -34.054  1.00  0.00     0.048 C 
HETATM   15  C   UNL     1      -5.702  -3.815 -34.918  1.00  0.00     0.007 A 
HETATM   16  C   UNL     1      -6.824  -2.988 -34.956  1.00  0.00     0.002 A 
HETATM   17  C   UNL     1      -6.888  -1.863 -34.135  1.00  0.00     0.017 A 
ENDBRANCH   8  11
ENDBRANCH   6   7
ENDBRANCH   3   6
BRANCH   2  18
HETATM   18  C   UNL     1      -6.022   3.648 -32.500  1.00  0.00     0.076 A 
HETATM   19  C   UNL     1      -6.851   4.372 -31.627  1.00  0.00     0.095 A 
HETATM   20  C   UNL     1      -8.193   4.563 -31.974  1.00  0.00     0.039 A 
HETATM   21  C   UNL     1      -8.705   4.028 -33.159  1.00  0.00     0.003 A 
HETATM   22  C   UNL     1      -7.880   3.302 -34.013  1.00  0.00     0.002 A 
HETATM   23  C   UNL     1      -6.539   3.110 -33.689  1.00  0.00     0.033 A 
BRANCH  19  24
HETATM   24  O   UNL     1      -6.276   4.960 -30.533  1.00  0.00    -0.354 OA
HETATM   25  C   UNL     1      -6.702   4.461 -29.267  1.00  0.00     0.210 C 
ENDBRANCH  19  24
ENDBRANCH   2  18
BRANCH   1  26
HETATM   26  S   UNL     1      -3.614   5.734 -33.325  1.00  0.00    -0.090 SA
BRANCH  26  27
HETATM   27  C   UNL     1      -2.694   5.326 -34.836  1.00  0.00     0.082 C 
BRANCH  27  28
HETATM   28  C   UNL     1      -1.243   5.774 -34.690  1.00  0.00     0.006 C 
HETATM   29  C   UNL     1      -1.097   6.820 -33.595  1.00  0.00     0.006 C 
ENDBRANCH  27  28
ENDBRANCH  26  27
ENDBRANCH   1  26
TORSDOF 8
ENDMDL
MODEL 6
REMARK VINA RESULT:      -7.4      2.121      3.913
REMARK  8 active torsions:
REMARK  status: ('A' for Active; 'I' for Inactive)
REMARK    1  A    between atoms: C_2  and  C_3 
REMARK    2  A    between atoms: C_3  and  S_4 
REMARK    3  A    between atoms: S_4  and  C_5 
REMARK    4  A    between atoms: N_6  and  C_7 
REMARK    5  A    between atoms: C_8  and  O_9 
REMARK    6  A    between atoms: C_15  and  C_16 
REMARK    7  A    between atoms: C_16  and  N_17 
REMARK       I    between atoms: N_17  and  C_18 
REMARK    8  A    between atoms: C_18  and  C_19 
ROOT
HETATM    1  C   UNL     1      -3.564   4.182 -31.824  1.00  0.00     0.196 A 
HETATM    2  N   UNL     1      -4.637   3.572 -31.199  1.00  0.00    -0.271 N 
HETATM    3  C   UNL     1      -4.268   2.234 -31.128  1.00  0.00     0.153 A 
HETATM    4  N   UNL     1      -3.076   2.075 -31.677  1.00  0.00    -0.132 NA
HETATM    5  N   UNL     1      -2.632   3.298 -32.101  1.00  0.00    -0.122 NA
ENDROOT
BRANCH   3   6
HETATM    6  C   UNL     1      -5.123   1.123 -30.638  1.00  0.00     0.204 C 
BRANCH   6   7
HETATM    7  N   UNL     1      -4.992  -0.000 -31.539  1.00  0.00    -0.350 N 
HETATM    8  C   UNL     1      -5.865  -0.162 -32.593  1.00  0.00     0.252 C 
HETATM    9  O   UNL     1      -6.717   0.676 -32.878  1.00  0.00    -0.268 OA
HETATM   10  H   UNL     1      -4.459  -0.789 -31.199  1.00  0.00     0.163 HD
BRANCH   8  11
HETATM   11  C   UNL     1      -5.774  -1.432 -33.372  1.00  0.00     0.032 A 
HETATM   12  C   UNL     1      -4.647  -2.266 -33.339  1.00  0.00     0.023 A 
HETATM   13  C   UNL     1      -4.627  -3.463 -34.073  1.00  0.00    -0.061 A 
HETATM   14  C   UNL     1      -3.417  -4.352 -34.052  1.00  0.00     0.048 C 
HETATM   15  C   UNL     1      -5.726  -3.795 -34.875  1.00  0.00     0.007 A 
HETATM   16  C   UNL     1      -6.839  -2.958 -34.930  1.00  0.00     0.002 A 
HETATM   17  C   UNL     1      -6.864  -1.782 -34.180  1.00  0.00     0.017 A 
ENDBRANCH   8  11
ENDBRANCH   6   7
ENDBRANCH   3   6
BRANCH   2  18
HETATM   18  C   UNL     1      -5.807   4.169 -30.671  1.00  0.00     0.076 A 
HETATM   19  C   UNL     1      -6.925   4.412 -31.486  1.00  0.00     0.095 A 
HETATM   20  C   UNL     1      -8.057   5.009 -30.919  1.00  0.00     0.039 A 
HETATM   21  C   UNL     1      -8.069   5.374 -29.570  1.00  0.00     0.003 A 
HETATM   22  C   UNL     1      -6.954   5.139 -28.771  1.00  0.00     0.002 A 
HETATM   23  C   UNL     1      -5.822   4.536 -29.316  1.00  0.00     0.033 A 
BRANCH  19  24
HETATM   24  O   UNL     1      -6.898   3.944 -32.773  1.00  0.00    -0.354 OA
HETATM   25  C   UNL     1      -6.755   4.934 -33.788  1.00  0.00     0.210 C 
ENDBRANCH  19  24
ENDBRANCH   2  18
BRANCH   1  26
HETATM   26  S   UNL     1      -3.345   5.894 -32.011  1.00  0.00    -0.090 SA
BRANCH  26  27
HETATM   27  C   UNL     1      -1.543   5.952 -32.224  1.00  0.00     0.082 C 
BRANCH  27  28
HETATM   28  C   UNL     1      -1.208   6.494 -33.611  1.00  0.00     0.006 C 
HETATM   29  C   UNL     1      -1.373   5.421 -34.677  1.00  0.00     0.006 C 
ENDBRANCH  27  28
ENDBRANCH  26  27
ENDBRANCH   1  26
TORSDOF 8
ENDMDL
MODEL 7
REMARK VINA RESULT:      -7.4      2.458      3.273
REMARK  8 active torsions:
REMARK  status: ('A' for Active; 'I' for Inactive)
REMARK    1  A    between atoms: C_2  and  C_3 
REMARK    2  A    between atoms: C_3  and  S_4 
REMARK    3  A    between atoms: S_4  and  C_5 
REMARK    4  A    between atoms: N_6  and  C_7 
REMARK    5  A    between atoms: C_8  and  O_9 
REMARK    6  A    between atoms: C_15  and  C_16 
REMARK    7  A    between atoms: C_16  and  N_17 
REMARK       I    between atoms: N_17  and  C_18 
REMARK    8  A    between atoms: C_18  and  C_19 
ROOT
HETATM    1  C   UNL     1      -6.652   3.842 -30.644  1.00  0.00     0.196 A 
HETATM    2  N   UNL     1      -6.204   3.782 -31.952  1.00  0.00    -0.271 N 
HETATM    3  C   UNL     1      -7.276   3.239 -32.650  1.00  0.00     0.153 A 
HETATM    4  N   UNL     1      -8.269   2.994 -31.814  1.00  0.00    -0.132 NA
HETATM    5  N   UNL     1      -7.881   3.384 -30.561  1.00  0.00    -0.122 NA
ENDROOT
BRANCH   3   6
HETATM    6  C   UNL     1      -7.273   2.863 -34.086  1.00  0.00     0.204 C 
BRANCH   6   7
HETATM    7  N   UNL     1      -6.551   1.619 -34.242  1.00  0.00    -0.350 N 
HETATM    8  C   UNL     1      -7.226   0.424 -34.360  1.00  0.00     0.252 C 
HETATM    9  O   UNL     1      -8.450   0.364 -34.445  1.00  0.00    -0.268 OA
HETATM   10  H   UNL     1      -5.580   1.626 -33.958  1.00  0.00     0.163 HD
BRANCH   8  11
HETATM   11  C   UNL     1      -6.414  -0.828 -34.344  1.00  0.00     0.032 A 
HETATM   12  C   UNL     1      -6.895  -2.054 -34.825  1.00  0.00     0.023 A 
HETATM   13  C   UNL     1      -6.076  -3.195 -34.808  1.00  0.00    -0.061 A 
HETATM   14  C   UNL     1      -6.592  -4.513 -35.308  1.00  0.00     0.048 C 
HETATM   15  C   UNL     1      -4.788  -3.108 -34.266  1.00  0.00     0.007 A 
HETATM   16  C   UNL     1      -4.313  -1.896 -33.766  1.00  0.00     0.002 A 
HETATM   17  C   UNL     1      -5.121  -0.761 -33.806  1.00  0.00     0.017 A 
ENDBRANCH   8  11
ENDBRANCH   6   7
ENDBRANCH   3   6
BRANCH   2  18
HETATM   18  C   UNL     1      -4.975   4.241 -32.485  1.00  0.00     0.076 A 
HETATM   19  C   UNL     1      -3.871   3.380 -32.600  1.00  0.00     0.095 A 
HETATM   20  C   UNL     1      -2.676   3.881 -33.129  1.00  0.00     0.039 A 
HETATM   21  C   UNL     1      -2.577   5.219 -33.519  1.00  0.00     0.003 A 
HETATM   22  C   UNL     1      -3.671   6.069 -33.392  1.00  0.00     0.002 A 
HETATM   23  C   UNL     1      -4.872   5.585 -32.876  1.00  0.00     0.033 A 
BRANCH  19  24
HETATM   24  O   UNL     1      -4.053   2.056 -32.300  1.00  0.00    -0.354 OA
HETATM   25  C   UNL     1      -3.304   1.566 -31.191  1.00  0.00     0.210 C 
ENDBRANCH  19  24
ENDBRANCH   2  18
BRANCH   1  26
HETATM   26  S   UNL     1      -5.831   4.624 -29.330  1.00  0.00    -0.090 SA
BRANCH  26  27
HETATM   27  C   UNL     1      -6.397   6.331 -29.585  1.00  0.00     0.082 C 
BRANCH  27  28
HETATM   28  C   UNL     1      -7.118   6.825 -28.335  1.00  0.00     0.006 C 
HETATM   29  C   UNL     1      -8.604   6.505 -28.393  1.00  0.00     0.006 C 
ENDBRANCH  27  28
ENDBRANCH  26  27
ENDBRANCH   1  26
TORSDOF 8
ENDMDL
MODEL 8
REMARK VINA RESULT:      -7.3      2.615      7.634
REMARK  8 active torsions:
REMARK  status: ('A' for Active; 'I' for Inactive)
REMARK    1  A    between atoms: C_2  and  C_3 
REMARK    2  A    between atoms: C_3  and  S_4 
REMARK    3  A    between atoms: S_4  and  C_5 
REMARK    4  A    between atoms: N_6  and  C_7 
REMARK    5  A    between atoms: C_8  and  O_9 
REMARK    6  A    between atoms: C_15  and  C_16 
REMARK    7  A    between atoms: C_16  and  N_17 
REMARK       I    between atoms: N_17  and  C_18 
REMARK    8  A    between atoms: C_18  and  C_19 
ROOT
HETATM    1  C   UNL     1      -7.470   3.674 -31.846  1.00  0.00     0.196 A 
HETATM    2  N   UNL     1      -6.462   3.165 -32.645  1.00  0.00    -0.271 N 
HETATM    3  C   UNL     1      -5.558   4.215 -32.754  1.00  0.00     0.153 A 
HETATM    4  N   UNL     1      -6.008   5.258 -32.079  1.00  0.00    -0.132 NA
HETATM    5  N   UNL     1      -7.199   4.913 -31.500  1.00  0.00    -0.122 NA
ENDROOT
BRANCH   3   6
HETATM    6  C   UNL     1      -4.339   4.225 -33.604  1.00  0.00     0.204 C 
BRANCH   6   7
HETATM    7  N   UNL     1      -3.335   5.051 -32.970  1.00  0.00    -0.350 N 
HETATM    8  C   UNL     1      -2.476   4.519 -32.034  1.00  0.00     0.252 C 
HETATM    9  O   UNL     1      -2.448   3.319 -31.771  1.00  0.00    -0.268 OA
HETATM   10  H   UNL     1      -3.487   6.050 -33.006  1.00  0.00     0.163 HD
BRANCH   8  11
HETATM   11  C   UNL     1      -1.586   5.467 -31.301  1.00  0.00     0.032 A 
HETATM   12  C   UNL     1      -2.075   6.462 -30.443  1.00  0.00     0.023 A 
HETATM   13  C   UNL     1      -1.188   7.310 -29.759  1.00  0.00    -0.061 A 
HETATM   14  C   UNL     1      -1.709   8.387 -28.852  1.00  0.00     0.048 C 
HETATM   15  C   UNL     1       0.189   7.181 -29.974  1.00  0.00     0.007 A 
HETATM   16  C   UNL     1       0.680   6.207 -30.844  1.00  0.00     0.002 A 
HETATM   17  C   UNL     1      -0.203   5.353 -31.503  1.00  0.00     0.017 A 
ENDBRANCH   8  11
ENDBRANCH   6   7
ENDBRANCH   3   6
BRANCH   2  18
HETATM   18  C   UNL     1      -6.325   1.856 -33.167  1.00  0.00     0.076 A 
HETATM   19  C   UNL     1      -5.639   0.861 -32.452  1.00  0.00     0.095 A 
HETATM   20  C   UNL     1      -5.526  -0.417 -33.012  1.00  0.00     0.039 A 
HETATM   21  C   UNL     1      -6.070  -0.693 -34.269  1.00  0.00     0.003 A 
HETATM   22  C   UNL     1      -6.740   0.301 -34.976  1.00  0.00     0.002 A 
HETATM   23  C   UNL     1      -6.870   1.576 -34.430  1.00  0.00     0.033 A 
BRANCH  19  24
HETATM   24  O   UNL     1      -5.215   1.156 -31.184  1.00  0.00    -0.354 OA
HETATM   25  C   UNL     1      -5.910   0.494 -30.130  1.00  0.00     0.210 C 
ENDBRANCH  19  24
ENDBRANCH   2  18
BRANCH   1  26
HETATM   26  S   UNL     1      -8.788   2.762 -31.180  1.00  0.00    -0.090 SA
BRANCH  26  27
HETATM   27  C   UNL     1      -9.912   2.760 -32.607  1.00  0.00     0.082 C 
BRANCH  27  28
HETATM   28  C   UNL     1     -10.251   1.323 -32.991  1.00  0.00     0.006 C 
HETATM   29  C   UNL     1      -9.439   0.328 -32.175  1.00  0.00     0.006 C 
ENDBRANCH  27  28
ENDBRANCH  26  27
ENDBRANCH   1  26
TORSDOF 8
ENDMDL
MODEL 9
REMARK VINA RESULT:      -7.2      2.241      3.616
REMARK  8 active torsions:
REMARK  status: ('A' for Active; 'I' for Inactive)
REMARK    1  A    between atoms: C_2  and  C_3 
REMARK    2  A    between atoms: C_3  and  S_4 
REMARK    3  A    between atoms: S_4  and  C_5 
REMARK    4  A    between atoms: N_6  and  C_7 
REMARK    5  A    between atoms: C_8  and  O_9 
REMARK    6  A    between atoms: C_15  and  C_16 
REMARK    7  A    between atoms: C_16  and  N_17 
REMARK       I    between atoms: N_17  and  C_18 
REMARK    8  A    between atoms: C_18  and  C_19 
ROOT
HETATM    1  C   UNL     1      -2.879   5.225 -33.067  1.00  0.00     0.196 A 
HETATM    2  N   UNL     1      -4.036   4.982 -32.348  1.00  0.00    -0.271 N 
HETATM    3  C   UNL     1      -3.951   3.633 -32.024  1.00  0.00     0.153 A 
HETATM    4  N   UNL     1      -2.836   3.127 -32.522  1.00  0.00    -0.132 NA
HETATM    5  N   UNL     1      -2.161   4.130 -33.164  1.00  0.00    -0.122 NA
ENDROOT
BRANCH   3   6
HETATM    6  C   UNL     1      -5.004   2.838 -31.341  1.00  0.00     0.204 C 
BRANCH   6   7
HETATM    7  N   UNL     1      -5.381   1.733 -32.193  1.00  0.00    -0.350 N 
HETATM    8  C   UNL     1      -5.053   0.438 -31.853  1.00  0.00     0.252 C 
HETATM    9  O   UNL     1      -4.528   0.152 -30.780  1.00  0.00    -0.268 OA
HETATM   10  H   UNL     1      -5.605   1.962 -33.152  1.00  0.00     0.163 HD
BRANCH   8  11
HETATM   11  C   UNL     1      -5.324  -0.627 -32.863  1.00  0.00     0.032 A 
HETATM   12  C   UNL     1      -4.473  -1.723 -33.060  1.00  0.00     0.023 A 
HETATM   13  C   UNL     1      -4.791  -2.710 -34.008  1.00  0.00    -0.061 A 
HETATM   14  C   UNL     1      -3.875  -3.877 -34.232  1.00  0.00     0.048 C 
HETATM   15  C   UNL     1      -5.946  -2.567 -34.786  1.00  0.00     0.007 A 
HETATM   16  C   UNL     1      -6.784  -1.466 -34.610  1.00  0.00     0.002 A 
HETATM   17  C   UNL     1      -6.476  -0.501 -33.652  1.00  0.00     0.017 A 
ENDBRANCH   8  11
ENDBRANCH   6   7
ENDBRANCH   3   6
BRANCH   2  18
HETATM   18  C   UNL     1      -5.039   5.899 -31.953  1.00  0.00     0.076 A 
HETATM   19  C   UNL     1      -6.146   6.158 -32.777  1.00  0.00     0.095 A 
HETATM   20  C   UNL     1      -7.110   7.077 -32.345  1.00  0.00     0.039 A 
HETATM   21  C   UNL     1      -6.964   7.739 -31.123  1.00  0.00     0.003 A 
HETATM   22  C   UNL     1      -5.859   7.485 -30.316  1.00  0.00     0.002 A 
HETATM   23  C   UNL     1      -4.895   6.566 -30.726  1.00  0.00     0.033 A 
BRANCH  19  24
HETATM   24  O   UNL     1      -6.292   5.409 -33.914  1.00  0.00    -0.354 OA
HETATM   25  C   UNL     1      -7.309   4.412 -33.871  1.00  0.00     0.210 C 
ENDBRANCH  19  24
ENDBRANCH   2  18
BRANCH   1  26
HETATM   26  S   UNL     1      -2.314   6.788 -33.571  1.00  0.00    -0.090 SA
BRANCH  26  27
HETATM   27  C   UNL     1      -1.552   7.353 -32.022  1.00  0.00     0.082 C 
BRANCH  27  28
HETATM   28  C   UNL     1      -0.159   6.747 -31.886  1.00  0.00     0.006 C 
HETATM   29  C   UNL     1       0.424   7.009 -30.505  1.00  0.00     0.006 C 
ENDBRANCH  27  28
ENDBRANCH  26  27
ENDBRANCH   1  26
TORSDOF 8
ENDMDL
MODEL 10
REMARK VINA RESULT:      -7.2      2.379      7.461
REMARK  8 active torsions:
REMARK  status: ('A' for Active; 'I' for Inactive)
REMARK    1  A    between atoms: C_2  and  C_3 
REMARK    2  A    between atoms: C_3  and  S_4 
REMARK    3  A    between atoms: S_4  and  C_5 
REMARK    4  A    between atoms: N_6  and  C_7 
REMARK    5  A    between atoms: C_8  and  O_9 
REMARK    6  A    between atoms: C_15  and  C_16 
REMARK    7  A    between atoms: C_16  and  N_17 
REMARK       I    between atoms: N_17  and  C_18 
REMARK    8  A    between atoms: C_18  and  C_19 
ROOT
HETATM    1  C   UNL     1      -5.480   1.627 -31.892  1.00  0.00     0.196 A 
HETATM    2  N   UNL     1      -5.149   2.970 -31.907  1.00  0.00    -0.271 N 
HETATM    3  C   UNL     1      -5.600   3.440 -30.679  1.00  0.00     0.153 A 
HETATM    4  N   UNL     1      -6.158   2.450 -30.004  1.00  0.00    -0.132 NA
HETATM    5  N   UNL     1      -6.070   1.313 -30.762  1.00  0.00    -0.122 NA
ENDROOT
BRANCH   3   6
HETATM    6  C   UNL     1      -5.586   4.857 -30.234  1.00  0.00     0.204 C 
BRANCH   6   7
HETATM    7  N   UNL     1      -4.231   5.222 -29.882  1.00  0.00    -0.350 N 
HETATM    8  C   UNL     1      -3.660   6.372 -30.382  1.00  0.00     0.252 C 
HETATM    9  O   UNL     1      -4.292   7.184 -31.053  1.00  0.00    -0.268 OA
HETATM   10  H   UNL     1      -3.644   4.479 -29.527  1.00  0.00     0.163 HD
BRANCH   8  11
HETATM   11  C   UNL     1      -2.209   6.591 -30.112  1.00  0.00     0.032 A 
HETATM   12  C   UNL     1      -1.213   5.694 -30.525  1.00  0.00     0.023 A 
HETATM   13  C   UNL     1       0.140   5.964 -30.267  1.00  0.00    -0.061 A 
HETATM   14  C   UNL     1       1.207   4.999 -30.694  1.00  0.00     0.048 C 
HETATM   15  C   UNL     1       0.486   7.119 -29.553  1.00  0.00     0.007 A 
HETATM   16  C   UNL     1      -0.502   8.003 -29.121  1.00  0.00     0.002 A 
HETATM   17  C   UNL     1      -1.843   7.742 -29.400  1.00  0.00     0.017 A 
ENDBRANCH   8  11
ENDBRANCH   6   7
ENDBRANCH   3   6
BRANCH   2  18
HETATM   18  C   UNL     1      -4.441   3.695 -32.896  1.00  0.00     0.076 A 
HETATM   19  C   UNL     1      -5.117   4.319 -33.957  1.00  0.00     0.095 A 
HETATM   20  C   UNL     1      -4.372   5.020 -34.913  1.00  0.00     0.039 A 
HETATM   21  C   UNL     1      -2.979   5.081 -34.824  1.00  0.00     0.003 A 
HETATM   22  C   UNL     1      -2.315   4.452 -33.776  1.00  0.00     0.002 A 
HETATM   23  C   UNL     1      -3.041   3.758 -32.810  1.00  0.00     0.033 A 
BRANCH  19  24
HETATM   24  O   UNL     1      -6.486   4.314 -33.940  1.00  0.00    -0.354 OA
HETATM   25  C   UNL     1      -7.103   5.512 -33.478  1.00  0.00     0.210 C 
ENDBRANCH  19  24
ENDBRANCH   2  18
BRANCH   1  26
HETATM   26  S   UNL     1      -4.986   0.454 -33.073  1.00  0.00    -0.090 SA
BRANCH  26  27
HETATM   27  C   UNL     1      -6.361   0.603 -34.250  1.00  0.00     0.082 C 
BRANCH  27  28
HETATM   28  C   UNL     1      -6.749  -0.780 -34.763  1.00  0.00     0.006 C 
HETATM   29  C   UNL     1      -5.748  -1.835 -34.318  1.00  0.00     0.006 C 
ENDBRANCH  27  28
ENDBRANCH  26  27
ENDBRANCH   1  26
TORSDOF 8
ENDMDL
