MODEL 1
REMARK VINA RESULT:      -9.8      0.000      0.000
REMARK  6 active torsions:
REMARK  status: ('A' for Active; 'I' for Inactive)
REMARK    1  A    between atoms: C_4  and  C_5 
REMARK    2  A    between atoms: C_9  and  C_10 
REMARK       I    between atoms: C_10  and  N_11 
REMARK    3  A    between atoms: N_11  and  N_12 
REMARK       I    between atoms: N_12  and  C_13 
REMARK    4  A    between atoms: C_13  and  C_14 
REMARK    5  A    between atoms: C_14  and  O_15 
REMARK    6  A    between atoms: O_15  and  C_16 
ROOT
HETATM    1  C   UNL     1      -2.471   4.501 -32.036  1.00  0.00     0.288 C 
HETATM    2  N   UNL     1      -3.269   3.697 -31.236  1.00  0.00    -0.262 N 
HETATM    3  O   UNL     1      -2.172   4.171 -33.183  1.00  0.00    -0.264 OA
HETATM    4  H   UNL     1      -3.857   4.137 -30.529  1.00  0.00     0.190 HD
ENDROOT
BRANCH   2   5
HETATM    5  N   UNL     1      -3.877   2.583 -31.856  1.00  0.00    -0.265 N 
HETATM    6  C   UNL     1      -3.450   1.333 -31.449  1.00  0.00     0.260 C 
HETATM    7  O   UNL     1      -2.443   1.180 -30.757  1.00  0.00    -0.269 OA
HETATM    8  H   UNL     1      -4.846   2.704 -32.157  1.00  0.00     0.190 HD
BRANCH   6   9
HETATM    9  C   UNL     1      -4.344   0.176 -31.880  1.00  0.00     0.280 C 
BRANCH   9  10
HETATM   10  O   UNL     1      -3.897  -0.379 -33.120  1.00  0.00    -0.341 OA
BRANCH  10  11
HETATM   11  C   UNL     1      -4.934  -1.027 -33.749  1.00  0.00     0.080 A 
HETATM   12  C   UNL     1      -4.896  -2.422 -33.955  1.00  0.00     0.007 A 
HETATM   13  C   UNL     1      -5.983  -3.027 -34.629  1.00  0.00    -0.023 A 
HETATM   14  C   UNL     1      -3.829  -3.240 -33.524  1.00  0.00     0.015 A 
HETATM   15  C   UNL     1      -5.966  -4.411 -34.869  1.00  0.00     0.012 A 
HETATM   16  C   UNL     1      -7.070  -2.238 -35.045  1.00  0.00     0.012 A 
HETATM   17  C   UNL     1      -4.895  -5.199 -34.443  1.00  0.00     0.001 A 
HETATM   18  C   UNL     1      -3.830  -4.615 -33.767  1.00  0.00     0.001 A 
HETATM   19  C   UNL     1      -7.099  -0.865 -34.793  1.00  0.00     0.004 A 
HETATM   20  C   UNL     1      -6.034  -0.259 -34.139  1.00  0.00     0.037 A 
ENDBRANCH  10  11
ENDBRANCH   9  10
ENDBRANCH   6   9
ENDBRANCH   2   5
BRANCH   1  21
HETATM   21  C   UNL     1      -2.048   5.736 -31.430  1.00  0.00     0.121 A 
HETATM   22  N   UNL     1      -2.394   6.994 -31.832  1.00  0.00    -0.272 N 
HETATM   23  N   UNL     1      -1.891   7.975 -31.072  1.00  0.00    -0.174 NA
HETATM   24  H   UNL     1      -2.997   7.259 -32.603  1.00  0.00     0.189 HD
HETATM   25  C   UNL     1      -1.191   7.340 -30.117  1.00  0.00     0.089 A 
HETATM   26  C   UNL     1      -1.276   5.935 -30.302  1.00  0.00     0.071 A 
BRANCH  25  27
HETATM   27  C   UNL     1      -0.486   8.071 -29.062  1.00  0.00    -0.006 A 
HETATM   28  C   UNL     1       0.857   7.784 -28.775  1.00  0.00     0.014 A 
HETATM   29  C   UNL     1       1.541   8.488 -27.782  1.00  0.00     0.001 A 
HETATM   30  C   UNL     1       0.888   9.482 -27.058  1.00  0.00     0.000 A 
HETATM   31  C   UNL     1      -0.449   9.772 -27.324  1.00  0.00     0.001 A 
HETATM   32  C   UNL     1      -1.133   9.072 -28.323  1.00  0.00     0.014 A 
ENDBRANCH  25  27
ENDBRANCH   1  21
TORSDOF 6
ENDMDL
MODEL 2
REMARK VINA RESULT:      -9.7      1.447      1.882
REMARK  6 active torsions:
REMARK  status: ('A' for Active; 'I' for Inactive)
REMARK    1  A    between atoms: C_4  and  C_5 
REMARK    2  A    between atoms: C_9  and  C_10 
REMARK       I    between atoms: C_10  and  N_11 
REMARK    3  A    between atoms: N_11  and  N_12 
REMARK       I    between atoms: N_12  and  C_13 
REMARK    4  A    between atoms: C_13  and  C_14 
REMARK    5  A    between atoms: C_14  and  O_15 
REMARK    6  A    between atoms: O_15  and  C_16 
ROOT
HETATM    1  C   UNL     1      -1.744   4.770 -31.466  1.00  0.00     0.288 C 
HETATM    2  N   UNL     1      -2.768   3.949 -31.019  1.00  0.00    -0.262 N 
HETATM    3  O   UNL     1      -1.513   4.913 -32.666  1.00  0.00    -0.264 OA
HETATM    4  H   UNL     1      -3.228   4.175 -30.137  1.00  0.00     0.190 HD
ENDROOT
BRANCH   2   5
HETATM    5  N   UNL     1      -3.650   3.437 -31.996  1.00  0.00    -0.265 N 
HETATM    6  C   UNL     1      -3.757   2.062 -32.079  1.00  0.00     0.260 C 
HETATM    7  O   UNL     1      -2.971   1.309 -31.502  1.00  0.00    -0.269 OA
HETATM    8  H   UNL     1      -4.462   4.015 -32.221  1.00  0.00     0.190 HD
BRANCH   6   9
HETATM    9  C   UNL     1      -4.943   1.558 -32.893  1.00  0.00     0.280 C 
BRANCH   9  10
HETATM   10  O   UNL     1      -5.545   0.422 -32.266  1.00  0.00    -0.341 OA
BRANCH  10  11
HETATM   11  C   UNL     1      -5.666  -0.607 -33.169  1.00  0.00     0.080 A 
HETATM   12  C   UNL     1      -4.852  -1.755 -33.071  1.00  0.00     0.007 A 
HETATM   13  C   UNL     1      -5.008  -2.770 -34.045  1.00  0.00    -0.023 A 
HETATM   14  C   UNL     1      -3.891  -1.938 -32.053  1.00  0.00     0.015 A 
HETATM   15  C   UNL     1      -4.196  -3.915 -33.988  1.00  0.00     0.012 A 
HETATM   16  C   UNL     1      -5.975  -2.622 -35.054  1.00  0.00     0.012 A 
HETATM   17  C   UNL     1      -3.246  -4.071 -32.978  1.00  0.00     0.001 A 
HETATM   18  C   UNL     1      -3.097  -3.086 -32.008  1.00  0.00     0.001 A 
HETATM   19  C   UNL     1      -6.795  -1.494 -35.104  1.00  0.00     0.004 A 
HETATM   20  C   UNL     1      -6.646  -0.488 -34.158  1.00  0.00     0.037 A 
ENDBRANCH  10  11
ENDBRANCH   9  10
ENDBRANCH   6   9
ENDBRANCH   2   5
BRANCH   1  21
HETATM   21  C   UNL     1      -1.004   5.443 -30.430  1.00  0.00     0.121 A 
HETATM   22  N   UNL     1       0.013   4.913 -29.689  1.00  0.00    -0.272 N 
HETATM   23  N   UNL     1       0.558   5.765 -28.811  1.00  0.00    -0.174 NA
HETATM   24  H   UNL     1       0.409   3.982 -29.749  1.00  0.00     0.189 HD
HETATM   25  C   UNL     1      -0.119   6.912 -28.985  1.00  0.00     0.089 A 
HETATM   26  C   UNL     1      -1.099   6.752 -30.000  1.00  0.00     0.071 A 
BRANCH  25  27
HETATM   27  C   UNL     1       0.189   8.115 -28.210  1.00  0.00    -0.006 A 
HETATM   28  C   UNL     1      -0.803   9.078 -27.969  1.00  0.00     0.014 A 
HETATM   29  C   UNL     1      -0.522  10.220 -27.216  1.00  0.00     0.001 A 
HETATM   30  C   UNL     1       0.757  10.417 -26.701  1.00  0.00     0.000 A 
HETATM   31  C   UNL     1       1.755   9.475 -26.939  1.00  0.00     0.001 A 
HETATM   32  C   UNL     1       1.474   8.328 -27.688  1.00  0.00     0.014 A 
ENDBRANCH  25  27
ENDBRANCH   1  21
TORSDOF 6
ENDMDL
MODEL 3
REMARK VINA RESULT:      -9.6      1.922     10.423
REMARK  6 active torsions:
REMARK  status: ('A' for Active; 'I' for Inactive)
REMARK    1  A    between atoms: C_4  and  C_5 
REMARK    2  A    between atoms: C_9  and  C_10 
REMARK       I    between atoms: C_10  and  N_11 
REMARK    3  A    between atoms: N_11  and  N_12 
REMARK       I    between atoms: N_12  and  C_13 
REMARK    4  A    between atoms: C_13  and  C_14 
REMARK    5  A    between atoms: C_14  and  O_15 
REMARK    6  A    between atoms: O_15  and  C_16 
ROOT
HETATM    1  C   UNL     1      -3.387   2.570 -32.134  1.00  0.00     0.288 C 
HETATM    2  N   UNL     1      -3.676   3.491 -33.130  1.00  0.00    -0.262 N 
HETATM    3  O   UNL     1      -2.609   2.836 -31.219  1.00  0.00    -0.264 OA
HETATM    4  H   UNL     1      -4.591   3.457 -33.579  1.00  0.00     0.190 HD
ENDROOT
BRANCH   2   5
HETATM    5  N   UNL     1      -3.190   4.804 -32.946  1.00  0.00    -0.265 N 
HETATM    6  C   UNL     1      -2.498   5.366 -34.002  1.00  0.00     0.260 C 
HETATM    7  O   UNL     1      -2.121   4.698 -34.965  1.00  0.00    -0.269 OA
HETATM    8  H   UNL     1      -3.739   5.409 -32.332  1.00  0.00     0.190 HD
BRANCH   6   9
HETATM    9  C   UNL     1      -2.286   6.873 -33.902  1.00  0.00     0.280 C 
BRANCH   9  10
HETATM   10  O   UNL     1      -1.013   7.170 -33.320  1.00  0.00    -0.341 OA
BRANCH  10  11
HETATM   11  C   UNL     1      -1.171   7.536 -32.004  1.00  0.00     0.080 A 
HETATM   12  C   UNL     1      -0.536   6.813 -30.971  1.00  0.00     0.007 A 
HETATM   13  C   UNL     1      -0.756   7.225 -29.636  1.00  0.00    -0.023 A 
HETATM   14  C   UNL     1       0.303   5.703 -31.206  1.00  0.00     0.015 A 
HETATM   15  C   UNL     1      -0.156   6.513 -28.583  1.00  0.00     0.012 A 
HETATM   16  C   UNL     1      -1.567   8.344 -29.378  1.00  0.00     0.012 A 
HETATM   17  C   UNL     1       0.662   5.412 -28.838  1.00  0.00     0.001 A 
HETATM   18  C   UNL     1       0.895   5.010 -30.148  1.00  0.00     0.001 A 
HETATM   19  C   UNL     1      -2.151   9.064 -30.421  1.00  0.00     0.004 A 
HETATM   20  C   UNL     1      -1.948   8.665 -31.736  1.00  0.00     0.037 A 
ENDBRANCH  10  11
ENDBRANCH   9  10
ENDBRANCH   6   9
ENDBRANCH   2   5
BRANCH   1  21
HETATM   21  C   UNL     1      -4.077   1.312 -32.249  1.00  0.00     0.121 A 
HETATM   22  N   UNL     1      -5.105   0.878 -31.461  1.00  0.00    -0.272 N 
HETATM   23  N   UNL     1      -5.594  -0.321 -31.802  1.00  0.00    -0.174 NA
HETATM   24  H   UNL     1      -5.545   1.363 -30.687  1.00  0.00     0.189 HD
HETATM   25  C   UNL     1      -4.868  -0.694 -32.869  1.00  0.00     0.089 A 
HETATM   26  C   UNL     1      -3.914   0.309 -33.185  1.00  0.00     0.071 A 
BRANCH  25  27
HETATM   27  C   UNL     1      -5.106  -1.963 -33.559  1.00  0.00    -0.006 A 
HETATM   28  C   UNL     1      -4.127  -2.968 -33.552  1.00  0.00     0.014 A 
HETATM   29  C   UNL     1      -4.353  -4.188 -34.194  1.00  0.00     0.001 A 
HETATM   30  C   UNL     1      -5.557  -4.415 -34.856  1.00  0.00     0.000 A 
HETATM   31  C   UNL     1      -6.534  -3.422 -34.879  1.00  0.00     0.001 A 
HETATM   32  C   UNL     1      -6.312  -2.203 -34.232  1.00  0.00     0.014 A 
ENDBRANCH  25  27
ENDBRANCH   1  21
TORSDOF 6
ENDMDL
MODEL 4
REMARK VINA RESULT:      -9.6      2.231     10.753
REMARK  6 active torsions:
REMARK  status: ('A' for Active; 'I' for Inactive)
REMARK    1  A    between atoms: C_4  and  C_5 
REMARK    2  A    between atoms: C_9  and  C_10 
REMARK       I    between atoms: C_10  and  N_11 
REMARK    3  A    between atoms: N_11  and  N_12 
REMARK       I    between atoms: N_12  and  C_13 
REMARK    4  A    between atoms: C_13  and  C_14 
REMARK    5  A    between atoms: C_14  and  O_15 
REMARK    6  A    between atoms: O_15  and  C_16 
ROOT
HETATM    1  C   UNL     1      -6.173   2.744 -33.550  1.00  0.00     0.288 C 
HETATM    2  N   UNL     1      -4.873   3.051 -33.178  1.00  0.00    -0.262 N 
HETATM    3  O   UNL     1      -7.065   3.592 -33.524  1.00  0.00    -0.264 OA
HETATM    4  H   UNL     1      -4.105   2.536 -33.608  1.00  0.00     0.190 HD
ENDROOT
BRANCH   2   5
HETATM    5  N   UNL     1      -4.577   4.413 -32.953  1.00  0.00    -0.265 N 
HETATM    6  C   UNL     1      -3.279   4.819 -33.204  1.00  0.00     0.260 C 
HETATM    7  O   UNL     1      -2.368   4.012 -33.393  1.00  0.00    -0.269 OA
HETATM    8  H   UNL     1      -5.342   5.074 -33.100  1.00  0.00     0.190 HD
BRANCH   6   9
HETATM    9  C   UNL     1      -3.081   6.328 -33.276  1.00  0.00     0.280 C 
BRANCH   9  10
HETATM   10  O   UNL     1      -1.711   6.673 -33.045  1.00  0.00    -0.341 OA
BRANCH  10  11
HETATM   11  C   UNL     1      -1.575   7.263 -31.811  1.00  0.00     0.080 A 
HETATM   12  C   UNL     1      -0.774   6.672 -30.810  1.00  0.00     0.007 A 
HETATM   13  C   UNL     1      -0.693   7.315 -29.553  1.00  0.00    -0.023 A 
HETATM   14  C   UNL     1      -0.055   5.473 -31.003  1.00  0.00     0.015 A 
HETATM   15  C   UNL     1       0.078   6.740 -28.529  1.00  0.00     0.012 A 
HETATM   16  C   UNL     1      -1.380   8.524 -29.345  1.00  0.00     0.012 A 
HETATM   17  C   UNL     1       0.773   5.548 -28.739  1.00  0.00     0.001 A 
HETATM   18  C   UNL     1       0.711   4.918 -29.976  1.00  0.00     0.001 A 
HETATM   19  C   UNL     1      -2.134   9.107 -30.364  1.00  0.00     0.004 A 
HETATM   20  C   UNL     1      -2.227   8.481 -31.601  1.00  0.00     0.037 A 
ENDBRANCH  10  11
ENDBRANCH   9  10
ENDBRANCH   6   9
ENDBRANCH   2   5
BRANCH   1  21
HETATM   21  C   UNL     1      -6.381   1.386 -33.978  1.00  0.00     0.121 A 
HETATM   22  N   UNL     1      -7.349   0.947 -34.835  1.00  0.00    -0.272 N 
HETATM   23  N   UNL     1      -7.302  -0.365 -35.097  1.00  0.00    -0.174 NA
HETATM   24  H   UNL     1      -8.062   1.495 -35.305  1.00  0.00     0.189 HD
HETATM   25  C   UNL     1      -6.250  -0.815 -34.394  1.00  0.00     0.089 A 
HETATM   26  C   UNL     1      -5.640   0.257 -33.688  1.00  0.00     0.071 A 
BRANCH  25  27
HETATM   27  C   UNL     1      -5.847  -2.222 -34.423  1.00  0.00    -0.006 A 
HETATM   28  C   UNL     1      -6.767  -3.216 -34.790  1.00  0.00     0.014 A 
HETATM   29  C   UNL     1      -6.386  -4.558 -34.836  1.00  0.00     0.001 A 
HETATM   30  C   UNL     1      -5.083  -4.925 -34.508  1.00  0.00     0.000 A 
HETATM   31  C   UNL     1      -4.160  -3.950 -34.133  1.00  0.00     0.001 A 
HETATM   32  C   UNL     1      -4.539  -2.604 -34.091  1.00  0.00     0.014 A 
ENDBRANCH  25  27
ENDBRANCH   1  21
TORSDOF 6
ENDMDL
MODEL 5
REMARK VINA RESULT:      -9.3      3.054     10.032
REMARK  6 active torsions:
REMARK  status: ('A' for Active; 'I' for Inactive)
REMARK    1  A    between atoms: C_4  and  C_5 
REMARK    2  A    between atoms: C_9  and  C_10 
REMARK       I    between atoms: C_10  and  N_11 
REMARK    3  A    between atoms: N_11  and  N_12 
REMARK       I    between atoms: N_12  and  C_13 
REMARK    4  A    between atoms: C_13  and  C_14 
REMARK    5  A    between atoms: C_14  and  O_15 
REMARK    6  A    between atoms: O_15  and  C_16 
ROOT
HETATM    1  C   UNL     1      -6.940   2.596 -33.199  1.00  0.00     0.288 C 
HETATM    2  N   UNL     1      -7.042   2.601 -31.817  1.00  0.00    -0.262 N 
HETATM    3  O   UNL     1      -6.882   3.643 -33.843  1.00  0.00    -0.264 OA
HETATM    4  H   UNL     1      -6.647   1.820 -31.293  1.00  0.00     0.190 HD
ENDROOT
BRANCH   2   5
HETATM    5  N   UNL     1      -6.885   3.847 -31.169  1.00  0.00    -0.265 N 
HETATM    6  C   UNL     1      -5.781   3.988 -30.350  1.00  0.00     0.260 C 
HETATM    7  O   UNL     1      -5.090   3.026 -30.013  1.00  0.00    -0.269 OA
HETATM    8  H   UNL     1      -7.245   4.664 -31.664  1.00  0.00     0.190 HD
BRANCH   6   9
HETATM    9  C   UNL     1      -5.463   5.422 -29.942  1.00  0.00     0.280 C 
BRANCH   9  10
HETATM   10  O   UNL     1      -5.113   6.210 -31.083  1.00  0.00    -0.341 OA
BRANCH  10  11
HETATM   11  C   UNL     1      -3.752   6.179 -31.278  1.00  0.00     0.080 A 
HETATM   12  C   UNL     1      -3.209   5.853 -32.539  1.00  0.00     0.007 A 
HETATM   13  C   UNL     1      -1.801   5.815 -32.670  1.00  0.00    -0.023 A 
HETATM   14  C   UNL     1      -4.000   5.564 -33.671  1.00  0.00     0.015 A 
HETATM   15  C   UNL     1      -1.229   5.473 -33.907  1.00  0.00     0.012 A 
HETATM   16  C   UNL     1      -0.991   6.125 -31.563  1.00  0.00     0.012 A 
HETATM   17  C   UNL     1      -2.031   5.180 -35.010  1.00  0.00     0.001 A 
HETATM   18  C   UNL     1      -3.415   5.230 -34.894  1.00  0.00     0.001 A 
HETATM   19  C   UNL     1      -1.555   6.482 -30.338  1.00  0.00     0.004 A 
HETATM   20  C   UNL     1      -2.936   6.516 -30.195  1.00  0.00     0.037 A 
ENDBRANCH  10  11
ENDBRANCH   9  10
ENDBRANCH   6   9
ENDBRANCH   2   5
BRANCH   1  21
HETATM   21  C   UNL     1      -6.888   1.290 -33.803  1.00  0.00     0.121 A 
HETATM   22  N   UNL     1      -7.498   0.911 -34.964  1.00  0.00    -0.272 N 
HETATM   23  N   UNL     1      -7.260  -0.357 -35.324  1.00  0.00    -0.174 NA
HETATM   24  H   UNL     1      -8.070   1.476 -35.582  1.00  0.00     0.189 HD
HETATM   25  C   UNL     1      -6.449  -0.836 -34.367  1.00  0.00     0.089 A 
HETATM   26  C   UNL     1      -6.183   0.172 -33.402  1.00  0.00     0.071 A 
BRANCH  25  27
HETATM   27  C   UNL     1      -5.940  -2.208 -34.402  1.00  0.00    -0.006 A 
HETATM   28  C   UNL     1      -6.776  -3.264 -34.797  1.00  0.00     0.014 A 
HETATM   29  C   UNL     1      -6.293  -4.574 -34.849  1.00  0.00     0.001 A 
HETATM   30  C   UNL     1      -4.973  -4.845 -34.499  1.00  0.00     0.000 A 
HETATM   31  C   UNL     1      -4.134  -3.808 -34.097  1.00  0.00     0.001 A 
HETATM   32  C   UNL     1      -4.614  -2.495 -34.049  1.00  0.00     0.014 A 
ENDBRANCH  25  27
ENDBRANCH   1  21
TORSDOF 6
ENDMDL
MODEL 6
REMARK VINA RESULT:      -9.3      1.819     11.240
REMARK  6 active torsions:
REMARK  status: ('A' for Active; 'I' for Inactive)
REMARK    1  A    between atoms: C_4  and  C_5 
REMARK    2  A    between atoms: C_9  and  C_10 
REMARK       I    between atoms: C_10  and  N_11 
REMARK    3  A    between atoms: N_11  and  N_12 
REMARK       I    between atoms: N_12  and  C_13 
REMARK    4  A    between atoms: C_13  and  C_14 
REMARK    5  A    between atoms: C_14  and  O_15 
REMARK    6  A    between atoms: O_15  and  C_16 
ROOT
HETATM    1  C   UNL     1      -5.442   2.326 -32.291  1.00  0.00     0.288 C 
HETATM    2  N   UNL     1      -4.238   2.323 -31.604  1.00  0.00    -0.262 N 
HETATM    3  O   UNL     1      -6.212   3.284 -32.232  1.00  0.00    -0.264 OA
HETATM    4  H   UNL     1      -3.455   1.794 -31.988  1.00  0.00     0.190 HD
ENDROOT
BRANCH   2   5
HETATM    5  N   UNL     1      -3.848   3.535 -30.992  1.00  0.00    -0.265 N 
HETATM    6  C   UNL     1      -2.991   4.348 -31.709  1.00  0.00     0.260 C 
HETATM    7  O   UNL     1      -2.412   3.955 -32.723  1.00  0.00    -0.269 OA
HETATM    8  H   UNL     1      -4.526   3.962 -30.358  1.00  0.00     0.190 HD
BRANCH   6   9
HETATM    9  C   UNL     1      -2.862   5.771 -31.179  1.00  0.00     0.280 C 
BRANCH   9  10
HETATM   10  O   UNL     1      -1.577   6.317 -31.493  1.00  0.00    -0.341 OA
BRANCH  10  11
HETATM   11  C   UNL     1      -0.841   6.483 -30.343  1.00  0.00     0.080 A 
HETATM   12  C   UNL     1      -0.967   7.653 -29.566  1.00  0.00     0.007 A 
HETATM   13  C   UNL     1      -0.165   7.775 -28.407  1.00  0.00    -0.023 A 
HETATM   14  C   UNL     1      -1.851   8.705 -29.890  1.00  0.00     0.015 A 
HETATM   15  C   UNL     1      -0.252   8.938 -27.624  1.00  0.00     0.012 A 
HETATM   16  C   UNL     1       0.704   6.729 -28.050  1.00  0.00     0.012 A 
HETATM   17  C   UNL     1      -1.125   9.970 -27.968  1.00  0.00     0.001 A 
HETATM   18  C   UNL     1      -1.927   9.852 -29.097  1.00  0.00     0.001 A 
HETATM   19  C   UNL     1       0.780   5.565 -28.816  1.00  0.00     0.004 A 
HETATM   20  C   UNL     1       0.003   5.437 -29.960  1.00  0.00     0.037 A 
ENDBRANCH  10  11
ENDBRANCH   9  10
ENDBRANCH   6   9
ENDBRANCH   2   5
BRANCH   1  21
HETATM   21  C   UNL     1      -5.699   1.149 -33.078  1.00  0.00     0.121 A 
HETATM   22  N   UNL     1      -6.414   1.092 -34.240  1.00  0.00    -0.272 N 
HETATM   23  N   UNL     1      -6.474  -0.126 -34.792  1.00  0.00    -0.174 NA
HETATM   24  H   UNL     1      -6.867   1.855 -34.731  1.00  0.00     0.189 HD
HETATM   25  C   UNL     1      -5.758  -0.909 -33.969  1.00  0.00     0.089 A 
HETATM   26  C   UNL     1      -5.246  -0.143 -32.888  1.00  0.00     0.071 A 
BRANCH  25  27
HETATM   27  C   UNL     1      -5.567  -2.336 -34.234  1.00  0.00    -0.006 A 
HETATM   28  C   UNL     1      -4.360  -2.966 -33.892  1.00  0.00     0.014 A 
HETATM   29  C   UNL     1      -4.176  -4.330 -34.126  1.00  0.00     0.001 A 
HETATM   30  C   UNL     1      -5.193  -5.080 -34.713  1.00  0.00     0.000 A 
HETATM   31  C   UNL     1      -6.393  -4.467 -35.066  1.00  0.00     0.001 A 
HETATM   32  C   UNL     1      -6.581  -3.102 -34.827  1.00  0.00     0.014 A 
ENDBRANCH  25  27
ENDBRANCH   1  21
TORSDOF 6
ENDMDL
MODEL 7
REMARK VINA RESULT:      -9.2      2.432     11.040
REMARK  6 active torsions:
REMARK  status: ('A' for Active; 'I' for Inactive)
REMARK    1  A    between atoms: C_4  and  C_5 
REMARK    2  A    between atoms: C_9  and  C_10 
REMARK       I    between atoms: C_10  and  N_11 
REMARK    3  A    between atoms: N_11  and  N_12 
REMARK       I    between atoms: N_12  and  C_13 
REMARK    4  A    between atoms: C_13  and  C_14 
REMARK    5  A    between atoms: C_14  and  O_15 
REMARK    6  A    between atoms: O_15  and  C_16 
ROOT
HETATM    1  C   UNL     1      -6.536   2.747 -33.730  1.00  0.00     0.288 C 
HETATM    2  N   UNL     1      -5.488   3.021 -32.865  1.00  0.00    -0.262 N 
HETATM    3  O   UNL     1      -7.282   3.637 -34.137  1.00  0.00    -0.264 OA
HETATM    4  H   UNL     1      -4.657   2.430 -32.898  1.00  0.00     0.190 HD
ENDROOT
BRANCH   2   5
HETATM    5  N   UNL     1      -5.198   4.382 -32.623  1.00  0.00    -0.265 N 
HETATM    6  C   UNL     1      -4.744   4.707 -31.359  1.00  0.00     0.260 C 
HETATM    7  O   UNL     1      -4.798   3.912 -30.420  1.00  0.00    -0.269 OA
HETATM    8  H   UNL     1      -4.873   4.926 -33.424  1.00  0.00     0.190 HD
BRANCH   6   9
HETATM    9  C   UNL     1      -4.130   6.098 -31.234  1.00  0.00     0.280 C 
BRANCH   9  10
HETATM   10  O   UNL     1      -3.409   6.227 -30.006  1.00  0.00    -0.341 OA
BRANCH  10  11
HETATM   11  C   UNL     1      -2.085   6.497 -30.262  1.00  0.00     0.080 A 
HETATM   12  C   UNL     1      -1.239   6.996 -29.249  1.00  0.00     0.007 A 
HETATM   13  C   UNL     1       0.107   7.275 -29.582  1.00  0.00    -0.023 A 
HETATM   14  C   UNL     1      -1.671   7.230 -27.926  1.00  0.00     0.015 A 
HETATM   15  C   UNL     1       0.969   7.794 -28.601  1.00  0.00     0.012 A 
HETATM   16  C   UNL     1       0.567   7.026 -30.886  1.00  0.00     0.012 A 
HETATM   17  C   UNL     1       0.518   8.027 -27.301  1.00  0.00     0.001 A 
HETATM   18  C   UNL     1      -0.799   7.741 -26.962  1.00  0.00     0.001 A 
HETATM   19  C   UNL     1      -0.281   6.495 -31.858  1.00  0.00     0.004 A 
HETATM   20  C   UNL     1      -1.607   6.223 -31.546  1.00  0.00     0.037 A 
ENDBRANCH  10  11
ENDBRANCH   9  10
ENDBRANCH   6   9
ENDBRANCH   2   5
BRANCH   1  21
HETATM   21  C   UNL     1      -6.661   1.367 -34.120  1.00  0.00     0.121 A 
HETATM   22  N   UNL     1      -7.596   0.847 -34.968  1.00  0.00    -0.272 N 
HETATM   23  N   UNL     1      -7.470  -0.467 -35.191  1.00  0.00    -0.174 NA
HETATM   24  H   UNL     1      -8.336   1.339 -35.457  1.00  0.00     0.189 HD
HETATM   25  C   UNL     1      -6.398  -0.833 -34.470  1.00  0.00     0.089 A 
HETATM   26  C   UNL     1      -5.857   0.292 -33.793  1.00  0.00     0.071 A 
BRANCH  25  27
HETATM   27  C   UNL     1      -5.913  -2.214 -34.456  1.00  0.00    -0.006 A 
HETATM   28  C   UNL     1      -6.772  -3.272 -34.789  1.00  0.00     0.014 A 
HETATM   29  C   UNL     1      -6.313  -4.590 -34.794  1.00  0.00     0.001 A 
HETATM   30  C   UNL     1      -4.990  -4.868 -34.458  1.00  0.00     0.000 A 
HETATM   31  C   UNL     1      -4.127  -3.830 -34.115  1.00  0.00     0.001 A 
HETATM   32  C   UNL     1      -4.584  -2.508 -34.116  1.00  0.00     0.014 A 
ENDBRANCH  25  27
ENDBRANCH   1  21
TORSDOF 6
ENDMDL
MODEL 8
REMARK VINA RESULT:      -9.2      1.629     11.301
REMARK  6 active torsions:
REMARK  status: ('A' for Active; 'I' for Inactive)
REMARK    1  A    between atoms: C_4  and  C_5 
REMARK    2  A    between atoms: C_9  and  C_10 
REMARK       I    between atoms: C_10  and  N_11 
REMARK    3  A    between atoms: N_11  and  N_12 
REMARK       I    between atoms: N_12  and  C_13 
REMARK    4  A    between atoms: C_13  and  C_14 
REMARK    5  A    between atoms: C_14  and  O_15 
REMARK    6  A    between atoms: O_15  and  C_16 
ROOT
HETATM    1  C   UNL     1      -4.293   2.662 -31.535  1.00  0.00     0.288 C 
HETATM    2  N   UNL     1      -2.986   2.980 -31.870  1.00  0.00    -0.262 N 
HETATM    3  O   UNL     1      -4.880   3.239 -30.620  1.00  0.00    -0.264 OA
HETATM    4  H   UNL     1      -2.684   2.857 -32.837  1.00  0.00     0.190 HD
ENDROOT
BRANCH   2   5
HETATM    5  N   UNL     1      -2.425   4.117 -31.248  1.00  0.00    -0.265 N 
HETATM    6  C   UNL     1      -1.794   5.030 -32.072  1.00  0.00     0.260 C 
HETATM    7  O   UNL     1      -1.528   4.776 -33.247  1.00  0.00    -0.269 OA
HETATM    8  H   UNL     1      -2.894   4.449 -30.403  1.00  0.00     0.190 HD
BRANCH   6   9
HETATM    9  C   UNL     1      -1.503   6.382 -31.429  1.00  0.00     0.280 C 
BRANCH   9  10
HETATM   10  O   UNL     1      -1.543   6.285 -30.002  1.00  0.00    -0.341 OA
BRANCH  10  11
HETATM   11  C   UNL     1      -1.541   7.542 -29.444  1.00  0.00     0.080 A 
HETATM   12  C   UNL     1      -0.538   7.926 -28.528  1.00  0.00     0.007 A 
HETATM   13  C   UNL     1      -0.605   9.224 -27.971  1.00  0.00    -0.023 A 
HETATM   14  C   UNL     1       0.523   7.079 -28.142  1.00  0.00     0.015 A 
HETATM   15  C   UNL     1       0.366   9.629 -27.040  1.00  0.00     0.012 A 
HETATM   16  C   UNL     1      -1.637  10.096 -28.359  1.00  0.00     0.012 A 
HETATM   17  C   UNL     1       1.401   8.771 -26.665  1.00  0.00     0.001 A 
HETATM   18  C   UNL     1       1.482   7.499 -27.219  1.00  0.00     0.001 A 
HETATM   19  C   UNL     1      -2.594   9.704 -29.296  1.00  0.00     0.004 A 
HETATM   20  C   UNL     1      -2.543   8.429 -29.845  1.00  0.00     0.037 A 
ENDBRANCH  10  11
ENDBRANCH   9  10
ENDBRANCH   6   9
ENDBRANCH   2   5
BRANCH   1  21
HETATM   21  C   UNL     1      -4.898   1.637 -32.344  1.00  0.00     0.121 A 
HETATM   22  N   UNL     1      -5.902   1.811 -33.253  1.00  0.00    -0.272 N 
HETATM   23  N   UNL     1      -6.262   0.695 -33.899  1.00  0.00    -0.174 NA
HETATM   24  H   UNL     1      -6.372   2.673 -33.506  1.00  0.00     0.189 HD
HETATM   25  C   UNL     1      -5.454  -0.259 -33.407  1.00  0.00     0.089 A 
HETATM   26  C   UNL     1      -4.577   0.296 -32.438  1.00  0.00     0.071 A 
BRANCH  25  27
HETATM   27  C   UNL     1      -5.521  -1.645 -33.875  1.00  0.00    -0.006 A 
HETATM   28  C   UNL     1      -6.728  -2.172 -34.359  1.00  0.00     0.014 A 
HETATM   29  C   UNL     1      -6.797  -3.487 -34.823  1.00  0.00     0.001 A 
HETATM   30  C   UNL     1      -5.662  -4.295 -34.800  1.00  0.00     0.000 A 
HETATM   31  C   UNL     1      -4.459  -3.788 -34.313  1.00  0.00     0.001 A 
HETATM   32  C   UNL     1      -4.387  -2.469 -33.854  1.00  0.00     0.014 A 
ENDBRANCH  25  27
ENDBRANCH   1  21
TORSDOF 6
ENDMDL
MODEL 9
REMARK VINA RESULT:      -8.8      2.487     10.459
REMARK  6 active torsions:
REMARK  status: ('A' for Active; 'I' for Inactive)
REMARK    1  A    between atoms: C_4  and  C_5 
REMARK    2  A    between atoms: C_9  and  C_10 
REMARK       I    between atoms: C_10  and  N_11 
REMARK    3  A    between atoms: N_11  and  N_12 
REMARK       I    between atoms: N_12  and  C_13 
REMARK    4  A    between atoms: C_13  and  C_14 
REMARK    5  A    between atoms: C_14  and  O_15 
REMARK    6  A    between atoms: O_15  and  C_16 
ROOT
HETATM    1  C   UNL     1      -5.132   2.832 -32.514  1.00  0.00     0.288 C 
HETATM    2  N   UNL     1      -5.353   2.917 -31.148  1.00  0.00    -0.262 N 
HETATM    3  O   UNL     1      -4.567   3.734 -33.131  1.00  0.00    -0.264 OA
HETATM    4  H   UNL     1      -5.386   2.056 -30.602  1.00  0.00     0.190 HD
ENDROOT
BRANCH   2   5
HETATM    5  N   UNL     1      -4.736   3.989 -30.467  1.00  0.00    -0.265 N 
HETATM    6  C   UNL     1      -5.562   5.008 -30.030  1.00  0.00     0.260 C 
HETATM    7  O   UNL     1      -6.733   5.104 -30.400  1.00  0.00    -0.269 OA
HETATM    8  H   UNL     1      -3.898   3.763 -29.929  1.00  0.00     0.190 HD
BRANCH   6   9
HETATM    9  C   UNL     1      -4.928   5.962 -29.024  1.00  0.00     0.280 C 
BRANCH   9  10
HETATM   10  O   UNL     1      -4.487   7.161 -29.668  1.00  0.00    -0.341 OA
BRANCH  10  11
HETATM   11  C   UNL     1      -3.114   7.182 -29.735  1.00  0.00     0.080 A 
HETATM   12  C   UNL     1      -2.448   7.091 -30.976  1.00  0.00     0.007 A 
HETATM   13  C   UNL     1      -1.034   7.095 -30.976  1.00  0.00    -0.023 A 
HETATM   14  C   UNL     1      -3.124   6.995 -32.212  1.00  0.00     0.015 A 
HETATM   15  C   UNL     1      -0.341   6.984 -32.194  1.00  0.00     0.012 A 
HETATM   16  C   UNL     1      -0.338   7.217 -29.761  1.00  0.00     0.012 A 
HETATM   17  C   UNL     1      -1.030   6.879 -33.403  1.00  0.00     0.001 A 
HETATM   18  C   UNL     1      -2.419   6.890 -33.413  1.00  0.00     0.001 A 
HETATM   19  C   UNL     1      -1.022   7.344 -28.551  1.00  0.00     0.004 A 
HETATM   20  C   UNL     1      -2.411   7.335 -28.537  1.00  0.00     0.037 A 
ENDBRANCH  10  11
ENDBRANCH   9  10
ENDBRANCH   6   9
ENDBRANCH   2   5
BRANCH   1  21
HETATM   21  C   UNL     1      -5.592   1.616 -33.132  1.00  0.00     0.121 A 
HETATM   22  N   UNL     1      -6.661   1.489 -33.973  1.00  0.00    -0.272 N 
HETATM   23  N   UNL     1      -6.853   0.249 -34.438  1.00  0.00    -0.174 NA
HETATM   24  H   UNL     1      -7.288   2.216 -34.297  1.00  0.00     0.189 HD
HETATM   25  C   UNL     1      -5.863  -0.477 -33.893  1.00  0.00     0.089 A 
HETATM   26  C   UNL     1      -5.045   0.348 -33.077  1.00  0.00     0.071 A 
BRANCH  25  27
HETATM   27  C   UNL     1      -5.711  -1.907 -34.170  1.00  0.00    -0.006 A 
HETATM   28  C   UNL     1      -4.482  -2.545 -33.950  1.00  0.00     0.014 A 
HETATM   29  C   UNL     1      -4.334  -3.912 -34.196  1.00  0.00     0.001 A 
HETATM   30  C   UNL     1      -5.411  -4.655 -34.672  1.00  0.00     0.000 A 
HETATM   31  C   UNL     1      -6.636  -4.033 -34.905  1.00  0.00     0.001 A 
HETATM   32  C   UNL     1      -6.787  -2.665 -34.653  1.00  0.00     0.014 A 
ENDBRANCH  25  27
ENDBRANCH   1  21
TORSDOF 6
ENDMDL
MODEL 10
REMARK VINA RESULT:      -8.5      1.869     11.480
REMARK  6 active torsions:
REMARK  status: ('A' for Active; 'I' for Inactive)
REMARK    1  A    between atoms: C_4  and  C_5 
REMARK    2  A    between atoms: C_9  and  C_10 
REMARK       I    between atoms: C_10  and  N_11 
REMARK    3  A    between atoms: N_11  and  N_12 
REMARK       I    between atoms: N_12  and  C_13 
REMARK    4  A    between atoms: C_13  and  C_14 
REMARK    5  A    between atoms: C_14  and  O_15 
REMARK    6  A    between atoms: O_15  and  C_16 
ROOT
HETATM    1  C   UNL     1      -3.669   3.049 -31.713  1.00  0.00     0.288 C 
HETATM    2  N   UNL     1      -4.284   3.929 -30.836  1.00  0.00    -0.262 N 
HETATM    3  O   UNL     1      -2.574   3.303 -32.214  1.00  0.00    -0.264 OA
HETATM    4  H   UNL     1      -4.902   3.554 -30.116  1.00  0.00     0.190 HD
ENDROOT
BRANCH   2   5
HETATM    5  N   UNL     1      -3.520   5.034 -30.398  1.00  0.00    -0.265 N 
HETATM    6  C   UNL     1      -4.209   6.202 -30.131  1.00  0.00     0.260 C 
HETATM    7  O   UNL     1      -5.384   6.358 -30.466  1.00  0.00    -0.269 OA
HETATM    8  H   UNL     1      -2.679   4.818 -29.860  1.00  0.00     0.190 HD
BRANCH   6   9
HETATM    9  C   UNL     1      -3.421   7.249 -29.353  1.00  0.00     0.280 C 
BRANCH   9  10
HETATM   10  O   UNL     1      -2.256   7.653 -30.079  1.00  0.00    -0.341 OA
BRANCH  10  11
HETATM   11  C   UNL     1      -1.162   7.661 -29.247  1.00  0.00     0.080 A 
HETATM   12  C   UNL     1      -0.855   8.796 -28.466  1.00  0.00     0.007 A 
HETATM   13  C   UNL     1       0.298   8.752 -27.648  1.00  0.00    -0.023 A 
HETATM   14  C   UNL     1      -1.640   9.970 -28.465  1.00  0.00     0.015 A 
HETATM   15  C   UNL     1       0.643   9.874 -26.876  1.00  0.00     0.012 A 
HETATM   16  C   UNL     1       1.081   7.585 -27.613  1.00  0.00     0.012 A 
HETATM   17  C   UNL     1      -0.142  11.027 -26.897  1.00  0.00     0.001 A 
HETATM   18  C   UNL     1      -1.285  11.074 -27.687  1.00  0.00     0.001 A 
HETATM   19  C   UNL     1       0.733   6.463 -28.366  1.00  0.00     0.004 A 
HETATM   20  C   UNL     1      -0.393   6.497 -29.178  1.00  0.00     0.037 A 
ENDBRANCH  10  11
ENDBRANCH   9  10
ENDBRANCH   6   9
ENDBRANCH   2   5
BRANCH   1  21
HETATM   21  C   UNL     1      -4.394   1.831 -31.964  1.00  0.00     0.121 A 
HETATM   22  N   UNL     1      -5.581   1.465 -31.397  1.00  0.00    -0.272 N 
HETATM   23  N   UNL     1      -6.061   0.293 -31.830  1.00  0.00    -0.174 NA
HETATM   24  H   UNL     1      -6.137   1.981 -30.724  1.00  0.00     0.189 HD
HETATM   25  C   UNL     1      -5.161  -0.131 -32.733  1.00  0.00     0.089 A 
HETATM   26  C   UNL     1      -4.107   0.813 -32.852  1.00  0.00     0.071 A 
BRANCH  25  27
HETATM   27  C   UNL     1      -5.331  -1.391 -33.459  1.00  0.00    -0.006 A 
HETATM   28  C   UNL     1      -4.247  -2.265 -33.626  1.00  0.00     0.014 A 
HETATM   29  C   UNL     1      -4.405  -3.477 -34.303  1.00  0.00     0.001 A 
HETATM   30  C   UNL     1      -5.647  -3.825 -34.829  1.00  0.00     0.000 A 
HETATM   31  C   UNL     1      -6.731  -2.962 -34.679  1.00  0.00     0.001 A 
HETATM   32  C   UNL     1      -6.576  -1.751 -33.996  1.00  0.00     0.014 A 
ENDBRANCH  25  27
ENDBRANCH   1  21
TORSDOF 6
ENDMDL
