MODEL 1
REMARK VINA RESULT:      -8.2      0.000      0.000
REMARK  9 active torsions:
REMARK  status: ('A' for Active; 'I' for Inactive)
REMARK    1  A    between atoms: C_2  and  C_3 
REMARK    2  A    between atoms: C_3  and  O_4 
REMARK    3  A    between atoms: O_4  and  C_5 
REMARK    4  A    between atoms: C_8  and  C_9 
REMARK    5  A    between atoms: C_13  and  C_14 
REMARK       I    between atoms: C_14  and  N_15 
REMARK    6  A    between atoms: N_15  and  N_16 
REMARK    7  A    between atoms: C_17  and  C_18 
REMARK    8  A    between atoms: C_21  and  C_22 
REMARK    9  A    between atoms: C_22  and  O_23 
ROOT
HETATM    1  C   UNL     1      -0.537   7.349 -29.248  1.00  0.00     0.089 A 
HETATM    2  N   UNL     1      -1.483   7.995 -29.947  1.00  0.00    -0.174 NA
HETATM    3  N   UNL     1      -1.865   7.121 -30.889  1.00  0.00    -0.272 N 
HETATM    4  H   UNL     1      -2.589   7.390 -31.549  1.00  0.00     0.189 HD
HETATM    5  C   UNL     1      -1.231   5.911 -30.823  1.00  0.00     0.121 A 
HETATM    6  C   UNL     1      -0.337   6.042 -29.779  1.00  0.00     0.071 A 
ENDROOT
BRANCH   5   7
HETATM    7  C   UNL     1      -1.581   4.836 -31.720  1.00  0.00     0.289 C 
HETATM    8  N   UNL     1      -2.502   3.935 -31.208  1.00  0.00    -0.242 N 
HETATM    9  H   UNL     1      -2.874   4.059 -30.276  1.00  0.00     0.192 HD
HETATM   10  O   UNL     1      -1.097   4.769 -32.846  1.00  0.00    -0.264 OA
BRANCH   8  11
HETATM   11  N   UNL     1      -3.026   2.960 -32.008  1.00  0.00    -0.184 NA
HETATM   12  C   UNL     1      -3.336   1.854 -31.414  1.00  0.00     0.150 C 
BRANCH  12  13
HETATM   13  C   UNL     1      -3.964   0.733 -32.141  1.00  0.00    -0.017 A 
HETATM   14  C   UNL     1      -3.344  -0.518 -32.200  1.00  0.00     0.014 A 
HETATM   15  C   UNL     1      -3.936  -1.555 -32.925  1.00  0.00     0.018 A 
HETATM   16  C   UNL     1      -5.150  -1.348 -33.597  1.00  0.00     0.039 A 
HETATM   17  C   UNL     1      -5.770  -0.091 -33.524  1.00  0.00     0.018 A 
HETATM   18  C   UNL     1      -5.177   0.948 -32.799  1.00  0.00     0.014 A 
BRANCH  16  19
HETATM   19  C   UNL     1      -5.728  -2.481 -34.371  1.00  0.00     0.292 C 
HETATM   20  O   UNL     1      -6.914  -2.574 -34.648  1.00  0.00    -0.259 OA
BRANCH  19  21
HETATM   21  O   UNL     1      -4.763  -3.376 -34.701  1.00  0.00    -0.323 OA
HETATM   22  C   UNL     1      -5.176  -4.739 -34.590  1.00  0.00     0.213 C 
ENDBRANCH  19  21
ENDBRANCH  16  19
ENDBRANCH  12  13
ENDBRANCH   8  11
ENDBRANCH   5   7
BRANCH   1  23
HETATM   23  C   UNL     1       0.118   7.957 -28.088  1.00  0.00    -0.005 A 
HETATM   24  C   UNL     1      -0.281   9.221 -27.632  1.00  0.00     0.016 A 
HETATM   25  C   UNL     1       0.296   9.792 -26.491  1.00  0.00     0.037 A 
HETATM   26  C   UNL     1       1.285   9.105 -25.790  1.00  0.00     0.068 A 
HETATM   27  C   UNL     1       1.712   7.860 -26.258  1.00  0.00     0.037 A 
HETATM   28  C   UNL     1       1.132   7.286 -27.394  1.00  0.00     0.016 A 
BRANCH  26  29
HETATM   29  O   UNL     1       1.914   9.539 -24.657  1.00  0.00    -0.351 OA
BRANCH  29  30
HETATM   30  C   UNL     1       3.274   9.141 -24.486  1.00  0.00     0.175 C 
BRANCH  30  31
HETATM   31  C   UNL     1       3.664   9.418 -23.037  1.00  0.00     0.022 C 
HETATM   32  C   UNL     1       3.367   8.234 -22.135  1.00  0.00     0.007 C 
ENDBRANCH  30  31
ENDBRANCH  29  30
ENDBRANCH  26  29
ENDBRANCH   1  23
TORSDOF 9
ENDMDL
MODEL 2
REMARK VINA RESULT:      -7.8      1.287     12.611
REMARK  9 active torsions:
REMARK  status: ('A' for Active; 'I' for Inactive)
REMARK    1  A    between atoms: C_2  and  C_3 
REMARK    2  A    between atoms: C_3  and  O_4 
REMARK    3  A    between atoms: O_4  and  C_5 
REMARK    4  A    between atoms: C_8  and  C_9 
REMARK    5  A    between atoms: C_13  and  C_14 
REMARK       I    between atoms: C_14  and  N_15 
REMARK    6  A    between atoms: N_15  and  N_16 
REMARK    7  A    between atoms: C_17  and  C_18 
REMARK    8  A    between atoms: C_21  and  C_22 
REMARK    9  A    between atoms: C_22  and  O_23 
ROOT
HETATM    1  C   UNL     1      -4.147   3.039 -32.302  1.00  0.00     0.089 A 
HETATM    2  N   UNL     1      -4.821   4.157 -32.612  1.00  0.00    -0.174 NA
HETATM    3  N   UNL     1      -4.069   5.154 -32.124  1.00  0.00    -0.272 N 
HETATM    4  H   UNL     1      -4.381   6.113 -32.243  1.00  0.00     0.189 HD
HETATM    5  C   UNL     1      -2.908   4.742 -31.531  1.00  0.00     0.121 A 
HETATM    6  C   UNL     1      -2.947   3.364 -31.607  1.00  0.00     0.071 A 
ENDROOT
BRANCH   5   7
HETATM    7  C   UNL     1      -1.953   5.695 -31.020  1.00  0.00     0.289 C 
HETATM    8  N   UNL     1      -2.290   6.248 -29.794  1.00  0.00    -0.242 N 
HETATM    9  H   UNL     1      -3.147   5.977 -29.330  1.00  0.00     0.192 HD
HETATM   10  O   UNL     1      -0.924   5.955 -31.638  1.00  0.00    -0.264 OA
BRANCH   8  11
HETATM   11  N   UNL     1      -1.403   7.049 -29.134  1.00  0.00    -0.184 NA
HETATM   12  C   UNL     1      -1.313   6.854 -27.859  1.00  0.00     0.150 C 
BRANCH  12  13
HETATM   13  C   UNL     1      -0.354   7.607 -27.025  1.00  0.00    -0.017 A 
HETATM   14  C   UNL     1      -0.764   8.732 -26.303  1.00  0.00     0.014 A 
HETATM   15  C   UNL     1       0.167   9.452 -25.551  1.00  0.00     0.018 A 
HETATM   16  C   UNL     1       1.511   9.054 -25.515  1.00  0.00     0.039 A 
HETATM   17  C   UNL     1       1.911   7.918 -26.236  1.00  0.00     0.018 A 
HETATM   18  C   UNL     1       0.980   7.196 -26.990  1.00  0.00     0.014 A 
BRANCH  16  19
HETATM   19  C   UNL     1       2.465   9.868 -24.713  1.00  0.00     0.292 C 
HETATM   20  O   UNL     1       2.395  11.083 -24.609  1.00  0.00    -0.259 OA
BRANCH  19  21
HETATM   21  O   UNL     1       3.406   9.076 -24.139  1.00  0.00    -0.323 OA
HETATM   22  C   UNL     1       3.132   8.748 -22.776  1.00  0.00     0.213 C 
ENDBRANCH  19  21
ENDBRANCH  16  19
ENDBRANCH  12  13
ENDBRANCH   8  11
ENDBRANCH   5   7
BRANCH   1  23
HETATM   23  C   UNL     1      -4.624   1.713 -32.700  1.00  0.00    -0.005 A 
HETATM   24  C   UNL     1      -5.870   1.568 -33.326  1.00  0.00     0.016 A 
HETATM   25  C   UNL     1      -6.316   0.315 -33.763  1.00  0.00     0.037 A 
HETATM   26  C   UNL     1      -5.520  -0.814 -33.578  1.00  0.00     0.068 A 
HETATM   27  C   UNL     1      -4.292  -0.682 -32.926  1.00  0.00     0.037 A 
HETATM   28  C   UNL     1      -3.843   0.569 -32.494  1.00  0.00     0.016 A 
BRANCH  26  29
HETATM   29  O   UNL     1      -5.827  -2.086 -33.972  1.00  0.00    -0.351 OA
BRANCH  29  30
HETATM   30  C   UNL     1      -4.731  -2.934 -34.317  1.00  0.00     0.175 C 
BRANCH  30  31
HETATM   31  C   UNL     1      -5.298  -4.290 -34.724  1.00  0.00     0.022 C 
HETATM   32  C   UNL     1      -6.796  -4.229 -34.963  1.00  0.00     0.007 C 
ENDBRANCH  30  31
ENDBRANCH  29  30
ENDBRANCH  26  29
ENDBRANCH   1  23
TORSDOF 9
ENDMDL
MODEL 3
REMARK VINA RESULT:      -7.6      2.017      2.674
REMARK  9 active torsions:
REMARK  status: ('A' for Active; 'I' for Inactive)
REMARK    1  A    between atoms: C_2  and  C_3 
REMARK    2  A    between atoms: C_3  and  O_4 
REMARK    3  A    between atoms: O_4  and  C_5 
REMARK    4  A    between atoms: C_8  and  C_9 
REMARK    5  A    between atoms: C_13  and  C_14 
REMARK       I    between atoms: C_14  and  N_15 
REMARK    6  A    between atoms: N_15  and  N_16 
REMARK    7  A    between atoms: C_17  and  C_18 
REMARK    8  A    between atoms: C_21  and  C_22 
REMARK    9  A    between atoms: C_22  and  O_23 
ROOT
HETATM    1  C   UNL     1       0.131   7.068 -28.350  1.00  0.00     0.089 A 
HETATM    2  N   UNL     1       0.592   5.811 -28.440  1.00  0.00    -0.174 NA
HETATM    3  N   UNL     1      -0.163   5.241 -29.390  1.00  0.00    -0.272 N 
HETATM    4  H   UNL     1       0.006   4.271 -29.642  1.00  0.00     0.189 HD
HETATM    5  C   UNL     1      -1.084   6.081 -29.954  1.00  0.00     0.121 A 
HETATM    6  C   UNL     1      -0.934   7.272 -29.272  1.00  0.00     0.071 A 
ENDROOT
BRANCH   5   7
HETATM    7  C   UNL     1      -1.925   5.642 -31.042  1.00  0.00     0.289 C 
HETATM    8  N   UNL     1      -2.048   4.266 -31.157  1.00  0.00    -0.242 N 
HETATM    9  H   UNL     1      -1.569   3.655 -30.509  1.00  0.00     0.192 HD
HETATM   10  O   UNL     1      -2.487   6.452 -31.774  1.00  0.00    -0.264 OA
BRANCH   8  11
HETATM   11  N   UNL     1      -2.930   3.727 -32.049  1.00  0.00    -0.184 NA
HETATM   12  C   UNL     1      -3.822   2.937 -31.547  1.00  0.00     0.150 C 
BRANCH  12  13
HETATM   13  C   UNL     1      -4.875   2.326 -32.383  1.00  0.00    -0.017 A 
HETATM   14  C   UNL     1      -5.651   3.110 -33.242  1.00  0.00     0.014 A 
HETATM   15  C   UNL     1      -6.667   2.518 -33.996  1.00  0.00     0.018 A 
HETATM   16  C   UNL     1      -6.915   1.141 -33.896  1.00  0.00     0.039 A 
HETATM   17  C   UNL     1      -6.124   0.361 -33.039  1.00  0.00     0.018 A 
HETATM   18  C   UNL     1      -5.107   0.953 -32.282  1.00  0.00     0.014 A 
BRANCH  16  19
HETATM   19  C   UNL     1      -8.022   0.565 -34.708  1.00  0.00     0.292 C 
HETATM   20  O   UNL     1      -7.858  -0.299 -35.555  1.00  0.00    -0.259 OA
BRANCH  19  21
HETATM   21  O   UNL     1      -9.206   1.141 -34.380  1.00  0.00    -0.323 OA
HETATM   22  C   UNL     1      -9.909   0.464 -33.337  1.00  0.00     0.213 C 
ENDBRANCH  19  21
ENDBRANCH  16  19
ENDBRANCH  12  13
ENDBRANCH   8  11
ENDBRANCH   5   7
BRANCH   1  23
HETATM   23  C   UNL     1       0.727   8.045 -27.434  1.00  0.00    -0.005 A 
HETATM   24  C   UNL     1       0.222   9.351 -27.367  1.00  0.00     0.016 A 
HETATM   25  C   UNL     1       0.743  10.279 -26.457  1.00  0.00     0.037 A 
HETATM   26  C   UNL     1       1.781   9.913 -25.602  1.00  0.00     0.068 A 
HETATM   27  C   UNL     1       2.311   8.624 -25.687  1.00  0.00     0.037 A 
HETATM   28  C   UNL     1       1.788   7.694 -26.591  1.00  0.00     0.016 A 
BRANCH  26  29
HETATM   29  O   UNL     1       2.365  10.713 -24.660  1.00  0.00    -0.351 OA
BRANCH  29  30
HETATM   30  C   UNL     1       3.323  10.097 -23.800  1.00  0.00     0.175 C 
BRANCH  30  31
HETATM   31  C   UNL     1       2.589   9.615 -22.552  1.00  0.00     0.022 C 
HETATM   32  C   UNL     1       3.201   8.344 -21.991  1.00  0.00     0.007 C 
ENDBRANCH  30  31
ENDBRANCH  29  30
ENDBRANCH  26  29
ENDBRANCH   1  23
TORSDOF 9
ENDMDL
MODEL 4
REMARK VINA RESULT:      -7.4      9.572     13.666
REMARK  9 active torsions:
REMARK  status: ('A' for Active; 'I' for Inactive)
REMARK    1  A    between atoms: C_2  and  C_3 
REMARK    2  A    between atoms: C_3  and  O_4 
REMARK    3  A    between atoms: O_4  and  C_5 
REMARK    4  A    between atoms: C_8  and  C_9 
REMARK    5  A    between atoms: C_13  and  C_14 
REMARK       I    between atoms: C_14  and  N_15 
REMARK    6  A    between atoms: N_15  and  N_16 
REMARK    7  A    between atoms: C_17  and  C_18 
REMARK    8  A    between atoms: C_21  and  C_22 
REMARK    9  A    between atoms: C_22  and  O_23 
ROOT
HETATM    1  C   UNL     1      -9.054   0.285 -33.602  1.00  0.00     0.089 A 
HETATM    2  N   UNL     1     -10.057  -0.085 -32.792  1.00  0.00    -0.174 NA
HETATM    3  N   UNL     1     -11.087   0.694 -33.150  1.00  0.00    -0.272 N 
HETATM    4  H   UNL     1     -11.977   0.591 -32.669  1.00  0.00     0.189 HD
HETATM    5  C   UNL     1     -10.815   1.544 -34.187  1.00  0.00     0.121 A 
HETATM    6  C   UNL     1      -9.485   1.319 -34.481  1.00  0.00     0.071 A 
ENDROOT
BRANCH   5   7
HETATM    7  C   UNL     1     -11.838   2.398 -34.739  1.00  0.00     0.289 C 
HETATM    8  N   UNL     1     -11.862   3.682 -34.217  1.00  0.00    -0.242 N 
HETATM    9  H   UNL     1     -11.196   3.956 -33.507  1.00  0.00     0.192 HD
HETATM   10  O   UNL     1     -12.596   1.992 -35.616  1.00  0.00    -0.264 OA
BRANCH   8  11
HETATM   11  N   UNL     1     -12.682   4.629 -34.760  1.00  0.00    -0.184 NA
HETATM   12  C   UNL     1     -12.089   5.667 -35.254  1.00  0.00     0.150 C 
BRANCH  12  13
HETATM   13  C   UNL     1     -12.845   6.745 -35.923  1.00  0.00    -0.017 A 
HETATM   14  C   UNL     1     -14.224   6.636 -36.120  1.00  0.00     0.014 A 
HETATM   15  C   UNL     1     -14.913   7.651 -36.789  1.00  0.00     0.018 A 
HETATM   16  C   UNL     1     -14.229   8.779 -37.265  1.00  0.00     0.039 A 
HETATM   17  C   UNL     1     -12.846   8.884 -37.053  1.00  0.00     0.018 A 
HETATM   18  C   UNL     1     -12.154   7.868 -36.385  1.00  0.00     0.014 A 
BRANCH  16  19
HETATM   19  C   UNL     1     -15.009   9.822 -37.987  1.00  0.00     0.292 C 
HETATM   20  O   UNL     1     -15.008  11.003 -37.674  1.00  0.00    -0.259 OA
BRANCH  19  21
HETATM   21  O   UNL     1     -15.711   9.272 -39.010  1.00  0.00    -0.323 OA
HETATM   22  C   UNL     1     -15.110   9.463 -40.292  1.00  0.00     0.213 C 
ENDBRANCH  19  21
ENDBRANCH  16  19
ENDBRANCH  12  13
ENDBRANCH   8  11
ENDBRANCH   5   7
BRANCH   1  23
HETATM   23  C   UNL     1      -7.742  -0.366 -33.555  1.00  0.00    -0.005 A 
HETATM   24  C   UNL     1      -7.298  -1.143 -34.633  1.00  0.00     0.016 A 
HETATM   25  C   UNL     1      -6.024  -1.724 -34.627  1.00  0.00     0.037 A 
HETATM   26  C   UNL     1      -5.176  -1.538 -33.537  1.00  0.00     0.068 A 
HETATM   27  C   UNL     1      -5.625  -0.792 -32.444  1.00  0.00     0.037 A 
HETATM   28  C   UNL     1      -6.894  -0.206 -32.452  1.00  0.00     0.016 A 
BRANCH  26  29
HETATM   29  O   UNL     1      -3.908  -2.033 -33.412  1.00  0.00    -0.351 OA
BRANCH  29  30
HETATM   30  C   UNL     1      -3.413  -2.202 -32.084  1.00  0.00     0.175 C 
BRANCH  30  31
HETATM   31  C   UNL     1      -3.009  -3.664 -31.918  1.00  0.00     0.022 C 
HETATM   32  C   UNL     1      -3.394  -4.498 -33.127  1.00  0.00     0.007 C 
ENDBRANCH  30  31
ENDBRANCH  29  30
ENDBRANCH  26  29
ENDBRANCH   1  23
TORSDOF 9
ENDMDL
MODEL 5
REMARK VINA RESULT:      -7.4      3.992      5.305
REMARK  9 active torsions:
REMARK  status: ('A' for Active; 'I' for Inactive)
REMARK    1  A    between atoms: C_2  and  C_3 
REMARK    2  A    between atoms: C_3  and  O_4 
REMARK    3  A    between atoms: O_4  and  C_5 
REMARK    4  A    between atoms: C_8  and  C_9 
REMARK    5  A    between atoms: C_13  and  C_14 
REMARK       I    between atoms: C_14  and  N_15 
REMARK    6  A    between atoms: N_15  and  N_16 
REMARK    7  A    between atoms: C_17  and  C_18 
REMARK    8  A    between atoms: C_21  and  C_22 
REMARK    9  A    between atoms: C_22  and  O_23 
ROOT
HETATM    1  C   UNL     1      -2.310   5.578 -31.589  1.00  0.00     0.089 A 
HETATM    2  N   UNL     1      -1.809   5.462 -32.828  1.00  0.00    -0.174 NA
HETATM    3  N   UNL     1      -2.727   4.752 -33.500  1.00  0.00    -0.272 N 
HETATM    4  H   UNL     1      -2.567   4.537 -34.480  1.00  0.00     0.189 HD
HETATM    5  C   UNL     1      -3.829   4.419 -32.762  1.00  0.00     0.121 A 
HETATM    6  C   UNL     1      -3.570   4.920 -31.502  1.00  0.00     0.071 A 
ENDROOT
BRANCH   5   7
HETATM    7  C   UNL     1      -4.941   3.718 -33.357  1.00  0.00     0.289 C 
HETATM    8  N   UNL     1      -5.394   2.629 -32.627  1.00  0.00    -0.242 N 
HETATM    9  H   UNL     1      -4.952   2.382 -31.752  1.00  0.00     0.192 HD
HETATM   10  O   UNL     1      -5.434   4.096 -34.417  1.00  0.00    -0.264 OA
BRANCH   8  11
HETATM   11  N   UNL     1      -6.530   1.974 -33.005  1.00  0.00    -0.184 NA
HETATM   12  C   UNL     1      -7.621   2.367 -32.431  1.00  0.00     0.150 C 
BRANCH  12  13
HETATM   13  C   UNL     1      -8.933   1.787 -32.782  1.00  0.00    -0.017 A 
HETATM   14  C   UNL     1      -9.969   2.597 -33.256  1.00  0.00     0.014 A 
HETATM   15  C   UNL     1     -11.214   2.034 -33.546  1.00  0.00     0.018 A 
HETATM   16  C   UNL     1     -11.432   0.661 -33.363  1.00  0.00     0.039 A 
HETATM   17  C   UNL     1     -10.383  -0.146 -32.896  1.00  0.00     0.018 A 
HETATM   18  C   UNL     1      -9.136   0.416 -32.605  1.00  0.00     0.014 A 
BRANCH  16  19
HETATM   19  C   UNL     1     -12.784   0.116 -33.670  1.00  0.00     0.292 C 
HETATM   20  O   UNL     1     -13.161  -0.991 -33.318  1.00  0.00    -0.259 OA
BRANCH  19  21
HETATM   21  O   UNL     1     -13.507   1.010 -34.391  1.00  0.00    -0.323 OA
HETATM   22  C   UNL     1     -14.919   0.901 -34.198  1.00  0.00     0.213 C 
ENDBRANCH  19  21
ENDBRANCH  16  19
ENDBRANCH  12  13
ENDBRANCH   8  11
ENDBRANCH   5   7
BRANCH   1  23
HETATM   23  C   UNL     1      -1.614   6.330 -30.542  1.00  0.00    -0.005 A 
HETATM   24  C   UNL     1      -0.216   6.295 -30.456  1.00  0.00     0.016 A 
HETATM   25  C   UNL     1       0.467   7.054 -29.497  1.00  0.00     0.037 A 
HETATM   26  C   UNL     1      -0.243   7.857 -28.606  1.00  0.00     0.068 A 
HETATM   27  C   UNL     1      -1.638   7.870 -28.664  1.00  0.00     0.037 A 
HETATM   28  C   UNL     1      -2.321   7.118 -29.625  1.00  0.00     0.016 A 
BRANCH  26  29
HETATM   29  O   UNL     1       0.300   8.656 -27.639  1.00  0.00    -0.351 OA
BRANCH  29  30
HETATM   30  C   UNL     1       1.725   8.699 -27.567  1.00  0.00     0.175 C 
BRANCH  30  31
HETATM   31  C   UNL     1       2.123   8.590 -26.098  1.00  0.00     0.022 C 
HETATM   32  C   UNL     1       1.025   9.089 -25.176  1.00  0.00     0.007 C 
ENDBRANCH  30  31
ENDBRANCH  29  30
ENDBRANCH  26  29
ENDBRANCH   1  23
TORSDOF 9
ENDMDL
MODEL 6
REMARK VINA RESULT:      -7.3      2.302     12.521
REMARK  9 active torsions:
REMARK  status: ('A' for Active; 'I' for Inactive)
REMARK    1  A    between atoms: C_2  and  C_3 
REMARK    2  A    between atoms: C_3  and  O_4 
REMARK    3  A    between atoms: O_4  and  C_5 
REMARK    4  A    between atoms: C_8  and  C_9 
REMARK    5  A    between atoms: C_13  and  C_14 
REMARK       I    between atoms: C_14  and  N_15 
REMARK    6  A    between atoms: N_15  and  N_16 
REMARK    7  A    between atoms: C_17  and  C_18 
REMARK    8  A    between atoms: C_21  and  C_22 
REMARK    9  A    between atoms: C_22  and  O_23 
ROOT
HETATM    1  C   UNL     1      -3.979   3.389 -32.573  1.00  0.00     0.089 A 
HETATM    2  N   UNL     1      -3.362   3.998 -33.597  1.00  0.00    -0.174 NA
HETATM    3  N   UNL     1      -2.324   4.636 -33.035  1.00  0.00    -0.272 N 
HETATM    4  H   UNL     1      -1.696   5.174 -33.626  1.00  0.00     0.189 HD
HETATM    5  C   UNL     1      -2.213   4.447 -31.685  1.00  0.00     0.121 A 
HETATM    6  C   UNL     1      -3.298   3.661 -31.353  1.00  0.00     0.071 A 
ENDROOT
BRANCH   5   7
HETATM    7  C   UNL     1      -1.109   5.005 -30.943  1.00  0.00     0.289 C 
HETATM    8  N   UNL     1      -1.478   5.875 -29.928  1.00  0.00    -0.242 N 
HETATM    9  H   UNL     1      -2.454   6.074 -29.756  1.00  0.00     0.192 HD
HETATM   10  O   UNL     1       0.051   4.696 -31.204  1.00  0.00    -0.264 OA
BRANCH   8  11
HETATM   11  N   UNL     1      -0.539   6.353 -29.059  1.00  0.00    -0.184 NA
HETATM   12  C   UNL     1      -0.840   7.462 -28.465  1.00  0.00     0.150 C 
BRANCH  12  13
HETATM   13  C   UNL     1       0.054   8.068 -27.458  1.00  0.00    -0.017 A 
HETATM   14  C   UNL     1       1.303   7.506 -27.178  1.00  0.00     0.014 A 
HETATM   15  C   UNL     1       2.117   8.073 -26.195  1.00  0.00     0.018 A 
HETATM   16  C   UNL     1       1.689   9.204 -25.485  1.00  0.00     0.039 A 
HETATM   17  C   UNL     1       0.437   9.767 -25.779  1.00  0.00     0.018 A 
HETATM   18  C   UNL     1      -0.379   9.200 -26.763  1.00  0.00     0.014 A 
BRANCH  16  19
HETATM   19  C   UNL     1       2.587   9.757 -24.435  1.00  0.00     0.292 C 
HETATM   20  O   UNL     1       2.770  10.953 -24.263  1.00  0.00    -0.259 OA
BRANCH  19  21
HETATM   21  O   UNL     1       3.166   8.756 -23.724  1.00  0.00    -0.323 OA
HETATM   22  C   UNL     1       4.526   9.011 -23.368  1.00  0.00     0.213 C 
ENDBRANCH  19  21
ENDBRANCH  16  19
ENDBRANCH  12  13
ENDBRANCH   8  11
ENDBRANCH   5   7
BRANCH   1  23
HETATM   23  C   UNL     1      -5.159   2.544 -32.775  1.00  0.00    -0.005 A 
HETATM   24  C   UNL     1      -6.054   2.816 -33.819  1.00  0.00     0.016 A 
HETATM   25  C   UNL     1      -7.154   1.984 -34.060  1.00  0.00     0.037 A 
HETATM   26  C   UNL     1      -7.377   0.867 -33.257  1.00  0.00     0.068 A 
HETATM   27  C   UNL     1      -6.508   0.610 -32.194  1.00  0.00     0.037 A 
HETATM   28  C   UNL     1      -5.405   1.436 -31.955  1.00  0.00     0.016 A 
BRANCH  26  29
HETATM   29  O   UNL     1      -8.397  -0.031 -33.395  1.00  0.00    -0.351 OA
BRANCH  29  30
HETATM   30  C   UNL     1      -9.529   0.148 -32.542  1.00  0.00     0.175 C 
BRANCH  30  31
HETATM   31  C   UNL     1     -10.664   0.719 -33.386  1.00  0.00     0.022 C 
HETATM   32  C   UNL     1     -10.895   2.192 -33.101  1.00  0.00     0.007 C 
ENDBRANCH  30  31
ENDBRANCH  29  30
ENDBRANCH  26  29
ENDBRANCH   1  23
TORSDOF 9
ENDMDL
MODEL 7
REMARK VINA RESULT:      -7.0      3.426     12.711
REMARK  9 active torsions:
REMARK  status: ('A' for Active; 'I' for Inactive)
REMARK    1  A    between atoms: C_2  and  C_3 
REMARK    2  A    between atoms: C_3  and  O_4 
REMARK    3  A    between atoms: O_4  and  C_5 
REMARK    4  A    between atoms: C_8  and  C_9 
REMARK    5  A    between atoms: C_13  and  C_14 
REMARK       I    between atoms: C_14  and  N_15 
REMARK    6  A    between atoms: N_15  and  N_16 
REMARK    7  A    between atoms: C_17  and  C_18 
REMARK    8  A    between atoms: C_21  and  C_22 
REMARK    9  A    between atoms: C_22  and  O_23 
ROOT
HETATM    1  C   UNL     1      -4.913   5.462 -33.570  1.00  0.00     0.089 A 
HETATM    2  N   UNL     1      -3.941   5.523 -34.494  1.00  0.00    -0.174 NA
HETATM    3  N   UNL     1      -3.032   6.361 -33.974  1.00  0.00    -0.272 N 
HETATM    4  H   UNL     1      -2.188   6.564 -34.502  1.00  0.00     0.189 HD
HETATM    5  C   UNL     1      -3.349   6.832 -32.730  1.00  0.00     0.121 A 
HETATM    6  C   UNL     1      -4.586   6.284 -32.455  1.00  0.00     0.071 A 
ENDROOT
BRANCH   5   7
HETATM    7  C   UNL     1      -2.441   7.686 -32.003  1.00  0.00     0.289 C 
HETATM    8  N   UNL     1      -2.335   7.395 -30.651  1.00  0.00    -0.242 N 
HETATM    9  H   UNL     1      -2.869   6.637 -30.248  1.00  0.00     0.192 HD
HETATM   10  O   UNL     1      -1.814   8.575 -32.572  1.00  0.00    -0.264 OA
BRANCH   8  11
HETATM   11  N   UNL     1      -1.401   8.031 -29.884  1.00  0.00    -0.184 NA
HETATM   12  C   UNL     1      -1.412   7.731 -28.626  1.00  0.00     0.150 C 
BRANCH  12  13
HETATM   13  C   UNL     1      -0.424   8.298 -27.686  1.00  0.00    -0.017 A 
HETATM   14  C   UNL     1       0.946   8.199 -27.942  1.00  0.00     0.014 A 
HETATM   15  C   UNL     1       1.865   8.710 -27.021  1.00  0.00     0.018 A 
HETATM   16  C   UNL     1       1.420   9.320 -25.839  1.00  0.00     0.039 A 
HETATM   17  C   UNL     1       0.042   9.424 -25.595  1.00  0.00     0.018 A 
HETATM   18  C   UNL     1      -0.879   8.913 -26.516  1.00  0.00     0.014 A 
BRANCH  16  19
HETATM   19  C   UNL     1       2.442   9.830 -24.884  1.00  0.00     0.292 C 
HETATM   20  O   UNL     1       2.524  11.001 -24.545  1.00  0.00    -0.259 OA
BRANCH  19  21
HETATM   21  O   UNL     1       3.252   8.824 -24.468  1.00  0.00    -0.323 OA
HETATM   22  C   UNL     1       4.380   9.266 -23.710  1.00  0.00     0.213 C 
ENDBRANCH  19  21
ENDBRANCH  16  19
ENDBRANCH  12  13
ENDBRANCH   8  11
ENDBRANCH   5   7
BRANCH   1  23
HETATM   23  C   UNL     1      -6.091   4.609 -33.744  1.00  0.00    -0.005 A 
HETATM   24  C   UNL     1      -5.945   3.222 -33.888  1.00  0.00     0.016 A 
HETATM   25  C   UNL     1      -7.064   2.387 -33.998  1.00  0.00     0.037 A 
HETATM   26  C   UNL     1      -8.347   2.930 -33.967  1.00  0.00     0.068 A 
HETATM   27  C   UNL     1      -8.499   4.314 -33.857  1.00  0.00     0.037 A 
HETATM   28  C   UNL     1      -7.383   5.148 -33.742  1.00  0.00     0.016 A 
BRANCH  26  29
HETATM   29  O   UNL     1      -9.517   2.228 -34.046  1.00  0.00    -0.351 OA
BRANCH  29  30
HETATM   30  C   UNL     1     -10.664   2.944 -34.507  1.00  0.00     0.175 C 
BRANCH  30  31
HETATM   31  C   UNL     1     -11.757   1.926 -34.818  1.00  0.00     0.022 C 
HETATM   32  C   UNL     1     -11.917   0.909 -33.703  1.00  0.00     0.007 C 
ENDBRANCH  30  31
ENDBRANCH  29  30
ENDBRANCH  26  29
ENDBRANCH   1  23
TORSDOF 9
ENDMDL
MODEL 8
REMARK VINA RESULT:      -6.9      9.880     12.585
REMARK  9 active torsions:
REMARK  status: ('A' for Active; 'I' for Inactive)
REMARK    1  A    between atoms: C_2  and  C_3 
REMARK    2  A    between atoms: C_3  and  O_4 
REMARK    3  A    between atoms: O_4  and  C_5 
REMARK    4  A    between atoms: C_8  and  C_9 
REMARK    5  A    between atoms: C_13  and  C_14 
REMARK       I    between atoms: C_14  and  N_15 
REMARK    6  A    between atoms: N_15  and  N_16 
REMARK    7  A    between atoms: C_17  and  C_18 
REMARK    8  A    between atoms: C_21  and  C_22 
REMARK    9  A    between atoms: C_22  and  O_23 
ROOT
HETATM    1  C   UNL     1     -14.429   5.103 -31.401  1.00  0.00     0.089 A 
HETATM    2  N   UNL     1     -14.716   5.357 -32.687  1.00  0.00    -0.174 NA
HETATM    3  N   UNL     1     -13.995   4.462 -33.378  1.00  0.00    -0.272 N 
HETATM    4  H   UNL     1     -14.053   4.458 -34.393  1.00  0.00     0.189 HD
HETATM    5  C   UNL     1     -13.268   3.605 -32.600  1.00  0.00     0.121 A 
HETATM    6  C   UNL     1     -13.509   4.021 -31.305  1.00  0.00     0.071 A 
ENDROOT
BRANCH   5   7
HETATM    7  C   UNL     1     -12.496   2.537 -33.187  1.00  0.00     0.289 C 
HETATM    8  N   UNL     1     -11.178   2.477 -32.760  1.00  0.00    -0.242 N 
HETATM    9  H   UNL     1     -10.827   3.147 -32.089  1.00  0.00     0.192 HD
HETATM   10  O   UNL     1     -13.004   1.751 -33.982  1.00  0.00    -0.264 OA
BRANCH   8  11
HETATM   11  N   UNL     1     -10.385   1.426 -33.125  1.00  0.00    -0.184 NA
HETATM   12  C   UNL     1      -9.112   1.653 -33.110  1.00  0.00     0.150 C 
BRANCH  12  13
HETATM   13  C   UNL     1      -8.133   0.594 -33.427  1.00  0.00    -0.017 A 
HETATM   14  C   UNL     1      -7.296   0.073 -32.436  1.00  0.00     0.014 A 
HETATM   15  C   UNL     1      -6.351  -0.901 -32.765  1.00  0.00     0.018 A 
HETATM   16  C   UNL     1      -6.235  -1.360 -34.085  1.00  0.00     0.039 A 
HETATM   17  C   UNL     1      -7.086  -0.838 -35.072  1.00  0.00     0.018 A 
HETATM   18  C   UNL     1      -8.032   0.138 -34.743  1.00  0.00     0.014 A 
BRANCH  16  19
HETATM   19  C   UNL     1      -5.198  -2.386 -34.385  1.00  0.00     0.292 C 
HETATM   20  O   UNL     1      -4.125  -2.450 -33.806  1.00  0.00    -0.259 OA
BRANCH  19  21
HETATM   21  O   UNL     1      -5.613  -3.208 -35.382  1.00  0.00    -0.323 OA
HETATM   22  C   UNL     1      -6.080  -4.479 -34.926  1.00  0.00     0.213 C 
ENDBRANCH  19  21
ENDBRANCH  16  19
ENDBRANCH  12  13
ENDBRANCH   8  11
ENDBRANCH   5   7
BRANCH   1  23
HETATM   23  C   UNL     1     -15.054   5.851 -30.308  1.00  0.00    -0.005 A 
HETATM   24  C   UNL     1     -16.406   6.216 -30.382  1.00  0.00     0.016 A 
HETATM   25  C   UNL     1     -17.032   6.882 -29.321  1.00  0.00     0.037 A 
HETATM   26  C   UNL     1     -16.312   7.195 -28.170  1.00  0.00     0.068 A 
HETATM   27  C   UNL     1     -14.956   6.865 -28.103  1.00  0.00     0.037 A 
HETATM   28  C   UNL     1     -14.331   6.195 -29.159  1.00  0.00     0.016 A 
BRANCH  26  29
HETATM   29  O   UNL     1     -16.805   7.824 -27.061  1.00  0.00    -0.351 OA
BRANCH  29  30
HETATM   30  C   UNL     1     -16.505   7.227 -25.799  1.00  0.00     0.175 C 
BRANCH  30  31
HETATM   31  C   UNL     1     -17.607   6.221 -25.483  1.00  0.00     0.022 C 
HETATM   32  C   UNL     1     -17.073   4.803 -25.404  1.00  0.00     0.007 C 
ENDBRANCH  30  31
ENDBRANCH  29  30
ENDBRANCH  26  29
ENDBRANCH   1  23
TORSDOF 9
ENDMDL
MODEL 9
REMARK VINA RESULT:      -6.8      7.576     10.578
REMARK  9 active torsions:
REMARK  status: ('A' for Active; 'I' for Inactive)
REMARK    1  A    between atoms: C_2  and  C_3 
REMARK    2  A    between atoms: C_3  and  O_4 
REMARK    3  A    between atoms: O_4  and  C_5 
REMARK    4  A    between atoms: C_8  and  C_9 
REMARK    5  A    between atoms: C_13  and  C_14 
REMARK       I    between atoms: C_14  and  N_15 
REMARK    6  A    between atoms: N_15  and  N_16 
REMARK    7  A    between atoms: C_17  and  C_18 
REMARK    8  A    between atoms: C_21  and  C_22 
REMARK    9  A    between atoms: C_22  and  O_23 
ROOT
HETATM    1  C   UNL     1      -5.954   2.801 -33.196  1.00  0.00     0.089 A 
HETATM    2  N   UNL     1      -5.845   1.501 -32.884  1.00  0.00    -0.174 NA
HETATM    3  N   UNL     1      -7.109   1.085 -32.719  1.00  0.00    -0.272 N 
HETATM    4  H   UNL     1      -7.283   0.113 -32.477  1.00  0.00     0.189 HD
HETATM    5  C   UNL     1      -8.051   2.051 -32.940  1.00  0.00     0.121 A 
HETATM    6  C   UNL     1      -7.324   3.189 -33.224  1.00  0.00     0.071 A 
ENDROOT
BRANCH   5   7
HETATM    7  C   UNL     1      -9.460   1.747 -32.875  1.00  0.00     0.289 C 
HETATM    8  N   UNL     1     -10.288   2.859 -32.825  1.00  0.00    -0.242 N 
HETATM    9  H   UNL     1      -9.894   3.790 -32.836  1.00  0.00     0.192 HD
HETATM   10  O   UNL     1      -9.859   0.586 -32.885  1.00  0.00    -0.264 OA
BRANCH   8  11
HETATM   11  N   UNL     1     -11.643   2.710 -32.910  1.00  0.00    -0.184 NA
HETATM   12  C   UNL     1     -12.335   3.382 -32.049  1.00  0.00     0.150 C 
BRANCH  12  13
HETATM   13  C   UNL     1     -13.812   3.362 -32.058  1.00  0.00    -0.017 A 
HETATM   14  C   UNL     1     -14.510   2.224 -32.469  1.00  0.00     0.014 A 
HETATM   15  C   UNL     1     -15.907   2.239 -32.506  1.00  0.00     0.018 A 
HETATM   16  C   UNL     1     -16.613   3.392 -32.133  1.00  0.00     0.039 A 
HETATM   17  C   UNL     1     -15.904   4.527 -31.712  1.00  0.00     0.018 A 
HETATM   18  C   UNL     1     -14.506   4.513 -31.675  1.00  0.00     0.014 A 
BRANCH  16  19
HETATM   19  C   UNL     1     -18.100   3.360 -32.208  1.00  0.00     0.292 C 
HETATM   20  O   UNL     1     -18.740   2.362 -32.498  1.00  0.00    -0.259 OA
BRANCH  19  21
HETATM   21  O   UNL     1     -18.619   4.582 -31.925  1.00  0.00    -0.323 OA
HETATM   22  C   UNL     1     -19.281   5.200 -33.030  1.00  0.00     0.213 C 
ENDBRANCH  19  21
ENDBRANCH  16  19
ENDBRANCH  12  13
ENDBRANCH   8  11
ENDBRANCH   5   7
BRANCH   1  23
HETATM   23  C   UNL     1      -4.780   3.624 -33.496  1.00  0.00    -0.005 A 
HETATM   24  C   UNL     1      -4.831   4.586 -34.514  1.00  0.00     0.016 A 
HETATM   25  C   UNL     1      -3.736   5.420 -34.775  1.00  0.00     0.037 A 
HETATM   26  C   UNL     1      -2.571   5.300 -34.020  1.00  0.00     0.068 A 
HETATM   27  C   UNL     1      -2.501   4.320 -33.026  1.00  0.00     0.037 A 
HETATM   28  C   UNL     1      -3.596   3.492 -32.761  1.00  0.00     0.016 A 
BRANCH  26  29
HETATM   29  O   UNL     1      -1.443   6.058 -34.159  1.00  0.00    -0.351 OA
BRANCH  29  30
HETATM   30  C   UNL     1      -1.380   7.261 -33.393  1.00  0.00     0.175 C 
BRANCH  30  31
HETATM   31  C   UNL     1      -0.398   7.036 -32.248  1.00  0.00     0.022 C 
HETATM   32  C   UNL     1      -1.026   7.327 -30.897  1.00  0.00     0.007 C 
ENDBRANCH  30  31
ENDBRANCH  29  30
ENDBRANCH  26  29
ENDBRANCH   1  23
TORSDOF 9
ENDMDL
MODEL 10
REMARK VINA RESULT:      -6.7     19.543     21.190
REMARK  9 active torsions:
REMARK  status: ('A' for Active; 'I' for Inactive)
REMARK    1  A    between atoms: C_2  and  C_3 
REMARK    2  A    between atoms: C_3  and  O_4 
REMARK    3  A    between atoms: O_4  and  C_5 
REMARK    4  A    between atoms: C_8  and  C_9 
REMARK    5  A    between atoms: C_13  and  C_14 
REMARK       I    between atoms: C_14  and  N_15 
REMARK    6  A    between atoms: N_15  and  N_16 
REMARK    7  A    between atoms: C_17  and  C_18 
REMARK    8  A    between atoms: C_21  and  C_22 
REMARK    9  A    between atoms: C_22  and  O_23 
ROOT
HETATM    1  C   UNL     1      -3.940 -15.923 -30.697  1.00  0.00     0.089 A 
HETATM    2  N   UNL     1      -5.001 -15.751 -29.894  1.00  0.00    -0.174 NA
HETATM    3  N   UNL     1      -6.034 -15.574 -30.730  1.00  0.00    -0.272 N 
HETATM    4  H   UNL     1      -6.962 -15.425 -30.345  1.00  0.00     0.189 HD
HETATM    5  C   UNL     1      -5.704 -15.654 -32.055  1.00  0.00     0.121 A 
HETATM    6  C   UNL     1      -4.338 -15.851 -32.063  1.00  0.00     0.071 A 
ENDROOT
BRANCH   5   7
HETATM    7  C   UNL     1      -6.713 -15.558 -33.081  1.00  0.00     0.289 C 
HETATM    8  N   UNL     1      -6.238 -15.721 -34.374  1.00  0.00    -0.242 N 
HETATM    9  H   UNL     1      -5.256 -15.892 -34.539  1.00  0.00     0.192 HD
HETATM   10  O   UNL     1      -7.892 -15.367 -32.795  1.00  0.00    -0.264 OA
BRANCH   8  11
HETATM   11  N   UNL     1      -7.111 -15.801 -35.421  1.00  0.00    -0.184 NA
HETATM   12  C   UNL     1      -7.155 -14.765 -36.194  1.00  0.00     0.150 C 
BRANCH  12  13
HETATM   13  C   UNL     1      -8.011 -14.731 -37.397  1.00  0.00    -0.017 A 
HETATM   14  C   UNL     1      -8.540 -13.525 -37.865  1.00  0.00     0.014 A 
HETATM   15  C   UNL     1      -9.378 -13.520 -38.983  1.00  0.00     0.018 A 
HETATM   16  C   UNL     1      -9.693 -14.719 -39.638  1.00  0.00     0.039 A 
HETATM   17  C   UNL     1      -9.150 -15.924 -39.167  1.00  0.00     0.018 A 
HETATM   18  C   UNL     1      -8.311 -15.930 -38.047  1.00  0.00     0.014 A 
BRANCH  16  19
HETATM   19  C   UNL     1     -10.606 -14.660 -40.813  1.00  0.00     0.292 C 
HETATM   20  O   UNL     1     -11.626 -13.990 -40.842  1.00  0.00    -0.259 OA
BRANCH  19  21
HETATM   21  O   UNL     1     -10.148 -15.452 -41.815  1.00  0.00    -0.323 OA
HETATM   22  C   UNL     1     -11.143 -16.312 -42.373  1.00  0.00     0.213 C 
ENDBRANCH  19  21
ENDBRANCH  16  19
ENDBRANCH  12  13
ENDBRANCH   8  11
ENDBRANCH   5   7
BRANCH   1  23
HETATM   23  C   UNL     1      -2.602 -16.189 -30.164  1.00  0.00    -0.005 A 
HETATM   24  C   UNL     1      -2.375 -16.170 -28.781  1.00  0.00     0.016 A 
HETATM   25  C   UNL     1      -1.115 -16.477 -28.252  1.00  0.00     0.037 A 
HETATM   26  C   UNL     1      -0.061 -16.805 -29.103  1.00  0.00     0.068 A 
HETATM   27  C   UNL     1      -0.271 -16.793 -30.484  1.00  0.00     0.037 A 
HETATM   28  C   UNL     1      -1.530 -16.492 -31.013  1.00  0.00     0.016 A 
BRANCH  26  29
HETATM   29  O   UNL     1       1.207 -17.141 -28.718  1.00  0.00    -0.351 OA
BRANCH  29  30
HETATM   30  C   UNL     1       1.862 -16.245 -27.819  1.00  0.00     0.175 C 
BRANCH  30  31
HETATM   31  C   UNL     1       2.451 -15.104 -28.642  1.00  0.00     0.022 C 
HETATM   32  C   UNL     1       1.770 -13.781 -28.342  1.00  0.00     0.007 C 
ENDBRANCH  30  31
ENDBRANCH  29  30
ENDBRANCH  26  29
ENDBRANCH   1  23
TORSDOF 9
ENDMDL
