MODEL 1
REMARK VINA RESULT:      -9.1      0.000      0.000
REMARK  4 active torsions:
REMARK  status: ('A' for Active; 'I' for Inactive)
REMARK    1  A    between atoms: C_2  and  C_3 
REMARK       I    between atoms: C_3  and  N_4 
REMARK    2  A    between atoms: N_4  and  C_5 
REMARK    3  A    between atoms: C_12  and  C_13 
REMARK       I    between atoms: C_13  and  N_14 
REMARK    4  A    between atoms: C_19  and  C_20 
ROOT
HETATM    1  C   UNL     1      -9.607   0.868 -33.213  1.00  0.00     0.036 A 
HETATM    2  C   UNL     1     -10.933   0.533 -33.521  1.00  0.00     0.046 A 
HETATM    3  C   UNL     1     -11.934   1.526 -33.461  1.00  0.00     0.030 A 
HETATM    4  C   UNL     1     -11.572   2.822 -33.115  1.00  0.00     0.063 A 
HETATM    5  N   UNL     1     -12.731   3.546 -33.158  1.00  0.00    -0.277 N 
HETATM    6  H   UNL     1     -12.843   4.536 -32.970  1.00  0.00     0.189 HD
HETATM    7  N   UNL     1     -13.822   2.833 -33.478  1.00  0.00    -0.168 NA
HETATM    8  C   UNL     1     -13.347   1.580 -33.663  1.00  0.00     0.156 A 
HETATM    9  C   UNL     1     -10.262   3.191 -32.804  1.00  0.00     0.034 A 
HETATM   10  C   UNL     1      -9.292   2.183 -32.849  1.00  0.00     0.032 A 
ENDROOT
BRANCH   1  11
HETATM   11  N   UNL     1      -8.547  -0.061 -33.225  1.00  0.00    -0.323 N 
HETATM   12  C   UNL     1      -7.662  -0.306 -34.252  1.00  0.00     0.251 C 
HETATM   13  O   UNL     1      -7.554   0.291 -35.315  1.00  0.00    -0.268 OA
HETATM   14  H   UNL     1      -8.411  -0.601 -32.381  1.00  0.00     0.169 HD
BRANCH  12  15
HETATM   15  C   UNL     1      -6.700  -1.401 -33.925  1.00  0.00     0.007 C 
HETATM   16  C   UNL     1      -6.953  -2.678 -34.667  1.00  0.00     0.054 C 
HETATM   17  C   UNL     1      -5.715  -1.260 -33.018  1.00  0.00     0.023 C 
BRANCH  17  18
HETATM   18  C   UNL     1      -5.433  -0.086 -32.178  1.00  0.00    -0.034 A 
HETATM   19  C   UNL     1      -4.521   0.873 -32.638  1.00  0.00     0.035 A 
HETATM   20  C   UNL     1      -4.207   1.978 -31.845  1.00  0.00     0.034 A 
HETATM   21 CL   UNL     1      -3.092   3.153 -32.424  1.00  0.00    -0.084 Cl
HETATM   22  C   UNL     1      -4.785   2.136 -30.587  1.00  0.00     0.024 A 
HETATM   23  C   UNL     1      -5.679   1.177 -30.115  1.00  0.00     0.003 A 
HETATM   24  C   UNL     1      -5.992   0.067 -30.903  1.00  0.00     0.011 A 
ENDBRANCH  17  18
ENDBRANCH  12  15
ENDBRANCH   1  11
BRANCH   8  25
HETATM   25  C   UNL     1     -14.246   0.471 -34.011  1.00  0.00     0.270 C 
HETATM   26  N   UNL     1     -13.919  -0.720 -33.422  1.00  0.00    -0.365 N 
HETATM   27  H   UNL     1     -13.103  -0.755 -32.822  1.00  0.00     0.159 HD
HETATM   28  H   UNL     1     -14.466  -1.542 -33.621  1.00  0.00     0.159 HD
HETATM   29  O   UNL     1     -15.207   0.560 -34.769  1.00  0.00    -0.266 OA
ENDBRANCH   8  25
TORSDOF 4
ENDMDL
MODEL 2
REMARK VINA RESULT:      -9.1      4.964      8.400
REMARK  4 active torsions:
REMARK  status: ('A' for Active; 'I' for Inactive)
REMARK    1  A    between atoms: C_2  and  C_3 
REMARK       I    between atoms: C_3  and  N_4 
REMARK    2  A    between atoms: N_4  and  C_5 
REMARK    3  A    between atoms: C_12  and  C_13 
REMARK       I    between atoms: C_13  and  N_14 
REMARK    4  A    between atoms: C_19  and  C_20 
ROOT
HETATM    1  C   UNL     1      -4.848   3.716 -33.204  1.00  0.00     0.036 A 
HETATM    2  C   UNL     1      -3.694   4.043 -32.478  1.00  0.00     0.046 A 
HETATM    3  C   UNL     1      -2.775   4.973 -33.013  1.00  0.00     0.030 A 
HETATM    4  C   UNL     1      -3.051   5.556 -34.243  1.00  0.00     0.063 A 
HETATM    5  N   UNL     1      -2.008   6.406 -34.483  1.00  0.00    -0.277 N 
HETATM    6  H   UNL     1      -1.880   7.008 -35.290  1.00  0.00     0.189 HD
HETATM    7  N   UNL     1      -1.063   6.413 -33.530  1.00  0.00    -0.168 NA
HETATM    8  C   UNL     1      -1.520   5.526 -32.616  1.00  0.00     0.156 A 
HETATM    9  C   UNL     1      -4.190   5.255 -34.992  1.00  0.00     0.034 A 
HETATM   10  C   UNL     1      -5.074   4.314 -34.451  1.00  0.00     0.032 A 
ENDROOT
BRANCH   1  11
HETATM   11  N   UNL     1      -5.809   2.785 -32.761  1.00  0.00    -0.323 N 
HETATM   12  C   UNL     1      -6.592   1.959 -33.536  1.00  0.00     0.251 C 
HETATM   13  O   UNL     1      -6.547   1.792 -34.747  1.00  0.00    -0.268 OA
HETATM   14  H   UNL     1      -5.930   2.707 -31.760  1.00  0.00     0.169 HD
BRANCH  12  15
HETATM   15  C   UNL     1      -7.538   1.141 -32.718  1.00  0.00     0.007 C 
HETATM   16  C   UNL     1      -8.556   1.950 -31.973  1.00  0.00     0.054 C 
HETATM   17  C   UNL     1      -7.460  -0.200 -32.634  1.00  0.00     0.023 C 
BRANCH  17  18
HETATM   18  C   UNL     1      -6.455  -1.078 -33.254  1.00  0.00    -0.034 A 
HETATM   19  C   UNL     1      -6.887  -2.143 -34.055  1.00  0.00     0.035 A 
HETATM   20  C   UNL     1      -5.956  -3.014 -34.625  1.00  0.00     0.034 A 
HETATM   21 CL   UNL     1      -6.500  -4.313 -35.613  1.00  0.00    -0.084 Cl
HETATM   22  C   UNL     1      -4.593  -2.843 -34.397  1.00  0.00     0.024 A 
HETATM   23  C   UNL     1      -4.156  -1.797 -33.586  1.00  0.00     0.003 A 
HETATM   24  C   UNL     1      -5.084  -0.926 -33.010  1.00  0.00     0.011 A 
ENDBRANCH  17  18
ENDBRANCH  12  15
ENDBRANCH   1  11
BRANCH   8  25
HETATM   25  C   UNL     1      -0.748   5.221 -31.402  1.00  0.00     0.270 C 
HETATM   26  N   UNL     1      -1.381   5.562 -30.238  1.00  0.00    -0.365 N 
HETATM   27  H   UNL     1      -2.294   5.997 -30.293  1.00  0.00     0.159 HD
HETATM   28  H   UNL     1      -0.917   5.412 -29.357  1.00  0.00     0.159 HD
HETATM   29  O   UNL     1       0.371   4.719 -31.392  1.00  0.00    -0.266 OA
ENDBRANCH   8  25
TORSDOF 4
ENDMDL
MODEL 3
REMARK VINA RESULT:      -8.9      5.088      8.665
REMARK  4 active torsions:
REMARK  status: ('A' for Active; 'I' for Inactive)
REMARK    1  A    between atoms: C_2  and  C_3 
REMARK       I    between atoms: C_3  and  N_4 
REMARK    2  A    between atoms: N_4  and  C_5 
REMARK    3  A    between atoms: C_12  and  C_13 
REMARK       I    between atoms: C_13  and  N_14 
REMARK    4  A    between atoms: C_19  and  C_20 
ROOT
HETATM    1  C   UNL     1      -4.420   3.714 -32.463  1.00  0.00     0.036 A 
HETATM    2  C   UNL     1      -3.181   4.235 -32.062  1.00  0.00     0.046 A 
HETATM    3  C   UNL     1      -2.531   5.189 -32.874  1.00  0.00     0.030 A 
HETATM    4  C   UNL     1      -3.149   5.603 -34.047  1.00  0.00     0.063 A 
HETATM    5  N   UNL     1      -2.302   6.524 -34.598  1.00  0.00    -0.277 N 
HETATM    6  H   UNL     1      -2.436   7.043 -35.458  1.00  0.00     0.189 HD
HETATM    7  N   UNL     1      -1.173   6.731 -33.900  1.00  0.00    -0.168 NA
HETATM    8  C   UNL     1      -1.297   5.908 -32.833  1.00  0.00     0.156 A 
HETATM    9  C   UNL     1      -4.381   5.108 -34.477  1.00  0.00     0.034 A 
HETATM   10  C   UNL     1      -4.996   4.147 -33.665  1.00  0.00     0.032 A 
ENDROOT
BRANCH   1  11
HETATM   11  N   UNL     1      -5.132   2.745 -31.729  1.00  0.00    -0.323 N 
HETATM   12  C   UNL     1      -4.759   1.442 -31.482  1.00  0.00     0.251 C 
HETATM   13  O   UNL     1      -3.702   0.893 -31.762  1.00  0.00    -0.268 OA
HETATM   14  H   UNL     1      -6.011   3.041 -31.327  1.00  0.00     0.169 HD
BRANCH  12  15
HETATM   15  C   UNL     1      -5.793   0.691 -30.709  1.00  0.00     0.007 C 
HETATM   16  C   UNL     1      -5.655   0.818 -29.223  1.00  0.00     0.054 C 
HETATM   17  C   UNL     1      -6.744  -0.059 -31.298  1.00  0.00     0.023 C 
BRANCH  17  18
HETATM   18  C   UNL     1      -6.916  -0.318 -32.736  1.00  0.00    -0.034 A 
HETATM   19  C   UNL     1      -6.227  -1.390 -33.319  1.00  0.00     0.035 A 
HETATM   20  C   UNL     1      -6.344  -1.635 -34.689  1.00  0.00     0.034 A 
HETATM   21 CL   UNL     1      -5.499  -2.958 -35.392  1.00  0.00    -0.084 Cl
HETATM   22  C   UNL     1      -7.134  -0.815 -35.492  1.00  0.00     0.024 A 
HETATM   23  C   UNL     1      -7.808   0.263 -34.923  1.00  0.00     0.003 A 
HETATM   24  C   UNL     1      -7.690   0.516 -33.553  1.00  0.00     0.011 A 
ENDBRANCH  17  18
ENDBRANCH  12  15
ENDBRANCH   1  11
BRANCH   8  25
HETATM   25  C   UNL     1      -0.239   5.817 -31.817  1.00  0.00     0.270 C 
HETATM   26  N   UNL     1       0.202   7.030 -31.362  1.00  0.00    -0.365 N 
HETATM   27  H   UNL     1      -0.206   7.871 -31.752  1.00  0.00     0.159 HD
HETATM   28  H   UNL     1       0.943   7.067 -30.681  1.00  0.00     0.159 HD
HETATM   29  O   UNL     1       0.242   4.770 -31.399  1.00  0.00    -0.266 OA
ENDBRANCH   8  25
TORSDOF 4
ENDMDL
MODEL 4
REMARK VINA RESULT:      -8.9      2.215      3.468
REMARK  4 active torsions:
REMARK  status: ('A' for Active; 'I' for Inactive)
REMARK    1  A    between atoms: C_2  and  C_3 
REMARK       I    between atoms: C_3  and  N_4 
REMARK    2  A    between atoms: N_4  and  C_5 
REMARK    3  A    between atoms: C_12  and  C_13 
REMARK       I    between atoms: C_13  and  N_14 
REMARK    4  A    between atoms: C_19  and  C_20 
ROOT
HETATM    1  C   UNL     1      -9.126   2.186 -33.493  1.00  0.00     0.036 A 
HETATM    2  C   UNL     1     -10.236   1.329 -33.487  1.00  0.00     0.046 A 
HETATM    3  C   UNL     1     -11.420   1.718 -34.150  1.00  0.00     0.030 A 
HETATM    4  C   UNL     1     -11.447   2.940 -34.811  1.00  0.00     0.063 A 
HETATM    5  N   UNL     1     -12.697   3.028 -35.358  1.00  0.00    -0.277 N 
HETATM    6  H   UNL     1     -13.068   3.786 -35.921  1.00  0.00     0.189 HD
HETATM    7  N   UNL     1     -13.496   1.983 -35.094  1.00  0.00    -0.168 NA
HETATM    8  C   UNL     1     -12.723   1.166 -34.342  1.00  0.00     0.156 A 
HETATM    9  C   UNL     1     -10.361   3.817 -34.839  1.00  0.00     0.034 A 
HETATM   10  C   UNL     1      -9.207   3.418 -34.156  1.00  0.00     0.032 A 
ENDROOT
BRANCH   1  11
HETATM   11  N   UNL     1      -7.911   1.892 -32.842  1.00  0.00    -0.323 N 
HETATM   12  C   UNL     1      -6.676   1.704 -33.422  1.00  0.00     0.251 C 
HETATM   13  O   UNL     1      -6.362   1.850 -34.596  1.00  0.00    -0.268 OA
HETATM   14  H   UNL     1      -7.947   1.820 -31.834  1.00  0.00     0.169 HD
BRANCH  12  15
HETATM   15  C   UNL     1      -5.624   1.355 -32.420  1.00  0.00     0.007 C 
HETATM   16  C   UNL     1      -5.159   2.515 -31.594  1.00  0.00     0.054 C 
HETATM   17  C   UNL     1      -5.118   0.113 -32.296  1.00  0.00     0.023 C 
BRANCH  17  18
HETATM   18  C   UNL     1      -5.441  -1.070 -33.107  1.00  0.00    -0.034 A 
HETATM   19  C   UNL     1      -4.456  -2.047 -33.304  1.00  0.00     0.035 A 
HETATM   20  C   UNL     1      -4.724  -3.162 -34.101  1.00  0.00     0.034 A 
HETATM   21 CL   UNL     1      -3.507  -4.357 -34.330  1.00  0.00    -0.084 Cl
HETATM   22  C   UNL     1      -5.965  -3.313 -34.716  1.00  0.00     0.024 A 
HETATM   23  C   UNL     1      -6.944  -2.338 -34.539  1.00  0.00     0.003 A 
HETATM   24  C   UNL     1      -6.679  -1.217 -33.747  1.00  0.00     0.011 A 
ENDBRANCH  17  18
ENDBRANCH  12  15
ENDBRANCH   1  11
BRANCH   8  25
HETATM   25  C   UNL     1     -13.246  -0.104 -33.817  1.00  0.00     0.270 C 
HETATM   26  N   UNL     1     -14.579  -0.299 -34.055  1.00  0.00    -0.365 N 
HETATM   27  H   UNL     1     -15.094   0.423 -34.545  1.00  0.00     0.159 HD
HETATM   28  H   UNL     1     -15.030  -1.132 -33.712  1.00  0.00     0.159 HD
HETATM   29  O   UNL     1     -12.583  -0.934 -33.204  1.00  0.00    -0.266 OA
ENDBRANCH   8  25
TORSDOF 4
ENDMDL
MODEL 5
REMARK VINA RESULT:      -8.8      5.282      8.024
REMARK  4 active torsions:
REMARK  status: ('A' for Active; 'I' for Inactive)
REMARK    1  A    between atoms: C_2  and  C_3 
REMARK       I    between atoms: C_3  and  N_4 
REMARK    2  A    between atoms: N_4  and  C_5 
REMARK    3  A    between atoms: C_12  and  C_13 
REMARK       I    between atoms: C_13  and  N_14 
REMARK    4  A    between atoms: C_19  and  C_20 
ROOT
HETATM    1  C   UNL     1      -4.185   3.531 -31.900  1.00  0.00     0.036 A 
HETATM    2  C   UNL     1      -4.397   2.200 -32.285  1.00  0.00     0.046 A 
HETATM    3  C   UNL     1      -5.271   1.388 -31.531  1.00  0.00     0.030 A 
HETATM    4  C   UNL     1      -5.918   1.939 -30.432  1.00  0.00     0.063 A 
HETATM    5  N   UNL     1      -6.694   0.934 -29.926  1.00  0.00    -0.277 N 
HETATM    6  H   UNL     1      -7.312   0.982 -29.123  1.00  0.00     0.189 HD
HETATM    7  N   UNL     1      -6.594  -0.232 -30.583  1.00  0.00    -0.168 NA
HETATM    8  C   UNL     1      -5.713   0.030 -31.576  1.00  0.00     0.156 A 
HETATM    9  C   UNL     1      -5.732   3.260 -30.021  1.00  0.00     0.034 A 
HETATM   10  C   UNL     1      -4.843   4.039 -30.772  1.00  0.00     0.032 A 
ENDROOT
BRANCH   1  11
HETATM   11  N   UNL     1      -3.316   4.409 -32.578  1.00  0.00    -0.323 N 
HETATM   12  C   UNL     1      -1.998   4.677 -32.280  1.00  0.00     0.251 C 
HETATM   13  O   UNL     1      -1.290   4.143 -31.437  1.00  0.00    -0.268 OA
HETATM   14  H   UNL     1      -3.698   4.889 -33.382  1.00  0.00     0.169 HD
BRANCH  12  15
HETATM   15  C   UNL     1      -1.406   5.705 -33.188  1.00  0.00     0.007 C 
HETATM   16  C   UNL     1      -1.425   5.322 -34.636  1.00  0.00     0.054 C 
HETATM   17  C   UNL     1      -0.875   6.858 -32.739  1.00  0.00     0.023 C 
BRANCH  17  18
HETATM   18  C   UNL     1      -0.730   7.292 -31.341  1.00  0.00    -0.034 A 
HETATM   19  C   UNL     1      -1.725   8.101 -30.776  1.00  0.00     0.035 A 
HETATM   20  C   UNL     1      -1.594   8.558 -29.463  1.00  0.00     0.034 A 
HETATM   21 CL   UNL     1      -2.825   9.545 -28.779  1.00  0.00    -0.084 Cl
HETATM   22  C   UNL     1      -0.474   8.224 -28.704  1.00  0.00     0.024 A 
HETATM   23  C   UNL     1       0.527   7.435 -29.264  1.00  0.00     0.003 A 
HETATM   24  C   UNL     1       0.404   6.980 -30.580  1.00  0.00     0.011 A 
ENDBRANCH  17  18
ENDBRANCH  12  15
ENDBRANCH   1  11
BRANCH   8  25
HETATM   25  C   UNL     1      -5.306  -1.015 -32.526  1.00  0.00     0.270 C 
HETATM   26  N   UNL     1      -4.066  -1.538 -32.283  1.00  0.00    -0.365 N 
HETATM   27  H   UNL     1      -3.530  -1.173 -31.505  1.00  0.00     0.159 HD
HETATM   28  H   UNL     1      -3.694  -2.244 -32.897  1.00  0.00     0.159 HD
HETATM   29  O   UNL     1      -5.983  -1.402 -33.472  1.00  0.00    -0.266 OA
ENDBRANCH   8  25
TORSDOF 4
ENDMDL
MODEL 6
REMARK VINA RESULT:      -8.8      4.696      7.447
REMARK  4 active torsions:
REMARK  status: ('A' for Active; 'I' for Inactive)
REMARK    1  A    between atoms: C_2  and  C_3 
REMARK       I    between atoms: C_3  and  N_4 
REMARK    2  A    between atoms: N_4  and  C_5 
REMARK    3  A    between atoms: C_12  and  C_13 
REMARK       I    between atoms: C_13  and  N_14 
REMARK    4  A    between atoms: C_19  and  C_20 
ROOT
HETATM    1  C   UNL     1      -6.057   1.096 -33.749  1.00  0.00     0.036 A 
HETATM    2  C   UNL     1      -5.051   0.324 -33.149  1.00  0.00     0.046 A 
HETATM    3  C   UNL     1      -4.927  -1.041 -33.486  1.00  0.00     0.030 A 
HETATM    4  C   UNL     1      -5.798  -1.582 -34.423  1.00  0.00     0.063 A 
HETATM    5  N   UNL     1      -5.428  -2.892 -34.549  1.00  0.00    -0.277 N 
HETATM    6  H   UNL     1      -5.842  -3.591 -35.156  1.00  0.00     0.189 HD
HETATM    7  N   UNL     1      -4.407  -3.261 -33.759  1.00  0.00    -0.168 NA
HETATM    8  C   UNL     1      -4.090  -2.128 -33.091  1.00  0.00     0.156 A 
HETATM    9  C   UNL     1      -6.809  -0.844 -35.041  1.00  0.00     0.034 A 
HETATM   10  C   UNL     1      -6.926   0.502 -34.674  1.00  0.00     0.032 A 
ENDROOT
BRANCH   1  11
HETATM   11  N   UNL     1      -6.269   2.459 -33.460  1.00  0.00    -0.323 N 
HETATM   12  C   UNL     1      -6.047   3.105 -32.264  1.00  0.00     0.251 C 
HETATM   13  O   UNL     1      -5.534   2.657 -31.248  1.00  0.00    -0.268 OA
HETATM   14  H   UNL     1      -6.614   3.031 -34.219  1.00  0.00     0.169 HD
BRANCH  12  15
HETATM   15  C   UNL     1      -6.438   4.546 -32.315  1.00  0.00     0.007 C 
HETATM   16  C   UNL     1      -7.856   4.808 -31.910  1.00  0.00     0.054 C 
HETATM   17  C   UNL     1      -5.597   5.516 -32.720  1.00  0.00     0.023 C 
BRANCH  17  18
HETATM   18  C   UNL     1      -4.220   5.359 -33.214  1.00  0.00    -0.034 A 
HETATM   19  C   UNL     1      -3.165   5.353 -32.292  1.00  0.00     0.035 A 
HETATM   20  C   UNL     1      -1.847   5.243 -32.738  1.00  0.00     0.034 A 
HETATM   21 CL   UNL     1      -0.561   5.229 -31.595  1.00  0.00    -0.084 Cl
HETATM   22  C   UNL     1      -1.563   5.148 -34.098  1.00  0.00     0.024 A 
HETATM   23  C   UNL     1      -2.605   5.171 -35.022  1.00  0.00     0.003 A 
HETATM   24  C   UNL     1      -3.926   5.287 -34.582  1.00  0.00     0.011 A 
ENDBRANCH  17  18
ENDBRANCH  12  15
ENDBRANCH   1  11
BRANCH   8  25
HETATM   25  C   UNL     1      -3.013  -2.114 -32.090  1.00  0.00     0.270 C 
HETATM   26  N   UNL     1      -2.796  -3.322 -31.486  1.00  0.00    -0.365 N 
HETATM   27  H   UNL     1      -3.380  -4.107 -31.751  1.00  0.00     0.159 HD
HETATM   28  H   UNL     1      -2.093  -3.402 -30.770  1.00  0.00     0.159 HD
HETATM   29  O   UNL     1      -2.354  -1.125 -31.784  1.00  0.00    -0.266 OA
ENDBRANCH   8  25
TORSDOF 4
ENDMDL
MODEL 7
REMARK VINA RESULT:      -8.7      5.549      8.054
REMARK  4 active torsions:
REMARK  status: ('A' for Active; 'I' for Inactive)
REMARK    1  A    between atoms: C_2  and  C_3 
REMARK       I    between atoms: C_3  and  N_4 
REMARK    2  A    between atoms: N_4  and  C_5 
REMARK    3  A    between atoms: C_12  and  C_13 
REMARK       I    between atoms: C_13  and  N_14 
REMARK    4  A    between atoms: C_19  and  C_20 
ROOT
HETATM    1  C   UNL     1      -4.174   3.749 -31.796  1.00  0.00     0.036 A 
HETATM    2  C   UNL     1      -4.396   2.403 -32.118  1.00  0.00     0.046 A 
HETATM    3  C   UNL     1      -5.216   1.614 -31.283  1.00  0.00     0.030 A 
HETATM    4  C   UNL     1      -5.800   2.202 -30.168  1.00  0.00     0.063 A 
HETATM    5  N   UNL     1      -6.535   1.211 -29.578  1.00  0.00    -0.277 N 
HETATM    6  H   UNL     1      -7.104   1.285 -28.742  1.00  0.00     0.189 HD
HETATM    7  N   UNL     1      -6.465   0.022 -30.196  1.00  0.00    -0.168 NA
HETATM    8  C   UNL     1      -5.647   0.253 -31.249  1.00  0.00     0.156 A 
HETATM    9  C   UNL     1      -5.602   3.539 -29.818  1.00  0.00     0.034 A 
HETATM   10  C   UNL     1      -4.767   4.294 -30.650  1.00  0.00     0.032 A 
ENDROOT
BRANCH   1  11
HETATM   11  N   UNL     1      -3.354   4.607 -32.558  1.00  0.00    -0.323 N 
HETATM   12  C   UNL     1      -2.001   4.819 -32.411  1.00  0.00     0.251 C 
HETATM   13  O   UNL     1      -1.223   4.241 -31.665  1.00  0.00    -0.268 OA
HETATM   14  H   UNL     1      -3.808   5.116 -33.304  1.00  0.00     0.169 HD
BRANCH  12  15
HETATM   15  C   UNL     1      -1.479   5.841 -33.368  1.00  0.00     0.007 C 
HETATM   16  C   UNL     1      -1.311   5.337 -34.768  1.00  0.00     0.054 C 
HETATM   17  C   UNL     1      -1.158   7.094 -32.993  1.00  0.00     0.023 C 
BRANCH  17  18
HETATM   18  C   UNL     1      -1.204   7.663 -31.637  1.00  0.00    -0.034 A 
HETATM   19  C   UNL     1      -0.250   7.252 -30.697  1.00  0.00     0.035 A 
HETATM   20  C   UNL     1      -0.294   7.748 -29.392  1.00  0.00     0.034 A 
HETATM   21 CL   UNL     1       0.888   7.241 -28.249  1.00  0.00    -0.084 Cl
HETATM   22  C   UNL     1      -1.288   8.645 -29.007  1.00  0.00     0.024 A 
HETATM   23  C   UNL     1      -2.250   9.044 -29.932  1.00  0.00     0.003 A 
HETATM   24  C   UNL     1      -2.214   8.547 -31.237  1.00  0.00     0.011 A 
ENDBRANCH  17  18
ENDBRANCH  12  15
ENDBRANCH   1  11
BRANCH   8  25
HETATM   25  C   UNL     1      -5.290  -0.825 -32.183  1.00  0.00     0.270 C 
HETATM   26  N   UNL     1      -6.272  -1.131 -33.085  1.00  0.00    -0.365 N 
HETATM   27  H   UNL     1      -7.147  -0.623 -33.038  1.00  0.00     0.159 HD
HETATM   28  H   UNL     1      -6.125  -1.873 -33.749  1.00  0.00     0.159 HD
HETATM   29  O   UNL     1      -4.223  -1.430 -32.178  1.00  0.00    -0.266 OA
ENDBRANCH   8  25
TORSDOF 4
ENDMDL
MODEL 8
REMARK VINA RESULT:      -8.6      5.539      8.658
REMARK  4 active torsions:
REMARK  status: ('A' for Active; 'I' for Inactive)
REMARK    1  A    between atoms: C_2  and  C_3 
REMARK       I    between atoms: C_3  and  N_4 
REMARK    2  A    between atoms: N_4  and  C_5 
REMARK    3  A    between atoms: C_12  and  C_13 
REMARK       I    between atoms: C_13  and  N_14 
REMARK    4  A    between atoms: C_19  and  C_20 
ROOT
HETATM    1  C   UNL     1      -3.919   4.435 -31.835  1.00  0.00     0.036 A 
HETATM    2  C   UNL     1      -3.800   5.784 -31.472  1.00  0.00     0.046 A 
HETATM    3  C   UNL     1      -2.871   6.606 -32.147  1.00  0.00     0.030 A 
HETATM    4  C   UNL     1      -2.109   6.057 -33.170  1.00  0.00     0.063 A 
HETATM    5  N   UNL     1      -1.330   7.081 -33.632  1.00  0.00    -0.277 N 
HETATM    6  H   UNL     1      -0.654   7.045 -34.388  1.00  0.00     0.189 HD
HETATM    7  N   UNL     1      -1.499   8.245 -32.985  1.00  0.00    -0.168 NA
HETATM    8  C   UNL     1      -2.445   7.966 -32.059  1.00  0.00     0.156 A 
HETATM    9  C   UNL     1      -2.203   4.719 -33.558  1.00  0.00     0.034 A 
HETATM   10  C   UNL     1      -3.115   3.919 -32.860  1.00  0.00     0.032 A 
ENDROOT
BRANCH   1  11
HETATM   11  N   UNL     1      -4.802   3.535 -31.205  1.00  0.00    -0.323 N 
HETATM   12  C   UNL     1      -5.964   3.004 -31.721  1.00  0.00     0.251 C 
HETATM   13  O   UNL     1      -6.411   3.124 -32.853  1.00  0.00    -0.268 OA
HETATM   14  H   UNL     1      -4.550   3.236 -30.273  1.00  0.00     0.169 HD
BRANCH  12  15
HETATM   15  C   UNL     1      -6.670   2.123 -30.743  1.00  0.00     0.007 C 
HETATM   16  C   UNL     1      -7.519   2.865 -29.757  1.00  0.00     0.054 C 
HETATM   17  C   UNL     1      -6.529   0.784 -30.731  1.00  0.00     0.023 C 
BRANCH  17  18
HETATM   18  C   UNL     1      -5.661  -0.032 -31.594  1.00  0.00    -0.034 A 
HETATM   19  C   UNL     1      -6.224  -0.683 -32.700  1.00  0.00     0.035 A 
HETATM   20  C   UNL     1      -5.431  -1.494 -33.514  1.00  0.00     0.034 A 
HETATM   21 CL   UNL     1      -6.134  -2.283 -34.872  1.00  0.00    -0.084 Cl
HETATM   22  C   UNL     1      -4.078  -1.673 -33.235  1.00  0.00     0.024 A 
HETATM   23  C   UNL     1      -3.515  -1.043 -32.127  1.00  0.00     0.003 A 
HETATM   24  C   UNL     1      -4.305  -0.235 -31.306  1.00  0.00     0.011 A 
ENDBRANCH  17  18
ENDBRANCH  12  15
ENDBRANCH   1  11
BRANCH   8  25
HETATM   25  C   UNL     1      -2.905   8.992 -31.112  1.00  0.00     0.270 C 
HETATM   26  N   UNL     1      -2.246   8.980 -29.913  1.00  0.00    -0.365 N 
HETATM   27  H   UNL     1      -1.525   8.284 -29.763  1.00  0.00     0.159 HD
HETATM   28  H   UNL     1      -2.509   9.633 -29.193  1.00  0.00     0.159 HD
HETATM   29  O   UNL     1      -3.805   9.795 -31.332  1.00  0.00    -0.266 OA
ENDBRANCH   8  25
TORSDOF 4
ENDMDL
MODEL 9
REMARK VINA RESULT:      -8.6      3.782      7.949
REMARK  4 active torsions:
REMARK  status: ('A' for Active; 'I' for Inactive)
REMARK    1  A    between atoms: C_2  and  C_3 
REMARK       I    between atoms: C_3  and  N_4 
REMARK    2  A    between atoms: N_4  and  C_5 
REMARK    3  A    between atoms: C_12  and  C_13 
REMARK       I    between atoms: C_13  and  N_14 
REMARK    4  A    between atoms: C_19  and  C_20 
ROOT
HETATM    1  C   UNL     1      -7.240   0.459 -33.169  1.00  0.00     0.036 A 
HETATM    2  C   UNL     1      -6.033  -0.036 -32.656  1.00  0.00     0.046 A 
HETATM    3  C   UNL     1      -5.413  -1.141 -33.278  1.00  0.00     0.030 A 
HETATM    4  C   UNL     1      -6.011  -1.701 -34.400  1.00  0.00     0.063 A 
HETATM    5  N   UNL     1      -5.186  -2.723 -34.779  1.00  0.00    -0.277 N 
HETATM    6  H   UNL     1      -5.306  -3.347 -35.569  1.00  0.00     0.189 HD
HETATM    7  N   UNL     1      -4.113  -2.896 -33.990  1.00  0.00    -0.168 NA
HETATM    8  C   UNL     1      -4.243  -1.929 -33.053  1.00  0.00     0.156 A 
HETATM    9  C   UNL     1      -7.211  -1.234 -34.938  1.00  0.00     0.034 A 
HETATM   10  C   UNL     1      -7.817  -0.151 -34.290  1.00  0.00     0.032 A 
ENDROOT
BRANCH   1  11
HETATM   11  N   UNL     1      -7.940   1.543 -32.603  1.00  0.00    -0.323 N 
HETATM   12  C   UNL     1      -7.896   2.863 -32.994  1.00  0.00     0.251 C 
HETATM   13  O   UNL     1      -7.325   3.345 -33.963  1.00  0.00    -0.268 OA
HETATM   14  H   UNL     1      -8.553   1.327 -31.828  1.00  0.00     0.169 HD
BRANCH  12  15
HETATM   15  C   UNL     1      -8.734   3.742 -32.125  1.00  0.00     0.007 C 
HETATM   16  C   UNL     1      -7.991   4.350 -30.975  1.00  0.00     0.054 C 
HETATM   17  C   UNL     1     -10.048   3.943 -32.339  1.00  0.00     0.023 C 
BRANCH  17  18
HETATM   18  C   UNL     1     -10.888   3.333 -33.381  1.00  0.00    -0.034 A 
HETATM   19  C   UNL     1     -11.531   2.118 -33.109  1.00  0.00     0.035 A 
HETATM   20  C   UNL     1     -12.304   1.498 -34.093  1.00  0.00     0.034 A 
HETATM   21 CL   UNL     1     -13.094   0.011 -33.743  1.00  0.00    -0.084 Cl
HETATM   22  C   UNL     1     -12.438   2.071 -35.355  1.00  0.00     0.024 A 
HETATM   23  C   UNL     1     -11.787   3.270 -35.640  1.00  0.00     0.003 A 
HETATM   24  C   UNL     1     -11.008   3.891 -34.661  1.00  0.00     0.011 A 
ENDBRANCH  17  18
ENDBRANCH  12  15
ENDBRANCH   1  11
BRANCH   8  25
HETATM   25  C   UNL     1      -3.262  -1.789 -31.967  1.00  0.00     0.270 C 
HETATM   26  N   UNL     1      -2.719  -2.973 -31.549  1.00  0.00    -0.365 N 
HETATM   27  H   UNL     1      -3.030  -3.830 -31.991  1.00  0.00     0.159 HD
HETATM   28  H   UNL     1      -2.054  -2.977 -30.792  1.00  0.00     0.159 HD
HETATM   29  O   UNL     1      -2.942  -0.726 -31.445  1.00  0.00    -0.266 OA
ENDBRANCH   8  25
TORSDOF 4
ENDMDL
MODEL 10
REMARK VINA RESULT:      -8.5      4.169      7.319
REMARK  4 active torsions:
REMARK  status: ('A' for Active; 'I' for Inactive)
REMARK    1  A    between atoms: C_2  and  C_3 
REMARK       I    between atoms: C_3  and  N_4 
REMARK    2  A    between atoms: N_4  and  C_5 
REMARK    3  A    between atoms: C_12  and  C_13 
REMARK       I    between atoms: C_13  and  N_14 
REMARK    4  A    between atoms: C_19  and  C_20 
ROOT
HETATM    1  C   UNL     1      -5.132   0.545 -32.973  1.00  0.00     0.036 A 
HETATM    2  C   UNL     1      -5.159  -0.752 -33.504  1.00  0.00     0.046 A 
HETATM    3  C   UNL     1      -4.301  -1.740 -32.973  1.00  0.00     0.030 A 
HETATM    4  C   UNL     1      -3.462  -1.402 -31.918  1.00  0.00     0.063 A 
HETATM    5  N   UNL     1      -2.780  -2.547 -31.617  1.00  0.00    -0.277 N 
HETATM    6  H   UNL     1      -2.085  -2.674 -30.889  1.00  0.00     0.189 HD
HETATM    7  N   UNL     1      -3.081  -3.598 -32.397  1.00  0.00    -0.168 NA
HETATM    8  C   UNL     1      -4.017  -3.113 -33.245  1.00  0.00     0.156 A 
HETATM    9  C   UNL     1      -3.410  -0.122 -31.364  1.00  0.00     0.034 A 
HETATM   10  C   UNL     1      -4.254   0.845 -31.923  1.00  0.00     0.032 A 
ENDROOT
BRANCH   1  11
HETATM   11  N   UNL     1      -5.935   1.600 -33.452  1.00  0.00    -0.323 N 
HETATM   12  C   UNL     1      -6.852   2.342 -32.742  1.00  0.00     0.251 C 
HETATM   13  O   UNL     1      -7.086   2.306 -31.541  1.00  0.00    -0.268 OA
HETATM   14  H   UNL     1      -5.818   1.848 -34.425  1.00  0.00     0.169 HD
BRANCH  12  15
HETATM   15  C   UNL     1      -7.557   3.344 -33.596  1.00  0.00     0.007 C 
HETATM   16  C   UNL     1      -8.881   2.877 -34.118  1.00  0.00     0.054 C 
HETATM   17  C   UNL     1      -7.031   4.547 -33.895  1.00  0.00     0.023 C 
BRANCH  17  18
HETATM   18  C   UNL     1      -5.712   5.069 -33.506  1.00  0.00    -0.034 A 
HETATM   19  C   UNL     1      -4.616   4.836 -34.348  1.00  0.00     0.035 A 
HETATM   20  C   UNL     1      -3.346   5.287 -33.984  1.00  0.00     0.034 A 
HETATM   21 CL   UNL     1      -2.010   5.000 -35.030  1.00  0.00    -0.084 Cl
HETATM   22  C   UNL     1      -3.149   5.963 -32.782  1.00  0.00     0.024 A 
HETATM   23  C   UNL     1      -4.230   6.183 -31.932  1.00  0.00     0.003 A 
HETATM   24  C   UNL     1      -5.503   5.729 -32.288  1.00  0.00     0.011 A 
ENDBRANCH  17  18
ENDBRANCH  12  15
ENDBRANCH   1  11
BRANCH   8  25
HETATM   25  C   UNL     1      -4.602  -3.960 -34.294  1.00  0.00     0.270 C 
HETATM   26  N   UNL     1      -4.247  -5.278 -34.210  1.00  0.00    -0.365 N 
HETATM   27  H   UNL     1      -3.619  -5.564 -33.468  1.00  0.00     0.159 HD
HETATM   28  H   UNL     1      -4.582  -5.930 -34.901  1.00  0.00     0.159 HD
HETATM   29  O   UNL     1      -5.336  -3.557 -35.191  1.00  0.00    -0.266 OA
ENDBRANCH   8  25
TORSDOF 4
ENDMDL
