MODEL 1
REMARK VINA RESULT:      -8.7      0.000      0.000
REMARK  9 active torsions:
REMARK  status: ('A' for Active; 'I' for Inactive)
REMARK    1  A    between atoms: C_2  and  C_3 
REMARK    2  A    between atoms: C_5  and  O_6 
REMARK    3  A    between atoms: C_8  and  O_9 
REMARK    4  A    between atoms: O_9  and  C_10 
REMARK    5  A    between atoms: C_10  and  C_11 
REMARK       I    between atoms: C_11  and  N_12 
REMARK    6  A    between atoms: N_12  and  C_13 
REMARK    7  A    between atoms: C_13  and  C_14 
REMARK    8  A    between atoms: C_17  and  N_18 
REMARK       I    between atoms: N_18  and  C_19 
REMARK    9  A    between atoms: C_19  and  C_20 
ROOT
HETATM    1  C   UNL     1      -3.452   2.537 -31.528  1.00  0.00     0.242 C 
HETATM    2  N   UNL     1      -4.382   2.981 -30.634  1.00  0.00    -0.355 N 
HETATM    3  O   UNL     1      -2.641   3.343 -31.990  1.00  0.00    -0.271 OA
HETATM    4  H   UNL     1      -4.291   3.966 -30.420  1.00  0.00     0.162 HD
ENDROOT
BRANCH   2   5
HETATM    5  C   UNL     1      -5.300   2.202 -29.827  1.00  0.00     0.161 C 
BRANCH   5   6
HETATM    6  C   UNL     1      -6.574   1.948 -30.593  1.00  0.00    -0.040 A 
HETATM    7  C   UNL     1      -7.413   3.015 -30.939  1.00  0.00     0.011 A 
HETATM    8  C   UNL     1      -8.635   2.788 -31.583  1.00  0.00     0.030 A 
HETATM    9  C   UNL     1      -9.042   1.491 -31.891  1.00  0.00     0.035 A 
HETATM   10  C   UNL     1      -8.195   0.424 -31.568  1.00  0.00     0.030 A 
HETATM   11  C   UNL     1      -6.973   0.648 -30.923  1.00  0.00     0.011 A 
BRANCH   9  12
HETATM   12  N   UNL     1     -10.277   1.175 -32.488  1.00  0.00    -0.321 N 
HETATM   13  C   UNL     1     -10.822   1.681 -33.654  1.00  0.00     0.279 C 
HETATM   14  O   UNL     1     -10.270   2.463 -34.420  1.00  0.00    -0.265 OA
HETATM   15  H   UNL     1     -10.878   0.527 -31.989  1.00  0.00     0.169 HD
BRANCH  13  16
HETATM   16  C   UNL     1     -12.169   1.192 -33.897  1.00  0.00     0.142 A 
HETATM   17  O   UNL     1     -12.573   0.010 -33.325  1.00  0.00    -0.317 OA
HETATM   18  C   UNL     1     -13.863  -0.193 -33.699  1.00  0.00     0.143 A 
HETATM   19  C   UNL     1     -14.302   0.834 -34.502  1.00  0.00     0.027 A 
HETATM   20  C   UNL     1     -13.212   1.726 -34.632  1.00  0.00     0.045 A 
ENDBRANCH  13  16
ENDBRANCH   9  12
ENDBRANCH   5   6
ENDBRANCH   2   5
BRANCH   1  21
HETATM   21  C   UNL     1      -3.423   1.064 -31.914  1.00  0.00     0.278 C 
BRANCH  21  22
HETATM   22  O   UNL     1      -4.278   0.863 -33.031  1.00  0.00    -0.339 OA
BRANCH  22  23
HETATM   23  C   UNL     1      -4.513  -0.431 -33.419  1.00  0.00     0.102 A 
HETATM   24  C   UNL     1      -5.670  -0.644 -34.194  1.00  0.00     0.102 A 
HETATM   25  C   UNL     1      -6.014  -1.939 -34.603  1.00  0.00     0.054 A 
HETATM   26  C   UNL     1      -5.200  -3.024 -34.258  1.00  0.00     0.012 A 
HETATM   27  C   UNL     1      -4.041  -2.803 -33.503  1.00  0.00     0.018 A 
HETATM   28  C   UNL     1      -3.702  -1.514 -33.080  1.00  0.00     0.040 A 
BRANCH  24  29
HETATM   29  O   UNL     1      -6.431   0.465 -34.474  1.00  0.00    -0.353 OA
HETATM   30  C   UNL     1      -7.567   0.257 -35.304  1.00  0.00     0.210 C 
ENDBRANCH  24  29
BRANCH  26  31
HETATM   31  C   UNL     1      -5.527  -4.424 -34.659  1.00  0.00     0.155 C 
HETATM   32  C   UNL     1      -6.670  -4.666 -35.610  1.00  0.00     0.096 C 
HETATM   33  O   UNL     1      -4.864  -5.357 -34.212  1.00  0.00    -0.293 OA
ENDBRANCH  26  31
ENDBRANCH  22  23
ENDBRANCH  21  22
ENDBRANCH   1  21
TORSDOF 9
ENDMDL
MODEL 2
REMARK VINA RESULT:      -8.3      2.440      5.917
REMARK  9 active torsions:
REMARK  status: ('A' for Active; 'I' for Inactive)
REMARK    1  A    between atoms: C_2  and  C_3 
REMARK    2  A    between atoms: C_5  and  O_6 
REMARK    3  A    between atoms: C_8  and  O_9 
REMARK    4  A    between atoms: O_9  and  C_10 
REMARK    5  A    between atoms: C_10  and  C_11 
REMARK       I    between atoms: C_11  and  N_12 
REMARK    6  A    between atoms: N_12  and  C_13 
REMARK    7  A    between atoms: C_13  and  C_14 
REMARK    8  A    between atoms: C_17  and  N_18 
REMARK       I    between atoms: N_18  and  C_19 
REMARK    9  A    between atoms: C_19  and  C_20 
ROOT
HETATM    1  C   UNL     1      -5.160   5.890 -30.948  1.00  0.00     0.242 C 
HETATM    2  N   UNL     1      -4.672   4.794 -30.296  1.00  0.00    -0.355 N 
HETATM    3  O   UNL     1      -4.398   6.541 -31.666  1.00  0.00    -0.271 OA
HETATM    4  H   UNL     1      -3.697   4.613 -30.496  1.00  0.00     0.162 HD
ENDROOT
BRANCH   2   5
HETATM    5  C   UNL     1      -5.405   3.782 -29.562  1.00  0.00     0.161 C 
BRANCH   5   6
HETATM    6  C   UNL     1      -5.430   2.493 -30.344  1.00  0.00    -0.040 A 
HETATM    7  C   UNL     1      -4.774   2.404 -31.579  1.00  0.00     0.011 A 
HETATM    8  C   UNL     1      -4.851   1.239 -32.350  1.00  0.00     0.030 A 
HETATM    9  C   UNL     1      -5.589   0.143 -31.904  1.00  0.00     0.035 A 
HETATM   10  C   UNL     1      -6.226   0.220 -30.660  1.00  0.00     0.030 A 
HETATM   11  C   UNL     1      -6.151   1.384 -29.887  1.00  0.00     0.011 A 
BRANCH   9  12
HETATM   12  N   UNL     1      -5.760  -1.043 -32.643  1.00  0.00    -0.321 N 
HETATM   13  C   UNL     1      -4.868  -1.653 -33.506  1.00  0.00     0.279 C 
HETATM   14  O   UNL     1      -3.719  -1.287 -33.724  1.00  0.00    -0.265 OA
HETATM   15  H   UNL     1      -6.665  -1.498 -32.581  1.00  0.00     0.169 HD
BRANCH  13  16
HETATM   16  C   UNL     1      -5.442  -2.812 -34.171  1.00  0.00     0.142 A 
HETATM   17  O   UNL     1      -4.668  -3.929 -34.372  1.00  0.00    -0.317 OA
HETATM   18  C   UNL     1      -5.452  -4.852 -34.988  1.00  0.00     0.143 A 
HETATM   19  C   UNL     1      -6.717  -4.354 -35.191  1.00  0.00     0.027 A 
HETATM   20  C   UNL     1      -6.712  -3.040 -34.667  1.00  0.00     0.045 A 
ENDBRANCH  13  16
ENDBRANCH   9  12
ENDBRANCH   5   6
ENDBRANCH   2   5
BRANCH   1  21
HETATM   21  C   UNL     1      -6.628   6.264 -30.793  1.00  0.00     0.278 C 
BRANCH  21  22
HETATM   22  O   UNL     1      -7.289   6.055 -32.033  1.00  0.00    -0.339 OA
BRANCH  22  23
HETATM   23  C   UNL     1      -7.678   4.774 -32.331  1.00  0.00     0.102 A 
HETATM   24  C   UNL     1      -7.192   4.246 -33.543  1.00  0.00     0.102 A 
HETATM   25  C   UNL     1      -7.568   2.960 -33.950  1.00  0.00     0.054 A 
HETATM   26  C   UNL     1      -8.413   2.187 -33.146  1.00  0.00     0.012 A 
HETATM   27  C   UNL     1      -8.878   2.710 -31.932  1.00  0.00     0.018 A 
HETATM   28  C   UNL     1      -8.517   4.000 -31.530  1.00  0.00     0.040 A 
BRANCH  24  29
HETATM   29  O   UNL     1      -6.386   5.071 -34.290  1.00  0.00    -0.353 OA
HETATM   30  C   UNL     1      -5.045   4.638 -34.481  1.00  0.00     0.210 C 
ENDBRANCH  24  29
BRANCH  26  31
HETATM   31  C   UNL     1      -8.852   0.816 -33.540  1.00  0.00     0.155 C 
HETATM   32  C   UNL     1     -10.152   0.279 -33.001  1.00  0.00     0.096 C 
HETATM   33  O   UNL     1      -8.151   0.145 -34.295  1.00  0.00    -0.293 OA
ENDBRANCH  26  31
ENDBRANCH  22  23
ENDBRANCH  21  22
ENDBRANCH   1  21
TORSDOF 9
ENDMDL
MODEL 3
REMARK VINA RESULT:      -8.3      2.366      7.143
REMARK  9 active torsions:
REMARK  status: ('A' for Active; 'I' for Inactive)
REMARK    1  A    between atoms: C_2  and  C_3 
REMARK    2  A    between atoms: C_5  and  O_6 
REMARK    3  A    between atoms: C_8  and  O_9 
REMARK    4  A    between atoms: O_9  and  C_10 
REMARK    5  A    between atoms: C_10  and  C_11 
REMARK       I    between atoms: C_11  and  N_12 
REMARK    6  A    between atoms: N_12  and  C_13 
REMARK    7  A    between atoms: C_13  and  C_14 
REMARK    8  A    between atoms: C_17  and  N_18 
REMARK       I    between atoms: N_18  and  C_19 
REMARK    9  A    between atoms: C_19  and  C_20 
ROOT
HETATM    1  C   UNL     1      -9.200   1.191 -31.918  1.00  0.00     0.242 C 
HETATM    2  N   UNL     1      -9.282   1.978 -30.807  1.00  0.00    -0.355 N 
HETATM    3  O   UNL     1      -9.529   0.006 -31.832  1.00  0.00    -0.271 OA
HETATM    4  H   UNL     1      -9.639   1.488 -29.997  1.00  0.00     0.162 HD
ENDROOT
BRANCH   2   5
HETATM    5  C   UNL     1      -9.135   3.417 -30.709  1.00  0.00     0.161 C 
BRANCH   5   6
HETATM    6  C   UNL     1      -7.676   3.792 -30.766  1.00  0.00    -0.040 A 
HETATM    7  C   UNL     1      -6.747   3.138 -29.947  1.00  0.00     0.011 A 
HETATM    8  C   UNL     1      -5.402   3.526 -29.934  1.00  0.00     0.030 A 
HETATM    9  C   UNL     1      -4.962   4.578 -30.737  1.00  0.00     0.035 A 
HETATM   10  C   UNL     1      -5.883   5.218 -31.574  1.00  0.00     0.030 A 
HETATM   11  C   UNL     1      -7.229   4.832 -31.589  1.00  0.00     0.011 A 
BRANCH   9  12
HETATM   12  N   UNL     1      -3.641   5.063 -30.742  1.00  0.00    -0.321 N 
HETATM   13  C   UNL     1      -2.589   4.682 -31.555  1.00  0.00     0.279 C 
HETATM   14  O   UNL     1      -2.655   3.881 -32.481  1.00  0.00    -0.265 OA
HETATM   15  H   UNL     1      -3.399   5.750 -30.036  1.00  0.00     0.169 HD
BRANCH  13  16
HETATM   16  C   UNL     1      -1.341   5.334 -31.193  1.00  0.00     0.142 A 
HETATM   17  O   UNL     1      -0.202   4.580 -31.043  1.00  0.00    -0.317 OA
HETATM   18  C   UNL     1       0.803   5.436 -30.727  1.00  0.00     0.143 A 
HETATM   19  C   UNL     1       0.339   6.729 -30.667  1.00  0.00     0.027 A 
HETATM   20  C   UNL     1      -1.043   6.664 -30.965  1.00  0.00     0.045 A 
ENDBRANCH  13  16
ENDBRANCH   9  12
ENDBRANCH   5   6
ENDBRANCH   2   5
BRANCH   1  21
HETATM   21  C   UNL     1      -8.731   1.796 -33.236  1.00  0.00     0.278 C 
BRANCH  21  22
HETATM   22  O   UNL     1      -7.329   1.602 -33.357  1.00  0.00    -0.339 OA
BRANCH  22  23
HETATM   23  C   UNL     1      -6.894   0.349 -33.703  1.00  0.00     0.102 A 
HETATM   24  C   UNL     1      -5.800  -0.151 -32.970  1.00  0.00     0.102 A 
HETATM   25  C   UNL     1      -5.261  -1.407 -33.278  1.00  0.00     0.054 A 
HETATM   26  C   UNL     1      -5.820  -2.177 -34.304  1.00  0.00     0.012 A 
HETATM   27  C   UNL     1      -6.919  -1.684 -35.017  1.00  0.00     0.018 A 
HETATM   28  C   UNL     1      -7.450  -0.424 -34.722  1.00  0.00     0.040 A 
BRANCH  24  29
HETATM   29  O   UNL     1      -5.292   0.671 -31.994  1.00  0.00    -0.353 OA
HETATM   30  C   UNL     1      -3.874   0.759 -31.918  1.00  0.00     0.210 C 
ENDBRANCH  24  29
BRANCH  26  31
HETATM   31  C   UNL     1      -5.276  -3.516 -34.679  1.00  0.00     0.155 C 
HETATM   32  C   UNL     1      -6.175  -4.505 -35.374  1.00  0.00     0.096 C 
HETATM   33  O   UNL     1      -4.107  -3.794 -34.419  1.00  0.00    -0.293 OA
ENDBRANCH  26  31
ENDBRANCH  22  23
ENDBRANCH  21  22
ENDBRANCH   1  21
TORSDOF 9
ENDMDL
MODEL 4
REMARK VINA RESULT:      -8.2      2.709      6.651
REMARK  9 active torsions:
REMARK  status: ('A' for Active; 'I' for Inactive)
REMARK    1  A    between atoms: C_2  and  C_3 
REMARK    2  A    between atoms: C_5  and  O_6 
REMARK    3  A    between atoms: C_8  and  O_9 
REMARK    4  A    between atoms: O_9  and  C_10 
REMARK    5  A    between atoms: C_10  and  C_11 
REMARK       I    between atoms: C_11  and  N_12 
REMARK    6  A    between atoms: N_12  and  C_13 
REMARK    7  A    between atoms: C_13  and  C_14 
REMARK    8  A    between atoms: C_17  and  N_18 
REMARK       I    between atoms: N_18  and  C_19 
REMARK    9  A    between atoms: C_19  and  C_20 
ROOT
HETATM    1  C   UNL     1      -9.816   5.237 -34.538  1.00  0.00     0.242 C 
HETATM    2  N   UNL     1     -10.310   3.970 -34.639  1.00  0.00    -0.355 N 
HETATM    3  O   UNL     1      -9.743   5.929 -35.556  1.00  0.00    -0.271 OA
HETATM    4  H   UNL     1     -10.597   3.727 -35.578  1.00  0.00     0.162 HD
ENDROOT
BRANCH   2   5
HETATM    5  C   UNL     1     -10.662   3.053 -33.573  1.00  0.00     0.161 C 
BRANCH   5   6
HETATM    6  C   UNL     1      -9.827   1.801 -33.672  1.00  0.00    -0.040 A 
HETATM    7  C   UNL     1      -9.904   0.821 -32.674  1.00  0.00     0.011 A 
HETATM    8  C   UNL     1      -9.081  -0.310 -32.713  1.00  0.00     0.030 A 
HETATM    9  C   UNL     1      -8.163  -0.482 -33.749  1.00  0.00     0.035 A 
HETATM   10  C   UNL     1      -8.100   0.484 -34.760  1.00  0.00     0.030 A 
HETATM   11  C   UNL     1      -8.921   1.617 -34.723  1.00  0.00     0.011 A 
BRANCH   9  12
HETATM   12  N   UNL     1      -7.264  -1.561 -33.833  1.00  0.00    -0.321 N 
HETATM   13  C   UNL     1      -5.895  -1.526 -34.027  1.00  0.00     0.279 C 
HETATM   14  O   UNL     1      -5.208  -0.512 -34.091  1.00  0.00    -0.265 OA
HETATM   15  H   UNL     1      -7.659  -2.495 -33.792  1.00  0.00     0.169 HD
BRANCH  13  16
HETATM   16  C   UNL     1      -5.318  -2.853 -34.165  1.00  0.00     0.142 A 
HETATM   17  O   UNL     1      -4.064  -3.102 -33.662  1.00  0.00    -0.317 OA
HETATM   18  C   UNL     1      -3.787  -4.408 -33.911  1.00  0.00     0.143 A 
HETATM   19  C   UNL     1      -4.835  -5.009 -34.565  1.00  0.00     0.027 A 
HETATM   20  C   UNL     1      -5.821  -4.009 -34.732  1.00  0.00     0.045 A 
ENDBRANCH  13  16
ENDBRANCH   9  12
ENDBRANCH   5   6
ENDBRANCH   2   5
BRANCH   1  21
HETATM   21  C   UNL     1      -9.391   5.773 -33.177  1.00  0.00     0.278 C 
BRANCH  21  22
HETATM   22  O   UNL     1      -7.977   5.676 -33.065  1.00  0.00    -0.339 OA
BRANCH  22  23
HETATM   23  C   UNL     1      -7.468   4.536 -32.499  1.00  0.00     0.102 A 
HETATM   24  C   UNL     1      -6.445   3.890 -33.221  1.00  0.00     0.102 A 
HETATM   25  C   UNL     1      -5.891   2.697 -32.742  1.00  0.00     0.054 A 
HETATM   26  C   UNL     1      -6.340   2.150 -31.534  1.00  0.00     0.012 A 
HETATM   27  C   UNL     1      -7.344   2.806 -30.811  1.00  0.00     0.018 A 
HETATM   28  C   UNL     1      -7.910   3.989 -31.294  1.00  0.00     0.040 A 
BRANCH  24  29
HETATM   29  O   UNL     1      -6.073   4.474 -34.408  1.00  0.00    -0.353 OA
HETATM   30  C   UNL     1      -4.717   4.891 -34.509  1.00  0.00     0.210 C 
ENDBRANCH  24  29
BRANCH  26  31
HETATM   31  C   UNL     1      -5.790   0.875 -30.985  1.00  0.00     0.155 C 
HETATM   32  C   UNL     1      -4.299   0.662 -30.978  1.00  0.00     0.096 C 
HETATM   33  O   UNL     1      -6.557   0.019 -30.548  1.00  0.00    -0.293 OA
ENDBRANCH  26  31
ENDBRANCH  22  23
ENDBRANCH  21  22
ENDBRANCH   1  21
TORSDOF 9
ENDMDL
MODEL 5
REMARK VINA RESULT:      -8.2      3.595      8.261
REMARK  9 active torsions:
REMARK  status: ('A' for Active; 'I' for Inactive)
REMARK    1  A    between atoms: C_2  and  C_3 
REMARK    2  A    between atoms: C_5  and  O_6 
REMARK    3  A    between atoms: C_8  and  O_9 
REMARK    4  A    between atoms: O_9  and  C_10 
REMARK    5  A    between atoms: C_10  and  C_11 
REMARK       I    between atoms: C_11  and  N_12 
REMARK    6  A    between atoms: N_12  and  C_13 
REMARK    7  A    between atoms: C_13  and  C_14 
REMARK    8  A    between atoms: C_17  and  N_18 
REMARK       I    between atoms: N_18  and  C_19 
REMARK    9  A    between atoms: C_19  and  C_20 
ROOT
HETATM    1  C   UNL     1      -7.565   2.793 -33.748  1.00  0.00     0.242 C 
HETATM    2  N   UNL     1      -6.831   3.937 -33.627  1.00  0.00    -0.355 N 
HETATM    3  O   UNL     1      -8.695   2.758 -33.256  1.00  0.00    -0.271 OA
HETATM    4  H   UNL     1      -7.322   4.676 -33.141  1.00  0.00     0.162 HD
ENDROOT
BRANCH   2   5
HETATM    5  C   UNL     1      -5.578   4.276 -34.273  1.00  0.00     0.161 C 
BRANCH   5   6
HETATM    6  C   UNL     1      -4.564   4.703 -33.242  1.00  0.00    -0.040 A 
HETATM    7  C   UNL     1      -4.845   4.562 -31.876  1.00  0.00     0.011 A 
HETATM    8  C   UNL     1      -3.946   5.023 -30.908  1.00  0.00     0.030 A 
HETATM    9  C   UNL     1      -2.752   5.637 -31.285  1.00  0.00     0.035 A 
HETATM   10  C   UNL     1      -2.458   5.758 -32.648  1.00  0.00     0.030 A 
HETATM   11  C   UNL     1      -3.356   5.298 -33.620  1.00  0.00     0.011 A 
BRANCH   9  12
HETATM   12  N   UNL     1      -1.822   6.174 -30.376  1.00  0.00    -0.321 N 
HETATM   13  C   UNL     1      -0.601   5.653 -29.987  1.00  0.00     0.279 C 
HETATM   14  O   UNL     1      -0.081   4.638 -30.438  1.00  0.00    -0.265 OA
HETATM   15  H   UNL     1      -2.084   7.031 -29.900  1.00  0.00     0.169 HD
BRANCH  13  16
HETATM   16  C   UNL     1       0.034   6.442 -28.944  1.00  0.00     0.142 A 
HETATM   17  O   UNL     1      -0.045   6.025 -27.637  1.00  0.00    -0.317 OA
HETATM   18  C   UNL     1       0.641   6.926 -26.889  1.00  0.00     0.143 A 
HETATM   19  C   UNL     1       1.162   7.919 -27.684  1.00  0.00     0.027 A 
HETATM   20  C   UNL     1       0.770   7.610 -29.008  1.00  0.00     0.045 A 
ENDBRANCH  13  16
ENDBRANCH   9  12
ENDBRANCH   5   6
ENDBRANCH   2   5
BRANCH   1  21
HETATM   21  C   UNL     1      -6.985   1.604 -34.504  1.00  0.00     0.278 C 
BRANCH  21  22
HETATM   22  O   UNL     1      -5.973   1.002 -33.708  1.00  0.00    -0.339 OA
BRANCH  22  23
HETATM   23  C   UNL     1      -5.747  -0.338 -33.886  1.00  0.00     0.102 A 
HETATM   24  C   UNL     1      -4.565  -0.848 -33.312  1.00  0.00     0.102 A 
HETATM   25  C   UNL     1      -4.229  -2.198 -33.476  1.00  0.00     0.054 A 
HETATM   26  C   UNL     1      -5.075  -3.050 -34.196  1.00  0.00     0.012 A 
HETATM   27  C   UNL     1      -6.258  -2.542 -34.748  1.00  0.00     0.018 A 
HETATM   28  C   UNL     1      -6.589  -1.191 -34.599  1.00  0.00     0.040 A 
BRANCH  24  29
HETATM   29  O   UNL     1      -3.774   0.052 -32.640  1.00  0.00    -0.353 OA
HETATM   30  C   UNL     1      -3.600  -0.177 -31.248  1.00  0.00     0.210 C 
ENDBRANCH  24  29
BRANCH  26  31
HETATM   31  C   UNL     1      -4.757  -4.493 -34.409  1.00  0.00     0.155 C 
HETATM   32  C   UNL     1      -3.442  -5.035 -33.914  1.00  0.00     0.096 C 
HETATM   33  O   UNL     1      -5.568  -5.218 -34.981  1.00  0.00    -0.293 OA
ENDBRANCH  26  31
ENDBRANCH  22  23
ENDBRANCH  21  22
ENDBRANCH   1  21
TORSDOF 9
ENDMDL
MODEL 6
REMARK VINA RESULT:      -8.0      2.772      7.315
REMARK  9 active torsions:
REMARK  status: ('A' for Active; 'I' for Inactive)
REMARK    1  A    between atoms: C_2  and  C_3 
REMARK    2  A    between atoms: C_5  and  O_6 
REMARK    3  A    between atoms: C_8  and  O_9 
REMARK    4  A    between atoms: O_9  and  C_10 
REMARK    5  A    between atoms: C_10  and  C_11 
REMARK       I    between atoms: C_11  and  N_12 
REMARK    6  A    between atoms: N_12  and  C_13 
REMARK    7  A    between atoms: C_13  and  C_14 
REMARK    8  A    between atoms: C_17  and  N_18 
REMARK       I    between atoms: N_18  and  C_19 
REMARK    9  A    between atoms: C_19  and  C_20 
ROOT
HETATM    1  C   UNL     1      -8.694   0.932 -33.316  1.00  0.00     0.242 C 
HETATM    2  N   UNL     1      -8.741   2.227 -32.890  1.00  0.00    -0.355 N 
HETATM    3  O   UNL     1      -9.085   0.042 -32.557  1.00  0.00    -0.271 OA
HETATM    4  H   UNL     1      -9.129   2.326 -31.960  1.00  0.00     0.162 HD
ENDROOT
BRANCH   2   5
HETATM    5  C   UNL     1      -8.519   3.436 -33.656  1.00  0.00     0.161 C 
BRANCH   5   6
HETATM    6  C   UNL     1      -7.217   4.077 -33.246  1.00  0.00    -0.040 A 
HETATM    7  C   UNL     1      -6.146   4.138 -34.147  1.00  0.00     0.011 A 
HETATM    8  C   UNL     1      -4.908   4.661 -33.756  1.00  0.00     0.030 A 
HETATM    9  C   UNL     1      -4.716   5.129 -32.456  1.00  0.00     0.035 A 
HETATM   10  C   UNL     1      -5.791   5.091 -31.561  1.00  0.00     0.030 A 
HETATM   11  C   UNL     1      -7.030   4.568 -31.948  1.00  0.00     0.011 A 
BRANCH   9  12
HETATM   12  N   UNL     1      -3.490   5.619 -31.970  1.00  0.00    -0.321 N 
HETATM   13  C   UNL     1      -2.381   4.902 -31.559  1.00  0.00     0.279 C 
HETATM   14  O   UNL     1      -2.255   3.684 -31.618  1.00  0.00    -0.265 OA
HETATM   15  H   UNL     1      -3.407   6.624 -31.857  1.00  0.00     0.169 HD
BRANCH  13  16
HETATM   16  C   UNL     1      -1.336   5.756 -31.017  1.00  0.00     0.142 A 
HETATM   17  O   UNL     1      -1.667   6.751 -30.130  1.00  0.00    -0.317 OA
HETATM   18  C   UNL     1      -0.512   7.371 -29.777  1.00  0.00     0.143 A 
HETATM   19  C   UNL     1       0.561   6.798 -30.419  1.00  0.00     0.027 A 
HETATM   20  C   UNL     1       0.032   5.759 -31.219  1.00  0.00     0.045 A 
ENDBRANCH  13  16
ENDBRANCH   9  12
ENDBRANCH   5   6
ENDBRANCH   2   5
BRANCH   1  21
HETATM   21  C   UNL     1      -8.186   0.620 -34.718  1.00  0.00     0.278 C 
BRANCH  21  22
HETATM   22  O   UNL     1      -6.769   0.733 -34.729  1.00  0.00    -0.339 OA
BRANCH  22  23
HETATM   23  C   UNL     1      -6.047  -0.358 -34.318  1.00  0.00     0.102 A 
HETATM   24  C   UNL     1      -5.084  -0.122 -33.318  1.00  0.00     0.102 A 
HETATM   25  C   UNL     1      -4.271  -1.167 -32.863  1.00  0.00     0.054 A 
HETATM   26  C   UNL     1      -4.425  -2.455 -33.388  1.00  0.00     0.012 A 
HETATM   27  C   UNL     1      -5.397  -2.689 -34.369  1.00  0.00     0.018 A 
HETATM   28  C   UNL     1      -6.200  -1.644 -34.837  1.00  0.00     0.040 A 
BRANCH  24  29
HETATM   29  O   UNL     1      -4.975   1.172 -32.867  1.00  0.00    -0.353 OA
HETATM   30  C   UNL     1      -5.254   1.385 -31.489  1.00  0.00     0.210 C 
ENDBRANCH  24  29
BRANCH  26  31
HETATM   31  C   UNL     1      -3.576  -3.601 -32.946  1.00  0.00     0.155 C 
HETATM   32  C   UNL     1      -3.511  -4.839 -33.802  1.00  0.00     0.096 C 
HETATM   33  O   UNL     1      -2.944  -3.521 -31.895  1.00  0.00    -0.293 OA
ENDBRANCH  26  31
ENDBRANCH  22  23
ENDBRANCH  21  22
ENDBRANCH   1  21
TORSDOF 9
ENDMDL
MODEL 7
REMARK VINA RESULT:      -8.0      4.188      8.559
REMARK  9 active torsions:
REMARK  status: ('A' for Active; 'I' for Inactive)
REMARK    1  A    between atoms: C_2  and  C_3 
REMARK    2  A    between atoms: C_5  and  O_6 
REMARK    3  A    between atoms: C_8  and  O_9 
REMARK    4  A    between atoms: O_9  and  C_10 
REMARK    5  A    between atoms: C_10  and  C_11 
REMARK       I    between atoms: C_11  and  N_12 
REMARK    6  A    between atoms: N_12  and  C_13 
REMARK    7  A    between atoms: C_13  and  C_14 
REMARK    8  A    between atoms: C_17  and  N_18 
REMARK       I    between atoms: N_18  and  C_19 
REMARK    9  A    between atoms: C_19  and  C_20 
ROOT
HETATM    1  C   UNL     1      -2.894   5.862 -33.605  1.00  0.00     0.242 C 
HETATM    2  N   UNL     1      -4.114   5.702 -33.015  1.00  0.00    -0.355 N 
HETATM    3  O   UNL     1      -2.787   6.662 -34.537  1.00  0.00    -0.271 OA
HETATM    4  H   UNL     1      -4.829   6.298 -33.411  1.00  0.00     0.162 HD
ENDROOT
BRANCH   2   5
HETATM    5  C   UNL     1      -4.440   4.977 -31.803  1.00  0.00     0.161 C 
BRANCH   5   6
HETATM    6  C   UNL     1      -4.795   3.550 -32.135  1.00  0.00    -0.040 A 
HETATM    7  C   UNL     1      -4.152   2.492 -31.479  1.00  0.00     0.011 A 
HETATM    8  C   UNL     1      -4.416   1.163 -31.829  1.00  0.00     0.030 A 
HETATM    9  C   UNL     1      -5.325   0.866 -32.844  1.00  0.00     0.035 A 
HETATM   10  C   UNL     1      -5.987   1.920 -33.485  1.00  0.00     0.030 A 
HETATM   11  C   UNL     1      -5.724   3.250 -33.138  1.00  0.00     0.011 A 
BRANCH   9  12
HETATM   12  N   UNL     1      -5.606  -0.438 -33.291  1.00  0.00    -0.321 N 
HETATM   13  C   UNL     1      -4.719  -1.407 -33.727  1.00  0.00     0.279 C 
HETATM   14  O   UNL     1      -3.497  -1.307 -33.729  1.00  0.00    -0.265 OA
HETATM   15  H   UNL     1      -6.583  -0.706 -33.352  1.00  0.00     0.169 HD
BRANCH  13  16
HETATM   16  C   UNL     1      -5.392  -2.600 -34.213  1.00  0.00     0.142 A 
HETATM   17  O   UNL     1      -4.705  -3.788 -34.273  1.00  0.00    -0.317 OA
HETATM   18  C   UNL     1      -5.569  -4.725 -34.739  1.00  0.00     0.143 A 
HETATM   19  C   UNL     1      -6.802  -4.168 -34.984  1.00  0.00     0.027 A 
HETATM   20  C   UNL     1      -6.689  -2.799 -34.647  1.00  0.00     0.045 A 
ENDBRANCH  13  16
ENDBRANCH   9  12
ENDBRANCH   5   6
ENDBRANCH   2   5
BRANCH   1  21
HETATM   21  C   UNL     1      -1.699   5.074 -33.086  1.00  0.00     0.278 C 
BRANCH  21  22
HETATM   22  O   UNL     1      -0.673   5.986 -32.715  1.00  0.00    -0.339 OA
BRANCH  22  23
HETATM   23  C   UNL     1      -0.400   6.115 -31.378  1.00  0.00     0.102 A 
HETATM   24  C   UNL     1      -0.862   7.296 -30.764  1.00  0.00     0.102 A 
HETATM   25  C   UNL     1      -0.596   7.535 -29.410  1.00  0.00     0.054 A 
HETATM   26  C   UNL     1       0.117   6.594 -28.657  1.00  0.00     0.012 A 
HETATM   27  C   UNL     1       0.558   5.414 -29.269  1.00  0.00     0.018 A 
HETATM   28  C   UNL     1       0.307   5.178 -30.624  1.00  0.00     0.040 A 
BRANCH  24  29
HETATM   29  O   UNL     1      -1.533   8.182 -31.571  1.00  0.00    -0.353 OA
HETATM   30  C   UNL     1      -2.807   8.616 -31.110  1.00  0.00     0.210 C 
ENDBRANCH  24  29
BRANCH  26  31
HETATM   31  C   UNL     1       0.436   6.806 -27.215  1.00  0.00     0.155 C 
HETATM   32  C   UNL     1       1.543   7.757 -26.841  1.00  0.00     0.096 C 
HETATM   33  O   UNL     1      -0.204   6.207 -26.354  1.00  0.00    -0.293 OA
ENDBRANCH  26  31
ENDBRANCH  22  23
ENDBRANCH  21  22
ENDBRANCH   1  21
TORSDOF 9
ENDMDL
MODEL 8
REMARK VINA RESULT:      -7.9      4.693      9.098
REMARK  9 active torsions:
REMARK  status: ('A' for Active; 'I' for Inactive)
REMARK    1  A    between atoms: C_2  and  C_3 
REMARK    2  A    between atoms: C_5  and  O_6 
REMARK    3  A    between atoms: C_8  and  O_9 
REMARK    4  A    between atoms: O_9  and  C_10 
REMARK    5  A    between atoms: C_10  and  C_11 
REMARK       I    between atoms: C_11  and  N_12 
REMARK    6  A    between atoms: N_12  and  C_13 
REMARK    7  A    between atoms: C_13  and  C_14 
REMARK    8  A    between atoms: C_17  and  N_18 
REMARK       I    between atoms: N_18  and  C_19 
REMARK    9  A    between atoms: C_19  and  C_20 
ROOT
HETATM    1  C   UNL     1      -5.495   4.592 -34.105  1.00  0.00     0.242 C 
HETATM    2  N   UNL     1      -4.526   5.386 -34.645  1.00  0.00    -0.355 N 
HETATM    3  O   UNL     1      -6.672   4.951 -34.191  1.00  0.00    -0.271 OA
HETATM    4  H   UNL     1      -4.894   6.214 -35.096  1.00  0.00     0.162 HD
ENDROOT
BRANCH   2   5
HETATM    5  C   UNL     1      -3.120   5.089 -34.832  1.00  0.00     0.161 C 
BRANCH   5   6
HETATM    6  C   UNL     1      -2.318   5.633 -33.676  1.00  0.00    -0.040 A 
HETATM    7  C   UNL     1      -1.817   4.767 -32.696  1.00  0.00     0.011 A 
HETATM    8  C   UNL     1      -1.136   5.264 -31.579  1.00  0.00     0.030 A 
HETATM    9  C   UNL     1      -0.948   6.636 -31.417  1.00  0.00     0.035 A 
HETATM   10  C   UNL     1      -1.428   7.503 -32.407  1.00  0.00     0.030 A 
HETATM   11  C   UNL     1      -2.109   7.009 -33.525  1.00  0.00     0.011 A 
BRANCH   9  12
HETATM   12  N   UNL     1      -0.323   7.218 -30.299  1.00  0.00    -0.321 N 
HETATM   13  C   UNL     1      -0.858   7.461 -29.046  1.00  0.00     0.279 C 
HETATM   14  O   UNL     1      -1.979   7.135 -28.672  1.00  0.00    -0.265 OA
HETATM   15  H   UNL     1       0.628   7.549 -30.422  1.00  0.00     0.169 HD
BRANCH  13  16
HETATM   16  C   UNL     1       0.063   8.177 -28.178  1.00  0.00     0.142 A 
HETATM   17  O   UNL     1      -0.284   9.417 -27.700  1.00  0.00    -0.317 OA
HETATM   18  C   UNL     1       0.737   9.841 -26.911  1.00  0.00     0.143 A 
HETATM   19  C   UNL     1       1.739   8.900 -26.870  1.00  0.00     0.027 A 
HETATM   20  C   UNL     1       1.308   7.829 -27.687  1.00  0.00     0.045 A 
ENDBRANCH  13  16
ENDBRANCH   9  12
ENDBRANCH   5   6
ENDBRANCH   2   5
BRANCH   1  21
HETATM   21  C   UNL     1      -5.107   3.279 -33.437  1.00  0.00     0.278 C 
BRANCH  21  22
HETATM   22  O   UNL     1      -6.270   2.476 -33.289  1.00  0.00    -0.339 OA
BRANCH  22  23
HETATM   23  C   UNL     1      -6.170   1.154 -33.636  1.00  0.00     0.102 A 
HETATM   24  C   UNL     1      -5.355   0.357 -32.809  1.00  0.00     0.102 A 
HETATM   25  C   UNL     1      -5.160  -0.998 -33.107  1.00  0.00     0.054 A 
HETATM   26  C   UNL     1      -5.787  -1.568 -34.220  1.00  0.00     0.012 A 
HETATM   27  C   UNL     1      -6.611  -0.776 -35.029  1.00  0.00     0.018 A 
HETATM   28  C   UNL     1      -6.797   0.580 -34.743  1.00  0.00     0.040 A 
BRANCH  24  29
HETATM   29  O   UNL     1      -4.754   0.992 -31.749  1.00  0.00    -0.353 OA
HETATM   30  C   UNL     1      -4.810   0.320 -30.496  1.00  0.00     0.210 C 
ENDBRANCH  24  29
BRANCH  26  31
HETATM   31  C   UNL     1      -5.603  -3.003 -34.589  1.00  0.00     0.155 C 
HETATM   32  C   UNL     1      -6.810  -3.830 -34.946  1.00  0.00     0.096 C 
HETATM   33  O   UNL     1      -4.474  -3.491 -34.596  1.00  0.00    -0.293 OA
ENDBRANCH  26  31
ENDBRANCH  22  23
ENDBRANCH  21  22
ENDBRANCH   1  21
TORSDOF 9
ENDMDL
MODEL 9
REMARK VINA RESULT:      -7.5      2.553      5.186
REMARK  9 active torsions:
REMARK  status: ('A' for Active; 'I' for Inactive)
REMARK    1  A    between atoms: C_2  and  C_3 
REMARK    2  A    between atoms: C_5  and  O_6 
REMARK    3  A    between atoms: C_8  and  O_9 
REMARK    4  A    between atoms: O_9  and  C_10 
REMARK    5  A    between atoms: C_10  and  C_11 
REMARK       I    between atoms: C_11  and  N_12 
REMARK    6  A    between atoms: N_12  and  C_13 
REMARK    7  A    between atoms: C_13  and  C_14 
REMARK    8  A    between atoms: C_17  and  N_18 
REMARK       I    between atoms: N_18  and  C_19 
REMARK    9  A    between atoms: C_19  and  C_20 
ROOT
HETATM    1  C   UNL     1      -4.314   0.267 -31.891  1.00  0.00     0.242 C 
HETATM    2  N   UNL     1      -5.199  -0.373 -32.708  1.00  0.00    -0.355 N 
HETATM    3  O   UNL     1      -3.817  -0.355 -30.950  1.00  0.00    -0.271 OA
HETATM    4  H   UNL     1      -5.346  -1.342 -32.455  1.00  0.00     0.162 HD
ENDROOT
BRANCH   2   5
HETATM    5  C   UNL     1      -5.757   0.083 -33.965  1.00  0.00     0.161 C 
BRANCH   5   6
HETATM    6  C   UNL     1      -7.230   0.364 -33.805  1.00  0.00    -0.040 A 
HETATM    7  C   UNL     1      -7.810   1.469 -34.442  1.00  0.00     0.011 A 
HETATM    8  C   UNL     1      -9.159   1.786 -34.242  1.00  0.00     0.030 A 
HETATM    9  C   UNL     1      -9.951   1.007 -33.400  1.00  0.00     0.035 A 
HETATM   10  C   UNL     1      -9.380  -0.111 -32.781  1.00  0.00     0.030 A 
HETATM   11  C   UNL     1      -8.031  -0.430 -32.978  1.00  0.00     0.011 A 
BRANCH   9  12
HETATM   12  N   UNL     1     -11.298   1.289 -33.105  1.00  0.00    -0.321 N 
HETATM   13  C   UNL     1     -12.343   1.506 -33.985  1.00  0.00     0.279 C 
HETATM   14  O   UNL     1     -12.279   1.417 -35.206  1.00  0.00    -0.265 OA
HETATM   15  H   UNL     1     -11.544   1.395 -32.126  1.00  0.00     0.169 HD
BRANCH  13  16
HETATM   16  C   UNL     1     -13.575   1.875 -33.306  1.00  0.00     0.142 A 
HETATM   17  O   UNL     1     -13.589   2.973 -32.481  1.00  0.00    -0.317 OA
HETATM   18  C   UNL     1     -14.854   3.094 -32.001  1.00  0.00     0.143 A 
HETATM   19  C   UNL     1     -15.658   2.095 -32.498  1.00  0.00     0.027 A 
HETATM   20  C   UNL     1     -14.835   1.308 -33.336  1.00  0.00     0.045 A 
ENDBRANCH  13  16
ENDBRANCH   9  12
ENDBRANCH   5   6
ENDBRANCH   2   5
BRANCH   1  21
HETATM   21  C   UNL     1      -3.944   1.718 -32.173  1.00  0.00     0.278 C 
BRANCH  21  22
HETATM   22  O   UNL     1      -4.467   2.536 -31.136  1.00  0.00    -0.339 OA
BRANCH  22  23
HETATM   23  C   UNL     1      -5.787   2.897 -31.224  1.00  0.00     0.102 A 
HETATM   24  C   UNL     1      -6.072   4.006 -32.045  1.00  0.00     0.102 A 
HETATM   25  C   UNL     1      -7.387   4.473 -32.165  1.00  0.00     0.054 A 
HETATM   26  C   UNL     1      -8.426   3.828 -31.484  1.00  0.00     0.012 A 
HETATM   27  C   UNL     1      -8.140   2.714 -30.685  1.00  0.00     0.018 A 
HETATM   28  C   UNL     1      -6.826   2.255 -30.550  1.00  0.00     0.040 A 
BRANCH  24  29
HETATM   29  O   UNL     1      -4.999   4.601 -32.663  1.00  0.00    -0.353 OA
HETATM   30  C   UNL     1      -5.215   5.906 -33.185  1.00  0.00     0.210 C 
ENDBRANCH  24  29
BRANCH  26  31
HETATM   31  C   UNL     1      -9.842   4.293 -31.570  1.00  0.00     0.155 C 
HETATM   32  C   UNL     1     -10.797   3.947 -30.458  1.00  0.00     0.096 C 
HETATM   33  O   UNL     1     -10.210   4.949 -32.542  1.00  0.00    -0.293 OA
ENDBRANCH  26  31
ENDBRANCH  22  23
ENDBRANCH  21  22
ENDBRANCH   1  21
TORSDOF 9
ENDMDL
MODEL 10
REMARK VINA RESULT:      -7.5      2.869      6.172
REMARK  9 active torsions:
REMARK  status: ('A' for Active; 'I' for Inactive)
REMARK    1  A    between atoms: C_2  and  C_3 
REMARK    2  A    between atoms: C_5  and  O_6 
REMARK    3  A    between atoms: C_8  and  O_9 
REMARK    4  A    between atoms: O_9  and  C_10 
REMARK    5  A    between atoms: C_10  and  C_11 
REMARK       I    between atoms: C_11  and  N_12 
REMARK    6  A    between atoms: N_12  and  C_13 
REMARK    7  A    between atoms: C_13  and  C_14 
REMARK    8  A    between atoms: C_17  and  N_18 
REMARK       I    between atoms: N_18  and  C_19 
REMARK    9  A    between atoms: C_19  and  C_20 
ROOT
HETATM    1  C   UNL     1      -4.929   0.328 -32.154  1.00  0.00     0.242 C 
HETATM    2  N   UNL     1      -5.626  -0.521 -32.964  1.00  0.00    -0.355 N 
HETATM    3  O   UNL     1      -4.298  -0.142 -31.205  1.00  0.00    -0.271 OA
HETATM    4  H   UNL     1      -5.531  -1.492 -32.699  1.00  0.00     0.162 HD
ENDROOT
BRANCH   2   5
HETATM    5  C   UNL     1      -6.275  -0.231 -34.227  1.00  0.00     0.161 C 
BRANCH   5   6
HETATM    6  C   UNL     1      -7.717   0.143 -33.993  1.00  0.00    -0.040 A 
HETATM    7  C   UNL     1      -8.278   1.240 -34.661  1.00  0.00     0.011 A 
HETATM    8  C   UNL     1      -9.592   1.645 -34.398  1.00  0.00     0.030 A 
HETATM    9  C   UNL     1     -10.368   0.964 -33.461  1.00  0.00     0.035 A 
HETATM   10  C   UNL     1      -9.818  -0.147 -32.809  1.00  0.00     0.030 A 
HETATM   11  C   UNL     1      -8.504  -0.554 -33.070  1.00  0.00     0.011 A 
BRANCH   9  12
HETATM   12  N   UNL     1     -11.676   1.339 -33.100  1.00  0.00    -0.321 N 
HETATM   13  C   UNL     1     -12.790   1.456 -33.912  1.00  0.00     0.279 C 
HETATM   14  O   UNL     1     -12.839   1.175 -35.104  1.00  0.00    -0.265 OA
HETATM   15  H   UNL     1     -11.830   1.606 -32.133  1.00  0.00     0.169 HD
BRANCH  13  16
HETATM   16  C   UNL     1     -13.946   1.973 -33.198  1.00  0.00     0.142 A 
HETATM   17  O   UNL     1     -13.861   3.187 -32.561  1.00  0.00    -0.317 OA
HETATM   18  C   UNL     1     -15.074   3.429 -32.000  1.00  0.00     0.143 A 
HETATM   19  C   UNL     1     -15.943   2.395 -32.260  1.00  0.00     0.027 A 
HETATM   20  C   UNL     1     -15.218   1.456 -33.029  1.00  0.00     0.045 A 
ENDBRANCH  13  16
ENDBRANCH   9  12
ENDBRANCH   5   6
ENDBRANCH   2   5
BRANCH   1  21
HETATM   21  C   UNL     1      -4.927   1.822 -32.455  1.00  0.00     0.278 C 
BRANCH  21  22
HETATM   22  O   UNL     1      -4.166   2.490 -31.458  1.00  0.00    -0.339 OA
BRANCH  22  23
HETATM   23  C   UNL     1      -3.578   3.678 -31.808  1.00  0.00     0.102 A 
HETATM   24  C   UNL     1      -4.039   4.821 -31.125  1.00  0.00     0.102 A 
HETATM   25  C   UNL     1      -3.526   6.085 -31.442  1.00  0.00     0.054 A 
HETATM   26  C   UNL     1      -2.540   6.215 -32.428  1.00  0.00     0.012 A 
HETATM   27  C   UNL     1      -2.072   5.073 -33.090  1.00  0.00     0.018 A 
HETATM   28  C   UNL     1      -2.593   3.812 -32.786  1.00  0.00     0.040 A 
BRANCH  24  29
HETATM   29  O   UNL     1      -5.023   4.618 -30.188  1.00  0.00    -0.353 OA
HETATM   30  C   UNL     1      -6.298   5.177 -30.481  1.00  0.00     0.210 C 
ENDBRANCH  24  29
BRANCH  26  31
HETATM   31  C   UNL     1      -1.969   7.540 -32.811  1.00  0.00     0.155 C 
HETATM   32  C   UNL     1      -1.898   8.635 -31.779  1.00  0.00     0.096 C 
HETATM   33  O   UNL     1      -1.564   7.721 -33.958  1.00  0.00    -0.293 OA
ENDBRANCH  26  31
ENDBRANCH  22  23
ENDBRANCH  21  22
ENDBRANCH   1  21
TORSDOF 9
ENDMDL
