MODEL 1
REMARK VINA RESULT:      -9.2      0.000      0.000
REMARK  10 active torsions:
REMARK  status: ('A' for Active; 'I' for Inactive)
REMARK    1  A    between atoms: C_6  and  N_7 
REMARK    2  A    between atoms: C_6  and  C_29 
REMARK       I    between atoms: N_7  and  C_8 
REMARK    3  A    between atoms: N_7  and  C_23 
REMARK    4  A    between atoms: C_8  and  C_9 
REMARK    5  A    between atoms: C_9  and  N_10 
REMARK    6  A    between atoms: C_14  and  C_15 
REMARK    7  A    between atoms: C_23  and  C_24 
REMARK       I    between atoms: C_29  and  N_30 
REMARK    8  A    between atoms: N_30  and  C_31 
REMARK    9  A    between atoms: C_32  and  O_33 
REMARK   10  A    between atoms: C_36  and  O_37 
ROOT
HETATM    1  N   UNL     1      -6.967   4.181 -31.494  1.00  0.00    -0.326 N 
HETATM    2  C   UNL     1      -7.442   3.076 -30.767  1.00  0.00     0.239 C 
HETATM    3  O   UNL     1      -6.685   2.201 -30.354  1.00  0.00    -0.271 OA
ENDROOT
BRANCH   1   4
HETATM    4  C   UNL     1      -5.752   4.057 -32.376  1.00  0.00     0.120 C 
HETATM    5  C   UNL     1      -5.465   5.341 -33.180  1.00  0.00     0.069 C 
HETATM    6  C   UNL     1      -4.228   5.214 -34.064  1.00  0.00     0.237 C 
HETATM    7  N   UNL     1      -3.029   4.838 -33.244  1.00  0.00    -0.075 N 
HETATM    8  C   UNL     1      -1.788   4.744 -34.098  1.00  0.00     0.269 C 
HETATM    9  H   UNL     1      -2.855   5.599 -32.569  1.00  0.00     0.279 HD
HETATM   10  C   UNL     1      -3.229   3.577 -32.433  1.00  0.00     0.237 C 
HETATM   11  C   UNL     1      -4.458   3.749 -31.547  1.00  0.00     0.069 C 
BRANCH   4  12
HETATM   12  C   UNL     1      -5.964   2.774 -33.259  1.00  0.00     0.251 C 
HETATM   13  N   UNL     1      -5.462   1.590 -32.766  1.00  0.00    -0.323 N 
HETATM   14  H   UNL     1      -5.024   1.539 -31.854  1.00  0.00     0.169 HD
HETATM   15  O   UNL     1      -6.542   2.878 -34.341  1.00  0.00    -0.270 OA
BRANCH  13  16
HETATM   16  C   UNL     1      -5.531   0.318 -33.389  1.00  0.00     0.068 A 
HETATM   17  C   UNL     1      -4.360  -0.470 -33.356  1.00  0.00     0.097 A 
HETATM   18  C   UNL     1      -4.358  -1.748 -33.934  1.00  0.00     0.075 A 
HETATM   19  C   UNL     1      -5.513  -2.241 -34.546  1.00  0.00     0.070 A 
HETATM   20  C   UNL     1      -6.656  -1.447 -34.597  1.00  0.00     0.039 A 
HETATM   21  C   UNL     1      -6.671  -0.177 -34.020  1.00  0.00     0.035 A 
BRANCH  17  22
HETATM   22  O   UNL     1      -3.292   0.107 -32.702  1.00  0.00    -0.354 OA
HETATM   23  C   UNL     1      -3.001  -0.383 -31.396  1.00  0.00     0.210 C 
ENDBRANCH  17  22
BRANCH  19  24
HETATM   24  O   UNL     1      -5.652  -3.466 -35.136  1.00  0.00    -0.356 OA
HETATM   25  C   UNL     1      -6.809  -4.223 -34.807  1.00  0.00     0.210 C 
ENDBRANCH  19  24
ENDBRANCH  13  16
ENDBRANCH   4  12
ENDBRANCH   1   4
BRANCH   1  26
HETATM   26  C   UNL     1      -7.290   5.482 -30.892  1.00  0.00     0.192 C 
BRANCH  26  27
HETATM   27  C   UNL     1      -6.602   5.731 -29.606  1.00  0.00     0.070 A 
HETATM   28  O   UNL     1      -5.449   6.454 -29.718  1.00  0.00    -0.325 OA
HETATM   29  C   UNL     1      -4.934   6.589 -28.471  1.00  0.00     0.142 A 
HETATM   30  C   UNL     1      -5.743   5.965 -27.552  1.00  0.00     0.027 A 
HETATM   31  C   UNL     1      -6.819   5.406 -28.282  1.00  0.00     0.036 A 
ENDBRANCH  26  27
ENDBRANCH   1  26
BRANCH   2  32
HETATM   32  C   UNL     1      -8.983   3.021 -30.651  1.00  0.00     0.228 C 
BRANCH  32  33
HETATM   33  N   UNL     1      -9.700   3.179 -31.905  1.00  0.00    -0.347 N 
HETATM   34  C   UNL     1     -10.479   4.257 -32.311  1.00  0.00     0.171 C 
HETATM   35  S   UNL     1     -10.801   5.667 -31.508  1.00  0.00    -0.041 SA
HETATM   36  N   UNL     1     -11.010   3.955 -33.555  1.00  0.00    -0.357 N 
HETATM   37  C   UNL     1     -10.690   2.603 -33.963  1.00  0.00     0.135 C 
HETATM   38  H   UNL     1     -11.710   4.536 -33.998  1.00  0.00     0.162 HD
HETATM   39  C   UNL     1      -9.586   2.199 -32.973  1.00  0.00     0.155 C 
BRANCH  37  40
HETATM   40  C   UNL     1     -11.886   1.672 -33.906  1.00  0.00    -0.034 A 
HETATM   41  C   UNL     1     -13.142   2.135 -34.330  1.00  0.00     0.009 A 
HETATM   42  C   UNL     1     -14.253   1.287 -34.334  1.00  0.00     0.001 A 
HETATM   43  C   UNL     1     -14.125  -0.035 -33.917  1.00  0.00     0.000 A 
HETATM   44  C   UNL     1     -12.886  -0.512 -33.495  1.00  0.00     0.001 A 
HETATM   45  C   UNL     1     -11.775   0.334 -33.492  1.00  0.00     0.009 A 
ENDBRANCH  37  40
ENDBRANCH  32  33
ENDBRANCH   2  32
TORSDOF 10
ENDMDL
MODEL 2
REMARK VINA RESULT:      -9.1      2.399      6.276
REMARK  10 active torsions:
REMARK  status: ('A' for Active; 'I' for Inactive)
REMARK    1  A    between atoms: C_6  and  N_7 
REMARK    2  A    between atoms: C_6  and  C_29 
REMARK       I    between atoms: N_7  and  C_8 
REMARK    3  A    between atoms: N_7  and  C_23 
REMARK    4  A    between atoms: C_8  and  C_9 
REMARK    5  A    between atoms: C_9  and  N_10 
REMARK    6  A    between atoms: C_14  and  C_15 
REMARK    7  A    between atoms: C_23  and  C_24 
REMARK       I    between atoms: C_29  and  N_30 
REMARK    8  A    between atoms: N_30  and  C_31 
REMARK    9  A    between atoms: C_32  and  O_33 
REMARK   10  A    between atoms: C_36  and  O_37 
ROOT
HETATM    1  N   UNL     1      -5.534   3.870 -31.741  1.00  0.00    -0.326 N 
HETATM    2  C   UNL     1      -5.297   3.321 -33.012  1.00  0.00     0.239 C 
HETATM    3  O   UNL     1      -5.593   3.923 -34.040  1.00  0.00    -0.271 OA
ENDROOT
BRANCH   1   4
HETATM    4  C   UNL     1      -6.699   4.797 -31.508  1.00  0.00     0.120 C 
HETATM    5  C   UNL     1      -6.613   5.536 -30.157  1.00  0.00     0.069 C 
HETATM    6  C   UNL     1      -7.790   6.480 -29.931  1.00  0.00     0.237 C 
HETATM    7  N   UNL     1      -7.899   7.468 -31.056  1.00  0.00    -0.075 N 
HETATM    8  C   UNL     1      -9.037   8.433 -30.829  1.00  0.00     0.269 C 
HETATM    9  H   UNL     1      -7.038   8.036 -31.062  1.00  0.00     0.279 HD
HETATM   10  C   UNL     1      -8.000   6.817 -32.417  1.00  0.00     0.237 C 
HETATM   11  C   UNL     1      -6.798   5.900 -32.617  1.00  0.00     0.069 C 
BRANCH   4  12
HETATM   12  C   UNL     1      -8.003   3.938 -31.694  1.00  0.00     0.251 C 
HETATM   13  N   UNL     1      -8.433   3.735 -32.986  1.00  0.00    -0.323 N 
HETATM   14  H   UNL     1      -7.907   4.077 -33.781  1.00  0.00     0.169 HD
HETATM   15  O   UNL     1      -8.584   3.506 -30.700  1.00  0.00    -0.270 OA
BRANCH  13  16
HETATM   16  C   UNL     1      -9.579   3.003 -33.391  1.00  0.00     0.068 A 
HETATM   17  C   UNL     1     -10.635   3.742 -33.966  1.00  0.00     0.097 A 
HETATM   18  C   UNL     1     -11.792   3.085 -34.409  1.00  0.00     0.075 A 
HETATM   19  C   UNL     1     -11.903   1.699 -34.278  1.00  0.00     0.070 A 
HETATM   20  C   UNL     1     -10.867   0.980 -33.685  1.00  0.00     0.039 A 
HETATM   21  C   UNL     1      -9.709   1.623 -33.246  1.00  0.00     0.035 A 
BRANCH  17  22
HETATM   22  O   UNL     1     -10.404   5.098 -34.071  1.00  0.00    -0.354 OA
HETATM   23  C   UNL     1     -10.275   5.625 -35.389  1.00  0.00     0.210 C 
ENDBRANCH  17  22
BRANCH  19  24
HETATM   24  O   UNL     1     -12.964   0.933 -34.673  1.00  0.00    -0.356 OA
HETATM   25  C   UNL     1     -13.489   0.008 -33.731  1.00  0.00     0.210 C 
ENDBRANCH  19  24
ENDBRANCH  13  16
ENDBRANCH   4  12
ENDBRANCH   1   4
BRANCH   1  26
HETATM   26  C   UNL     1      -4.331   4.004 -30.907  1.00  0.00     0.192 C 
BRANCH  26  27
HETATM   27  C   UNL     1      -3.257   4.805 -31.535  1.00  0.00     0.070 A 
HETATM   28  O   UNL     1      -2.089   4.123 -31.727  1.00  0.00    -0.325 OA
HETATM   29  C   UNL     1      -1.209   4.983 -32.294  1.00  0.00     0.142 A 
HETATM   30  C   UNL     1      -1.793   6.213 -32.476  1.00  0.00     0.027 A 
HETATM   31  C   UNL     1      -3.116   6.102 -31.983  1.00  0.00     0.036 A 
ENDBRANCH  26  27
ENDBRANCH   1  26
BRANCH   2  32
HETATM   32  C   UNL     1      -4.750   1.875 -32.974  1.00  0.00     0.228 C 
BRANCH  32  33
HETATM   33  N   UNL     1      -5.760   0.834 -33.049  1.00  0.00    -0.347 N 
HETATM   34  C   UNL     1      -6.469   0.259 -31.999  1.00  0.00     0.171 C 
HETATM   35  S   UNL     1      -6.389   0.596 -30.383  1.00  0.00    -0.041 SA
HETATM   36  N   UNL     1      -7.289  -0.726 -32.529  1.00  0.00    -0.357 N 
HETATM   37  C   UNL     1      -7.057  -0.916 -33.945  1.00  0.00     0.135 C 
HETATM   38  H   UNL     1      -7.808  -1.368 -31.943  1.00  0.00     0.162 HD
HETATM   39  C   UNL     1      -6.231   0.324 -34.326  1.00  0.00     0.155 C 
BRANCH  37  40
HETATM   40  C   UNL     1      -6.331  -2.211 -34.256  1.00  0.00    -0.034 A 
HETATM   41  C   UNL     1      -4.937  -2.275 -34.103  1.00  0.00     0.009 A 
HETATM   42  C   UNL     1      -4.245  -3.466 -34.335  1.00  0.00     0.001 A 
HETATM   43  C   UNL     1      -4.936  -4.611 -34.720  1.00  0.00     0.000 A 
HETATM   44  C   UNL     1      -6.320  -4.568 -34.874  1.00  0.00     0.001 A 
HETATM   45  C   UNL     1      -7.012  -3.378 -34.641  1.00  0.00     0.009 A 
ENDBRANCH  37  40
ENDBRANCH  32  33
ENDBRANCH   2  32
TORSDOF 10
ENDMDL
MODEL 3
REMARK VINA RESULT:      -8.9      2.755      7.240
REMARK  10 active torsions:
REMARK  status: ('A' for Active; 'I' for Inactive)
REMARK    1  A    between atoms: C_6  and  N_7 
REMARK    2  A    between atoms: C_6  and  C_29 
REMARK       I    between atoms: N_7  and  C_8 
REMARK    3  A    between atoms: N_7  and  C_23 
REMARK    4  A    between atoms: C_8  and  C_9 
REMARK    5  A    between atoms: C_9  and  N_10 
REMARK    6  A    between atoms: C_14  and  C_15 
REMARK    7  A    between atoms: C_23  and  C_24 
REMARK       I    between atoms: C_29  and  N_30 
REMARK    8  A    between atoms: N_30  and  C_31 
REMARK    9  A    between atoms: C_32  and  O_33 
REMARK   10  A    between atoms: C_36  and  O_37 
ROOT
HETATM    1  N   UNL     1      -6.354   3.423 -31.554  1.00  0.00    -0.326 N 
HETATM    2  C   UNL     1      -5.733   4.546 -32.127  1.00  0.00     0.239 C 
HETATM    3  O   UNL     1      -6.372   5.385 -32.757  1.00  0.00    -0.271 OA
ENDROOT
BRANCH   1   4
HETATM    4  C   UNL     1      -7.573   2.808 -32.193  1.00  0.00     0.120 C 
HETATM    5  C   UNL     1      -8.869   3.104 -31.413  1.00  0.00     0.069 C 
HETATM    6  C   UNL     1     -10.101   2.488 -32.070  1.00  0.00     0.237 C 
HETATM    7  N   UNL     1     -10.233   2.955 -33.490  1.00  0.00    -0.075 N 
HETATM    8  C   UNL     1     -11.467   2.382 -34.143  1.00  0.00     0.269 C 
HETATM    9  H   UNL     1     -10.364   3.978 -33.476  1.00  0.00     0.279 HD
HETATM   10  C   UNL     1      -9.001   2.687 -34.325  1.00  0.00     0.237 C 
HETATM   11  C   UNL     1      -7.796   3.336 -33.652  1.00  0.00     0.069 C 
BRANCH   4  12
HETATM   12  C   UNL     1      -7.262   1.278 -32.376  1.00  0.00     0.251 C 
HETATM   13  N   UNL     1      -6.343   0.941 -33.345  1.00  0.00    -0.323 N 
HETATM   14  H   UNL     1      -5.852   1.649 -33.879  1.00  0.00     0.169 HD
HETATM   15  O   UNL     1      -7.852   0.458 -31.673  1.00  0.00    -0.270 OA
BRANCH  13  16
HETATM   16  C   UNL     1      -5.916  -0.367 -33.688  1.00  0.00     0.068 A 
HETATM   17  C   UNL     1      -4.640  -0.759 -33.229  1.00  0.00     0.097 A 
HETATM   18  C   UNL     1      -4.158  -2.046 -33.512  1.00  0.00     0.075 A 
HETATM   19  C   UNL     1      -4.938  -2.939 -34.251  1.00  0.00     0.070 A 
HETATM   20  C   UNL     1      -6.185  -2.534 -34.722  1.00  0.00     0.039 A 
HETATM   21  C   UNL     1      -6.677  -1.259 -34.441  1.00  0.00     0.035 A 
BRANCH  17  22
HETATM   22  O   UNL     1      -3.973   0.192 -32.487  1.00  0.00    -0.354 OA
HETATM   23  C   UNL     1      -3.697  -0.135 -31.127  1.00  0.00     0.210 C 
ENDBRANCH  17  22
BRANCH  19  24
HETATM   24  O   UNL     1      -4.598  -4.219 -34.588  1.00  0.00    -0.356 OA
HETATM   25  C   UNL     1      -3.581  -4.849 -33.822  1.00  0.00     0.210 C 
ENDBRANCH  19  24
ENDBRANCH  13  16
ENDBRANCH   4  12
ENDBRANCH   1   4
BRANCH   1  26
HETATM   26  C   UNL     1      -6.167   3.305 -30.101  1.00  0.00     0.192 C 
BRANCH  26  27
HETATM   27  C   UNL     1      -6.519   4.533 -29.354  1.00  0.00     0.070 A 
HETATM   28  O   UNL     1      -5.498   5.045 -28.605  1.00  0.00    -0.325 OA
HETATM   29  C   UNL     1      -5.971   6.149 -27.978  1.00  0.00     0.142 A 
HETATM   30  C   UNL     1      -7.286   6.362 -28.315  1.00  0.00     0.027 A 
HETATM   31  C   UNL     1      -7.644   5.317 -29.201  1.00  0.00     0.036 A 
ENDBRANCH  26  27
ENDBRANCH   1  26
BRANCH   2  32
HETATM   32  C   UNL     1      -4.194   4.548 -31.983  1.00  0.00     0.228 C 
BRANCH  32  33
HETATM   33  N   UNL     1      -3.568   5.854 -32.089  1.00  0.00    -0.347 N 
HETATM   34  C   UNL     1      -2.776   6.338 -33.125  1.00  0.00     0.171 C 
HETATM   35  S   UNL     1      -2.333   5.588 -34.531  1.00  0.00    -0.041 SA
HETATM   36  N   UNL     1      -2.355   7.613 -32.780  1.00  0.00    -0.357 N 
HETATM   37  C   UNL     1      -2.762   7.970 -31.438  1.00  0.00     0.135 C 
HETATM   38  H   UNL     1      -1.665   8.117 -33.322  1.00  0.00     0.162 HD
HETATM   39  C   UNL     1      -3.805   6.892 -31.099  1.00  0.00     0.155 C 
BRANCH  37  40
HETATM   40  C   UNL     1      -1.607   7.985 -30.456  1.00  0.00    -0.034 A 
HETATM   41  C   UNL     1      -1.704   8.758 -29.287  1.00  0.00     0.009 A 
HETATM   42  C   UNL     1      -0.677   8.756 -28.340  1.00  0.00     0.001 A 
HETATM   43  C   UNL     1       0.460   7.979 -28.545  1.00  0.00     0.000 A 
HETATM   44  C   UNL     1       0.573   7.204 -29.696  1.00  0.00     0.001 A 
HETATM   45  C   UNL     1      -0.454   7.204 -30.643  1.00  0.00     0.009 A 
ENDBRANCH  37  40
ENDBRANCH  32  33
ENDBRANCH   2  32
TORSDOF 10
ENDMDL
MODEL 4
REMARK VINA RESULT:      -8.8      3.659      7.772
REMARK  10 active torsions:
REMARK  status: ('A' for Active; 'I' for Inactive)
REMARK    1  A    between atoms: C_6  and  N_7 
REMARK    2  A    between atoms: C_6  and  C_29 
REMARK       I    between atoms: N_7  and  C_8 
REMARK    3  A    between atoms: N_7  and  C_23 
REMARK    4  A    between atoms: C_8  and  C_9 
REMARK    5  A    between atoms: C_9  and  N_10 
REMARK    6  A    between atoms: C_14  and  C_15 
REMARK    7  A    between atoms: C_23  and  C_24 
REMARK       I    between atoms: C_29  and  N_30 
REMARK    8  A    between atoms: N_30  and  C_31 
REMARK    9  A    between atoms: C_32  and  O_33 
REMARK   10  A    between atoms: C_36  and  O_37 
ROOT
HETATM    1  N   UNL     1      -5.398   5.312 -32.343  1.00  0.00    -0.326 N 
HETATM    2  C   UNL     1      -6.165   4.136 -32.286  1.00  0.00     0.239 C 
HETATM    3  O   UNL     1      -7.346   4.152 -31.950  1.00  0.00    -0.271 OA
ENDROOT
BRANCH   1   4
HETATM    4  C   UNL     1      -5.679   6.461 -31.410  1.00  0.00     0.120 C 
HETATM    5  C   UNL     1      -6.720   7.447 -31.974  1.00  0.00     0.069 C 
HETATM    6  C   UNL     1      -7.008   8.603 -31.020  1.00  0.00     0.237 C 
HETATM    7  N   UNL     1      -7.454   8.087 -29.683  1.00  0.00    -0.075 N 
HETATM    8  C   UNL     1      -7.779   9.219 -28.740  1.00  0.00     0.269 C 
HETATM    9  H   UNL     1      -8.335   7.569 -29.822  1.00  0.00     0.279 HD
HETATM   10  C   UNL     1      -6.475   7.120 -29.058  1.00  0.00     0.237 C 
HETATM   11  C   UNL     1      -6.230   5.968 -30.027  1.00  0.00     0.069 C 
BRANCH   4  12
HETATM   12  C   UNL     1      -4.289   7.113 -31.066  1.00  0.00     0.251 C 
HETATM   13  N   UNL     1      -3.497   6.445 -30.159  1.00  0.00    -0.323 N 
HETATM   14  H   UNL     1      -3.773   5.550 -29.771  1.00  0.00     0.169 HD
HETATM   15  O   UNL     1      -3.979   8.179 -31.596  1.00  0.00    -0.270 OA
BRANCH  13  16
HETATM   16  C   UNL     1      -2.217   6.846 -29.697  1.00  0.00     0.068 A 
HETATM   17  C   UNL     1      -2.163   7.462 -28.429  1.00  0.00     0.097 A 
HETATM   18  C   UNL     1      -0.930   7.867 -27.897  1.00  0.00     0.075 A 
HETATM   19  C   UNL     1       0.245   7.665 -28.624  1.00  0.00     0.070 A 
HETATM   20  C   UNL     1       0.180   7.080 -29.887  1.00  0.00     0.039 A 
HETATM   21  C   UNL     1      -1.040   6.668 -30.423  1.00  0.00     0.035 A 
BRANCH  17  22
HETATM   22  O   UNL     1      -3.380   7.583 -27.791  1.00  0.00    -0.354 OA
HETATM   23  C   UNL     1      -3.509   6.932 -26.530  1.00  0.00     0.210 C 
ENDBRANCH  17  22
BRANCH  19  24
HETATM   24  O   UNL     1       1.509   8.000 -28.225  1.00  0.00    -0.356 OA
HETATM   25  C   UNL     1       1.673   8.455 -26.889  1.00  0.00     0.210 C 
ENDBRANCH  19  24
ENDBRANCH  13  16
ENDBRANCH   4  12
ENDBRANCH   1   4
BRANCH   1  26
HETATM   26  C   UNL     1      -4.809   5.584 -33.662  1.00  0.00     0.192 C 
BRANCH  26  27
HETATM   27  C   UNL     1      -3.330   5.527 -33.678  1.00  0.00     0.070 A 
HETATM   28  O   UNL     1      -2.732   6.627 -34.223  1.00  0.00    -0.325 OA
HETATM   29  C   UNL     1      -1.393   6.423 -34.176  1.00  0.00     0.142 A 
HETATM   30  C   UNL     1      -1.116   5.205 -33.603  1.00  0.00     0.027 A 
HETATM   31  C   UNL     1      -2.366   4.622 -33.283  1.00  0.00     0.036 A 
ENDBRANCH  26  27
ENDBRANCH   1  26
BRANCH   2  32
HETATM   32  C   UNL     1      -5.355   2.849 -32.567  1.00  0.00     0.228 C 
BRANCH  32  33
HETATM   33  N   UNL     1      -6.106   1.612 -32.445  1.00  0.00    -0.347 N 
HETATM   34  C   UNL     1      -6.394   0.901 -31.284  1.00  0.00     0.171 C 
HETATM   35  S   UNL     1      -5.991   1.257 -29.721  1.00  0.00    -0.041 SA
HETATM   36  N   UNL     1      -7.090  -0.242 -31.647  1.00  0.00    -0.357 N 
HETATM   37  C   UNL     1      -7.181  -0.384 -33.085  1.00  0.00     0.135 C 
HETATM   38  H   UNL     1      -7.299  -0.978 -30.984  1.00  0.00     0.162 HD
HETATM   39  C   UNL     1      -6.759   1.004 -33.593  1.00  0.00     0.155 C 
BRANCH  37  40
HETATM   40  C   UNL     1      -6.296  -1.491 -33.624  1.00  0.00    -0.034 A 
HETATM   41  C   UNL     1      -6.855  -2.486 -34.443  1.00  0.00     0.009 A 
HETATM   42  C   UNL     1      -6.057  -3.491 -34.994  1.00  0.00     0.001 A 
HETATM   43  C   UNL     1      -4.688  -3.516 -34.739  1.00  0.00     0.000 A 
HETATM   44  C   UNL     1      -4.116  -2.536 -33.932  1.00  0.00     0.001 A 
HETATM   45  C   UNL     1      -4.912  -1.530 -33.381  1.00  0.00     0.009 A 
ENDBRANCH  37  40
ENDBRANCH  32  33
ENDBRANCH   2  32
TORSDOF 10
ENDMDL
MODEL 5
REMARK VINA RESULT:      -8.7      2.872      7.210
REMARK  10 active torsions:
REMARK  status: ('A' for Active; 'I' for Inactive)
REMARK    1  A    between atoms: C_6  and  N_7 
REMARK    2  A    between atoms: C_6  and  C_29 
REMARK       I    between atoms: N_7  and  C_8 
REMARK    3  A    between atoms: N_7  and  C_23 
REMARK    4  A    between atoms: C_8  and  C_9 
REMARK    5  A    between atoms: C_9  and  N_10 
REMARK    6  A    between atoms: C_14  and  C_15 
REMARK    7  A    between atoms: C_23  and  C_24 
REMARK       I    between atoms: C_29  and  N_30 
REMARK    8  A    between atoms: N_30  and  C_31 
REMARK    9  A    between atoms: C_32  and  O_33 
REMARK   10  A    between atoms: C_36  and  O_37 
ROOT
HETATM    1  N   UNL     1      -6.106   3.222 -31.749  1.00  0.00    -0.326 N 
HETATM    2  C   UNL     1      -5.891   2.004 -31.082  1.00  0.00     0.239 C 
HETATM    3  O   UNL     1      -4.856   1.784 -30.460  1.00  0.00    -0.271 OA
ENDROOT
BRANCH   1   4
HETATM    4  C   UNL     1      -4.951   3.996 -32.330  1.00  0.00     0.120 C 
HETATM    5  C   UNL     1      -3.646   3.176 -32.375  1.00  0.00     0.069 C 
HETATM    6  C   UNL     1      -2.483   3.961 -32.974  1.00  0.00     0.237 C 
HETATM    7  N   UNL     1      -2.831   4.458 -34.347  1.00  0.00    -0.075 N 
HETATM    8  C   UNL     1      -1.676   5.205 -34.968  1.00  0.00     0.269 C 
HETATM    9  H   UNL     1      -2.996   3.636 -34.948  1.00  0.00     0.279 HD
HETATM   10  C   UNL     1      -4.097   5.284 -34.382  1.00  0.00     0.237 C 
HETATM   11  C   UNL     1      -5.241   4.461 -33.799  1.00  0.00     0.069 C 
BRANCH   4  12
HETATM   12  C   UNL     1      -4.847   5.334 -31.511  1.00  0.00     0.251 C 
HETATM   13  N   UNL     1      -4.256   5.259 -30.270  1.00  0.00    -0.323 N 
HETATM   14  H   UNL     1      -3.860   4.394 -29.923  1.00  0.00     0.169 HD
HETATM   15  O   UNL     1      -5.303   6.370 -31.994  1.00  0.00    -0.270 OA
BRANCH  13  16
HETATM   16  C   UNL     1      -4.061   6.329 -29.360  1.00  0.00     0.068 A 
HETATM   17  C   UNL     1      -2.856   7.053 -29.478  1.00  0.00     0.097 A 
HETATM   18  C   UNL     1      -2.602   8.138 -28.625  1.00  0.00     0.075 A 
HETATM   19  C   UNL     1      -3.540   8.500 -27.656  1.00  0.00     0.070 A 
HETATM   20  C   UNL     1      -4.716   7.763 -27.528  1.00  0.00     0.039 A 
HETATM   21  C   UNL     1      -4.981   6.687 -28.375  1.00  0.00     0.035 A 
BRANCH  17  22
HETATM   22  O   UNL     1      -2.019   6.625 -30.487  1.00  0.00    -0.354 OA
HETATM   23  C   UNL     1      -0.728   6.163 -30.095  1.00  0.00     0.210 C 
ENDBRANCH  17  22
BRANCH  19  24
HETATM   24  O   UNL     1      -3.426   9.535 -26.770  1.00  0.00    -0.356 OA
HETATM   25  C   UNL     1      -2.126  10.058 -26.539  1.00  0.00     0.210 C 
ENDBRANCH  19  24
ENDBRANCH  13  16
ENDBRANCH   4  12
ENDBRANCH   1   4
BRANCH   1  26
HETATM   26  C   UNL     1      -7.310   3.945 -31.312  1.00  0.00     0.192 C 
BRANCH  26  27
HETATM   27  C   UNL     1      -8.167   4.402 -32.428  1.00  0.00     0.070 A 
HETATM   28  O   UNL     1      -8.589   3.403 -33.257  1.00  0.00    -0.325 OA
HETATM   29  C   UNL     1      -9.347   3.973 -34.225  1.00  0.00     0.142 A 
HETATM   30  C   UNL     1      -9.425   5.331 -34.031  1.00  0.00     0.027 A 
HETATM   31  C   UNL     1      -8.660   5.612 -32.873  1.00  0.00     0.036 A 
ENDBRANCH  26  27
ENDBRANCH   1  26
BRANCH   2  32
HETATM   32  C   UNL     1      -7.012   0.963 -31.308  1.00  0.00     0.228 C 
BRANCH  32  33
HETATM   33  N   UNL     1      -7.080   0.416 -32.652  1.00  0.00    -0.347 N 
HETATM   34  C   UNL     1      -8.217   0.055 -33.367  1.00  0.00     0.171 C 
HETATM   35  S   UNL     1      -9.804   0.156 -32.917  1.00  0.00    -0.041 SA
HETATM   36  N   UNL     1      -7.806  -0.466 -34.585  1.00  0.00    -0.357 N 
HETATM   37  C   UNL     1      -6.365  -0.576 -34.665  1.00  0.00     0.135 C 
HETATM   38  H   UNL     1      -8.451  -0.912 -35.225  1.00  0.00     0.162 HD
HETATM   39  C   UNL     1      -5.890   0.274 -33.475  1.00  0.00     0.155 C 
BRANCH  37  40
HETATM   40  C   UNL     1      -5.878  -2.010 -34.581  1.00  0.00    -0.034 A 
HETATM   41  C   UNL     1      -6.741  -3.055 -34.949  1.00  0.00     0.009 A 
HETATM   42  C   UNL     1      -6.307  -4.383 -34.928  1.00  0.00     0.001 A 
HETATM   43  C   UNL     1      -5.004  -4.686 -34.542  1.00  0.00     0.000 A 
HETATM   44  C   UNL     1      -4.133  -3.662 -34.177  1.00  0.00     0.001 A 
HETATM   45  C   UNL     1      -4.565  -2.335 -34.199  1.00  0.00     0.009 A 
ENDBRANCH  37  40
ENDBRANCH  32  33
ENDBRANCH   2  32
TORSDOF 10
ENDMDL
MODEL 6
REMARK VINA RESULT:      -8.5      2.540      7.242
REMARK  10 active torsions:
REMARK  status: ('A' for Active; 'I' for Inactive)
REMARK    1  A    between atoms: C_6  and  N_7 
REMARK    2  A    between atoms: C_6  and  C_29 
REMARK       I    between atoms: N_7  and  C_8 
REMARK    3  A    between atoms: N_7  and  C_23 
REMARK    4  A    between atoms: C_8  and  C_9 
REMARK    5  A    between atoms: C_9  and  N_10 
REMARK    6  A    between atoms: C_14  and  C_15 
REMARK    7  A    between atoms: C_23  and  C_24 
REMARK       I    between atoms: C_29  and  N_30 
REMARK    8  A    between atoms: N_30  and  C_31 
REMARK    9  A    between atoms: C_32  and  O_33 
REMARK   10  A    between atoms: C_36  and  O_37 
ROOT
HETATM    1  N   UNL     1      -6.886   5.218 -31.705  1.00  0.00    -0.326 N 
HETATM    2  C   UNL     1      -6.194   5.264 -30.483  1.00  0.00     0.239 C 
HETATM    3  O   UNL     1      -5.650   4.269 -30.012  1.00  0.00    -0.271 OA
ENDROOT
BRANCH   1   4
HETATM    4  C   UNL     1      -7.587   3.959 -32.145  1.00  0.00     0.120 C 
HETATM    5  C   UNL     1      -8.643   3.477 -31.130  1.00  0.00     0.069 C 
HETATM    6  C   UNL     1      -9.357   2.207 -31.586  1.00  0.00     0.237 C 
HETATM    7  N   UNL     1      -9.987   2.410 -32.933  1.00  0.00    -0.075 N 
HETATM    8  C   UNL     1     -10.729   1.174 -33.381  1.00  0.00     0.269 C 
HETATM    9  H   UNL     1     -10.697   3.153 -32.841  1.00  0.00     0.279 HD
HETATM   10  C   UNL     1      -9.009   2.872 -33.989  1.00  0.00     0.237 C 
HETATM   11  C   UNL     1      -8.333   4.153 -33.510  1.00  0.00     0.069 C 
BRANCH   4  12
HETATM   12  C   UNL     1      -6.464   2.904 -32.461  1.00  0.00     0.251 C 
HETATM   13  N   UNL     1      -6.207   1.961 -31.492  1.00  0.00    -0.323 N 
HETATM   14  H   UNL     1      -6.750   1.916 -30.638  1.00  0.00     0.169 HD
HETATM   15  O   UNL     1      -5.862   2.972 -33.532  1.00  0.00    -0.270 OA
BRANCH  13  16
HETATM   16  C   UNL     1      -5.241   0.924 -31.555  1.00  0.00     0.068 A 
HETATM   17  C   UNL     1      -5.664  -0.306 -32.104  1.00  0.00     0.097 A 
HETATM   18  C   UNL     1      -4.758  -1.371 -32.218  1.00  0.00     0.075 A 
HETATM   19  C   UNL     1      -3.439  -1.218 -31.786  1.00  0.00     0.070 A 
HETATM   20  C   UNL     1      -3.038  -0.009 -31.221  1.00  0.00     0.039 A 
HETATM   21  C   UNL     1      -3.928   1.059 -31.108  1.00  0.00     0.035 A 
BRANCH  17  22
HETATM   22  O   UNL     1      -6.978  -0.333 -32.522  1.00  0.00    -0.354 OA
HETATM   23  C   UNL     1      -7.227  -0.889 -33.811  1.00  0.00     0.210 C 
ENDBRANCH  17  22
BRANCH  19  24
HETATM   24  O   UNL     1      -2.455  -2.165 -31.846  1.00  0.00    -0.356 OA
HETATM   25  C   UNL     1      -2.839  -3.519 -31.656  1.00  0.00     0.210 C 
ENDBRANCH  19  24
ENDBRANCH  13  16
ENDBRANCH   4  12
ENDBRANCH   1   4
BRANCH   1  26
HETATM   26  C   UNL     1      -6.382   6.153 -32.720  1.00  0.00     0.192 C 
BRANCH  26  27
HETATM   27  C   UNL     1      -5.036   5.809 -33.230  1.00  0.00     0.070 A 
HETATM   28  O   UNL     1      -4.979   5.623 -34.582  1.00  0.00    -0.325 OA
HETATM   29  C   UNL     1      -3.698   5.307 -34.892  1.00  0.00     0.142 A 
HETATM   30  C   UNL     1      -2.923   5.290 -33.758  1.00  0.00     0.027 A 
HETATM   31  C   UNL     1      -3.785   5.610 -32.682  1.00  0.00     0.036 A 
ENDBRANCH  26  27
ENDBRANCH   1  26
BRANCH   2  32
HETATM   32  C   UNL     1      -6.290   6.629 -29.763  1.00  0.00     0.228 C 
BRANCH  32  33
HETATM   33  N   UNL     1      -5.040   7.361 -29.665  1.00  0.00    -0.347 N 
HETATM   34  C   UNL     1      -4.724   8.588 -30.240  1.00  0.00     0.171 C 
HETATM   35  S   UNL     1      -5.668   9.571 -31.175  1.00  0.00    -0.041 SA
HETATM   36  N   UNL     1      -3.406   8.880 -29.923  1.00  0.00    -0.357 N 
HETATM   37  C   UNL     1      -2.766   7.788 -29.220  1.00  0.00     0.135 C 
HETATM   38  H   UNL     1      -2.914   9.662 -30.335  1.00  0.00     0.162 HD
HETATM   39  C   UNL     1      -3.954   6.898 -28.817  1.00  0.00     0.155 C 
BRANCH  37  40
HETATM   40  C   UNL     1      -1.756   7.049 -30.075  1.00  0.00    -0.034 A 
HETATM   41  C   UNL     1      -1.277   7.648 -31.252  1.00  0.00     0.009 A 
HETATM   42  C   UNL     1      -0.311   7.013 -32.037  1.00  0.00     0.001 A 
HETATM   43  C   UNL     1       0.194   5.773 -31.656  1.00  0.00     0.000 A 
HETATM   44  C   UNL     1      -0.267   5.165 -30.491  1.00  0.00     0.001 A 
HETATM   45  C   UNL     1      -1.232   5.799 -29.705  1.00  0.00     0.009 A 
ENDBRANCH  37  40
ENDBRANCH  32  33
ENDBRANCH   2  32
TORSDOF 10
ENDMDL
MODEL 7
REMARK VINA RESULT:      -8.2      2.719      7.880
REMARK  10 active torsions:
REMARK  status: ('A' for Active; 'I' for Inactive)
REMARK    1  A    between atoms: C_6  and  N_7 
REMARK    2  A    between atoms: C_6  and  C_29 
REMARK       I    between atoms: N_7  and  C_8 
REMARK    3  A    between atoms: N_7  and  C_23 
REMARK    4  A    between atoms: C_8  and  C_9 
REMARK    5  A    between atoms: C_9  and  N_10 
REMARK    6  A    between atoms: C_14  and  C_15 
REMARK    7  A    between atoms: C_23  and  C_24 
REMARK       I    between atoms: C_29  and  N_30 
REMARK    8  A    between atoms: N_30  and  C_31 
REMARK    9  A    between atoms: C_32  and  O_33 
REMARK   10  A    between atoms: C_36  and  O_37 
ROOT
HETATM    1  N   UNL     1      -6.243   3.907 -31.793  1.00  0.00    -0.326 N 
HETATM    2  C   UNL     1      -5.538   4.350 -30.662  1.00  0.00     0.239 C 
HETATM    3  O   UNL     1      -4.511   3.792 -30.282  1.00  0.00    -0.271 OA
ENDROOT
BRANCH   1   4
HETATM    4  C   UNL     1      -6.246   2.450 -32.177  1.00  0.00     0.120 C 
HETATM    5  C   UNL     1      -4.915   1.997 -32.810  1.00  0.00     0.069 C 
HETATM    6  C   UNL     1      -4.920   0.518 -33.187  1.00  0.00     0.237 C 
HETATM    7  N   UNL     1      -5.242  -0.332 -31.993  1.00  0.00    -0.075 N 
HETATM    8  C   UNL     1      -5.214  -1.799 -32.341  1.00  0.00     0.269 C 
HETATM    9  H   UNL     1      -4.496  -0.189 -31.293  1.00  0.00     0.279 HD
HETATM   10  C   UNL     1      -6.544   0.046 -31.323  1.00  0.00     0.237 C 
HETATM   11  C   UNL     1      -6.494   1.520 -30.939  1.00  0.00     0.069 C 
BRANCH   4  12
HETATM   12  C   UNL     1      -7.506   2.226 -33.091  1.00  0.00     0.251 C 
HETATM   13  N   UNL     1      -8.737   2.286 -32.477  1.00  0.00    -0.323 N 
HETATM   14  H   UNL     1      -8.829   2.515 -31.494  1.00  0.00     0.169 HD
HETATM   15  O   UNL     1      -7.346   1.996 -34.289  1.00  0.00    -0.270 OA
BRANCH  13  16
HETATM   16  C   UNL     1     -10.001   2.110 -33.096  1.00  0.00     0.068 A 
HETATM   17  C   UNL     1     -10.632   3.270 -33.593  1.00  0.00     0.097 A 
HETATM   18  C   UNL     1     -11.875   3.172 -34.237  1.00  0.00     0.075 A 
HETATM   19  C   UNL     1     -12.491   1.927 -34.383  1.00  0.00     0.070 A 
HETATM   20  C   UNL     1     -11.873   0.790 -33.866  1.00  0.00     0.039 A 
HETATM   21  C   UNL     1     -10.634   0.876 -33.229  1.00  0.00     0.035 A 
BRANCH  17  22
HETATM   22  O   UNL     1      -9.920   4.438 -33.418  1.00  0.00    -0.354 OA
HETATM   23  C   UNL     1      -9.698   5.233 -34.581  1.00  0.00     0.210 C 
ENDBRANCH  17  22
BRANCH  19  24
HETATM   24  O   UNL     1     -13.690   1.686 -34.993  1.00  0.00    -0.356 OA
HETATM   25  C   UNL     1     -14.645   0.916 -34.277  1.00  0.00     0.210 C 
ENDBRANCH  19  24
ENDBRANCH  13  16
ENDBRANCH   4  12
ENDBRANCH   1   4
BRANCH   1  26
HETATM   26  C   UNL     1      -6.407   4.927 -32.839  1.00  0.00     0.192 C 
BRANCH  26  27
HETATM   27  C   UNL     1      -5.149   5.272 -33.537  1.00  0.00     0.070 A 
HETATM   28  O   UNL     1      -5.062   4.785 -34.810  1.00  0.00    -0.325 OA
HETATM   29  C   UNL     1      -3.862   5.171 -35.309  1.00  0.00     0.142 A 
HETATM   30  C   UNL     1      -3.172   5.906 -34.375  1.00  0.00     0.027 A 
HETATM   31  C   UNL     1      -3.999   5.970 -33.228  1.00  0.00     0.036 A 
ENDBRANCH  26  27
ENDBRANCH   1  26
BRANCH   2  32
HETATM   32  C   UNL     1      -6.236   5.502 -29.903  1.00  0.00     0.228 C 
BRANCH  32  33
HETATM   33  N   UNL     1      -5.389   6.644 -29.605  1.00  0.00    -0.347 N 
HETATM   34  C   UNL     1      -5.413   7.901 -30.200  1.00  0.00     0.171 C 
HETATM   35  S   UNL     1      -6.411   8.468 -31.390  1.00  0.00    -0.041 SA
HETATM   36  N   UNL     1      -4.396   8.658 -29.638  1.00  0.00    -0.357 N 
HETATM   37  C   UNL     1      -3.583   7.877 -28.729  1.00  0.00     0.135 C 
HETATM   38  H   UNL     1      -4.139   9.567 -30.000  1.00  0.00     0.162 HD
HETATM   39  C   UNL     1      -4.430   6.613 -28.512  1.00  0.00     0.155 C 
BRANCH  37  40
HETATM   40  C   UNL     1      -2.210   7.563 -29.289  1.00  0.00    -0.034 A 
HETATM   41  C   UNL     1      -2.042   7.441 -30.678  1.00  0.00     0.009 A 
HETATM   42  C   UNL     1      -0.780   7.199 -31.228  1.00  0.00     0.001 A 
HETATM   43  C   UNL     1       0.332   7.079 -30.399  1.00  0.00     0.000 A 
HETATM   44  C   UNL     1       0.185   7.200 -29.020  1.00  0.00     0.001 A 
HETATM   45  C   UNL     1      -1.075   7.443 -28.469  1.00  0.00     0.009 A 
ENDBRANCH  37  40
ENDBRANCH  32  33
ENDBRANCH   2  32
TORSDOF 10
ENDMDL
MODEL 8
REMARK VINA RESULT:      -8.2      3.658      8.137
REMARK  10 active torsions:
REMARK  status: ('A' for Active; 'I' for Inactive)
REMARK    1  A    between atoms: C_6  and  N_7 
REMARK    2  A    between atoms: C_6  and  C_29 
REMARK       I    between atoms: N_7  and  C_8 
REMARK    3  A    between atoms: N_7  and  C_23 
REMARK    4  A    between atoms: C_8  and  C_9 
REMARK    5  A    between atoms: C_9  and  N_10 
REMARK    6  A    between atoms: C_14  and  C_15 
REMARK    7  A    between atoms: C_23  and  C_24 
REMARK       I    between atoms: C_29  and  N_30 
REMARK    8  A    between atoms: N_30  and  C_31 
REMARK    9  A    between atoms: C_32  and  O_33 
REMARK   10  A    between atoms: C_36  and  O_37 
ROOT
HETATM    1  N   UNL     1      -4.636   4.849 -31.635  1.00  0.00    -0.326 N 
HETATM    2  C   UNL     1      -4.983   4.017 -32.713  1.00  0.00     0.239 C 
HETATM    3  O   UNL     1      -5.686   4.417 -33.637  1.00  0.00    -0.271 OA
ENDROOT
BRANCH   1   4
HETATM    4  C   UNL     1      -5.569   5.938 -31.172  1.00  0.00     0.120 C 
HETATM    5  C   UNL     1      -6.227   6.697 -32.341  1.00  0.00     0.069 C 
HETATM    6  C   UNL     1      -7.178   7.792 -31.867  1.00  0.00     0.237 C 
HETATM    7  N   UNL     1      -8.231   7.222 -30.961  1.00  0.00    -0.075 N 
HETATM    8  C   UNL     1      -9.202   8.286 -30.512  1.00  0.00     0.269 C 
HETATM    9  H   UNL     1      -8.783   6.542 -31.507  1.00  0.00     0.279 HD
HETATM   10  C   UNL     1      -7.661   6.470 -29.779  1.00  0.00     0.237 C 
HETATM   11  C   UNL     1      -6.735   5.372 -30.291  1.00  0.00     0.069 C 
BRANCH   4  12
HETATM   12  C   UNL     1      -4.746   6.849 -30.190  1.00  0.00     0.251 C 
HETATM   13  N   UNL     1      -4.464   6.327 -28.947  1.00  0.00    -0.323 N 
HETATM   14  H   UNL     1      -4.728   5.382 -28.696  1.00  0.00     0.169 HD
HETATM   15  O   UNL     1      -4.408   7.975 -30.556  1.00  0.00    -0.270 OA
BRANCH  13  16
HETATM   16  C   UNL     1      -3.746   6.967 -27.904  1.00  0.00     0.068 A 
HETATM   17  C   UNL     1      -4.510   7.633 -26.922  1.00  0.00     0.097 A 
HETATM   18  C   UNL     1      -3.871   8.271 -25.849  1.00  0.00     0.075 A 
HETATM   19  C   UNL     1      -2.477   8.251 -25.753  1.00  0.00     0.070 A 
HETATM   20  C   UNL     1      -1.730   7.614 -26.741  1.00  0.00     0.039 A 
HETATM   21  C   UNL     1      -2.355   6.971 -27.809  1.00  0.00     0.035 A 
BRANCH  17  22
HETATM   22  O   UNL     1      -5.875   7.562 -27.104  1.00  0.00    -0.354 OA
HETATM   23  C   UNL     1      -6.553   8.793 -27.346  1.00  0.00     0.210 C 
ENDBRANCH  17  22
BRANCH  19  24
HETATM   24  O   UNL     1      -1.729   8.821 -24.761  1.00  0.00    -0.356 OA
HETATM   25  C   UNL     1      -2.345   8.986 -23.491  1.00  0.00     0.210 C 
ENDBRANCH  19  24
ENDBRANCH  13  16
ENDBRANCH   4  12
ENDBRANCH   1   4
BRANCH   1  26
HETATM   26  C   UNL     1      -3.188   5.011 -31.440  1.00  0.00     0.192 C 
BRANCH  26  27
HETATM   27  C   UNL     1      -2.468   5.445 -32.657  1.00  0.00     0.070 A 
HETATM   28  O   UNL     1      -2.665   6.756 -32.987  1.00  0.00    -0.325 OA
HETATM   29  C   UNL     1      -1.957   6.998 -34.117  1.00  0.00     0.142 A 
HETATM   30  C   UNL     1      -1.300   5.861 -34.521  1.00  0.00     0.027 A 
HETATM   31  C   UNL     1      -1.631   4.855 -33.582  1.00  0.00     0.036 A 
ENDBRANCH  26  27
ENDBRANCH   1  26
BRANCH   2  32
HETATM   32  C   UNL     1      -4.498   2.557 -32.554  1.00  0.00     0.228 C 
BRANCH  32  33
HETATM   33  N   UNL     1      -5.549   1.555 -32.575  1.00  0.00    -0.347 N 
HETATM   34  C   UNL     1      -6.178   0.958 -31.487  1.00  0.00     0.171 C 
HETATM   35  S   UNL     1      -5.934   1.221 -29.873  1.00  0.00    -0.041 SA
HETATM   36  N   UNL     1      -7.081   0.026 -31.975  1.00  0.00    -0.357 N 
HETATM   37  C   UNL     1      -6.991  -0.109 -33.414  1.00  0.00     0.135 C 
HETATM   38  H   UNL     1      -7.566  -0.623 -31.369  1.00  0.00     0.162 HD
HETATM   39  C   UNL     1      -6.158   1.118 -33.821  1.00  0.00     0.155 C 
BRANCH  37  40
HETATM   40  C   UNL     1      -6.347  -1.413 -33.844  1.00  0.00    -0.034 A 
HETATM   41  C   UNL     1      -7.150  -2.442 -34.361  1.00  0.00     0.009 A 
HETATM   42  C   UNL     1      -6.582  -3.637 -34.810  1.00  0.00     0.001 A 
HETATM   43  C   UNL     1      -5.203  -3.819 -34.752  1.00  0.00     0.000 A 
HETATM   44  C   UNL     1      -4.390  -2.809 -34.246  1.00  0.00     0.001 A 
HETATM   45  C   UNL     1      -4.957  -1.613 -33.798  1.00  0.00     0.009 A 
ENDBRANCH  37  40
ENDBRANCH  32  33
ENDBRANCH   2  32
TORSDOF 10
ENDMDL
MODEL 9
REMARK VINA RESULT:      -8.1      3.503      8.294
REMARK  10 active torsions:
REMARK  status: ('A' for Active; 'I' for Inactive)
REMARK    1  A    between atoms: C_6  and  N_7 
REMARK    2  A    between atoms: C_6  and  C_29 
REMARK       I    between atoms: N_7  and  C_8 
REMARK    3  A    between atoms: N_7  and  C_23 
REMARK    4  A    between atoms: C_8  and  C_9 
REMARK    5  A    between atoms: C_9  and  N_10 
REMARK    6  A    between atoms: C_14  and  C_15 
REMARK    7  A    between atoms: C_23  and  C_24 
REMARK       I    between atoms: C_29  and  N_30 
REMARK    8  A    between atoms: N_30  and  C_31 
REMARK    9  A    between atoms: C_32  and  O_33 
REMARK   10  A    between atoms: C_36  and  O_37 
ROOT
HETATM    1  N   UNL     1      -9.843   3.086 -32.629  1.00  0.00    -0.326 N 
HETATM    2  C   UNL     1      -8.950   2.001 -32.642  1.00  0.00     0.239 C 
HETATM    3  O   UNL     1      -9.063   1.083 -33.449  1.00  0.00    -0.271 OA
ENDROOT
BRANCH   1   4
HETATM    4  C   UNL     1     -11.280   2.906 -33.045  1.00  0.00     0.120 C 
HETATM    5  C   UNL     1     -11.653   1.429 -33.277  1.00  0.00     0.069 C 
HETATM    6  C   UNL     1     -13.112   1.252 -33.688  1.00  0.00     0.237 C 
HETATM    7  N   UNL     1     -14.027   1.863 -32.668  1.00  0.00    -0.075 N 
HETATM    8  C   UNL     1     -15.475   1.663 -33.042  1.00  0.00     0.269 C 
HETATM    9  H   UNL     1     -13.889   1.359 -31.778  1.00  0.00     0.279 HD
HETATM   10  C   UNL     1     -13.730   3.320 -32.394  1.00  0.00     0.237 C 
HETATM   11  C   UNL     1     -12.273   3.455 -31.964  1.00  0.00     0.069 C 
BRANCH   4  12
HETATM   12  C   UNL     1     -11.508   3.836 -34.292  1.00  0.00     0.251 C 
HETATM   13  N   UNL     1     -12.024   5.089 -34.047  1.00  0.00    -0.323 N 
HETATM   14  H   UNL     1     -12.200   5.415 -33.104  1.00  0.00     0.169 HD
HETATM   15  O   UNL     1     -11.238   3.411 -35.415  1.00  0.00    -0.270 OA
BRANCH  13  16
HETATM   16  C   UNL     1     -12.317   6.087 -35.012  1.00  0.00     0.068 A 
HETATM   17  C   UNL     1     -11.410   7.163 -35.108  1.00  0.00     0.097 A 
HETATM   18  C   UNL     1     -11.622   8.178 -36.054  1.00  0.00     0.075 A 
HETATM   19  C   UNL     1     -12.734   8.126 -36.897  1.00  0.00     0.070 A 
HETATM   20  C   UNL     1     -13.639   7.073 -36.777  1.00  0.00     0.039 A 
HETATM   21  C   UNL     1     -13.434   6.056 -35.845  1.00  0.00     0.035 A 
BRANCH  17  22
HETATM   22  O   UNL     1     -10.336   7.095 -34.246  1.00  0.00    -0.354 OA
HETATM   23  C   UNL     1     -10.162   8.192 -33.352  1.00  0.00     0.210 C 
ENDBRANCH  17  22
BRANCH  19  24
HETATM   24  O   UNL     1     -13.056   9.037 -37.864  1.00  0.00    -0.356 OA
HETATM   25  C   UNL     1     -12.568   8.797 -39.177  1.00  0.00     0.210 C 
ENDBRANCH  19  24
ENDBRANCH  13  16
ENDBRANCH   4  12
ENDBRANCH   1   4
BRANCH   1  26
HETATM   26  C   UNL     1      -9.201   4.397 -32.805  1.00  0.00     0.192 C 
BRANCH  26  27
HETATM   27  C   UNL     1      -9.021   5.147 -31.542  1.00  0.00     0.070 A 
HETATM   28  O   UNL     1      -7.985   6.037 -31.562  1.00  0.00    -0.325 OA
HETATM   29  C   UNL     1      -7.941   6.631 -30.345  1.00  0.00     0.142 A 
HETATM   30  C   UNL     1      -8.939   6.140 -29.538  1.00  0.00     0.027 A 
HETATM   31  C   UNL     1      -9.637   5.178 -30.307  1.00  0.00     0.036 A 
ENDBRANCH  26  27
ENDBRANCH   1  26
BRANCH   2  32
HETATM   32  C   UNL     1      -7.917   2.029 -31.492  1.00  0.00     0.228 C 
BRANCH  32  33
HETATM   33  N   UNL     1      -6.635   1.422 -31.803  1.00  0.00    -0.347 N 
HETATM   34  C   UNL     1      -5.589   1.970 -32.538  1.00  0.00     0.171 C 
HETATM   35  S   UNL     1      -5.486   3.459 -33.249  1.00  0.00    -0.041 SA
HETATM   36  N   UNL     1      -4.584   1.018 -32.623  1.00  0.00    -0.357 N 
HETATM   37  C   UNL     1      -4.988  -0.245 -32.042  1.00  0.00     0.135 C 
HETATM   38  H   UNL     1      -3.773   1.142 -33.216  1.00  0.00     0.162 HD
HETATM   39  C   UNL     1      -6.255   0.130 -31.256  1.00  0.00     0.155 C 
BRANCH  37  40
HETATM   40  C   UNL     1      -5.250  -1.316 -33.084  1.00  0.00    -0.034 A 
HETATM   41  C   UNL     1      -6.530  -1.430 -33.650  1.00  0.00     0.009 A 
HETATM   42  C   UNL     1      -6.790  -2.374 -34.646  1.00  0.00     0.001 A 
HETATM   43  C   UNL     1      -5.776  -3.217 -35.092  1.00  0.00     0.000 A 
HETATM   44  C   UNL     1      -4.500  -3.117 -34.544  1.00  0.00     0.001 A 
HETATM   45  C   UNL     1      -4.238  -2.172 -33.550  1.00  0.00     0.009 A 
ENDBRANCH  37  40
ENDBRANCH  32  33
ENDBRANCH   2  32
TORSDOF 10
ENDMDL
MODEL 10
REMARK VINA RESULT:      -8.0      2.585      3.305
REMARK  10 active torsions:
REMARK  status: ('A' for Active; 'I' for Inactive)
REMARK    1  A    between atoms: C_6  and  N_7 
REMARK    2  A    between atoms: C_6  and  C_29 
REMARK       I    between atoms: N_7  and  C_8 
REMARK    3  A    between atoms: N_7  and  C_23 
REMARK    4  A    between atoms: C_8  and  C_9 
REMARK    5  A    between atoms: C_9  and  N_10 
REMARK    6  A    between atoms: C_14  and  C_15 
REMARK    7  A    between atoms: C_23  and  C_24 
REMARK       I    between atoms: C_29  and  N_30 
REMARK    8  A    between atoms: N_30  and  C_31 
REMARK    9  A    between atoms: C_32  and  O_33 
REMARK   10  A    between atoms: C_36  and  O_37 
ROOT
HETATM    1  N   UNL     1      -8.216   3.789 -31.770  1.00  0.00    -0.326 N 
HETATM    2  C   UNL     1      -9.188   3.403 -32.709  1.00  0.00     0.239 C 
HETATM    3  O   UNL     1      -9.033   2.421 -33.431  1.00  0.00    -0.271 OA
ENDROOT
BRANCH   1   4
HETATM    4  C   UNL     1      -6.754   3.530 -32.024  1.00  0.00     0.120 C 
HETATM    5  C   UNL     1      -6.206   4.329 -33.224  1.00  0.00     0.069 C 
HETATM    6  C   UNL     1      -4.723   4.071 -33.470  1.00  0.00     0.237 C 
HETATM    7  N   UNL     1      -3.921   4.372 -32.238  1.00  0.00    -0.075 N 
HETATM    8  C   UNL     1      -2.447   4.157 -32.477  1.00  0.00     0.269 C 
HETATM    9  H   UNL     1      -4.034   5.376 -32.025  1.00  0.00     0.279 HD
HETATM   10  C   UNL     1      -4.392   3.615 -31.017  1.00  0.00     0.237 C 
HETATM   11  C   UNL     1      -5.870   3.914 -30.788  1.00  0.00     0.069 C 
BRANCH   4  12
HETATM   12  C   UNL     1      -6.587   1.972 -32.154  1.00  0.00     0.251 C 
HETATM   13  N   UNL     1      -6.192   1.489 -33.381  1.00  0.00    -0.323 N 
HETATM   14  H   UNL     1      -5.970   2.111 -34.150  1.00  0.00     0.169 HD
HETATM   15  O   UNL     1      -6.827   1.260 -31.179  1.00  0.00    -0.270 OA
BRANCH  13  16
HETATM   16  C   UNL     1      -5.986   0.130 -33.729  1.00  0.00     0.068 A 
HETATM   17  C   UNL     1      -4.732  -0.428 -33.398  1.00  0.00     0.097 A 
HETATM   18  C   UNL     1      -4.463  -1.773 -33.692  1.00  0.00     0.075 A 
HETATM   19  C   UNL     1      -5.433  -2.560 -34.316  1.00  0.00     0.070 A 
HETATM   20  C   UNL     1      -6.657  -1.995 -34.664  1.00  0.00     0.039 A 
HETATM   21  C   UNL     1      -6.938  -0.660 -34.371  1.00  0.00     0.035 A 
BRANCH  17  22
HETATM   22  O   UNL     1      -3.866   0.434 -32.759  1.00  0.00    -0.354 OA
HETATM   23  C   UNL     1      -3.267  -0.038 -31.554  1.00  0.00     0.210 C 
ENDBRANCH  17  22
BRANCH  19  24
HETATM   24  O   UNL     1      -5.308  -3.880 -34.651  1.00  0.00    -0.356 OA
HETATM   25  C   UNL     1      -6.424  -4.507 -35.266  1.00  0.00     0.210 C 
ENDBRANCH  19  24
ENDBRANCH  13  16
ENDBRANCH   4  12
ENDBRANCH   1   4
BRANCH   1  26
HETATM   26  C   UNL     1      -8.706   3.850 -30.385  1.00  0.00     0.192 C 
BRANCH  26  27
HETATM   27  C   UNL     1      -8.743   5.219 -29.826  1.00  0.00     0.070 A 
HETATM   28  O   UNL     1      -8.083   5.357 -28.639  1.00  0.00    -0.325 OA
HETATM   29  C   UNL     1      -8.214   6.650 -28.252  1.00  0.00     0.142 A 
HETATM   30  C   UNL     1      -8.947   7.352 -29.178  1.00  0.00     0.027 A 
HETATM   31  C   UNL     1      -9.294   6.430 -30.194  1.00  0.00     0.036 A 
ENDBRANCH  26  27
ENDBRANCH   1  26
BRANCH   2  32
HETATM   32  C   UNL     1     -10.378   4.384 -32.814  1.00  0.00     0.228 C 
BRANCH  32  33
HETATM   33  N   UNL     1     -11.653   3.854 -32.363  1.00  0.00    -0.347 N 
HETATM   34  C   UNL     1     -12.510   3.000 -33.049  1.00  0.00     0.171 C 
HETATM   35  S   UNL     1     -12.328   2.328 -34.548  1.00  0.00    -0.041 SA
HETATM   36  N   UNL     1     -13.632   2.797 -32.258  1.00  0.00    -0.357 N 
HETATM   37  C   UNL     1     -13.604   3.615 -31.064  1.00  0.00     0.135 C 
HETATM   38  H   UNL     1     -14.450   2.310 -32.600  1.00  0.00     0.162 HD
HETATM   39  C   UNL     1     -12.147   4.105 -31.019  1.00  0.00     0.155 C 
BRANCH  37  40
HETATM   40  C   UNL     1     -14.596   4.760 -31.111  1.00  0.00    -0.034 A 
HETATM   41  C   UNL     1     -14.407   5.873 -30.276  1.00  0.00     0.009 A 
HETATM   42  C   UNL     1     -15.277   6.965 -30.329  1.00  0.00     0.001 A 
HETATM   43  C   UNL     1     -16.348   6.961 -31.219  1.00  0.00     0.000 A 
HETATM   44  C   UNL     1     -16.550   5.868 -32.057  1.00  0.00     0.001 A 
HETATM   45  C   UNL     1     -15.680   4.777 -32.005  1.00  0.00     0.009 A 
ENDBRANCH  37  40
ENDBRANCH  32  33
ENDBRANCH   2  32
TORSDOF 10
ENDMDL
