MODEL 1
REMARK VINA RESULT:      -8.8      0.000      0.000
REMARK  6 active torsions:
REMARK  status: ('A' for Active; 'I' for Inactive)
REMARK    1  A    between atoms: C_3  and  C_4 
REMARK    2  A    between atoms: C_9  and  O_10 
REMARK    3  A    between atoms: O_10  and  C_11 
REMARK    4  A    between atoms: C_11  and  C_12 
REMARK       I    between atoms: C_12  and  N_13 
REMARK    5  A    between atoms: N_13  and  C_14 
REMARK    6  A    between atoms: C_21  and  C_22 
REMARK       I    between atoms: C_22  and  N_23 
ROOT
HETATM    1  C   UNL     1      -5.629   3.220 -30.820  1.00  0.00     0.246 C 
HETATM    2  N   UNL     1      -4.250   3.345 -30.885  1.00  0.00    -0.325 N 
HETATM    3  O   UNL     1      -6.453   3.899 -31.424  1.00  0.00    -0.271 OA
HETATM    4  H   UNL     1      -3.727   2.680 -30.325  1.00  0.00     0.169 HD
ENDROOT
BRANCH   2   5
HETATM    5  C   UNL     1      -3.509   4.270 -31.650  1.00  0.00     0.035 A 
HETATM    6  C   UNL     1      -3.390   5.628 -31.321  1.00  0.00     0.046 A 
HETATM    7  C   UNL     1      -2.641   6.488 -32.154  1.00  0.00     0.030 A 
HETATM    8  C   UNL     1      -2.042   5.964 -33.291  1.00  0.00     0.063 A 
HETATM    9  C   UNL     1      -2.290   7.872 -32.151  1.00  0.00     0.156 A 
HETATM   10  N   UNL     1      -1.413   7.022 -33.887  1.00  0.00    -0.277 N 
HETATM   11  C   UNL     1      -2.134   4.618 -33.649  1.00  0.00     0.034 A 
HETATM   12  H   UNL     1      -0.877   7.011 -34.747  1.00  0.00     0.189 HD
HETATM   13  N   UNL     1      -1.534   8.187 -33.229  1.00  0.00    -0.168 NA
HETATM   14  C   UNL     1      -2.873   3.783 -32.800  1.00  0.00     0.032 A 
BRANCH   9  15
HETATM   15  C   UNL     1      -2.652   8.888 -31.151  1.00  0.00     0.270 C 
HETATM   16  N   UNL     1      -1.953   8.791 -29.978  1.00  0.00    -0.365 N 
HETATM   17  H   UNL     1      -1.271   8.049 -29.878  1.00  0.00     0.159 HD
HETATM   18  H   UNL     1      -2.148   9.435 -29.229  1.00  0.00     0.159 HD
HETATM   19  O   UNL     1      -3.500   9.756 -31.311  1.00  0.00    -0.266 OA
ENDBRANCH   9  15
ENDBRANCH   2   5
BRANCH   1  20
HETATM   20  C   UNL     1      -6.085   2.026 -29.982  1.00  0.00     0.278 C 
BRANCH  20  21
HETATM   21  O   UNL     1      -7.219   1.370 -30.547  1.00  0.00    -0.342 OA
BRANCH  21  22
HETATM   22  C   UNL     1      -6.916   0.536 -31.593  1.00  0.00     0.069 A 
HETATM   23  C   UNL     1      -5.930  -0.413 -31.354  1.00  0.00     0.037 A 
HETATM   24  C   UNL     1      -5.569  -1.323 -32.353  1.00  0.00     0.011 A 
HETATM   25  C   UNL     1      -6.184  -1.303 -33.619  1.00  0.00    -0.049 A 
HETATM   26  C   UNL     1      -7.149  -0.303 -33.876  1.00  0.00    -0.053 A 
HETATM   27  C   UNL     1      -7.831  -0.169 -35.213  1.00  0.00     0.049 C 
HETATM   28  C   UNL     1      -7.502   0.605 -32.857  1.00  0.00     0.044 A 
BRANCH  25  29
HETATM   29  C   UNL     1      -5.779  -2.310 -34.692  1.00  0.00     0.011 C 
HETATM   30  C   UNL     1      -4.352  -2.805 -34.449  1.00  0.00     0.015 C 
HETATM   31  C   UNL     1      -6.740  -3.498 -34.826  1.00  0.00     0.015 C 
ENDBRANCH  25  29
ENDBRANCH  21  22
ENDBRANCH  20  21
ENDBRANCH   1  20
TORSDOF 6
ENDMDL
MODEL 2
REMARK VINA RESULT:      -8.5      2.027      2.157
REMARK  6 active torsions:
REMARK  status: ('A' for Active; 'I' for Inactive)
REMARK    1  A    between atoms: C_3  and  C_4 
REMARK    2  A    between atoms: C_9  and  O_10 
REMARK    3  A    between atoms: O_10  and  C_11 
REMARK    4  A    between atoms: C_11  and  C_12 
REMARK       I    between atoms: C_12  and  N_13 
REMARK    5  A    between atoms: N_13  and  C_14 
REMARK    6  A    between atoms: C_21  and  C_22 
REMARK       I    between atoms: C_22  and  N_23 
ROOT
HETATM    1  C   UNL     1      -6.012   3.822 -31.054  1.00  0.00     0.246 C 
HETATM    2  N   UNL     1      -5.025   3.700 -32.019  1.00  0.00    -0.325 N 
HETATM    3  O   UNL     1      -6.111   4.717 -30.220  1.00  0.00    -0.271 OA
HETATM    4  H   UNL     1      -5.117   2.898 -32.634  1.00  0.00     0.169 HD
ENDROOT
BRANCH   2   5
HETATM    5  C   UNL     1      -3.935   4.567 -32.244  1.00  0.00     0.035 A 
HETATM    6  C   UNL     1      -2.795   4.607 -31.428  1.00  0.00     0.046 A 
HETATM    7  C   UNL     1      -1.757   5.520 -31.718  1.00  0.00     0.030 A 
HETATM    8  C   UNL     1      -1.896   6.366 -32.809  1.00  0.00     0.063 A 
HETATM    9  C   UNL     1      -0.485   5.843 -31.155  1.00  0.00     0.156 A 
HETATM   10  N   UNL     1      -0.759   7.126 -32.823  1.00  0.00    -0.277 N 
HETATM   11  C   UNL     1      -3.013   6.352 -33.647  1.00  0.00     0.034 A 
HETATM   12  H   UNL     1      -0.519   7.859 -33.481  1.00  0.00     0.189 HD
HETATM   13  N   UNL     1       0.117   6.838 -31.847  1.00  0.00    -0.168 NA
HETATM   14  C   UNL     1      -4.023   5.429 -33.346  1.00  0.00     0.032 A 
BRANCH   9  15
HETATM   15  C   UNL     1       0.161   5.226 -29.987  1.00  0.00     0.270 C 
HETATM   16  N   UNL     1      -0.338   5.646 -28.784  1.00  0.00    -0.365 N 
HETATM   17  H   UNL     1      -1.081   6.335 -28.780  1.00  0.00     0.159 HD
HETATM   18  H   UNL     1       0.058   5.289 -27.930  1.00  0.00     0.159 HD
HETATM   19  O   UNL     1       1.072   4.409 -30.042  1.00  0.00    -0.266 OA
ENDBRANCH   9  15
ENDBRANCH   2   5
BRANCH   1  20
HETATM   20  C   UNL     1      -7.108   2.764 -31.178  1.00  0.00     0.278 C 
BRANCH  20  21
HETATM   21  O   UNL     1      -6.667   1.476 -30.755  1.00  0.00    -0.342 OA
BRANCH  21  22
HETATM   22  C   UNL     1      -6.508   0.578 -31.780  1.00  0.00     0.069 A 
HETATM   23  C   UNL     1      -5.600  -0.451 -31.558  1.00  0.00     0.037 A 
HETATM   24  C   UNL     1      -5.388  -1.428 -32.536  1.00  0.00     0.011 A 
HETATM   25  C   UNL     1      -6.077  -1.398 -33.763  1.00  0.00    -0.049 A 
HETATM   26  C   UNL     1      -6.960  -0.322 -34.006  1.00  0.00    -0.053 A 
HETATM   27  C   UNL     1      -7.710  -0.176 -35.306  1.00  0.00     0.049 C 
HETATM   28  C   UNL     1      -7.164   0.653 -33.009  1.00  0.00     0.044 A 
BRANCH  25  29
HETATM   29  C   UNL     1      -5.833  -2.479 -34.813  1.00  0.00     0.011 C 
HETATM   30  C   UNL     1      -4.396  -2.996 -34.726  1.00  0.00     0.015 C 
HETATM   31  C   UNL     1      -6.826  -3.647 -34.746  1.00  0.00     0.015 C 
ENDBRANCH  25  29
ENDBRANCH  21  22
ENDBRANCH  20  21
ENDBRANCH   1  20
TORSDOF 6
ENDMDL
MODEL 3
REMARK VINA RESULT:      -8.4      2.880      8.985
REMARK  6 active torsions:
REMARK  status: ('A' for Active; 'I' for Inactive)
REMARK    1  A    between atoms: C_3  and  C_4 
REMARK    2  A    between atoms: C_9  and  O_10 
REMARK    3  A    between atoms: O_10  and  C_11 
REMARK    4  A    between atoms: C_11  and  C_12 
REMARK       I    between atoms: C_12  and  N_13 
REMARK    5  A    between atoms: N_13  and  C_14 
REMARK    6  A    between atoms: C_21  and  C_22 
REMARK       I    between atoms: C_22  and  N_23 
ROOT
HETATM    1  C   UNL     1      -2.979   5.483 -33.711  1.00  0.00     0.246 C 
HETATM    2  N   UNL     1      -2.695   4.454 -32.827  1.00  0.00    -0.325 N 
HETATM    3  O   UNL     1      -4.085   5.963 -33.940  1.00  0.00    -0.271 OA
HETATM    4  H   UNL     1      -1.715   4.201 -32.757  1.00  0.00     0.169 HD
ENDROOT
BRANCH   2   5
HETATM    5  C   UNL     1      -3.606   3.746 -32.015  1.00  0.00     0.035 A 
HETATM    6  C   UNL     1      -3.894   2.384 -32.179  1.00  0.00     0.046 A 
HETATM    7  C   UNL     1      -4.834   1.758 -31.329  1.00  0.00     0.030 A 
HETATM    8  C   UNL     1      -5.459   2.517 -30.350  1.00  0.00     0.063 A 
HETATM    9  C   UNL     1      -5.366   0.442 -31.179  1.00  0.00     0.156 A 
HETATM   10  N   UNL     1      -6.306   1.654 -29.711  1.00  0.00    -0.277 N 
HETATM   11  C   UNL     1      -5.194   3.874 -30.153  1.00  0.00     0.034 A 
HETATM   12  H   UNL     1      -6.931   1.865 -28.941  1.00  0.00     0.189 HD
HETATM   13  N   UNL     1      -6.276   0.395 -30.177  1.00  0.00    -0.168 NA
HETATM   14  C   UNL     1      -4.250   4.468 -31.000  1.00  0.00     0.032 A 
BRANCH   9  15
HETATM   15  C   UNL     1      -5.025  -0.758 -31.957  1.00  0.00     0.270 C 
HETATM   16  N   UNL     1      -5.968  -1.108 -32.886  1.00  0.00    -0.365 N 
HETATM   17  H   UNL     1      -6.807  -0.546 -32.962  1.00  0.00     0.159 HD
HETATM   18  H   UNL     1      -5.826  -1.928 -33.453  1.00  0.00     0.159 HD
HETATM   19  O   UNL     1      -4.004  -1.418 -31.815  1.00  0.00    -0.266 OA
ENDBRANCH   9  15
ENDBRANCH   2   5
BRANCH   1  20
HETATM   20  C   UNL     1      -1.729   6.102 -34.336  1.00  0.00     0.278 C 
BRANCH  20  21
HETATM   21  O   UNL     1      -1.484   7.423 -33.859  1.00  0.00    -0.342 OA
BRANCH  21  22
HETATM   22  C   UNL     1      -1.176   7.485 -32.523  1.00  0.00     0.069 A 
HETATM   23  C   UNL     1      -0.077   6.741 -32.113  1.00  0.00     0.037 A 
HETATM   24  C   UNL     1       0.328   6.760 -30.774  1.00  0.00     0.011 A 
HETATM   25  C   UNL     1      -0.360   7.522 -29.811  1.00  0.00    -0.049 A 
HETATM   26  C   UNL     1      -1.509   8.236 -30.222  1.00  0.00    -0.053 A 
HETATM   27  C   UNL     1      -2.339   9.044 -29.258  1.00  0.00     0.049 C 
HETATM   28  C   UNL     1      -1.901   8.208 -31.575  1.00  0.00     0.044 A 
BRANCH  25  29
HETATM   29  C   UNL     1       0.105   7.532 -28.357  1.00  0.00     0.011 C 
HETATM   30  C   UNL     1       0.362   6.106 -27.867  1.00  0.00     0.015 C 
HETATM   31  C   UNL     1       1.334   8.414 -28.103  1.00  0.00     0.015 C 
ENDBRANCH  25  29
ENDBRANCH  21  22
ENDBRANCH  20  21
ENDBRANCH   1  20
TORSDOF 6
ENDMDL
MODEL 4
REMARK VINA RESULT:      -8.4      3.438      8.121
REMARK  6 active torsions:
REMARK  status: ('A' for Active; 'I' for Inactive)
REMARK    1  A    between atoms: C_3  and  C_4 
REMARK    2  A    between atoms: C_9  and  O_10 
REMARK    3  A    between atoms: O_10  and  C_11 
REMARK    4  A    between atoms: C_11  and  C_12 
REMARK       I    between atoms: C_12  and  N_13 
REMARK    5  A    between atoms: N_13  and  C_14 
REMARK    6  A    between atoms: C_21  and  C_22 
REMARK       I    between atoms: C_22  and  N_23 
ROOT
HETATM    1  C   UNL     1      -7.150   2.999 -32.948  1.00  0.00     0.246 C 
HETATM    2  N   UNL     1      -6.734   2.310 -34.075  1.00  0.00    -0.325 N 
HETATM    3  O   UNL     1      -7.296   2.535 -31.821  1.00  0.00    -0.271 OA
HETATM    4  H   UNL     1      -6.655   2.867 -34.919  1.00  0.00     0.169 HD
ENDROOT
BRANCH   2   5
HETATM    5  C   UNL     1      -6.396   0.943 -34.168  1.00  0.00     0.035 A 
HETATM    6  C   UNL     1      -5.334   0.358 -33.463  1.00  0.00     0.046 A 
HETATM    7  C   UNL     1      -5.056  -1.017 -33.628  1.00  0.00     0.030 A 
HETATM    8  C   UNL     1      -5.844  -1.759 -34.498  1.00  0.00     0.063 A 
HETATM    9  C   UNL     1      -4.108  -1.945 -33.100  1.00  0.00     0.156 A 
HETATM   10  N   UNL     1      -5.332  -3.027 -34.455  1.00  0.00    -0.277 N 
HETATM   11  C   UNL     1      -6.912  -1.213 -35.212  1.00  0.00     0.034 A 
HETATM   12  H   UNL     1      -5.655  -3.836 -34.973  1.00  0.00     0.189 HD
HETATM   13  N   UNL     1      -4.290  -3.180 -33.623  1.00  0.00    -0.168 NA
HETATM   14  C   UNL     1      -7.175   0.150 -35.022  1.00  0.00     0.032 A 
BRANCH   9  15
HETATM   15  C   UNL     1      -3.049  -1.682 -32.115  1.00  0.00     0.270 C 
HETATM   16  N   UNL     1      -2.576  -2.804 -31.489  1.00  0.00    -0.365 N 
HETATM   17  H   UNL     1      -2.981  -3.701 -31.729  1.00  0.00     0.159 HD
HETATM   18  H   UNL     1      -1.861  -2.716 -30.785  1.00  0.00     0.159 HD
HETATM   19  O   UNL     1      -2.605  -0.573 -31.844  1.00  0.00    -0.266 OA
ENDBRANCH   9  15
ENDBRANCH   2   5
BRANCH   1  20
HETATM   20  C   UNL     1      -7.313   4.500 -33.186  1.00  0.00     0.278 C 
BRANCH  20  21
HETATM   21  O   UNL     1      -6.466   4.977 -34.231  1.00  0.00    -0.342 OA
BRANCH  21  22
HETATM   22  C   UNL     1      -5.185   5.252 -33.827  1.00  0.00     0.069 A 
HETATM   23  C   UNL     1      -5.049   5.824 -32.567  1.00  0.00     0.037 A 
HETATM   24  C   UNL     1      -3.780   6.118 -32.059  1.00  0.00     0.011 A 
HETATM   25  C   UNL     1      -2.613   5.852 -32.801  1.00  0.00    -0.049 A 
HETATM   26  C   UNL     1      -2.758   5.320 -34.102  1.00  0.00    -0.053 A 
HETATM   27  C   UNL     1      -1.574   5.043 -34.993  1.00  0.00     0.049 C 
HETATM   28  C   UNL     1      -4.044   5.027 -34.598  1.00  0.00     0.044 A 
BRANCH  25  29
HETATM   29  C   UNL     1      -1.239   6.177 -32.223  1.00  0.00     0.011 C 
HETATM   30  C   UNL     1      -1.132   7.668 -31.900  1.00  0.00     0.015 C 
HETATM   31  C   UNL     1      -0.865   5.336 -30.995  1.00  0.00     0.015 C 
ENDBRANCH  25  29
ENDBRANCH  21  22
ENDBRANCH  20  21
ENDBRANCH   1  20
TORSDOF 6
ENDMDL
MODEL 5
REMARK VINA RESULT:      -8.1      3.557      9.473
REMARK  6 active torsions:
REMARK  status: ('A' for Active; 'I' for Inactive)
REMARK    1  A    between atoms: C_3  and  C_4 
REMARK    2  A    between atoms: C_9  and  O_10 
REMARK    3  A    between atoms: O_10  and  C_11 
REMARK    4  A    between atoms: C_11  and  C_12 
REMARK       I    between atoms: C_12  and  N_13 
REMARK    5  A    between atoms: N_13  and  C_14 
REMARK    6  A    between atoms: C_21  and  C_22 
REMARK       I    between atoms: C_22  and  N_23 
ROOT
HETATM    1  C   UNL     1      -3.228   3.600 -31.762  1.00  0.00     0.246 C 
HETATM    2  N   UNL     1      -4.527   3.997 -32.037  1.00  0.00    -0.325 N 
HETATM    3  O   UNL     1      -2.882   2.539 -31.250  1.00  0.00    -0.271 OA
HETATM    4  H   UNL     1      -4.617   4.905 -32.480  1.00  0.00     0.169 HD
ENDROOT
BRANCH   2   5
HETATM    5  C   UNL     1      -5.714   3.278 -31.786  1.00  0.00     0.035 A 
HETATM    6  C   UNL     1      -6.181   2.243 -32.609  1.00  0.00     0.046 A 
HETATM    7  C   UNL     1      -7.391   1.586 -32.292  1.00  0.00     0.030 A 
HETATM    8  C   UNL     1      -8.097   1.991 -31.167  1.00  0.00     0.063 A 
HETATM    9  C   UNL     1      -8.160   0.522 -32.852  1.00  0.00     0.156 A 
HETATM   10  N   UNL     1      -9.207   1.194 -31.133  1.00  0.00    -0.277 N 
HETATM   11  C   UNL     1      -7.661   3.014 -30.322  1.00  0.00     0.034 A 
HETATM   12  H   UNL     1      -9.955   1.214 -30.448  1.00  0.00     0.189 HD
HETATM   13  N   UNL     1      -9.280   0.294 -32.126  1.00  0.00    -0.168 NA
HETATM   14  C   UNL     1      -6.452   3.641 -30.651  1.00  0.00     0.032 A 
BRANCH   9  15
HETATM   15  C   UNL     1      -7.850  -0.276 -34.047  1.00  0.00     0.270 C 
HETATM   16  N   UNL     1      -8.160   0.343 -35.228  1.00  0.00    -0.365 N 
HETATM   17  H   UNL     1      -8.576   1.266 -35.199  1.00  0.00     0.159 HD
HETATM   18  H   UNL     1      -7.998  -0.138 -36.098  1.00  0.00     0.159 HD
HETATM   19  O   UNL     1      -7.363  -1.400 -34.032  1.00  0.00    -0.266 OA
ENDBRANCH   9  15
ENDBRANCH   2   5
BRANCH   1  20
HETATM   20  C   UNL     1      -2.176   4.580 -32.280  1.00  0.00     0.278 C 
BRANCH  20  21
HETATM   21  O   UNL     1      -0.946   4.481 -31.565  1.00  0.00    -0.342 OA
BRANCH  21  22
HETATM   22  C   UNL     1      -0.726   5.513 -30.688  1.00  0.00     0.069 A 
HETATM   23  C   UNL     1       0.262   5.306 -29.734  1.00  0.00     0.037 A 
HETATM   24  C   UNL     1       0.574   6.310 -28.811  1.00  0.00     0.011 A 
HETATM   25  C   UNL     1      -0.100   7.546 -28.819  1.00  0.00    -0.049 A 
HETATM   26  C   UNL     1      -1.140   7.733 -29.757  1.00  0.00    -0.053 A 
HETATM   27  C   UNL     1      -1.950   9.003 -29.815  1.00  0.00     0.049 C 
HETATM   28  C   UNL     1      -1.439   6.712 -30.680  1.00  0.00     0.044 A 
BRANCH  25  29
HETATM   29  C   UNL     1       0.262   8.629 -27.806  1.00  0.00     0.011 C 
HETATM   30  C   UNL     1      -0.465   8.389 -26.481  1.00  0.00     0.015 C 
HETATM   31  C   UNL     1       1.770   8.780 -27.568  1.00  0.00     0.015 C 
ENDBRANCH  25  29
ENDBRANCH  21  22
ENDBRANCH  20  21
ENDBRANCH   1  20
TORSDOF 6
ENDMDL
MODEL 6
REMARK VINA RESULT:      -8.1      2.132      2.743
REMARK  6 active torsions:
REMARK  status: ('A' for Active; 'I' for Inactive)
REMARK    1  A    between atoms: C_3  and  C_4 
REMARK    2  A    between atoms: C_9  and  O_10 
REMARK    3  A    between atoms: O_10  and  C_11 
REMARK    4  A    between atoms: C_11  and  C_12 
REMARK       I    between atoms: C_12  and  N_13 
REMARK    5  A    between atoms: N_13  and  C_14 
REMARK    6  A    between atoms: C_21  and  C_22 
REMARK       I    between atoms: C_22  and  N_23 
ROOT
HETATM    1  C   UNL     1      -5.607   4.547 -32.614  1.00  0.00     0.246 C 
HETATM    2  N   UNL     1      -4.379   4.013 -32.259  1.00  0.00    -0.325 N 
HETATM    3  O   UNL     1      -5.844   5.724 -32.869  1.00  0.00    -0.271 OA
HETATM    4  H   UNL     1      -4.371   3.011 -32.102  1.00  0.00     0.169 HD
ENDROOT
BRANCH   2   5
HETATM    5  C   UNL     1      -3.155   4.700 -32.113  1.00  0.00     0.035 A 
HETATM    6  C   UNL     1      -2.734   5.286 -30.911  1.00  0.00     0.046 A 
HETATM    7  C   UNL     1      -1.499   5.971 -30.859  1.00  0.00     0.030 A 
HETATM    8  C   UNL     1      -0.731   6.051 -32.012  1.00  0.00     0.063 A 
HETATM    9  C   UNL     1      -0.748   6.662 -29.861  1.00  0.00     0.156 A 
HETATM   10  N   UNL     1       0.377   6.771 -31.657  1.00  0.00    -0.277 N 
HETATM   11  C   UNL     1      -1.114   5.476 -33.225  1.00  0.00     0.034 A 
HETATM   12  H   UNL     1       1.155   7.032 -32.252  1.00  0.00     0.189 HD
HETATM   13  N   UNL     1       0.406   7.153 -30.370  1.00  0.00    -0.168 NA
HETATM   14  C   UNL     1      -2.337   4.792 -33.248  1.00  0.00     0.032 A 
BRANCH   9  15
HETATM   15  C   UNL     1      -1.102   6.857 -28.447  1.00  0.00     0.270 C 
HETATM   16  N   UNL     1      -0.564   5.925 -27.602  1.00  0.00    -0.365 N 
HETATM   17  H   UNL     1       0.009   5.187 -27.994  1.00  0.00     0.159 HD
HETATM   18  H   UNL     1      -0.768   5.970 -26.617  1.00  0.00     0.159 HD
HETATM   19  O   UNL     1      -1.816   7.756 -28.022  1.00  0.00    -0.266 OA
ENDBRANCH   9  15
ENDBRANCH   2   5
BRANCH   1  20
HETATM   20  C   UNL     1      -6.694   3.489 -32.796  1.00  0.00     0.278 C 
BRANCH  20  21
HETATM   21  O   UNL     1      -6.631   2.863 -34.076  1.00  0.00    -0.342 OA
BRANCH  21  22
HETATM   22  C   UNL     1      -6.372   1.516 -34.025  1.00  0.00     0.069 A 
HETATM   23  C   UNL     1      -7.022   0.732 -34.970  1.00  0.00     0.037 A 
HETATM   24  C   UNL     1      -6.803  -0.649 -35.012  1.00  0.00     0.011 A 
HETATM   25  C   UNL     1      -5.930  -1.280 -34.105  1.00  0.00    -0.049 A 
HETATM   26  C   UNL     1      -5.313  -0.487 -33.112  1.00  0.00    -0.053 A 
HETATM   27  C   UNL     1      -4.398  -1.075 -32.068  1.00  0.00     0.049 C 
HETATM   28  C   UNL     1      -5.542   0.903 -33.086  1.00  0.00     0.044 A 
BRANCH  25  29
HETATM   29  C   UNL     1      -5.702  -2.788 -34.174  1.00  0.00     0.011 C 
HETATM   30  C   UNL     1      -6.948  -3.494 -34.712  1.00  0.00     0.015 C 
HETATM   31  C   UNL     1      -4.466  -3.194 -34.985  1.00  0.00     0.015 C 
ENDBRANCH  25  29
ENDBRANCH  21  22
ENDBRANCH  20  21
ENDBRANCH   1  20
TORSDOF 6
ENDMDL
MODEL 7
REMARK VINA RESULT:      -8.0      3.368      9.195
REMARK  6 active torsions:
REMARK  status: ('A' for Active; 'I' for Inactive)
REMARK    1  A    between atoms: C_3  and  C_4 
REMARK    2  A    between atoms: C_9  and  O_10 
REMARK    3  A    between atoms: O_10  and  C_11 
REMARK    4  A    between atoms: C_11  and  C_12 
REMARK       I    between atoms: C_12  and  N_13 
REMARK    5  A    between atoms: N_13  and  C_14 
REMARK    6  A    between atoms: C_21  and  C_22 
REMARK       I    between atoms: C_22  and  N_23 
ROOT
HETATM    1  C   UNL     1      -2.792   5.224 -33.556  1.00  0.00     0.246 C 
HETATM    2  N   UNL     1      -3.720   4.754 -32.640  1.00  0.00    -0.325 N 
HETATM    3  O   UNL     1      -2.210   4.562 -34.410  1.00  0.00    -0.271 OA
HETATM    4  H   UNL     1      -4.110   5.455 -32.020  1.00  0.00     0.169 HD
ENDROOT
BRANCH   2   5
HETATM    5  C   UNL     1      -4.186   3.430 -32.495  1.00  0.00     0.035 A 
HETATM    6  C   UNL     1      -5.323   2.933 -33.146  1.00  0.00     0.046 A 
HETATM    7  C   UNL     1      -5.728   1.597 -32.930  1.00  0.00     0.030 A 
HETATM    8  C   UNL     1      -4.986   0.805 -32.064  1.00  0.00     0.063 A 
HETATM    9  C   UNL     1      -6.780   0.753 -33.398  1.00  0.00     0.156 A 
HETATM   10  N   UNL     1      -5.620  -0.406 -32.050  1.00  0.00    -0.277 N 
HETATM   11  C   UNL     1      -3.845   1.263 -31.401  1.00  0.00     0.034 A 
HETATM   12  H   UNL     1      -5.359  -1.229 -31.519  1.00  0.00     0.189 HD
HETATM   13  N   UNL     1      -6.701  -0.480 -32.844  1.00  0.00    -0.168 NA
HETATM   14  C   UNL     1      -3.458   2.588 -31.642  1.00  0.00     0.032 A 
BRANCH   9  15
HETATM   15  C   UNL     1      -7.843   1.091 -34.356  1.00  0.00     0.270 C 
HETATM   16  N   UNL     1      -7.967   0.203 -35.391  1.00  0.00    -0.365 N 
HETATM   17  H   UNL     1      -7.335  -0.588 -35.430  1.00  0.00     0.159 HD
HETATM   18  H   UNL     1      -8.658   0.366 -36.104  1.00  0.00     0.159 HD
HETATM   19  O   UNL     1      -8.570   2.073 -34.276  1.00  0.00    -0.266 OA
ENDBRANCH   9  15
ENDBRANCH   2   5
BRANCH   1  20
HETATM   20  C   UNL     1      -2.616   6.741 -33.509  1.00  0.00     0.278 C 
BRANCH  20  21
HETATM   21  O   UNL     1      -1.261   7.121 -33.277  1.00  0.00    -0.342 OA
BRANCH  21  22
HETATM   22  C   UNL     1      -0.965   7.350 -31.956  1.00  0.00     0.069 A 
HETATM   23  C   UNL     1       0.172   6.720 -31.466  1.00  0.00     0.037 A 
HETATM   24  C   UNL     1       0.567   6.911 -30.138  1.00  0.00     0.011 A 
HETATM   25  C   UNL     1      -0.169   7.735 -29.266  1.00  0.00    -0.049 A 
HETATM   26  C   UNL     1      -1.354   8.332 -29.753  1.00  0.00    -0.053 A 
HETATM   27  C   UNL     1      -2.234   9.194 -28.886  1.00  0.00     0.049 C 
HETATM   28  C   UNL     1      -1.736   8.131 -31.094  1.00  0.00     0.044 A 
BRANCH  25  29
HETATM   29  C   UNL     1       0.286   7.934 -27.822  1.00  0.00     0.011 C 
HETATM   30  C   UNL     1       0.345   6.592 -27.090  1.00  0.00     0.015 C 
HETATM   31  C   UNL     1       1.622   8.676 -27.687  1.00  0.00     0.015 C 
ENDBRANCH  25  29
ENDBRANCH  21  22
ENDBRANCH  20  21
ENDBRANCH   1  20
TORSDOF 6
ENDMDL
MODEL 8
REMARK VINA RESULT:      -8.0      3.585      9.115
REMARK  6 active torsions:
REMARK  status: ('A' for Active; 'I' for Inactive)
REMARK    1  A    between atoms: C_3  and  C_4 
REMARK    2  A    between atoms: C_9  and  O_10 
REMARK    3  A    between atoms: O_10  and  C_11 
REMARK    4  A    between atoms: C_11  and  C_12 
REMARK       I    between atoms: C_12  and  N_13 
REMARK    5  A    between atoms: N_13  and  C_14 
REMARK    6  A    between atoms: C_21  and  C_22 
REMARK       I    between atoms: C_22  and  N_23 
ROOT
HETATM    1  C   UNL     1      -6.146   1.855 -31.389  1.00  0.00     0.246 C 
HETATM    2  N   UNL     1      -5.472   1.413 -32.517  1.00  0.00    -0.325 N 
HETATM    3  O   UNL     1      -7.074   1.285 -30.824  1.00  0.00    -0.271 OA
HETATM    4  H   UNL     1      -4.717   2.011 -32.833  1.00  0.00     0.169 HD
ENDROOT
BRANCH   2   5
HETATM    5  C   UNL     1      -5.709   0.229 -33.247  1.00  0.00     0.035 A 
HETATM    6  C   UNL     1      -4.943  -0.937 -33.102  1.00  0.00     0.046 A 
HETATM    7  C   UNL     1      -5.240  -2.073 -33.888  1.00  0.00     0.030 A 
HETATM    8  C   UNL     1      -6.288  -2.003 -34.796  1.00  0.00     0.063 A 
HETATM    9  C   UNL     1      -4.721  -3.397 -34.018  1.00  0.00     0.156 A 
HETATM   10  N   UNL     1      -6.320  -3.228 -35.403  1.00  0.00    -0.277 N 
HETATM   11  C   UNL     1      -7.075  -0.862 -34.964  1.00  0.00     0.034 A 
HETATM   12  H   UNL     1      -6.957  -3.535 -36.130  1.00  0.00     0.189 HD
HETATM   13  N   UNL     1      -5.397  -4.096 -34.960  1.00  0.00    -0.168 NA
HETATM   14  C   UNL     1      -6.768   0.247 -34.165  1.00  0.00     0.032 A 
BRANCH   9  15
HETATM   15  C   UNL     1      -3.611  -4.003 -33.268  1.00  0.00     0.270 C 
HETATM   16  N   UNL     1      -3.158  -5.182 -33.795  1.00  0.00    -0.365 N 
HETATM   17  H   UNL     1      -3.609  -5.548 -34.625  1.00  0.00     0.159 HD
HETATM   18  H   UNL     1      -2.411  -5.676 -33.336  1.00  0.00     0.159 HD
HETATM   19  O   UNL     1      -3.111  -3.531 -32.255  1.00  0.00    -0.266 OA
ENDBRANCH   9  15
ENDBRANCH   2   5
BRANCH   1  20
HETATM   20  C   UNL     1      -5.542   3.122 -30.786  1.00  0.00     0.278 C 
BRANCH  20  21
HETATM   21  O   UNL     1      -4.988   3.983 -31.779  1.00  0.00    -0.342 OA
BRANCH  21  22
HETATM   22  C   UNL     1      -3.902   4.702 -31.350  1.00  0.00     0.069 A 
HETATM   23  C   UNL     1      -2.655   4.177 -31.668  1.00  0.00     0.037 A 
HETATM   24  C   UNL     1      -1.489   4.851 -31.294  1.00  0.00     0.011 A 
HETATM   25  C   UNL     1      -1.540   6.068 -30.586  1.00  0.00    -0.049 A 
HETATM   26  C   UNL     1      -2.808   6.571 -30.218  1.00  0.00    -0.053 A 
HETATM   27  C   UNL     1      -2.968   7.841 -29.421  1.00  0.00     0.049 C 
HETATM   28  C   UNL     1      -3.973   5.880 -30.606  1.00  0.00     0.044 A 
BRANCH  25  29
HETATM   29  C   UNL     1      -0.254   6.789 -30.193  1.00  0.00     0.011 C 
HETATM   30  C   UNL     1       0.357   6.152 -28.944  1.00  0.00     0.015 C 
HETATM   31  C   UNL     1       0.786   6.863 -31.318  1.00  0.00     0.015 C 
ENDBRANCH  25  29
ENDBRANCH  21  22
ENDBRANCH  20  21
ENDBRANCH   1  20
TORSDOF 6
ENDMDL
MODEL 9
REMARK VINA RESULT:      -7.9      3.460      9.022
REMARK  6 active torsions:
REMARK  status: ('A' for Active; 'I' for Inactive)
REMARK    1  A    between atoms: C_3  and  C_4 
REMARK    2  A    between atoms: C_9  and  O_10 
REMARK    3  A    between atoms: O_10  and  C_11 
REMARK    4  A    between atoms: C_11  and  C_12 
REMARK       I    between atoms: C_12  and  N_13 
REMARK    5  A    between atoms: N_13  and  C_14 
REMARK    6  A    between atoms: C_21  and  C_22 
REMARK       I    between atoms: C_22  and  N_23 
ROOT
HETATM    1  C   UNL     1      -2.625   5.173 -33.770  1.00  0.00     0.246 C 
HETATM    2  N   UNL     1      -3.873   5.671 -34.109  1.00  0.00    -0.325 N 
HETATM    3  O   UNL     1      -2.396   4.154 -33.126  1.00  0.00    -0.271 OA
HETATM    4  H   UNL     1      -3.865   6.521 -34.663  1.00  0.00     0.169 HD
ENDROOT
BRANCH   2   5
HETATM    5  C   UNL     1      -5.131   5.119 -33.789  1.00  0.00     0.035 A 
HETATM    6  C   UNL     1      -5.512   3.811 -34.122  1.00  0.00     0.046 A 
HETATM    7  C   UNL     1      -6.800   3.346 -33.776  1.00  0.00     0.030 A 
HETATM    8  C   UNL     1      -7.666   4.205 -33.115  1.00  0.00     0.063 A 
HETATM    9  C   UNL     1      -7.526   2.125 -33.924  1.00  0.00     0.156 A 
HETATM   10  N   UNL     1      -8.816   3.487 -32.932  1.00  0.00    -0.277 N 
HETATM   11  C   UNL     1      -7.322   5.512 -32.762  1.00  0.00     0.034 A 
HETATM   12  H   UNL     1      -9.671   3.802 -32.487  1.00  0.00     0.189 HD
HETATM   13  N   UNL     1      -8.770   2.230 -33.401  1.00  0.00    -0.168 NA
HETATM   14  C   UNL     1      -6.035   5.946 -33.106  1.00  0.00     0.032 A 
BRANCH   9  15
HETATM   15  C   UNL     1      -7.061   0.875 -34.543  1.00  0.00     0.270 C 
HETATM   16  N   UNL     1      -7.932   0.346 -35.458  1.00  0.00    -0.365 N 
HETATM   17  H   UNL     1      -8.807   0.827 -35.629  1.00  0.00     0.159 HD
HETATM   18  H   UNL     1      -7.703  -0.519 -35.918  1.00  0.00     0.159 HD
HETATM   19  O   UNL     1      -6.000   0.319 -34.287  1.00  0.00    -0.266 OA
ENDBRANCH   9  15
ENDBRANCH   2   5
BRANCH   1  20
HETATM   20  C   UNL     1      -1.473   5.964 -34.390  1.00  0.00     0.278 C 
BRANCH  20  21
HETATM   21  O   UNL     1      -1.415   7.304 -33.906  1.00  0.00    -0.342 OA
BRANCH  21  22
HETATM   22  C   UNL     1      -1.137   7.400 -32.566  1.00  0.00     0.069 A 
HETATM   23  C   UNL     1      -0.037   6.680 -32.114  1.00  0.00     0.037 A 
HETATM   24  C   UNL     1       0.338   6.735 -30.768  1.00  0.00     0.011 A 
HETATM   25  C   UNL     1      -0.382   7.509 -29.838  1.00  0.00    -0.049 A 
HETATM   26  C   UNL     1      -1.530   8.198 -30.290  1.00  0.00    -0.053 A 
HETATM   27  C   UNL     1      -2.392   9.016 -29.363  1.00  0.00     0.049 C 
HETATM   28  C   UNL     1      -1.892   8.134 -31.650  1.00  0.00     0.044 A 
BRANCH  25  29
HETATM   29  C   UNL     1       0.051   7.558 -28.375  1.00  0.00     0.011 C 
HETATM   30  C   UNL     1       0.238   6.144 -27.824  1.00  0.00     0.015 C 
HETATM   31  C   UNL     1       1.309   8.400 -28.126  1.00  0.00     0.015 C 
ENDBRANCH  25  29
ENDBRANCH  21  22
ENDBRANCH  20  21
ENDBRANCH   1  20
TORSDOF 6
ENDMDL
MODEL 10
REMARK VINA RESULT:      -7.8      6.068      8.875
REMARK  6 active torsions:
REMARK  status: ('A' for Active; 'I' for Inactive)
REMARK    1  A    between atoms: C_3  and  C_4 
REMARK    2  A    between atoms: C_9  and  O_10 
REMARK    3  A    between atoms: O_10  and  C_11 
REMARK    4  A    between atoms: C_11  and  C_12 
REMARK       I    between atoms: C_12  and  N_13 
REMARK    5  A    between atoms: N_13  and  C_14 
REMARK    6  A    between atoms: C_21  and  C_22 
REMARK       I    between atoms: C_22  and  N_23 
ROOT
HETATM    1  C   UNL     1      -9.773   0.728 -33.852  1.00  0.00     0.246 C 
HETATM    2  N   UNL     1     -10.789   1.396 -34.518  1.00  0.00    -0.325 N 
HETATM    3  O   UNL     1      -9.858   0.172 -32.762  1.00  0.00    -0.271 OA
HETATM    4  H   UNL     1     -10.536   1.780 -35.422  1.00  0.00     0.169 HD
ENDROOT
BRANCH   2   5
HETATM    5  C   UNL     1     -12.120   1.579 -34.087  1.00  0.00     0.035 A 
HETATM    6  C   UNL     1     -12.526   2.626 -33.248  1.00  0.00     0.046 A 
HETATM    7  C   UNL     1     -13.878   2.723 -32.851  1.00  0.00     0.030 A 
HETATM    8  C   UNL     1     -14.778   1.767 -33.302  1.00  0.00     0.063 A 
HETATM    9  C   UNL     1     -14.652   3.614 -32.048  1.00  0.00     0.156 A 
HETATM   10  N   UNL     1     -15.980   2.115 -32.750  1.00  0.00    -0.277 N 
HETATM   11  C   UNL     1     -14.412   0.713 -34.142  1.00  0.00     0.034 A 
HETATM   12  H   UNL     1     -16.866   1.634 -32.857  1.00  0.00     0.189 HD
HETATM   13  N   UNL     1     -15.947   3.223 -31.993  1.00  0.00    -0.168 NA
HETATM   14  C   UNL     1     -13.068   0.646 -34.530  1.00  0.00     0.032 A 
BRANCH   9  15
HETATM   15  C   UNL     1     -14.189   4.820 -31.344  1.00  0.00     0.270 C 
HETATM   16  N   UNL     1     -14.128   5.938 -32.131  1.00  0.00    -0.365 N 
HETATM   17  H   UNL     1     -14.384   5.859 -33.108  1.00  0.00     0.159 HD
HETATM   18  H   UNL     1     -13.804   6.806 -31.737  1.00  0.00     0.159 HD
HETATM   19  O   UNL     1     -13.871   4.862 -30.163  1.00  0.00    -0.266 OA
ENDBRANCH   9  15
ENDBRANCH   2   5
BRANCH   1  20
HETATM   20  C   UNL     1      -8.488   0.620 -34.671  1.00  0.00     0.278 C 
BRANCH  20  21
HETATM   21  O   UNL     1      -7.336   1.005 -33.924  1.00  0.00    -0.342 OA
BRANCH  21  22
HETATM   22  C   UNL     1      -6.410   0.004 -33.773  1.00  0.00     0.069 A 
HETATM   23  C   UNL     1      -6.789  -1.255 -34.222  1.00  0.00     0.037 A 
HETATM   24  C   UNL     1      -5.903  -2.333 -34.132  1.00  0.00     0.011 A 
HETATM   25  C   UNL     1      -4.615  -2.179 -33.585  1.00  0.00    -0.049 A 
HETATM   26  C   UNL     1      -4.252  -0.909 -33.082  1.00  0.00    -0.053 A 
HETATM   27  C   UNL     1      -2.913  -0.654 -32.437  1.00  0.00     0.049 C 
HETATM   28  C   UNL     1      -5.156   0.167 -33.183  1.00  0.00     0.044 A 
BRANCH  25  29
HETATM   29  C   UNL     1      -3.663  -3.369 -33.503  1.00  0.00     0.011 C 
HETATM   30  C   UNL     1      -3.260  -3.634 -32.051  1.00  0.00     0.015 C 
HETATM   31  C   UNL     1      -4.209  -4.649 -34.149  1.00  0.00     0.015 C 
ENDBRANCH  25  29
ENDBRANCH  21  22
ENDBRANCH  20  21
ENDBRANCH   1  20
TORSDOF 6
ENDMDL
