MODEL 1
REMARK VINA RESULT:      -7.9      0.000      0.000
REMARK  5 active torsions:
REMARK  status: ('A' for Active; 'I' for Inactive)
REMARK    1  A    between atoms: C_4  and  O_5 
REMARK    2  A    between atoms: C_6  and  C_7 
REMARK       I    between atoms: C_7  and  N_8 
REMARK    3  A    between atoms: N_8  and  C_9 
REMARK    4  A    between atoms: C_9  and  C_10 
REMARK    5  A    between atoms: C_10  and  C_11 
ROOT
HETATM    1  C   UNL     1      -9.264   1.904 -34.353  1.00  0.00     0.254 C 
HETATM    2  N   UNL     1      -8.459   0.858 -34.747  1.00  0.00    -0.356 N 
HETATM    3  O   UNL     1      -8.807   2.981 -33.980  1.00  0.00    -0.268 OA
HETATM    4  H   UNL     1      -8.926  -0.026 -34.933  1.00  0.00     0.162 HD
ENDROOT
BRANCH   2   5
HETATM    5  C   UNL     1      -7.018   0.918 -34.601  1.00  0.00     0.136 C 
BRANCH   5   6
HETATM    6  C   UNL     1      -6.442   0.088 -33.416  1.00  0.00    -0.004 C 
HETATM    7  C   UNL     1      -5.151   0.742 -32.870  1.00  0.00     0.021 C 
HETATM    8  C   UNL     1      -7.474   0.083 -32.262  1.00  0.00     0.021 C 
BRANCH   6   9
HETATM    9  C   UNL     1      -6.103  -1.328 -33.927  1.00  0.00    -0.046 A 
HETATM   10  C   UNL     1      -4.764  -1.749 -34.017  1.00  0.00     0.027 A 
HETATM   11  C   UNL     1      -4.473  -3.025 -34.482  1.00  0.00     0.116 A 
HETATM   12  N   UNL     1      -5.408  -3.915 -34.863  1.00  0.00    -0.273 NA
HETATM   13  C   UNL     1      -6.689  -3.505 -34.781  1.00  0.00     0.116 A 
HETATM   14  C   UNL     1      -7.079  -2.249 -34.330  1.00  0.00     0.027 A 
ENDBRANCH   6   9
ENDBRANCH   5   6
ENDBRANCH   2   5
BRANCH   1  15
HETATM   15  C   UNL     1     -10.745   1.674 -34.373  1.00  0.00     0.065 A 
HETATM   16  C   UNL     1     -11.663   2.435 -35.111  1.00  0.00     0.081 A 
HETATM   17  C   UNL     1     -13.031   2.130 -35.080  1.00  0.00     0.044 A 
HETATM   18  C   UNL     1     -13.505   1.066 -34.303  1.00  0.00    -0.059 A 
HETATM   19  C   UNL     1     -14.963   0.709 -34.288  1.00  0.00     0.048 C 
HETATM   20  C   UNL     1     -12.593   0.300 -33.570  1.00  0.00     0.008 A 
HETATM   21  C   UNL     1     -11.230   0.604 -33.602  1.00  0.00     0.020 A 
BRANCH  16  22
HETATM   22  O   UNL     1     -11.248   3.485 -35.892  1.00  0.00    -0.360 OA
HETATM   23  H   UNL     1     -10.700   4.078 -35.350  1.00  0.00     0.217 HD
ENDBRANCH  16  22
ENDBRANCH   1  15
TORSDOF 5
ENDMDL
MODEL 2
REMARK VINA RESULT:      -7.9      5.726      8.296
REMARK  5 active torsions:
REMARK  status: ('A' for Active; 'I' for Inactive)
REMARK    1  A    between atoms: C_4  and  O_5 
REMARK    2  A    between atoms: C_6  and  C_7 
REMARK       I    between atoms: C_7  and  N_8 
REMARK    3  A    between atoms: N_8  and  C_9 
REMARK    4  A    between atoms: C_9  and  C_10 
REMARK    5  A    between atoms: C_10  and  C_11 
ROOT
HETATM    1  C   UNL     1      -3.408   0.368 -31.968  1.00  0.00     0.254 C 
HETATM    2  N   UNL     1      -3.819   1.619 -32.370  1.00  0.00    -0.356 N 
HETATM    3  O   UNL     1      -2.613   0.201 -31.047  1.00  0.00    -0.268 OA
HETATM    4  H   UNL     1      -4.391   1.659 -33.210  1.00  0.00     0.162 HD
ENDROOT
BRANCH   2   5
HETATM    5  C   UNL     1      -3.221   2.822 -31.826  1.00  0.00     0.136 C 
BRANCH   5   6
HETATM    6  C   UNL     1      -3.962   4.145 -32.180  1.00  0.00    -0.004 C 
HETATM    7  C   UNL     1      -5.180   3.860 -33.091  1.00  0.00     0.021 C 
HETATM    8  C   UNL     1      -4.508   4.776 -30.875  1.00  0.00     0.021 C 
BRANCH   6   9
HETATM    9  C   UNL     1      -2.983   5.070 -32.933  1.00  0.00    -0.046 A 
HETATM   10  C   UNL     1      -2.930   6.443 -32.632  1.00  0.00     0.027 A 
HETATM   11  C   UNL     1      -2.046   7.264 -33.319  1.00  0.00     0.116 A 
HETATM   12  N   UNL     1      -1.211   6.828 -34.281  1.00  0.00    -0.273 NA
HETATM   13  C   UNL     1      -1.270   5.514 -34.570  1.00  0.00     0.116 A 
HETATM   14  C   UNL     1      -2.121   4.614 -33.938  1.00  0.00     0.027 A 
ENDBRANCH   6   9
ENDBRANCH   5   6
ENDBRANCH   2   5
BRANCH   1  15
HETATM   15  C   UNL     1      -3.955  -0.807 -32.721  1.00  0.00     0.065 A 
HETATM   16  C   UNL     1      -3.535  -2.134 -32.548  1.00  0.00     0.081 A 
HETATM   17  C   UNL     1      -4.120  -3.171 -33.287  1.00  0.00     0.044 A 
HETATM   18  C   UNL     1      -5.130  -2.897 -34.219  1.00  0.00    -0.059 A 
HETATM   19  C   UNL     1      -5.788  -4.003 -34.992  1.00  0.00     0.048 C 
HETATM   20  C   UNL     1      -5.557  -1.577 -34.390  1.00  0.00     0.008 A 
HETATM   21  C   UNL     1      -4.973  -0.545 -33.652  1.00  0.00     0.020 A 
BRANCH  16  22
HETATM   22  O   UNL     1      -2.552  -2.454 -31.644  1.00  0.00    -0.360 OA
HETATM   23  H   UNL     1      -1.720  -2.038 -31.929  1.00  0.00     0.217 HD
ENDBRANCH  16  22
ENDBRANCH   1  15
TORSDOF 5
ENDMDL
MODEL 3
REMARK VINA RESULT:      -7.8      2.150      7.207
REMARK  5 active torsions:
REMARK  status: ('A' for Active; 'I' for Inactive)
REMARK    1  A    between atoms: C_4  and  O_5 
REMARK    2  A    between atoms: C_6  and  C_7 
REMARK       I    between atoms: C_7  and  N_8 
REMARK    3  A    between atoms: N_8  and  C_9 
REMARK    4  A    between atoms: C_9  and  C_10 
REMARK    5  A    between atoms: C_10  and  C_11 
ROOT
HETATM    1  C   UNL     1      -6.838   0.040 -34.656  1.00  0.00     0.254 C 
HETATM    2  N   UNL     1      -7.360   0.710 -33.572  1.00  0.00    -0.356 N 
HETATM    3  O   UNL     1      -7.107   0.351 -35.813  1.00  0.00    -0.268 OA
HETATM    4  H   UNL     1      -7.166   0.310 -32.657  1.00  0.00     0.162 HD
ENDROOT
BRANCH   2   5
HETATM    5  C   UNL     1      -8.377   1.730 -33.732  1.00  0.00     0.136 C 
BRANCH   5   6
HETATM    6  C   UNL     1      -9.659   1.522 -32.872  1.00  0.00    -0.004 C 
HETATM    7  C   UNL     1      -9.700   0.088 -32.293  1.00  0.00     0.021 C 
HETATM    8  C   UNL     1      -9.618   2.498 -31.671  1.00  0.00     0.021 C 
BRANCH   6   9
HETATM    9  C   UNL     1     -10.894   1.729 -33.775  1.00  0.00    -0.046 A 
HETATM   10  C   UNL     1     -11.974   0.829 -33.716  1.00  0.00     0.027 A 
HETATM   11  C   UNL     1     -13.078   1.025 -34.536  1.00  0.00     0.116 A 
HETATM   12  N   UNL     1     -13.193   2.045 -35.408  1.00  0.00    -0.273 NA
HETATM   13  C   UNL     1     -12.154   2.900 -35.463  1.00  0.00     0.116 A 
HETATM   14  C   UNL     1     -11.007   2.787 -34.685  1.00  0.00     0.027 A 
ENDBRANCH   6   9
ENDBRANCH   5   6
ENDBRANCH   2   5
BRANCH   1  15
HETATM   15  C   UNL     1      -5.932  -1.120 -34.373  1.00  0.00     0.065 A 
HETATM   16  C   UNL     1      -4.777  -1.058 -33.578  1.00  0.00     0.081 A 
HETATM   17  C   UNL     1      -4.001  -2.203 -33.355  1.00  0.00     0.044 A 
HETATM   18  C   UNL     1      -4.360  -3.428 -33.931  1.00  0.00    -0.059 A 
HETATM   19  C   UNL     1      -3.555  -4.669 -33.673  1.00  0.00     0.048 C 
HETATM   20  C   UNL     1      -5.513  -3.497 -34.719  1.00  0.00     0.008 A 
HETATM   21  C   UNL     1      -6.286  -2.354 -34.940  1.00  0.00     0.020 A 
BRANCH  16  22
HETATM   22  O   UNL     1      -4.386   0.118 -32.987  1.00  0.00    -0.360 OA
HETATM   23  H   UNL     1      -5.180   0.646 -32.789  1.00  0.00     0.217 HD
ENDBRANCH  16  22
ENDBRANCH   1  15
TORSDOF 5
ENDMDL
MODEL 4
REMARK VINA RESULT:      -7.6      3.413      6.749
REMARK  5 active torsions:
REMARK  status: ('A' for Active; 'I' for Inactive)
REMARK    1  A    between atoms: C_4  and  O_5 
REMARK    2  A    between atoms: C_6  and  C_7 
REMARK       I    between atoms: C_7  and  N_8 
REMARK    3  A    between atoms: N_8  and  C_9 
REMARK    4  A    between atoms: C_9  and  C_10 
REMARK    5  A    between atoms: C_10  and  C_11 
ROOT
HETATM    1  C   UNL     1      -5.345   2.511 -32.308  1.00  0.00     0.254 C 
HETATM    2  N   UNL     1      -5.161   1.187 -32.640  1.00  0.00    -0.356 N 
HETATM    3  O   UNL     1      -6.338   2.907 -31.705  1.00  0.00    -0.268 OA
HETATM    4  H   UNL     1      -4.364   0.976 -33.234  1.00  0.00     0.162 HD
ENDROOT
BRANCH   2   5
HETATM    5  C   UNL     1      -6.205   0.204 -32.426  1.00  0.00     0.136 C 
BRANCH   5   6
HETATM    6  C   UNL     1      -6.891  -0.320 -33.723  1.00  0.00    -0.004 C 
HETATM    7  C   UNL     1      -8.416  -0.473 -33.509  1.00  0.00     0.021 C 
HETATM    8  C   UNL     1      -6.691   0.722 -34.850  1.00  0.00     0.021 C 
BRANCH   6   9
HETATM    9  C   UNL     1      -6.298  -1.702 -34.068  1.00  0.00    -0.046 A 
HETATM   10  C   UNL     1      -4.920  -1.941 -33.916  1.00  0.00     0.027 A 
HETATM   11  C   UNL     1      -4.398  -3.188 -34.233  1.00  0.00     0.116 A 
HETATM   12  N   UNL     1      -5.138  -4.217 -34.688  1.00  0.00    -0.273 NA
HETATM   13  C   UNL     1      -6.456  -3.982 -34.836  1.00  0.00     0.116 A 
HETATM   14  C   UNL     1      -7.070  -2.768 -34.547  1.00  0.00     0.027 A 
ENDBRANCH   6   9
ENDBRANCH   5   6
ENDBRANCH   2   5
BRANCH   1  15
HETATM   15  C   UNL     1      -4.282   3.477 -32.737  1.00  0.00     0.065 A 
HETATM   16  C   UNL     1      -3.004   3.566 -32.166  1.00  0.00     0.081 A 
HETATM   17  C   UNL     1      -2.069   4.492 -32.648  1.00  0.00     0.044 A 
HETATM   18  C   UNL     1      -2.399   5.352 -33.704  1.00  0.00    -0.059 A 
HETATM   19  C   UNL     1      -1.395   6.324 -34.250  1.00  0.00     0.048 C 
HETATM   20  C   UNL     1      -3.669   5.262 -34.280  1.00  0.00     0.008 A 
HETATM   21  C   UNL     1      -4.600   4.339 -33.799  1.00  0.00     0.020 A 
BRANCH  16  22
HETATM   22  O   UNL     1      -2.631   2.743 -31.132  1.00  0.00    -0.360 OA
HETATM   23  H   UNL     1      -2.452   1.856 -31.490  1.00  0.00     0.217 HD
ENDBRANCH  16  22
ENDBRANCH   1  15
TORSDOF 5
ENDMDL
MODEL 5
REMARK VINA RESULT:      -7.6      4.384      7.479
REMARK  5 active torsions:
REMARK  status: ('A' for Active; 'I' for Inactive)
REMARK    1  A    between atoms: C_4  and  O_5 
REMARK    2  A    between atoms: C_6  and  C_7 
REMARK       I    between atoms: C_7  and  N_8 
REMARK    3  A    between atoms: N_8  and  C_9 
REMARK    4  A    between atoms: C_9  and  C_10 
REMARK    5  A    between atoms: C_10  and  C_11 
ROOT
HETATM    1  C   UNL     1      -4.485   3.717 -33.274  1.00  0.00     0.254 C 
HETATM    2  N   UNL     1      -4.609   2.494 -32.653  1.00  0.00    -0.356 N 
HETATM    3  O   UNL     1      -5.307   4.127 -34.089  1.00  0.00    -0.268 OA
HETATM    4  H   UNL     1      -3.823   2.197 -32.079  1.00  0.00     0.162 HD
ENDROOT
BRANCH   2   5
HETATM    5  C   UNL     1      -5.640   1.552 -33.039  1.00  0.00     0.136 C 
BRANCH   5   6
HETATM    6  C   UNL     1      -5.690   0.246 -32.192  1.00  0.00    -0.004 C 
HETATM    7  C   UNL     1      -4.483   0.176 -31.227  1.00  0.00     0.021 C 
HETATM    8  C   UNL     1      -6.970   0.263 -31.322  1.00  0.00     0.021 C 
BRANCH   6   9
HETATM    9  C   UNL     1      -5.629  -0.963 -33.150  1.00  0.00    -0.046 A 
HETATM   10  C   UNL     1      -6.803  -1.450 -33.754  1.00  0.00     0.027 A 
HETATM   11  C   UNL     1      -6.735  -2.539 -34.612  1.00  0.00     0.116 A 
HETATM   12  N   UNL     1      -5.593  -3.183 -34.917  1.00  0.00    -0.273 NA
HETATM   13  C   UNL     1      -4.472  -2.716 -34.333  1.00  0.00     0.116 A 
HETATM   14  C   UNL     1      -4.440  -1.634 -33.461  1.00  0.00     0.027 A 
ENDBRANCH   6   9
ENDBRANCH   5   6
ENDBRANCH   2   5
BRANCH   1  15
HETATM   15  C   UNL     1      -3.279   4.539 -32.933  1.00  0.00     0.065 A 
HETATM   16  C   UNL     1      -2.777   5.587 -33.719  1.00  0.00     0.081 A 
HETATM   17  C   UNL     1      -1.651   6.312 -33.306  1.00  0.00     0.044 A 
HETATM   18  C   UNL     1      -1.002   5.997 -32.105  1.00  0.00    -0.059 A 
HETATM   19  C   UNL     1       0.184   6.788 -31.637  1.00  0.00     0.048 C 
HETATM   20  C   UNL     1      -1.504   4.958 -31.315  1.00  0.00     0.008 A 
HETATM   21  C   UNL     1      -2.626   4.236 -31.727  1.00  0.00     0.020 A 
BRANCH  16  22
HETATM   22  O   UNL     1      -3.379   5.937 -34.901  1.00  0.00    -0.360 OA
HETATM   23  H   UNL     1      -3.793   6.811 -34.793  1.00  0.00     0.217 HD
ENDBRANCH  16  22
ENDBRANCH   1  15
TORSDOF 5
ENDMDL
MODEL 6
REMARK VINA RESULT:      -7.5      4.235      7.123
REMARK  5 active torsions:
REMARK  status: ('A' for Active; 'I' for Inactive)
REMARK    1  A    between atoms: C_4  and  O_5 
REMARK    2  A    between atoms: C_6  and  C_7 
REMARK       I    between atoms: C_7  and  N_8 
REMARK    3  A    between atoms: N_8  and  C_9 
REMARK    4  A    between atoms: C_9  and  C_10 
REMARK    5  A    between atoms: C_10  and  C_11 
ROOT
HETATM    1  C   UNL     1      -6.422   2.080 -33.345  1.00  0.00     0.254 C 
HETATM    2  N   UNL     1      -5.279   2.837 -33.475  1.00  0.00    -0.356 N 
HETATM    3  O   UNL     1      -7.464   2.535 -32.881  1.00  0.00    -0.268 OA
HETATM    4  H   UNL     1      -4.440   2.342 -33.767  1.00  0.00     0.162 HD
ENDROOT
BRANCH   2   5
HETATM    5  C   UNL     1      -5.196   4.178 -32.932  1.00  0.00     0.136 C 
BRANCH   5   6
HETATM    6  C   UNL     1      -3.960   4.445 -32.023  1.00  0.00    -0.004 C 
HETATM    7  C   UNL     1      -4.380   5.205 -30.742  1.00  0.00     0.021 C 
HETATM    8  C   UNL     1      -3.368   3.087 -31.574  1.00  0.00     0.021 C 
BRANCH   6   9
HETATM    9  C   UNL     1      -2.952   5.312 -32.807  1.00  0.00    -0.046 A 
HETATM   10  C   UNL     1      -2.198   4.751 -33.854  1.00  0.00     0.027 A 
HETATM   11  C   UNL     1      -1.293   5.542 -34.549  1.00  0.00     0.116 A 
HETATM   12  N   UNL     1      -1.079   6.845 -34.287  1.00  0.00    -0.273 NA
HETATM   13  C   UNL     1      -1.800   7.376 -33.281  1.00  0.00     0.116 A 
HETATM   14  C   UNL     1      -2.728   6.666 -32.527  1.00  0.00     0.027 A 
ENDBRANCH   6   9
ENDBRANCH   5   6
ENDBRANCH   2   5
BRANCH   1  15
HETATM   15  C   UNL     1      -6.346   0.646 -33.775  1.00  0.00     0.065 A 
HETATM   16  C   UNL     1      -7.270   0.013 -34.619  1.00  0.00     0.081 A 
HETATM   17  C   UNL     1      -7.104  -1.331 -34.981  1.00  0.00     0.044 A 
HETATM   18  C   UNL     1      -6.015  -2.068 -34.497  1.00  0.00    -0.059 A 
HETATM   19  C   UNL     1      -5.809  -3.498 -34.905  1.00  0.00     0.048 C 
HETATM   20  C   UNL     1      -5.088  -1.440 -33.661  1.00  0.00     0.008 A 
HETATM   21  C   UNL     1      -5.254  -0.100 -33.301  1.00  0.00     0.020 A 
BRANCH  16  22
HETATM   22  O   UNL     1      -8.351   0.694 -35.123  1.00  0.00    -0.360 OA
HETATM   23  H   UNL     1      -9.140   0.449 -34.609  1.00  0.00     0.217 HD
ENDBRANCH  16  22
ENDBRANCH   1  15
TORSDOF 5
ENDMDL
MODEL 7
REMARK VINA RESULT:      -7.5      4.369      7.147
REMARK  5 active torsions:
REMARK  status: ('A' for Active; 'I' for Inactive)
REMARK    1  A    between atoms: C_4  and  O_5 
REMARK    2  A    between atoms: C_6  and  C_7 
REMARK       I    between atoms: C_7  and  N_8 
REMARK    3  A    between atoms: N_8  and  C_9 
REMARK    4  A    between atoms: C_9  and  C_10 
REMARK    5  A    between atoms: C_10  and  C_11 
ROOT
HETATM    1  C   UNL     1      -6.100   0.563 -32.597  1.00  0.00     0.254 C 
HETATM    2  N   UNL     1      -5.180   1.547 -32.884  1.00  0.00    -0.356 N 
HETATM    3  O   UNL     1      -6.977   0.709 -31.750  1.00  0.00    -0.268 OA
HETATM    4  H   UNL     1      -4.428   1.292 -33.519  1.00  0.00     0.162 HD
ENDROOT
BRANCH   2   5
HETATM    5  C   UNL     1      -5.102   2.761 -32.095  1.00  0.00     0.136 C 
BRANCH   5   6
HETATM    6  C   UNL     1      -5.182   4.084 -32.913  1.00  0.00    -0.004 C 
HETATM    7  C   UNL     1      -5.929   3.855 -34.248  1.00  0.00     0.021 C 
HETATM    8  C   UNL     1      -5.998   5.122 -32.105  1.00  0.00     0.021 C 
BRANCH   6   9
HETATM    9  C   UNL     1      -3.745   4.556 -33.222  1.00  0.00    -0.046 A 
HETATM   10  C   UNL     1      -3.428   5.082 -34.488  1.00  0.00     0.027 A 
HETATM   11  C   UNL     1      -2.131   5.500 -34.754  1.00  0.00     0.116 A 
HETATM   12  N   UNL     1      -1.125   5.438 -33.861  1.00  0.00    -0.273 NA
HETATM   13  C   UNL     1      -1.432   4.929 -32.653  1.00  0.00     0.116 A 
HETATM   14  C   UNL     1      -2.699   4.483 -32.293  1.00  0.00     0.027 A 
ENDBRANCH   6   9
ENDBRANCH   5   6
ENDBRANCH   2   5
BRANCH   1  15
HETATM   15  C   UNL     1      -5.979  -0.727 -33.349  1.00  0.00     0.065 A 
HETATM   16  C   UNL     1      -4.766  -1.356 -33.671  1.00  0.00     0.081 A 
HETATM   17  C   UNL     1      -4.756  -2.574 -34.364  1.00  0.00     0.044 A 
HETATM   18  C   UNL     1      -5.956  -3.180 -34.756  1.00  0.00    -0.059 A 
HETATM   19  C   UNL     1      -5.958  -4.501 -35.469  1.00  0.00     0.048 C 
HETATM   20  C   UNL     1      -7.167  -2.561 -34.432  1.00  0.00     0.008 A 
HETATM   21  C   UNL     1      -7.177  -1.347 -33.741  1.00  0.00     0.020 A 
BRANCH  16  22
HETATM   22  O   UNL     1      -3.564  -0.804 -33.305  1.00  0.00    -0.360 OA
HETATM   23  H   UNL     1      -2.919  -1.522 -33.175  1.00  0.00     0.217 HD
ENDBRANCH  16  22
ENDBRANCH   1  15
TORSDOF 5
ENDMDL
MODEL 8
REMARK VINA RESULT:      -7.5     14.202     16.992
REMARK  5 active torsions:
REMARK  status: ('A' for Active; 'I' for Inactive)
REMARK    1  A    between atoms: C_4  and  O_5 
REMARK    2  A    between atoms: C_6  and  C_7 
REMARK       I    between atoms: C_7  and  N_8 
REMARK    3  A    between atoms: N_8  and  C_9 
REMARK    4  A    between atoms: C_9  and  C_10 
REMARK    5  A    between atoms: C_10  and  C_11 
ROOT
HETATM    1  C   UNL     1      -3.796 -13.170 -38.697  1.00  0.00     0.254 C 
HETATM    2  N   UNL     1      -4.807 -13.997 -39.132  1.00  0.00    -0.356 N 
HETATM    3  O   UNL     1      -4.014 -12.090 -38.156  1.00  0.00    -0.268 OA
HETATM    4  H   UNL     1      -4.525 -14.816 -39.665  1.00  0.00     0.162 HD
ENDROOT
BRANCH   2   5
HETATM    5  C   UNL     1      -6.193 -13.570 -39.111  1.00  0.00     0.136 C 
BRANCH   5   6
HETATM    6  C   UNL     1      -6.782 -13.179 -40.499  1.00  0.00    -0.004 C 
HETATM    7  C   UNL     1      -6.432 -11.713 -40.847  1.00  0.00     0.021 C 
HETATM    8  C   UNL     1      -6.135 -14.072 -41.586  1.00  0.00     0.021 C 
BRANCH   6   9
HETATM    9  C   UNL     1      -8.317 -13.322 -40.437  1.00  0.00    -0.046 A 
HETATM   10  C   UNL     1      -9.127 -12.194 -40.211  1.00  0.00     0.027 A 
HETATM   11  C   UNL     1     -10.507 -12.338 -40.155  1.00  0.00     0.116 A 
HETATM   12  N   UNL     1     -11.145 -13.513 -40.307  1.00  0.00    -0.273 NA
HETATM   13  C   UNL     1     -10.366 -14.591 -40.519  1.00  0.00     0.116 A 
HETATM   14  C   UNL     1      -8.978 -14.548 -40.590  1.00  0.00     0.027 A 
ENDBRANCH   6   9
ENDBRANCH   5   6
ENDBRANCH   2   5
BRANCH   1  15
HETATM   15  C   UNL     1      -2.388 -13.630 -38.931  1.00  0.00     0.065 A 
HETATM   16  C   UNL     1      -1.807 -13.819 -40.194  1.00  0.00     0.081 A 
HETATM   17  C   UNL     1      -0.474 -14.236 -40.311  1.00  0.00     0.044 A 
HETATM   18  C   UNL     1       0.298 -14.479 -39.168  1.00  0.00    -0.059 A 
HETATM   19  C   UNL     1       1.737 -14.893 -39.282  1.00  0.00     0.048 C 
HETATM   20  C   UNL     1      -0.274 -14.286 -37.908  1.00  0.00     0.008 A 
HETATM   21  C   UNL     1      -1.603 -13.871 -37.791  1.00  0.00     0.020 A 
BRANCH  16  22
HETATM   22  O   UNL     1      -2.521 -13.589 -41.344  1.00  0.00    -0.360 OA
HETATM   23  H   UNL     1      -1.899 -13.355 -42.054  1.00  0.00     0.217 HD
ENDBRANCH  16  22
ENDBRANCH   1  15
TORSDOF 5
ENDMDL
MODEL 9
REMARK VINA RESULT:      -7.3     14.078     15.640
REMARK  5 active torsions:
REMARK  status: ('A' for Active; 'I' for Inactive)
REMARK    1  A    between atoms: C_4  and  O_5 
REMARK    2  A    between atoms: C_6  and  C_7 
REMARK       I    between atoms: C_7  and  N_8 
REMARK    3  A    between atoms: N_8  and  C_9 
REMARK    4  A    between atoms: C_9  and  C_10 
REMARK    5  A    between atoms: C_10  and  C_11 
ROOT
HETATM    1  C   UNL     1      -4.048 -12.423 -38.378  1.00  0.00     0.254 C 
HETATM    2  N   UNL     1      -3.104 -12.834 -39.293  1.00  0.00    -0.356 N 
HETATM    3  O   UNL     1      -3.750 -12.055 -37.245  1.00  0.00    -0.268 OA
HETATM    4  H   UNL     1      -3.457 -13.224 -40.163  1.00  0.00     0.162 HD
ENDROOT
BRANCH   2   5
HETATM    5  C   UNL     1      -1.713 -12.999 -38.919  1.00  0.00     0.136 C 
BRANCH   5   6
HETATM    6  C   UNL     1      -1.151 -14.441 -39.094  1.00  0.00    -0.004 C 
HETATM    7  C   UNL     1      -2.255 -15.399 -39.599  1.00  0.00     0.021 C 
HETATM    8  C   UNL     1      -0.039 -14.417 -40.171  1.00  0.00     0.021 C 
BRANCH   6   9
HETATM    9  C   UNL     1      -0.649 -14.941 -37.722  1.00  0.00    -0.046 A 
HETATM   10  C   UNL     1      -1.353 -14.618 -36.548  1.00  0.00     0.027 A 
HETATM   11  C   UNL     1      -0.890 -15.072 -35.320  1.00  0.00     0.116 A 
HETATM   12  N   UNL     1       0.218 -15.822 -35.168  1.00  0.00    -0.273 NA
HETATM   13  C   UNL     1       0.891 -16.125 -36.295  1.00  0.00     0.116 A 
HETATM   14  C   UNL     1       0.507 -15.716 -37.567  1.00  0.00     0.027 A 
ENDBRANCH   6   9
ENDBRANCH   5   6
ENDBRANCH   2   5
BRANCH   1  15
HETATM   15  C   UNL     1      -5.482 -12.462 -38.811  1.00  0.00     0.065 A 
HETATM   16  C   UNL     1      -6.566 -12.745 -37.967  1.00  0.00     0.081 A 
HETATM   17  C   UNL     1      -7.877 -12.740 -38.461  1.00  0.00     0.044 A 
HETATM   18  C   UNL     1      -8.127 -12.460 -39.811  1.00  0.00    -0.059 A 
HETATM   19  C   UNL     1      -9.529 -12.419 -40.345  1.00  0.00     0.048 C 
HETATM   20  C   UNL     1      -7.051 -12.171 -40.655  1.00  0.00     0.008 A 
HETATM   21  C   UNL     1      -5.744 -12.176 -40.161  1.00  0.00     0.020 A 
BRANCH  16  22
HETATM   22  O   UNL     1      -6.373 -13.021 -36.636  1.00  0.00    -0.360 OA
HETATM   23  H   UNL     1      -6.863 -12.366 -36.108  1.00  0.00     0.217 HD
ENDBRANCH  16  22
ENDBRANCH   1  15
TORSDOF 5
ENDMDL
MODEL 10
REMARK VINA RESULT:      -7.3      6.600     10.102
REMARK  5 active torsions:
REMARK  status: ('A' for Active; 'I' for Inactive)
REMARK    1  A    between atoms: C_4  and  O_5 
REMARK    2  A    between atoms: C_6  and  C_7 
REMARK       I    between atoms: C_7  and  N_8 
REMARK    3  A    between atoms: N_8  and  C_9 
REMARK    4  A    between atoms: C_9  and  C_10 
REMARK    5  A    between atoms: C_10  and  C_11 
ROOT
HETATM    1  C   UNL     1      -1.261   5.128 -31.663  1.00  0.00     0.254 C 
HETATM    2  N   UNL     1      -2.329   4.308 -31.374  1.00  0.00    -0.356 N 
HETATM    3  O   UNL     1      -0.846   5.291 -32.807  1.00  0.00    -0.268 OA
HETATM    4  H   UNL     1      -2.527   4.152 -30.389  1.00  0.00     0.162 HD
ENDROOT
BRANCH   2   5
HETATM    5  C   UNL     1      -2.933   3.470 -32.391  1.00  0.00     0.136 C 
BRANCH   5   6
HETATM    6  C   UNL     1      -4.329   2.887 -32.019  1.00  0.00    -0.004 C 
HETATM    7  C   UNL     1      -4.730   3.306 -30.585  1.00  0.00     0.021 C 
HETATM    8  C   UNL     1      -5.389   3.479 -32.980  1.00  0.00     0.021 C 
BRANCH   6   9
HETATM    9  C   UNL     1      -4.251   1.347 -32.083  1.00  0.00    -0.046 A 
HETATM   10  C   UNL     1      -3.257   0.657 -31.366  1.00  0.00     0.027 A 
HETATM   11  C   UNL     1      -3.196  -0.729 -31.435  1.00  0.00     0.116 A 
HETATM   12  N   UNL     1      -4.045  -1.482 -32.159  1.00  0.00    -0.273 NA
HETATM   13  C   UNL     1      -4.992  -0.816 -32.848  1.00  0.00     0.116 A 
HETATM   14  C   UNL     1      -5.132   0.567 -32.843  1.00  0.00     0.027 A 
ENDBRANCH   6   9
ENDBRANCH   5   6
ENDBRANCH   2   5
BRANCH   1  15
HETATM   15  C   UNL     1      -0.592   5.812 -30.509  1.00  0.00     0.065 A 
HETATM   16  C   UNL     1       0.303   5.195 -29.622  1.00  0.00     0.081 A 
HETATM   17  C   UNL     1       0.894   5.924 -28.581  1.00  0.00     0.044 A 
HETATM   18  C   UNL     1       0.593   7.280 -28.403  1.00  0.00    -0.059 A 
HETATM   19  C   UNL     1       1.245   8.079 -27.312  1.00  0.00     0.048 C 
HETATM   20  C   UNL     1      -0.294   7.901 -29.288  1.00  0.00     0.008 A 
HETATM   21  C   UNL     1      -0.882   7.174 -30.325  1.00  0.00     0.020 A 
BRANCH  16  22
HETATM   22  O   UNL     1       0.634   3.869 -29.758  1.00  0.00    -0.360 OA
HETATM   23  H   UNL     1       1.287   3.784 -30.475  1.00  0.00     0.217 HD
ENDBRANCH  16  22
ENDBRANCH   1  15
TORSDOF 5
ENDMDL
