MODEL 1
REMARK VINA RESULT:      -7.9      0.000      0.000
REMARK  2 active torsions:
REMARK  status: ('A' for Active; 'I' for Inactive)
REMARK    1  A    between atoms: C_8  and  S_9 
REMARK    2  A    between atoms: S_9  and  C_10 
ROOT
HETATM    1  C   UNL     1      -3.379  -4.279 -33.128  1.00  0.00     0.002 A 
HETATM    2  C   UNL     1      -3.553  -2.934 -32.797  1.00  0.00     0.034 A 
HETATM    3  C   UNL     1      -4.554  -2.172 -33.385  1.00  0.00     0.087 A 
HETATM    4  C   UNL     1      -5.413  -2.774 -34.340  1.00  0.00     0.087 A 
HETATM    5  N   UNL     1      -6.405  -2.076 -34.930  1.00  0.00    -0.231 NA
HETATM    6  C   UNL     1      -6.522  -0.768 -34.610  1.00  0.00     0.167 A 
HETATM    7 CL   UNL     1      -7.878  -0.026 -35.343  1.00  0.00    -0.059 Cl
HETATM    8  C   UNL     1      -5.680  -0.192 -33.688  1.00  0.00     0.192 A 
HETATM    9  N   UNL     1      -4.699  -0.879 -33.036  1.00  0.00    -0.232 NA
HETATM   10  C   UNL     1      -5.231  -4.114 -34.658  1.00  0.00     0.034 A 
HETATM   11  C   UNL     1      -4.221  -4.870 -34.061  1.00  0.00     0.002 A 
ENDROOT
BRANCH   8  12
HETATM   12  S   UNL     1      -5.793   1.494 -33.189  1.00  0.00     0.200 S 
HETATM   13  O   UNL     1      -4.625   1.830 -32.392  1.00  0.00    -0.221 OA
HETATM   14  O   UNL     1      -6.116   2.322 -34.332  1.00  0.00    -0.221 OA
BRANCH  12  15
HETATM   15  C   UNL     1      -7.194   1.547 -32.066  1.00  0.00     0.118 C 
HETATM   16  C   UNL     1      -7.171   2.841 -31.237  1.00  0.00     0.048 C 
HETATM   17  C   UNL     1      -6.098   2.838 -30.156  1.00  0.00     0.233 C 
HETATM   18  N   UNL     1      -6.266   1.628 -29.300  1.00  0.00    -0.075 N 
HETATM   19  H   UNL     1      -7.131   1.704 -28.748  1.00  0.00     0.277 HD
HETATM   20  H   UNL     1      -5.503   1.624 -28.605  1.00  0.00     0.277 HD
HETATM   21  C   UNL     1      -6.232   0.324 -30.024  1.00  0.00     0.233 C 
HETATM   22  C   UNL     1      -7.271   0.324 -31.140  1.00  0.00     0.048 C 
ENDBRANCH  12  15
ENDBRANCH   8  12
TORSDOF 2
ENDMDL
MODEL 2
REMARK VINA RESULT:      -7.8      2.236      3.175
REMARK  2 active torsions:
REMARK  status: ('A' for Active; 'I' for Inactive)
REMARK    1  A    between atoms: C_8  and  S_9 
REMARK    2  A    between atoms: S_9  and  C_10 
ROOT
HETATM    1  C   UNL     1      -5.276  -4.932 -34.798  1.00  0.00     0.002 A 
HETATM    2  C   UNL     1      -6.067  -3.794 -34.956  1.00  0.00     0.034 A 
HETATM    3  C   UNL     1      -5.702  -2.580 -34.388  1.00  0.00     0.087 A 
HETATM    4  C   UNL     1      -4.505  -2.501 -33.632  1.00  0.00     0.087 A 
HETATM    5  N   UNL     1      -4.106  -1.341 -33.070  1.00  0.00    -0.231 NA
HETATM    6  C   UNL     1      -4.914  -0.267 -33.217  1.00  0.00     0.167 A 
HETATM    7 CL   UNL     1      -4.245   1.160 -32.550  1.00  0.00    -0.059 Cl
HETATM    8  C   UNL     1      -6.076  -0.356 -33.946  1.00  0.00     0.192 A 
HETATM    9  N   UNL     1      -6.484  -1.498 -34.570  1.00  0.00    -0.232 NA
HETATM   10  C   UNL     1      -3.726  -3.641 -33.484  1.00  0.00     0.034 A 
HETATM   11  C   UNL     1      -4.102  -4.855 -34.060  1.00  0.00     0.002 A 
ENDROOT
BRANCH   8  12
HETATM   12  S   UNL     1      -7.161   1.006 -34.216  1.00  0.00     0.200 S 
HETATM   13  O   UNL     1      -6.374   2.172 -34.578  1.00  0.00    -0.221 OA
HETATM   14  O   UNL     1      -8.246   0.602 -35.085  1.00  0.00    -0.221 OA
BRANCH  12  15
HETATM   15  C   UNL     1      -7.862   1.360 -32.600  1.00  0.00     0.118 C 
HETATM   16  C   UNL     1      -8.808   0.230 -32.164  1.00  0.00     0.048 C 
HETATM   17  C   UNL     1     -10.130   0.235 -32.919  1.00  0.00     0.233 C 
HETATM   18  N   UNL     1     -10.766   1.578 -32.789  1.00  0.00    -0.075 N 
HETATM   19  H   UNL     1     -11.069   1.732 -31.817  1.00  0.00     0.277 HD
HETATM   20  H   UNL     1     -11.636   1.572 -33.343  1.00  0.00     0.277 HD
HETATM   21  C   UNL     1      -9.935   2.726 -33.255  1.00  0.00     0.233 C 
HETATM   22  C   UNL     1      -8.587   2.712 -32.541  1.00  0.00     0.048 C 
ENDBRANCH  12  15
ENDBRANCH   8  12
TORSDOF 2
ENDMDL
MODEL 3
REMARK VINA RESULT:      -7.7      1.597      2.021
REMARK  2 active torsions:
REMARK  status: ('A' for Active; 'I' for Inactive)
REMARK    1  A    between atoms: C_8  and  S_9 
REMARK    2  A    between atoms: S_9  and  C_10 
ROOT
HETATM    1  C   UNL     1      -3.282  -4.078 -32.803  1.00  0.00     0.002 A 
HETATM    2  C   UNL     1      -3.569  -2.793 -32.341  1.00  0.00     0.034 A 
HETATM    3  C   UNL     1      -4.468  -1.972 -33.009  1.00  0.00     0.087 A 
HETATM    4  C   UNL     1      -5.102  -2.451 -34.184  1.00  0.00     0.087 A 
HETATM    5  N   UNL     1      -5.989  -1.692 -34.862  1.00  0.00    -0.231 NA
HETATM    6  C   UNL     1      -6.217  -0.441 -34.403  1.00  0.00     0.167 A 
HETATM    7 CL   UNL     1      -7.435   0.376 -35.285  1.00  0.00    -0.059 Cl
HETATM    8  C   UNL     1      -5.592   0.016 -33.266  1.00  0.00     0.192 A 
HETATM    9  N   UNL     1      -4.729  -0.740 -32.530  1.00  0.00    -0.232 NA
HETATM   10  C   UNL     1      -4.809  -3.733 -34.632  1.00  0.00     0.034 A 
HETATM   11  C   UNL     1      -3.905  -4.549 -33.952  1.00  0.00     0.002 A 
ENDROOT
BRANCH   8  12
HETATM   12  S   UNL     1      -5.865   1.617 -32.584  1.00  0.00     0.200 S 
HETATM   13  O   UNL     1      -5.404   2.619 -33.530  1.00  0.00    -0.221 OA
HETATM   14  O   UNL     1      -7.219   1.708 -32.078  1.00  0.00    -0.221 OA
BRANCH  12  15
HETATM   15  C   UNL     1      -4.752   1.711 -31.176  1.00  0.00     0.118 C 
HETATM   16  C   UNL     1      -5.428   2.442 -30.005  1.00  0.00     0.048 C 
HETATM   17  C   UNL     1      -5.539   3.945 -30.224  1.00  0.00     0.233 C 
HETATM   18  N   UNL     1      -4.187   4.500 -30.526  1.00  0.00    -0.075 N 
HETATM   19  H   UNL     1      -3.589   4.445 -29.690  1.00  0.00     0.277 HD
HETATM   20  H   UNL     1      -4.294   5.509 -30.714  1.00  0.00     0.277 HD
HETATM   21  C   UNL     1      -3.492   3.887 -31.694  1.00  0.00     0.233 C 
HETATM   22  C   UNL     1      -3.409   2.375 -31.513  1.00  0.00     0.048 C 
ENDBRANCH  12  15
ENDBRANCH   8  12
TORSDOF 2
ENDMDL
MODEL 4
REMARK VINA RESULT:      -7.7      1.547      2.124
REMARK  2 active torsions:
REMARK  status: ('A' for Active; 'I' for Inactive)
REMARK    1  A    between atoms: C_8  and  S_9 
REMARK    2  A    between atoms: S_9  and  C_10 
ROOT
HETATM    1  C   UNL     1      -6.303  -4.603 -35.181  1.00  0.00     0.002 A 
HETATM    2  C   UNL     1      -6.756  -3.303 -34.954  1.00  0.00     0.034 A 
HETATM    3  C   UNL     1      -5.953  -2.361 -34.324  1.00  0.00     0.087 A 
HETATM    4  C   UNL     1      -4.651  -2.731 -33.903  1.00  0.00     0.087 A 
HETATM    5  N   UNL     1      -3.832  -1.847 -33.295  1.00  0.00    -0.231 NA
HETATM    6  C   UNL     1      -4.318  -0.608 -33.062  1.00  0.00     0.167 A 
HETATM    7 CL   UNL     1      -3.150   0.444 -32.384  1.00  0.00    -0.059 Cl
HETATM    8  C   UNL     1      -5.585  -0.260 -33.468  1.00  0.00     0.192 A 
HETATM    9  N   UNL     1      -6.420  -1.112 -34.129  1.00  0.00    -0.232 NA
HETATM   10  C   UNL     1      -4.211  -4.028 -34.138  1.00  0.00     0.034 A 
HETATM   11  C   UNL     1      -5.026  -4.965 -34.772  1.00  0.00     0.002 A 
ENDROOT
BRANCH   8  12
HETATM   12  S   UNL     1      -6.274   1.344 -33.236  1.00  0.00     0.200 S 
HETATM   13  O   UNL     1      -5.255   2.222 -32.686  1.00  0.00    -0.221 OA
HETATM   14  O   UNL     1      -6.972   1.755 -34.437  1.00  0.00    -0.221 OA
BRANCH  12  15
HETATM   15  C   UNL     1      -7.501   1.133 -31.940  1.00  0.00     0.118 C 
HETATM   16  C   UNL     1      -7.859   2.490 -31.312  1.00  0.00     0.048 C 
HETATM   17  C   UNL     1      -6.762   3.036 -30.408  1.00  0.00     0.233 C 
HETATM   18  N   UNL     1      -6.419   2.014 -29.377  1.00  0.00    -0.075 N 
HETATM   19  H   UNL     1      -7.204   1.899 -28.721  1.00  0.00     0.277 HD
HETATM   20  H   UNL     1      -5.645   2.388 -28.806  1.00  0.00     0.277 HD
HETATM   21  C   UNL     1      -5.996   0.687 -29.909  1.00  0.00     0.233 C 
HETATM   22  C   UNL     1      -7.064   0.142 -30.852  1.00  0.00     0.048 C 
ENDBRANCH  12  15
ENDBRANCH   8  12
TORSDOF 2
ENDMDL
MODEL 5
REMARK VINA RESULT:      -7.2      2.482      3.256
REMARK  2 active torsions:
REMARK  status: ('A' for Active; 'I' for Inactive)
REMARK    1  A    between atoms: C_8  and  S_9 
REMARK    2  A    between atoms: S_9  and  C_10 
ROOT
HETATM    1  C   UNL     1      -6.554  -4.047 -35.091  1.00  0.00     0.002 A 
HETATM    2  C   UNL     1      -6.960  -2.823 -34.558  1.00  0.00     0.034 A 
HETATM    3  C   UNL     1      -6.084  -2.030 -33.828  1.00  0.00     0.087 A 
HETATM    4  C   UNL     1      -4.754  -2.477 -33.620  1.00  0.00     0.087 A 
HETATM    5  N   UNL     1      -3.865  -1.736 -32.925  1.00  0.00    -0.231 NA
HETATM    6  C   UNL     1      -4.304  -0.573 -32.396  1.00  0.00     0.167 A 
HETATM    7 CL   UNL     1      -3.057   0.318 -31.632  1.00  0.00    -0.059 Cl
HETATM    8  C   UNL     1      -5.597  -0.151 -32.598  1.00  0.00     0.192 A 
HETATM    9  N   UNL     1      -6.506  -0.849 -33.336  1.00  0.00    -0.232 NA
HETATM   10  C   UNL     1      -4.362  -3.697 -34.158  1.00  0.00     0.034 A 
HETATM   11  C   UNL     1      -5.251  -4.484 -34.890  1.00  0.00     0.002 A 
ENDROOT
BRANCH   8  12
HETATM   12  S   UNL     1      -6.231   1.370 -31.975  1.00  0.00     0.200 S 
HETATM   13  O   UNL     1      -7.626   1.494 -32.363  1.00  0.00    -0.221 OA
HETATM   14  O   UNL     1      -5.883   1.510 -30.577  1.00  0.00    -0.221 OA
BRANCH  12  15
HETATM   15  C   UNL     1      -5.347   2.642 -32.885  1.00  0.00     0.118 C 
HETATM   16  C   UNL     1      -4.950   3.795 -31.950  1.00  0.00     0.048 C 
HETATM   17  C   UNL     1      -6.129   4.673 -31.550  1.00  0.00     0.233 C 
HETATM   18  N   UNL     1      -6.818   5.161 -32.780  1.00  0.00    -0.075 N 
HETATM   19  H   UNL     1      -6.212   5.825 -33.282  1.00  0.00     0.277 HD
HETATM   20  H   UNL     1      -7.637   5.715 -32.485  1.00  0.00     0.277 HD
HETATM   21  C   UNL     1      -7.295   4.098 -33.710  1.00  0.00     0.233 C 
HETATM   22  C   UNL     1      -6.135   3.182 -34.088  1.00  0.00     0.048 C 
ENDBRANCH  12  15
ENDBRANCH   8  12
TORSDOF 2
ENDMDL
MODEL 6
REMARK VINA RESULT:      -7.1      3.386      4.109
REMARK  2 active torsions:
REMARK  status: ('A' for Active; 'I' for Inactive)
REMARK    1  A    between atoms: C_8  and  S_9 
REMARK    2  A    between atoms: S_9  and  C_10 
ROOT
HETATM    1  C   UNL     1      -5.542  -3.625 -34.952  1.00  0.00     0.002 A 
HETATM    2  C   UNL     1      -6.732  -2.965 -34.642  1.00  0.00     0.034 A 
HETATM    3  C   UNL     1      -6.726  -1.753 -33.963  1.00  0.00     0.087 A 
HETATM    4  C   UNL     1      -5.487  -1.179 -33.579  1.00  0.00     0.087 A 
HETATM    5  N   UNL     1      -5.433   0.001 -32.927  1.00  0.00    -0.231 NA
HETATM    6  C   UNL     1      -6.606   0.594 -32.615  1.00  0.00     0.167 A 
HETATM    7 CL   UNL     1      -6.398   2.129 -31.886  1.00  0.00    -0.059 Cl
HETATM    8  C   UNL     1      -7.802   0.027 -32.986  1.00  0.00     0.192 A 
HETATM    9  N   UNL     1      -7.893  -1.138 -33.688  1.00  0.00    -0.232 NA
HETATM   10  C   UNL     1      -4.310  -1.845 -33.897  1.00  0.00     0.034 A 
HETATM   11  C   UNL     1      -4.328  -3.062 -34.579  1.00  0.00     0.002 A 
ENDROOT
BRANCH   8  12
HETATM   12  S   UNL     1      -9.371   0.757 -32.650  1.00  0.00     0.200 S 
HETATM   13  O   UNL     1     -10.388  -0.280 -32.667  1.00  0.00    -0.221 OA
HETATM   14  O   UNL     1      -9.271   1.615 -31.488  1.00  0.00    -0.221 OA
BRANCH  12  15
HETATM   15  C   UNL     1      -9.702   1.804 -34.072  1.00  0.00     0.118 C 
HETATM   16  C   UNL     1      -9.267   3.250 -33.789  1.00  0.00     0.048 C 
HETATM   17  C   UNL     1     -10.201   3.978 -32.831  1.00  0.00     0.233 C 
HETATM   18  N   UNL     1     -11.596   3.905 -33.355  1.00  0.00    -0.075 N 
HETATM   19  H   UNL     1     -11.680   4.469 -34.212  1.00  0.00     0.277 HD
HETATM   20  H   UNL     1     -12.216   4.365 -32.670  1.00  0.00     0.277 HD
HETATM   21  C   UNL     1     -12.118   2.529 -33.593  1.00  0.00     0.233 C 
HETATM   22  C   UNL     1     -11.172   1.769 -34.517  1.00  0.00     0.048 C 
ENDBRANCH  12  15
ENDBRANCH   8  12
TORSDOF 2
ENDMDL
MODEL 7
REMARK VINA RESULT:      -7.1      1.206      1.849
REMARK  2 active torsions:
REMARK  status: ('A' for Active; 'I' for Inactive)
REMARK    1  A    between atoms: C_8  and  S_9 
REMARK    2  A    between atoms: S_9  and  C_10 
ROOT
HETATM    1  C   UNL     1      -3.119  -4.290 -32.643  1.00  0.00     0.002 A 
HETATM    2  C   UNL     1      -3.112  -2.992 -32.130  1.00  0.00     0.034 A 
HETATM    3  C   UNL     1      -3.898  -1.993 -32.690  1.00  0.00     0.087 A 
HETATM    4  C   UNL     1      -4.720  -2.301 -33.804  1.00  0.00     0.087 A 
HETATM    5  N   UNL     1      -5.507  -1.365 -34.374  1.00  0.00    -0.231 NA
HETATM    6  C   UNL     1      -5.448  -0.112 -33.872  1.00  0.00     0.167 A 
HETATM    7 CL   UNL     1      -6.568   0.951 -34.612  1.00  0.00    -0.059 Cl
HETATM    8  C   UNL     1      -4.643   0.178 -32.796  1.00  0.00     0.192 A 
HETATM    9  N   UNL     1      -3.873  -0.753 -32.164  1.00  0.00    -0.232 NA
HETATM   10  C   UNL     1      -4.720  -3.597 -34.302  1.00  0.00     0.034 A 
HETATM   11  C   UNL     1      -3.927  -4.593 -33.731  1.00  0.00     0.002 A 
ENDROOT
BRANCH   8  12
HETATM   12  S   UNL     1      -4.541   1.776 -32.061  1.00  0.00     0.200 S 
HETATM   13  O   UNL     1      -3.143   2.102 -31.832  1.00  0.00    -0.221 OA
HETATM   14  O   UNL     1      -5.361   2.710 -32.804  1.00  0.00    -0.221 OA
BRANCH  12  15
HETATM   15  C   UNL     1      -5.279   1.580 -30.435  1.00  0.00     0.118 C 
HETATM   16  C   UNL     1      -6.488   0.633 -30.503  1.00  0.00     0.048 C 
HETATM   17  C   UNL     1      -7.707   1.268 -31.159  1.00  0.00     0.233 C 
HETATM   18  N   UNL     1      -8.034   2.544 -30.457  1.00  0.00    -0.075 N 
HETATM   19  H   UNL     1      -8.376   2.345 -29.507  1.00  0.00     0.277 HD
HETATM   20  H   UNL     1      -8.833   2.977 -30.945  1.00  0.00     0.277 HD
HETATM   21  C   UNL     1      -6.930   3.545 -30.406  1.00  0.00     0.233 C 
HETATM   22  C   UNL     1      -5.686   2.914 -29.792  1.00  0.00     0.048 C 
ENDBRANCH  12  15
ENDBRANCH   8  12
TORSDOF 2
ENDMDL
MODEL 8
REMARK VINA RESULT:      -7.1      2.314      2.829
REMARK  2 active torsions:
REMARK  status: ('A' for Active; 'I' for Inactive)
REMARK    1  A    between atoms: C_8  and  S_9 
REMARK    2  A    between atoms: S_9  and  C_10 
ROOT
HETATM    1  C   UNL     1      -3.604  -4.589 -33.499  1.00  0.00     0.002 A 
HETATM    2  C   UNL     1      -3.374  -3.451 -32.725  1.00  0.00     0.034 A 
HETATM    3  C   UNL     1      -4.089  -2.279 -32.937  1.00  0.00     0.087 A 
HETATM    4  C   UNL     1      -5.069  -2.242 -33.962  1.00  0.00     0.087 A 
HETATM    5  N   UNL     1      -5.794  -1.129 -34.199  1.00  0.00    -0.231 NA
HETATM    6  C   UNL     1      -5.521  -0.037 -33.451  1.00  0.00     0.167 A 
HETATM    7 CL   UNL     1      -6.577   1.269 -33.776  1.00  0.00    -0.059 Cl
HETATM    8  C   UNL     1      -4.565  -0.082 -32.464  1.00  0.00     0.192 A 
HETATM    9  N   UNL     1      -3.849  -1.202 -32.164  1.00  0.00    -0.232 NA
HETATM   10  C   UNL     1      -5.289  -3.382 -34.725  1.00  0.00     0.034 A 
HETATM   11  C   UNL     1      -4.565  -4.554 -34.502  1.00  0.00     0.002 A 
ENDROOT
BRANCH   8  12
HETATM   12  S   UNL     1      -4.178   1.286 -31.422  1.00  0.00     0.200 S 
HETATM   13  O   UNL     1      -5.231   1.437 -30.432  1.00  0.00    -0.221 OA
HETATM   14  O   UNL     1      -2.807   1.183 -30.969  1.00  0.00    -0.221 OA
BRANCH  12  15
HETATM   15  C   UNL     1      -4.291   2.724 -32.493  1.00  0.00     0.118 C 
HETATM   16  C   UNL     1      -2.901   3.341 -32.713  1.00  0.00     0.048 C 
HETATM   17  C   UNL     1      -2.380   4.088 -31.493  1.00  0.00     0.233 C 
HETATM   18  N   UNL     1      -3.385   5.108 -31.074  1.00  0.00    -0.075 N 
HETATM   19  H   UNL     1      -3.443   5.856 -31.780  1.00  0.00     0.277 HD
HETATM   20  H   UNL     1      -3.031   5.570 -30.222  1.00  0.00     0.277 HD
HETATM   21  C   UNL     1      -4.746   4.578 -30.776  1.00  0.00     0.233 C 
HETATM   22  C   UNL     1      -5.268   3.788 -31.972  1.00  0.00     0.048 C 
ENDBRANCH  12  15
ENDBRANCH   8  12
TORSDOF 2
ENDMDL
MODEL 9
REMARK VINA RESULT:      -7.0      4.179      6.281
REMARK  2 active torsions:
REMARK  status: ('A' for Active; 'I' for Inactive)
REMARK    1  A    between atoms: C_8  and  S_9 
REMARK    2  A    between atoms: S_9  and  C_10 
ROOT
HETATM    1  C   UNL     1     -13.477  -0.012 -33.837  1.00  0.00     0.002 A 
HETATM    2  C   UNL     1     -12.134  -0.088 -33.468  1.00  0.00     0.034 A 
HETATM    3  C   UNL     1     -11.278   0.992 -33.642  1.00  0.00     0.087 A 
HETATM    4  C   UNL     1     -11.782   2.192 -34.206  1.00  0.00     0.087 A 
HETATM    5  N   UNL     1     -10.990   3.270 -34.384  1.00  0.00    -0.231 NA
HETATM    6  C   UNL     1      -9.687   3.148 -34.046  1.00  0.00     0.167 A 
HETATM    7 CL   UNL     1      -8.819   4.612 -34.222  1.00  0.00    -0.059 Cl
HETATM    8  C   UNL     1      -9.207   1.979 -33.506  1.00  0.00     0.192 A 
HETATM    9  N   UNL     1      -9.988   0.888 -33.266  1.00  0.00    -0.232 NA
HETATM   10  C   UNL     1     -13.122   2.255 -34.566  1.00  0.00     0.034 A 
HETATM   11  C   UNL     1     -13.972   1.164 -34.387  1.00  0.00     0.002 A 
ENDROOT
BRANCH   8  12
HETATM   12  S   UNL     1      -7.532   1.755 -33.005  1.00  0.00     0.200 S 
HETATM   13  O   UNL     1      -6.673   1.853 -34.172  1.00  0.00    -0.221 OA
HETATM   14  O   UNL     1      -7.249   2.594 -31.859  1.00  0.00    -0.221 OA
BRANCH  12  15
HETATM   15  C   UNL     1      -7.441   0.045 -32.461  1.00  0.00     0.118 C 
HETATM   16  C   UNL     1      -6.553  -0.076 -31.213  1.00  0.00     0.048 C 
HETATM   17  C   UNL     1      -5.069   0.075 -31.520  1.00  0.00     0.233 C 
HETATM   18  N   UNL     1      -4.684  -0.903 -32.578  1.00  0.00    -0.075 N 
HETATM   19  H   UNL     1      -4.733  -1.862 -32.207  1.00  0.00     0.277 HD
HETATM   20  H   UNL     1      -3.687  -0.752 -32.801  1.00  0.00     0.277 HD
HETATM   21  C   UNL     1      -5.456  -0.806 -33.850  1.00  0.00     0.233 C 
HETATM   22  C   UNL     1      -6.949  -0.911 -33.558  1.00  0.00     0.048 C 
ENDBRANCH  12  15
ENDBRANCH   8  12
TORSDOF 2
ENDMDL
MODEL 10
REMARK VINA RESULT:      -7.0      2.527      3.076
REMARK  2 active torsions:
REMARK  status: ('A' for Active; 'I' for Inactive)
REMARK    1  A    between atoms: C_8  and  S_9 
REMARK    2  A    between atoms: S_9  and  C_10 
ROOT
HETATM    1  C   UNL     1      -4.192  -3.178 -33.976  1.00  0.00     0.002 A 
HETATM    2  C   UNL     1      -4.214  -1.888 -33.443  1.00  0.00     0.034 A 
HETATM    3  C   UNL     1      -5.314  -1.057 -33.615  1.00  0.00     0.087 A 
HETATM    4  C   UNL     1      -6.432  -1.531 -34.347  1.00  0.00     0.087 A 
HETATM    5  N   UNL     1      -7.526  -0.763 -34.532  1.00  0.00    -0.231 NA
HETATM    6  C   UNL     1      -7.497   0.492 -34.030  1.00  0.00     0.167 A 
HETATM    7 CL   UNL     1      -8.979   1.322 -34.239  1.00  0.00    -0.059 Cl
HETATM    8  C   UNL     1      -6.406   0.944 -33.327  1.00  0.00     0.192 A 
HETATM    9  N   UNL     1      -5.305   0.179 -33.078  1.00  0.00    -0.232 NA
HETATM   10  C   UNL     1      -6.398  -2.817 -34.870  1.00  0.00     0.034 A 
HETATM   11  C   UNL     1      -5.288  -3.643 -34.691  1.00  0.00     0.002 A 
ENDROOT
BRANCH   8  12
HETATM   12  S   UNL     1      -6.309   2.550 -32.609  1.00  0.00     0.200 S 
HETATM   13  O   UNL     1      -7.445   2.741 -31.723  1.00  0.00    -0.221 OA
HETATM   14  O   UNL     1      -4.976   2.774 -32.089  1.00  0.00    -0.221 OA
BRANCH  12  15
HETATM   15  C   UNL     1      -6.552   3.682 -33.983  1.00  0.00     0.118 C 
HETATM   16  C   UNL     1      -5.286   4.519 -34.222  1.00  0.00     0.048 C 
HETATM   17  C   UNL     1      -5.074   5.594 -33.163  1.00  0.00     0.233 C 
HETATM   18  N   UNL     1      -6.297   6.442 -33.071  1.00  0.00    -0.075 N 
HETATM   19  H   UNL     1      -6.405   7.000 -33.929  1.00  0.00     0.277 HD
HETATM   20  H   UNL     1      -6.148   7.133 -32.319  1.00  0.00     0.277 HD
HETATM   21  C   UNL     1      -7.562   5.710 -32.775  1.00  0.00     0.233 C 
HETATM   22  C   UNL     1      -7.770   4.600 -33.800  1.00  0.00     0.048 C 
ENDBRANCH  12  15
ENDBRANCH   8  12
TORSDOF 2
ENDMDL
