MODEL 1
REMARK VINA RESULT:      -8.4      0.000      0.000
REMARK  4 active torsions:
REMARK  status: ('A' for Active; 'I' for Inactive)
REMARK    1  A    between atoms: O_2  and  C_3 
REMARK    2  A    between atoms: C_5  and  O_6 
REMARK    3  A    between atoms: C_8  and  C_9 
REMARK    4  A    between atoms: C_20  and  N_21 
ROOT
HETATM    1  C   UNL     1      -4.182   1.196 -32.001  1.00  0.00    -0.022 A 
HETATM    2  C   UNL     1      -3.308   2.162 -32.519  1.00  0.00     0.031 A 
HETATM    3  C   UNL     1      -3.341   3.503 -32.086  1.00  0.00     0.059 A 
HETATM    4  C   UNL     1      -4.258   3.892 -31.098  1.00  0.00     0.050 A 
HETATM    5  N   UNL     1      -4.325   5.148 -30.460  1.00  0.00    -0.324 N 
HETATM    6  C   UNL     1      -3.304   6.018 -30.209  1.00  0.00     0.247 C 
HETATM    7  O   UNL     1      -3.455   6.914 -29.373  1.00  0.00    -0.271 OA
HETATM    8  C   UNL     1      -1.925   5.724 -30.765  1.00  0.00     0.210 C 
HETATM    9  N   UNL     1      -1.959   5.540 -32.199  1.00  0.00    -0.332 N 
HETATM   10  C   UNL     1      -2.476   4.443 -32.843  1.00  0.00     0.256 C 
HETATM   11  O   UNL     1      -2.235   4.222 -34.027  1.00  0.00    -0.267 OA
HETATM   12  C   UNL     1      -0.993   6.938 -30.559  1.00  0.00     0.217 C 
HETATM   13  C   UNL     1      -0.154   6.980 -31.833  1.00  0.00     0.055 C 
HETATM   14  C   UNL     1      -1.141   6.520 -32.893  1.00  0.00     0.129 C 
HETATM   15  C   UNL     1      -5.197   2.954 -30.652  1.00  0.00     0.031 A 
HETATM   16  C   UNL     1      -5.155   1.627 -31.091  1.00  0.00     0.014 A 
HETATM   17  H   UNL     1      -5.152   5.340 -29.901  1.00  0.00     0.169 HD
ENDROOT
BRANCH   1  18
HETATM   18  C   UNL     1      -4.087  -0.223 -32.402  1.00  0.00     0.008 A 
HETATM   19  C   UNL     1      -4.812  -0.747 -33.498  1.00  0.00     0.082 A 
HETATM   20  C   UNL     1      -4.690  -2.101 -33.834  1.00  0.00     0.074 A 
HETATM   21  C   UNL     1      -3.843  -2.949 -33.117  1.00  0.00     0.070 A 
HETATM   22  C   UNL     1      -3.129  -2.446 -32.034  1.00  0.00     0.038 A 
HETATM   23  C   UNL     1      -3.251  -1.098 -31.683  1.00  0.00     0.018 A 
BRANCH  19  24
HETATM   24  O   UNL     1      -5.649   0.124 -34.157  1.00  0.00    -0.355 OA
HETATM   25  C   UNL     1      -6.729  -0.448 -34.886  1.00  0.00     0.210 C 
ENDBRANCH  19  24
BRANCH  21  26
HETATM   26  O   UNL     1      -3.818  -4.241 -33.567  1.00  0.00    -0.356 OA
HETATM   27  C   UNL     1      -4.914  -4.662 -34.370  1.00  0.00     0.210 C 
ENDBRANCH  21  26
ENDBRANCH   1  18
BRANCH  12  28
HETATM   28  N   UNL     1      -0.104   6.788 -29.371  1.00  0.00    -0.072 N 
HETATM   29  H   UNL     1      -0.375   5.957 -28.822  1.00  0.00     0.274 HD
HETATM   30  H   UNL     1       0.890   6.696 -29.617  1.00  0.00     0.274 HD
HETATM   31  H   UNL     1      -0.190   7.595 -28.737  1.00  0.00     0.274 HD
ENDBRANCH  12  28
TORSDOF 4
ENDMDL
MODEL 2
REMARK VINA RESULT:      -8.3      1.432      2.197
REMARK  4 active torsions:
REMARK  status: ('A' for Active; 'I' for Inactive)
REMARK    1  A    between atoms: O_2  and  C_3 
REMARK    2  A    between atoms: C_5  and  O_6 
REMARK    3  A    between atoms: C_8  and  C_9 
REMARK    4  A    between atoms: C_20  and  N_21 
ROOT
HETATM    1  C   UNL     1      -5.402   1.820 -32.388  1.00  0.00    -0.022 A 
HETATM    2  C   UNL     1      -4.737   2.818 -33.113  1.00  0.00     0.031 A 
HETATM    3  C   UNL     1      -4.329   4.026 -32.513  1.00  0.00     0.059 A 
HETATM    4  C   UNL     1      -4.577   4.243 -31.149  1.00  0.00     0.050 A 
HETATM    5  N   UNL     1      -4.115   5.325 -30.371  1.00  0.00    -0.324 N 
HETATM    6  C   UNL     1      -2.969   6.048 -30.534  1.00  0.00     0.247 C 
HETATM    7  O   UNL     1      -2.545   6.742 -29.605  1.00  0.00    -0.271 OA
HETATM    8  C   UNL     1      -2.101   5.797 -31.751  1.00  0.00     0.210 C 
HETATM    9  N   UNL     1      -2.851   5.943 -32.978  1.00  0.00    -0.332 N 
HETATM   10  C   UNL     1      -3.791   5.054 -33.440  1.00  0.00     0.256 C 
HETATM   11  O   UNL     1      -4.192   5.089 -34.600  1.00  0.00    -0.267 OA
HETATM   12  C   UNL     1      -0.996   6.871 -31.852  1.00  0.00     0.217 C 
HETATM   13  C   UNL     1      -0.880   7.143 -33.349  1.00  0.00     0.055 C 
HETATM   14  C   UNL     1      -2.317   6.998 -33.821  1.00  0.00     0.129 C 
HETATM   15  C   UNL     1      -5.328   3.292 -30.447  1.00  0.00     0.031 A 
HETATM   16  C   UNL     1      -5.727   2.098 -31.055  1.00  0.00     0.014 A 
HETATM   17  H   UNL     1      -4.525   5.440 -29.447  1.00  0.00     0.169 HD
ENDROOT
BRANCH   1  18
HETATM   18  C   UNL     1      -5.752   0.524 -33.005  1.00  0.00     0.008 A 
HETATM   19  C   UNL     1      -4.799  -0.506 -33.189  1.00  0.00     0.082 A 
HETATM   20  C   UNL     1      -5.182  -1.715 -33.784  1.00  0.00     0.074 A 
HETATM   21  C   UNL     1      -6.502  -1.935 -34.186  1.00  0.00     0.070 A 
HETATM   22  C   UNL     1      -7.446  -0.928 -34.015  1.00  0.00     0.038 A 
HETATM   23  C   UNL     1      -7.073   0.287 -33.431  1.00  0.00     0.018 A 
BRANCH  19  24
HETATM   24  O   UNL     1      -3.510  -0.230 -32.798  1.00  0.00    -0.355 OA
HETATM   25  C   UNL     1      -2.906  -1.139 -31.883  1.00  0.00     0.210 C 
ENDBRANCH  19  24
BRANCH  21  26
HETATM   26  O   UNL     1      -6.729  -3.165 -34.740  1.00  0.00    -0.356 OA
HETATM   27  C   UNL     1      -5.598  -4.010 -34.914  1.00  0.00     0.210 C 
ENDBRANCH  21  26
ENDBRANCH   1  18
BRANCH  12  28
HETATM   28  N   UNL     1       0.316   6.400 -31.319  1.00  0.00    -0.072 N 
HETATM   29  H   UNL     1       1.005   6.315 -32.083  1.00  0.00     0.274 HD
HETATM   30  H   UNL     1       0.711   7.024 -30.603  1.00  0.00     0.274 HD
HETATM   31  H   UNL     1       0.232   5.464 -30.898  1.00  0.00     0.274 HD
ENDBRANCH  12  28
TORSDOF 4
ENDMDL
MODEL 3
REMARK VINA RESULT:      -8.0      2.375      2.715
REMARK  4 active torsions:
REMARK  status: ('A' for Active; 'I' for Inactive)
REMARK    1  A    between atoms: O_2  and  C_3 
REMARK    2  A    between atoms: C_5  and  O_6 
REMARK    3  A    between atoms: C_8  and  C_9 
REMARK    4  A    between atoms: C_20  and  N_21 
ROOT
HETATM    1  C   UNL     1      -6.129   0.738 -32.035  1.00  0.00    -0.022 A 
HETATM    2  C   UNL     1      -5.887   2.047 -32.475  1.00  0.00     0.031 A 
HETATM    3  C   UNL     1      -5.977   3.152 -31.605  1.00  0.00     0.059 A 
HETATM    4  C   UNL     1      -6.302   2.949 -30.255  1.00  0.00     0.050 A 
HETATM    5  N   UNL     1      -6.296   3.920 -29.232  1.00  0.00    -0.324 N 
HETATM    6  C   UNL     1      -5.510   5.031 -29.135  1.00  0.00     0.247 C 
HETATM    7  O   UNL     1      -5.392   5.605 -28.048  1.00  0.00    -0.271 OA
HETATM    8  C   UNL     1      -4.600   5.400 -30.290  1.00  0.00     0.210 C 
HETATM    9  N   UNL     1      -5.337   5.530 -31.526  1.00  0.00    -0.332 N 
HETATM   10  C   UNL     1      -5.862   4.485 -32.247  1.00  0.00     0.256 C 
HETATM   11  O   UNL     1      -6.234   4.631 -33.408  1.00  0.00    -0.267 OA
HETATM   12  C   UNL     1      -3.987   6.799 -30.064  1.00  0.00     0.217 C 
HETATM   13  C   UNL     1      -3.968   7.424 -31.456  1.00  0.00     0.055 C 
HETATM   14  C   UNL     1      -5.237   6.869 -32.082  1.00  0.00     0.129 C 
HETATM   15  C   UNL     1      -6.641   1.655 -29.837  1.00  0.00     0.031 A 
HETATM   16  C   UNL     1      -6.549   0.569 -30.711  1.00  0.00     0.014 A 
HETATM   17  H   UNL     1      -6.728   3.664 -28.348  1.00  0.00     0.169 HD
ENDROOT
BRANCH   1  18
HETATM   18  C   UNL     1      -5.953  -0.421 -32.935  1.00  0.00     0.008 A 
HETATM   19  C   UNL     1      -7.015  -0.939 -33.713  1.00  0.00     0.082 A 
HETATM   20  C   UNL     1      -6.797  -2.043 -34.547  1.00  0.00     0.074 A 
HETATM   21  C   UNL     1      -5.535  -2.637 -34.644  1.00  0.00     0.070 A 
HETATM   22  C   UNL     1      -4.485  -2.139 -33.879  1.00  0.00     0.038 A 
HETATM   23  C   UNL     1      -4.694  -1.044 -33.035  1.00  0.00     0.018 A 
BRANCH  19  24
HETATM   24  O   UNL     1      -8.240  -0.335 -33.564  1.00  0.00    -0.355 OA
HETATM   25  C   UNL     1      -8.653   0.551 -34.600  1.00  0.00     0.210 C 
ENDBRANCH  19  24
BRANCH  21  26
HETATM   26  O   UNL     1      -5.471  -3.697 -35.506  1.00  0.00    -0.356 OA
HETATM   27  C   UNL     1      -6.539  -4.635 -35.451  1.00  0.00     0.210 C 
ENDBRANCH  21  26
ENDBRANCH   1  18
BRANCH  12  28
HETATM   28  N   UNL     1      -2.600   6.739 -29.517  1.00  0.00    -0.072 N 
HETATM   29  H   UNL     1      -2.110   5.901 -29.868  1.00  0.00     0.274 HD
HETATM   30  H   UNL     1      -2.033   7.563 -29.757  1.00  0.00     0.274 HD
HETATM   31  H   UNL     1      -2.608   6.661 -28.490  1.00  0.00     0.274 HD
ENDBRANCH  12  28
TORSDOF 4
ENDMDL
MODEL 4
REMARK VINA RESULT:      -8.0      4.913      7.539
REMARK  4 active torsions:
REMARK  status: ('A' for Active; 'I' for Inactive)
REMARK    1  A    between atoms: O_2  and  C_3 
REMARK    2  A    between atoms: C_5  and  O_6 
REMARK    3  A    between atoms: C_8  and  C_9 
REMARK    4  A    between atoms: C_20  and  N_21 
ROOT
HETATM    1  C   UNL     1      -6.812   0.013 -33.527  1.00  0.00    -0.022 A 
HETATM    2  C   UNL     1      -8.207  -0.123 -33.541  1.00  0.00     0.031 A 
HETATM    3  C   UNL     1      -9.063   0.987 -33.391  1.00  0.00     0.059 A 
HETATM    4  C   UNL     1      -8.516   2.271 -33.237  1.00  0.00     0.050 A 
HETATM    5  N   UNL     1      -9.225   3.490 -33.216  1.00  0.00    -0.324 N 
HETATM    6  C   UNL     1     -10.396   3.792 -33.848  1.00  0.00     0.247 C 
HETATM    7  O   UNL     1     -10.724   4.973 -33.998  1.00  0.00    -0.271 OA
HETATM    8  C   UNL     1     -11.150   2.697 -34.577  1.00  0.00     0.210 C 
HETATM    9  N   UNL     1     -11.435   1.579 -33.706  1.00  0.00    -0.332 N 
HETATM   10  C   UNL     1     -10.507   0.670 -33.256  1.00  0.00     0.256 C 
HETATM   11  O   UNL     1     -10.847  -0.396 -32.751  1.00  0.00    -0.267 OA
HETATM   12  C   UNL     1     -12.542   3.203 -35.013  1.00  0.00     0.217 C 
HETATM   13  C   UNL     1     -13.456   1.999 -34.804  1.00  0.00     0.055 C 
HETATM   14  C   UNL     1     -12.862   1.348 -33.565  1.00  0.00     0.129 C 
HETATM   15  C   UNL     1      -7.126   2.395 -33.122  1.00  0.00     0.031 A 
HETATM   16  C   UNL     1      -6.289   1.285 -33.272  1.00  0.00     0.014 A 
HETATM   17  H   UNL     1      -8.715   4.317 -32.916  1.00  0.00     0.169 HD
ENDROOT
BRANCH   1  18
HETATM   18  C   UNL     1      -5.924  -1.144 -33.766  1.00  0.00     0.008 A 
HETATM   19  C   UNL     1      -4.890  -1.499 -32.868  1.00  0.00     0.082 A 
HETATM   20  C   UNL     1      -4.073  -2.603 -33.143  1.00  0.00     0.074 A 
HETATM   21  C   UNL     1      -4.272  -3.381 -34.287  1.00  0.00     0.070 A 
HETATM   22  C   UNL     1      -5.282  -3.038 -35.179  1.00  0.00     0.038 A 
HETATM   23  C   UNL     1      -6.098  -1.932 -34.920  1.00  0.00     0.018 A 
BRANCH  19  24
HETATM   24  O   UNL     1      -4.721  -0.689 -31.770  1.00  0.00    -0.355 OA
HETATM   25  C   UNL     1      -3.389  -0.298 -31.456  1.00  0.00     0.210 C 
ENDBRANCH  19  24
BRANCH  21  26
HETATM   26  O   UNL     1      -3.406  -4.432 -34.417  1.00  0.00    -0.356 OA
HETATM   27  C   UNL     1      -3.102  -5.163 -33.236  1.00  0.00     0.210 C 
ENDBRANCH  21  26
ENDBRANCH   1  18
BRANCH  12  28
HETATM   28  N   UNL     1     -12.579   3.624 -36.444  1.00  0.00    -0.072 N 
HETATM   29  H   UNL     1     -11.662   4.002 -36.732  1.00  0.00     0.274 HD
HETATM   30  H   UNL     1     -12.824   2.859 -37.086  1.00  0.00     0.274 HD
HETATM   31  H   UNL     1     -13.263   4.379 -36.592  1.00  0.00     0.274 HD
ENDBRANCH  12  28
TORSDOF 4
ENDMDL
MODEL 5
REMARK VINA RESULT:      -8.0      1.636      2.352
REMARK  4 active torsions:
REMARK  status: ('A' for Active; 'I' for Inactive)
REMARK    1  A    between atoms: O_2  and  C_3 
REMARK    2  A    between atoms: C_5  and  O_6 
REMARK    3  A    between atoms: C_8  and  C_9 
REMARK    4  A    between atoms: C_20  and  N_21 
ROOT
HETATM    1  C   UNL     1      -5.858   1.432 -32.509  1.00  0.00    -0.022 A 
HETATM    2  C   UNL     1      -5.081   2.531 -32.899  1.00  0.00     0.031 A 
HETATM    3  C   UNL     1      -5.106   3.748 -32.188  1.00  0.00     0.059 A 
HETATM    4  C   UNL     1      -5.915   3.871 -31.048  1.00  0.00     0.050 A 
HETATM    5  N   UNL     1      -5.949   4.961 -30.153  1.00  0.00    -0.324 N 
HETATM    6  C   UNL     1      -4.934   5.814 -29.831  1.00  0.00     0.247 C 
HETATM    7  O   UNL     1      -5.016   6.506 -28.812  1.00  0.00    -0.271 OA
HETATM    8  C   UNL     1      -3.619   5.719 -30.580  1.00  0.00     0.210 C 
HETATM    9  N   UNL     1      -3.811   5.838 -32.008  1.00  0.00    -0.332 N 
HETATM   10  C   UNL     1      -4.364   4.872 -32.813  1.00  0.00     0.256 C 
HETATM   11  O   UNL     1      -4.254   4.917 -34.036  1.00  0.00    -0.267 OA
HETATM   12  C   UNL     1      -2.709   6.914 -30.219  1.00  0.00     0.217 C 
HETATM   13  C   UNL     1      -2.023   7.267 -31.535  1.00  0.00     0.055 C 
HETATM   14  C   UNL     1      -3.111   6.985 -32.559  1.00  0.00     0.129 C 
HETATM   15  C   UNL     1      -6.767   2.810 -30.717  1.00  0.00     0.031 A 
HETATM   16  C   UNL     1      -6.733   1.609 -31.431  1.00  0.00     0.014 A 
HETATM   17  H   UNL     1      -6.712   4.985 -29.482  1.00  0.00     0.169 HD
ENDROOT
BRANCH   1  18
HETATM   18  C   UNL     1      -5.764   0.135 -33.212  1.00  0.00     0.008 A 
HETATM   19  C   UNL     1      -4.828  -0.858 -32.839  1.00  0.00     0.082 A 
HETATM   20  C   UNL     1      -4.777  -2.069 -33.541  1.00  0.00     0.074 A 
HETATM   21  C   UNL     1      -5.652  -2.328 -34.599  1.00  0.00     0.070 A 
HETATM   22  C   UNL     1      -6.573  -1.357 -34.977  1.00  0.00     0.038 A 
HETATM   23  C   UNL     1      -6.626  -0.140 -34.290  1.00  0.00     0.018 A 
BRANCH  19  24
HETATM   24  O   UNL     1      -3.975  -0.545 -31.808  1.00  0.00    -0.355 OA
HETATM   25  C   UNL     1      -2.643  -1.041 -31.899  1.00  0.00     0.210 C 
ENDBRANCH  19  24
BRANCH  21  26
HETATM   26  O   UNL     1      -5.492  -3.555 -35.181  1.00  0.00    -0.356 OA
HETATM   27  C   UNL     1      -6.610  -4.434 -35.144  1.00  0.00     0.210 C 
ENDBRANCH  21  26
ENDBRANCH   1  18
BRANCH  12  28
HETATM   28  N   UNL     1      -1.685   6.568 -29.191  1.00  0.00    -0.072 N 
HETATM   29  H   UNL     1      -1.941   5.692 -28.708  1.00  0.00     0.274 HD
HETATM   30  H   UNL     1      -0.741   6.451 -29.581  1.00  0.00     0.274 HD
HETATM   31  H   UNL     1      -1.629   7.295 -28.463  1.00  0.00     0.274 HD
ENDBRANCH  12  28
TORSDOF 4
ENDMDL
MODEL 6
REMARK VINA RESULT:      -7.8      4.393      5.540
REMARK  4 active torsions:
REMARK  status: ('A' for Active; 'I' for Inactive)
REMARK    1  A    between atoms: O_2  and  C_3 
REMARK    2  A    between atoms: C_5  and  O_6 
REMARK    3  A    between atoms: C_8  and  C_9 
REMARK    4  A    between atoms: C_20  and  N_21 
ROOT
HETATM    1  C   UNL     1      -7.715   0.168 -33.281  1.00  0.00    -0.022 A 
HETATM    2  C   UNL     1      -7.421   1.539 -33.283  1.00  0.00     0.031 A 
HETATM    3  C   UNL     1      -8.385   2.505 -32.934  1.00  0.00     0.059 A 
HETATM    4  C   UNL     1      -9.674   2.098 -32.557  1.00  0.00     0.050 A 
HETATM    5  N   UNL     1     -10.703   2.919 -32.050  1.00  0.00    -0.324 N 
HETATM    6  C   UNL     1     -10.579   4.062 -31.316  1.00  0.00     0.247 C 
HETATM    7  O   UNL     1     -11.547   4.490 -30.680  1.00  0.00    -0.271 OA
HETATM    8  C   UNL     1      -9.200   4.650 -31.086  1.00  0.00     0.210 C 
HETATM    9  N   UNL     1      -8.511   4.892 -32.333  1.00  0.00    -0.332 N 
HETATM   10  C   UNL     1      -7.983   3.919 -33.146  1.00  0.00     0.256 C 
HETATM   11  O   UNL     1      -7.184   4.192 -34.037  1.00  0.00    -0.267 OA
HETATM   12  C   UNL     1      -9.315   6.047 -30.437  1.00  0.00     0.217 C 
HETATM   13  C   UNL     1      -8.203   6.855 -31.101  1.00  0.00     0.055 C 
HETATM   14  C   UNL     1      -8.191   6.297 -32.515  1.00  0.00     0.129 C 
HETATM   15  C   UNL     1      -9.999   0.738 -32.651  1.00  0.00     0.031 A 
HETATM   16  C   UNL     1      -9.033  -0.210 -33.000  1.00  0.00     0.014 A 
HETATM   17  H   UNL     1     -11.634   2.514 -31.995  1.00  0.00     0.169 HD
ENDROOT
BRANCH   1  18
HETATM   18  C   UNL     1      -6.675  -0.842 -33.569  1.00  0.00     0.008 A 
HETATM   19  C   UNL     1      -5.586  -1.074 -32.696  1.00  0.00     0.082 A 
HETATM   20  C   UNL     1      -4.625  -2.040 -33.018  1.00  0.00     0.074 A 
HETATM   21  C   UNL     1      -4.730  -2.802 -34.185  1.00  0.00     0.070 A 
HETATM   22  C   UNL     1      -5.793  -2.579 -35.053  1.00  0.00     0.038 A 
HETATM   23  C   UNL     1      -6.753  -1.609 -34.747  1.00  0.00     0.018 A 
BRANCH  19  24
HETATM   24  O   UNL     1      -5.517  -0.283 -31.573  1.00  0.00    -0.355 OA
HETATM   25  C   UNL     1      -4.299   0.422 -31.355  1.00  0.00     0.210 C 
ENDBRANCH  19  24
BRANCH  21  26
HETATM   26  O   UNL     1      -3.725  -3.713 -34.360  1.00  0.00    -0.356 OA
HETATM   27  C   UNL     1      -3.474  -4.607 -33.283  1.00  0.00     0.210 C 
ENDBRANCH  21  26
ENDBRANCH   1  18
BRANCH  12  28
HETATM   28  N   UNL     1      -9.106   6.017 -28.961  1.00  0.00    -0.072 N 
HETATM   29  H   UNL     1      -8.098   6.001 -28.739  1.00  0.00     0.274 HD
HETATM   30  H   UNL     1      -9.526   6.821 -28.475  1.00  0.00     0.274 HD
HETATM   31  H   UNL     1      -9.508   5.164 -28.546  1.00  0.00     0.274 HD
ENDBRANCH  12  28
TORSDOF 4
ENDMDL
MODEL 7
REMARK VINA RESULT:      -7.6      4.966      7.172
REMARK  4 active torsions:
REMARK  status: ('A' for Active; 'I' for Inactive)
REMARK    1  A    between atoms: O_2  and  C_3 
REMARK    2  A    between atoms: C_5  and  O_6 
REMARK    3  A    between atoms: C_8  and  C_9 
REMARK    4  A    between atoms: C_20  and  N_21 
ROOT
HETATM    1  C   UNL     1      -7.988   0.262 -32.942  1.00  0.00    -0.022 A 
HETATM    2  C   UNL     1      -9.001   0.747 -33.781  1.00  0.00     0.031 A 
HETATM    3  C   UNL     1      -9.925   1.718 -33.346  1.00  0.00     0.059 A 
HETATM    4  C   UNL     1      -9.831   2.233 -32.044  1.00  0.00     0.050 A 
HETATM    5  N   UNL     1     -10.581   3.299 -31.504  1.00  0.00    -0.324 N 
HETATM    6  C   UNL     1     -11.103   4.375 -32.160  1.00  0.00     0.247 C 
HETATM    7  O   UNL     1     -11.452   5.372 -31.520  1.00  0.00    -0.271 OA
HETATM    8  C   UNL     1     -11.016   4.436 -33.673  1.00  0.00     0.210 C 
HETATM    9  N   UNL     1     -11.599   3.264 -34.285  1.00  0.00    -0.332 N 
HETATM   10  C   UNL     1     -11.040   2.009 -34.283  1.00  0.00     0.256 C 
HETATM   11  O   UNL     1     -11.438   1.128 -35.039  1.00  0.00    -0.267 OA
HETATM   12  C   UNL     1     -11.864   5.609 -34.212  1.00  0.00     0.217 C 
HETATM   13  C   UNL     1     -12.480   5.060 -35.496  1.00  0.00     0.055 C 
HETATM   14  C   UNL     1     -12.720   3.600 -35.147  1.00  0.00     0.129 C 
HETATM   15  C   UNL     1      -8.885   1.678 -31.173  1.00  0.00     0.031 A 
HETATM   16  C   UNL     1      -7.975   0.714 -31.618  1.00  0.00     0.014 A 
HETATM   17  H   UNL     1     -10.530   3.438 -30.498  1.00  0.00     0.169 HD
ENDROOT
BRANCH   1  18
HETATM   18  C   UNL     1      -6.975  -0.695 -33.433  1.00  0.00     0.008 A 
HETATM   19  C   UNL     1      -5.587  -0.459 -33.297  1.00  0.00     0.082 A 
HETATM   20  C   UNL     1      -4.667  -1.396 -33.784  1.00  0.00     0.074 A 
HETATM   21  C   UNL     1      -5.096  -2.581 -34.388  1.00  0.00     0.070 A 
HETATM   22  C   UNL     1      -6.458  -2.822 -34.531  1.00  0.00     0.038 A 
HETATM   23  C   UNL     1      -7.386  -1.888 -34.058  1.00  0.00     0.018 A 
BRANCH  19  24
HETATM   24  O   UNL     1      -5.218   0.732 -32.717  1.00  0.00    -0.355 OA
HETATM   25  C   UNL     1      -4.201   0.676 -31.722  1.00  0.00     0.210 C 
ENDBRANCH  19  24
BRANCH  21  26
HETATM   26  O   UNL     1      -4.086  -3.405 -34.803  1.00  0.00    -0.356 OA
HETATM   27  C   UNL     1      -3.694  -4.440 -33.910  1.00  0.00     0.210 C 
ENDBRANCH  21  26
ENDBRANCH   1  18
BRANCH  12  28
HETATM   28  N   UNL     1     -11.046   6.818 -34.518  1.00  0.00    -0.072 N 
HETATM   29  H   UNL     1     -10.040   6.586 -34.500  1.00  0.00     0.274 HD
HETATM   30  H   UNL     1     -11.260   7.231 -35.436  1.00  0.00     0.274 HD
HETATM   31  H   UNL     1     -11.188   7.553 -33.811  1.00  0.00     0.274 HD
ENDBRANCH  12  28
TORSDOF 4
ENDMDL
MODEL 8
REMARK VINA RESULT:      -7.6      4.646      6.967
REMARK  4 active torsions:
REMARK  status: ('A' for Active; 'I' for Inactive)
REMARK    1  A    between atoms: O_2  and  C_3 
REMARK    2  A    between atoms: C_5  and  O_6 
REMARK    3  A    between atoms: C_8  and  C_9 
REMARK    4  A    between atoms: C_20  and  N_21 
ROOT
HETATM    1  C   UNL     1      -6.060   1.762 -32.894  1.00  0.00    -0.022 A 
HETATM    2  C   UNL     1      -7.442   1.637 -32.695  1.00  0.00     0.031 A 
HETATM    3  C   UNL     1      -8.341   2.655 -33.070  1.00  0.00     0.059 A 
HETATM    4  C   UNL     1      -7.855   3.825 -33.674  1.00  0.00     0.050 A 
HETATM    5  N   UNL     1      -8.624   4.868 -34.231  1.00  0.00    -0.324 N 
HETATM    6  C   UNL     1      -9.859   4.785 -34.806  1.00  0.00     0.247 C 
HETATM    7  O   UNL     1     -10.262   5.705 -35.525  1.00  0.00    -0.271 OA
HETATM    8  C   UNL     1     -10.610   3.468 -34.765  1.00  0.00     0.210 C 
HETATM    9  N   UNL     1     -10.760   2.985 -33.411  1.00  0.00    -0.332 N 
HETATM   10  C   UNL     1      -9.750   2.456 -32.644  1.00  0.00     0.256 C 
HETATM   11  O   UNL     1      -9.987   1.822 -31.620  1.00  0.00    -0.267 OA
HETATM   12  C   UNL     1     -12.059   3.662 -35.262  1.00  0.00     0.217 C 
HETATM   13  C   UNL     1     -12.885   2.753 -34.357  1.00  0.00     0.055 C 
HETATM   14  C   UNL     1     -12.155   2.862 -33.028  1.00  0.00     0.129 C 
HETATM   15  C   UNL     1      -6.468   3.994 -33.782  1.00  0.00     0.031 A 
HETATM   16  C   UNL     1      -5.588   2.976 -33.404  1.00  0.00     0.014 A 
HETATM   17  H   UNL     1      -8.137   5.728 -34.466  1.00  0.00     0.169 HD
ENDROOT
BRANCH   1  18
HETATM   18  C   UNL     1      -5.133   0.656 -32.571  1.00  0.00     0.008 A 
HETATM   19  C   UNL     1      -5.048  -0.511 -33.366  1.00  0.00     0.082 A 
HETATM   20  C   UNL     1      -4.157  -1.533 -33.015  1.00  0.00     0.074 A 
HETATM   21  C   UNL     1      -3.327  -1.413 -31.897  1.00  0.00     0.070 A 
HETATM   22  C   UNL     1      -3.406  -0.272 -31.106  1.00  0.00     0.038 A 
HETATM   23  C   UNL     1      -4.300   0.750 -31.441  1.00  0.00     0.018 A 
BRANCH  19  24
HETATM   24  O   UNL     1      -5.902  -0.590 -34.441  1.00  0.00    -0.355 OA
HETATM   25  C   UNL     1      -6.776  -1.712 -34.490  1.00  0.00     0.210 C 
ENDBRANCH  19  24
BRANCH  21  26
HETATM   26  O   UNL     1      -2.501  -2.484 -31.685  1.00  0.00    -0.356 OA
HETATM   27  C   UNL     1      -3.027  -3.770 -31.990  1.00  0.00     0.210 C 
ENDBRANCH  21  26
ENDBRANCH   1  18
BRANCH  12  28
HETATM   28  N   UNL     1     -12.239   3.258 -36.686  1.00  0.00    -0.072 N 
HETATM   29  H   UNL     1     -13.156   2.803 -36.819  1.00  0.00     0.274 HD
HETATM   30  H   UNL     1     -12.178   4.048 -37.343  1.00  0.00     0.274 HD
HETATM   31  H   UNL     1     -11.529   2.568 -36.970  1.00  0.00     0.274 HD
ENDBRANCH  12  28
TORSDOF 4
ENDMDL
MODEL 9
REMARK VINA RESULT:      -7.6      2.363      3.861
REMARK  4 active torsions:
REMARK  status: ('A' for Active; 'I' for Inactive)
REMARK    1  A    between atoms: O_2  and  C_3 
REMARK    2  A    between atoms: C_5  and  O_6 
REMARK    3  A    between atoms: C_8  and  C_9 
REMARK    4  A    between atoms: C_20  and  N_21 
ROOT
HETATM    1  C   UNL     1      -4.645   0.892 -32.340  1.00  0.00    -0.022 A 
HETATM    2  C   UNL     1      -5.745   1.577 -31.807  1.00  0.00     0.031 A 
HETATM    3  C   UNL     1      -5.614   2.852 -31.222  1.00  0.00     0.059 A 
HETATM    4  C   UNL     1      -4.356   3.472 -31.181  1.00  0.00     0.050 A 
HETATM    5  N   UNL     1      -4.081   4.791 -30.762  1.00  0.00    -0.324 N 
HETATM    6  C   UNL     1      -4.894   5.884 -30.841  1.00  0.00     0.247 C 
HETATM    7  O   UNL     1      -4.411   7.015 -30.735  1.00  0.00    -0.271 OA
HETATM    8  C   UNL     1      -6.327   5.710 -31.306  1.00  0.00     0.210 C 
HETATM    9  N   UNL     1      -7.031   4.737 -30.503  1.00  0.00    -0.332 N 
HETATM   10  C   UNL     1      -6.830   3.378 -30.551  1.00  0.00     0.256 C 
HETATM   11  O   UNL     1      -7.633   2.593 -30.054  1.00  0.00    -0.267 OA
HETATM   12  C   UNL     1      -7.120   7.019 -31.098  1.00  0.00     0.217 C 
HETATM   13  C   UNL     1      -8.501   6.548 -30.654  1.00  0.00     0.055 C 
HETATM   14  C   UNL     1      -8.177   5.316 -29.824  1.00  0.00     0.129 C 
HETATM   15  C   UNL     1      -3.240   2.749 -31.621  1.00  0.00     0.031 A 
HETATM   16  C   UNL     1      -3.385   1.483 -32.197  1.00  0.00     0.014 A 
HETATM   17  H   UNL     1      -3.105   5.036 -30.616  1.00  0.00     0.169 HD
ENDROOT
BRANCH   1  18
HETATM   18  C   UNL     1      -4.805  -0.409 -33.023  1.00  0.00     0.008 A 
HETATM   19  C   UNL     1      -5.720  -0.595 -34.086  1.00  0.00     0.082 A 
HETATM   20  C   UNL     1      -5.838  -1.850 -34.697  1.00  0.00     0.074 A 
HETATM   21  C   UNL     1      -5.048  -2.928 -34.288  1.00  0.00     0.070 A 
HETATM   22  C   UNL     1      -4.149  -2.758 -33.241  1.00  0.00     0.038 A 
HETATM   23  C   UNL     1      -4.030  -1.512 -32.617  1.00  0.00     0.018 A 
BRANCH  19  24
HETATM   24  O   UNL     1      -6.489   0.491 -34.434  1.00  0.00    -0.355 OA
HETATM   25  C   UNL     1      -7.687   0.227 -35.158  1.00  0.00     0.210 C 
ENDBRANCH  19  24
BRANCH  21  26
HETATM   26  O   UNL     1      -5.264  -4.086 -34.984  1.00  0.00    -0.356 OA
HETATM   27  C   UNL     1      -6.618  -4.435 -35.243  1.00  0.00     0.210 C 
ENDBRANCH  21  26
ENDBRANCH   1  18
BRANCH  12  28
HETATM   28  N   UNL     1      -7.237   7.826 -32.347  1.00  0.00    -0.072 N 
HETATM   29  H   UNL     1      -6.810   8.757 -32.216  1.00  0.00     0.274 HD
HETATM   30  H   UNL     1      -6.789   7.383 -33.160  1.00  0.00     0.274 HD
HETATM   31  H   UNL     1      -8.223   7.991 -32.593  1.00  0.00     0.274 HD
ENDBRANCH  12  28
TORSDOF 4
ENDMDL
MODEL 10
REMARK VINA RESULT:      -7.4      5.029      8.290
REMARK  4 active torsions:
REMARK  status: ('A' for Active; 'I' for Inactive)
REMARK    1  A    between atoms: O_2  and  C_3 
REMARK    2  A    between atoms: C_5  and  O_6 
REMARK    3  A    between atoms: C_8  and  C_9 
REMARK    4  A    between atoms: C_20  and  N_21 
ROOT
HETATM    1  C   UNL     1      -6.318   2.840 -33.567  1.00  0.00    -0.022 A 
HETATM    2  C   UNL     1      -7.383   3.745 -33.678  1.00  0.00     0.031 A 
HETATM    3  C   UNL     1      -8.670   3.333 -34.077  1.00  0.00     0.059 A 
HETATM    4  C   UNL     1      -8.911   1.980 -34.360  1.00  0.00     0.050 A 
HETATM    5  N   UNL     1     -10.161   1.385 -34.633  1.00  0.00    -0.324 N 
HETATM    6  C   UNL     1     -11.389   1.767 -34.177  1.00  0.00     0.247 C 
HETATM    7  O   UNL     1     -12.336   0.977 -34.237  1.00  0.00    -0.271 OA
HETATM    8  C   UNL     1     -11.519   3.049 -33.378  1.00  0.00     0.210 C 
HETATM    9  N   UNL     1     -10.985   4.181 -34.100  1.00  0.00    -0.332 N 
HETATM   10  C   UNL     1      -9.649   4.424 -34.313  1.00  0.00     0.256 C 
HETATM   11  O   UNL     1      -9.250   5.523 -34.689  1.00  0.00    -0.267 OA
HETATM   12  C   UNL     1     -13.007   3.400 -33.167  1.00  0.00     0.217 C 
HETATM   13  C   UNL     1     -13.050   4.921 -33.292  1.00  0.00     0.055 C 
HETATM   14  C   UNL     1     -11.996   5.192 -34.353  1.00  0.00     0.129 C 
HETATM   15  C   UNL     1      -7.827   1.092 -34.347  1.00  0.00     0.031 A 
HETATM   16  C   UNL     1      -6.555   1.515 -33.951  1.00  0.00     0.014 A 
HETATM   17  H   UNL     1     -10.152   0.436 -34.997  1.00  0.00     0.169 HD
ENDROOT
BRANCH   1  18
HETATM   18  C   UNL     1      -4.994   3.267 -33.070  1.00  0.00     0.008 A 
HETATM   19  C   UNL     1      -4.409   2.708 -31.909  1.00  0.00     0.082 A 
HETATM   20  C   UNL     1      -3.152   3.152 -31.477  1.00  0.00     0.074 A 
HETATM   21  C   UNL     1      -2.448   4.128 -32.187  1.00  0.00     0.070 A 
HETATM   22  C   UNL     1      -3.016   4.687 -33.327  1.00  0.00     0.038 A 
HETATM   23  C   UNL     1      -4.275   4.260 -33.761  1.00  0.00     0.018 A 
BRANCH  19  24
HETATM   24  O   UNL     1      -5.152   1.769 -31.235  1.00  0.00    -0.355 OA
HETATM   25  C   UNL     1      -5.727   2.169 -29.996  1.00  0.00     0.210 C 
ENDBRANCH  19  24
BRANCH  21  26
HETATM   26  O   UNL     1      -1.231   4.452 -31.653  1.00  0.00    -0.356 OA
HETATM   27  C   UNL     1      -0.712   5.737 -31.971  1.00  0.00     0.210 C 
ENDBRANCH  21  26
ENDBRANCH   1  18
BRANCH  12  28
HETATM   28  N   UNL     1     -13.512   2.988 -31.825  1.00  0.00    -0.072 N 
HETATM   29  H   UNL     1     -13.785   3.816 -31.273  1.00  0.00     0.274 HD
HETATM   30  H   UNL     1     -14.324   2.357 -31.873  1.00  0.00     0.274 HD
HETATM   31  H   UNL     1     -12.781   2.505 -31.284  1.00  0.00     0.274 HD
ENDBRANCH  12  28
TORSDOF 4
ENDMDL
