MODEL 1
REMARK VINA RESULT:      -9.1      0.000      0.000
REMARK  8 active torsions:
REMARK  status: ('A' for Active; 'I' for Inactive)
REMARK    1  A    between atoms: O_2  and  C_3 
REMARK    2  A    between atoms: C_4  and  O_5 
REMARK    3  A    between atoms: C_8  and  C_9 
REMARK    4  A    between atoms: C_9  and  C_10 
REMARK    5  A    between atoms: C_10  and  C_11 
REMARK    6  A    between atoms: C_13  and  N_14 
REMARK       I    between atoms: N_14  and  C_15 
REMARK    7  A    between atoms: C_15  and  C_16 
REMARK    8  A    between atoms: C_20  and  C_21 
ROOT
HETATM    1  C   UNL     1      -1.133   5.234 -31.120  1.00  0.00     0.140 A 
HETATM    2  N   UNL     1      -1.674   4.067 -31.401  1.00  0.00    -0.046 NA
HETATM    3  C   UNL     1      -2.720   4.383 -32.231  1.00  0.00     0.747 A 
HETATM    4  N   UNL     1      -2.832   5.685 -32.492  1.00  0.00     0.020 NA
HETATM    5  N   UNL     1      -1.825   6.205 -31.784  1.00  0.00    -0.248 N 
HETATM    6  H   UNL     1      -1.684   7.208 -31.786  1.00  0.00     0.191 HD
ENDROOT
BRANCH   3   7
HETATM    7  N   UNL     1      -3.524   3.379 -32.664  1.00  0.00    -0.149 N 
HETATM    8  C   UNL     1      -4.394   2.659 -31.887  1.00  0.00     0.290 C 
HETATM    9  O   UNL     1      -4.651   2.826 -30.700  1.00  0.00    -0.265 OA
HETATM   10  H   UNL     1      -3.410   3.093 -33.627  1.00  0.00     0.188 HD
BRANCH   8  11
HETATM   11  C   UNL     1      -5.019   1.561 -32.649  1.00  0.00     0.147 A 
HETATM   12  N   UNL     1      -6.049   1.763 -33.495  1.00  0.00    -0.169 NA
HETATM   13  N   UNL     1      -6.304   0.536 -33.987  1.00  0.00    -0.277 N 
HETATM   14  H   UNL     1      -7.077   0.435 -34.635  1.00  0.00     0.189 HD
HETATM   15  C   UNL     1      -5.457  -0.447 -33.542  1.00  0.00     0.063 A 
HETATM   16  C   UNL     1      -4.634   0.197 -32.640  1.00  0.00     0.071 A 
BRANCH  15  17
HETATM   17  C   UNL     1      -5.505  -1.843 -33.984  1.00  0.00    -0.008 A 
HETATM   18  C   UNL     1      -4.382  -2.678 -33.900  1.00  0.00     0.014 A 
HETATM   19  C   UNL     1      -4.452  -4.015 -34.306  1.00  0.00     0.001 A 
HETATM   20  C   UNL     1      -5.645  -4.536 -34.800  1.00  0.00     0.000 A 
HETATM   21  C   UNL     1      -6.770  -3.721 -34.887  1.00  0.00     0.001 A 
HETATM   22  C   UNL     1      -6.700  -2.385 -34.483  1.00  0.00     0.014 A 
ENDBRANCH  15  17
ENDBRANCH   8  11
ENDBRANCH   3   7
BRANCH   1  23
HETATM   23  C   UNL     1      -0.007   5.548 -30.202  1.00  0.00     0.085 C 
BRANCH  23  24
HETATM   24  C   UNL     1       0.405   7.020 -30.250  1.00  0.00     0.046 C 
BRANCH  24  25
HETATM   25  C   UNL     1       0.253   7.654 -28.886  1.00  0.00    -0.055 A 
HETATM   26  C   UNL     1      -0.974   7.600 -28.208  1.00  0.00     0.046 A 
HETATM   27  C   UNL     1      -1.101   8.122 -26.915  1.00  0.00     0.102 A 
HETATM   28  C   UNL     1       0.020   8.694 -26.284  1.00  0.00     0.101 A 
HETATM   29  C   UNL     1       1.237   8.769 -26.969  1.00  0.00     0.040 A 
HETATM   30  C   UNL     1       1.353   8.249 -28.260  1.00  0.00     0.010 A 
BRANCH  27  31
HETATM   31  O   UNL     1      -2.260   8.095 -26.177  1.00  0.00    -0.353 OA
HETATM   32  C   UNL     1      -3.152   7.012 -26.391  1.00  0.00     0.210 C 
ENDBRANCH  27  31
BRANCH  28  33
HETATM   33  O   UNL     1      -0.172   9.176 -25.013  1.00  0.00    -0.353 OA
HETATM   34  C   UNL     1      -0.192  10.589 -24.865  1.00  0.00     0.210 C 
ENDBRANCH  28  33
ENDBRANCH  24  25
ENDBRANCH  23  24
ENDBRANCH   1  23
TORSDOF 8
ENDMDL
MODEL 2
REMARK VINA RESULT:      -9.0      2.968     11.056
REMARK  8 active torsions:
REMARK  status: ('A' for Active; 'I' for Inactive)
REMARK    1  A    between atoms: O_2  and  C_3 
REMARK    2  A    between atoms: C_4  and  O_5 
REMARK    3  A    between atoms: C_8  and  C_9 
REMARK    4  A    between atoms: C_9  and  C_10 
REMARK    5  A    between atoms: C_10  and  C_11 
REMARK    6  A    between atoms: C_13  and  N_14 
REMARK       I    between atoms: N_14  and  C_15 
REMARK    7  A    between atoms: C_15  and  C_16 
REMARK    8  A    between atoms: C_20  and  C_21 
ROOT
HETATM    1  C   UNL     1      -6.345   3.549 -33.135  1.00  0.00     0.140 A 
HETATM    2  N   UNL     1      -5.297   3.592 -32.338  1.00  0.00    -0.046 NA
HETATM    3  C   UNL     1      -4.682   4.772 -32.670  1.00  0.00     0.747 A 
HETATM    4  N   UNL     1      -5.314   5.467 -33.614  1.00  0.00     0.020 NA
HETATM    5  N   UNL     1      -6.358   4.682 -33.895  1.00  0.00    -0.248 N 
HETATM    6  H   UNL     1      -7.014   4.968 -34.613  1.00  0.00     0.191 HD
ENDROOT
BRANCH   3   7
HETATM    7  N   UNL     1      -3.518   5.088 -32.047  1.00  0.00    -0.149 N 
HETATM    8  C   UNL     1      -2.259   4.870 -32.545  1.00  0.00     0.290 C 
HETATM    9  O   UNL     1      -1.956   4.419 -33.644  1.00  0.00    -0.265 OA
HETATM   10  H   UNL     1      -3.593   5.445 -31.104  1.00  0.00     0.188 HD
BRANCH   8  11
HETATM   11  C   UNL     1      -1.220   5.217 -31.557  1.00  0.00     0.147 A 
HETATM   12  N   UNL     1       0.061   4.816 -31.683  1.00  0.00    -0.169 NA
HETATM   13  N   UNL     1       0.670   5.346 -30.605  1.00  0.00    -0.277 N 
HETATM   14  H   UNL     1       1.654   5.146 -30.470  1.00  0.00     0.189 HD
HETATM   15  C   UNL     1      -0.141   6.115 -29.810  1.00  0.00     0.063 A 
HETATM   16  C   UNL     1      -1.387   6.013 -30.396  1.00  0.00     0.071 A 
BRANCH  15  17
HETATM   17  C   UNL     1       0.314   6.838 -28.619  1.00  0.00    -0.008 A 
HETATM   18  C   UNL     1       0.030   6.375 -27.326  1.00  0.00     0.014 A 
HETATM   19  C   UNL     1       0.492   7.065 -26.201  1.00  0.00     0.001 A 
HETATM   20  C   UNL     1       1.245   8.226 -26.352  1.00  0.00     0.000 A 
HETATM   21  C   UNL     1       1.539   8.698 -27.628  1.00  0.00     0.001 A 
HETATM   22  C   UNL     1       1.076   8.009 -28.752  1.00  0.00     0.014 A 
ENDBRANCH  15  17
ENDBRANCH   8  11
ENDBRANCH   3   7
BRANCH   1  23
HETATM   23  C   UNL     1      -7.355   2.472 -33.297  1.00  0.00     0.085 C 
BRANCH  23  24
HETATM   24  C   UNL     1      -7.147   1.310 -32.324  1.00  0.00     0.046 C 
BRANCH  24  25
HETATM   25  C   UNL     1      -6.662   0.084 -33.063  1.00  0.00    -0.055 A 
HETATM   26  C   UNL     1      -5.442  -0.518 -32.720  1.00  0.00     0.046 A 
HETATM   27  C   UNL     1      -5.021  -1.695 -33.352  1.00  0.00     0.102 A 
HETATM   28  C   UNL     1      -5.841  -2.288 -34.331  1.00  0.00     0.101 A 
HETATM   29  C   UNL     1      -7.045  -1.674 -34.690  1.00  0.00     0.040 A 
HETATM   30  C   UNL     1      -7.454  -0.499 -34.057  1.00  0.00     0.010 A 
BRANCH  27  31
HETATM   31  O   UNL     1      -3.851  -2.356 -33.064  1.00  0.00    -0.353 OA
HETATM   32  C   UNL     1      -3.113  -1.926 -31.931  1.00  0.00     0.210 C 
ENDBRANCH  27  31
BRANCH  28  33
HETATM   33  O   UNL     1      -5.374  -3.446 -34.903  1.00  0.00    -0.353 OA
HETATM   34  C   UNL     1      -6.352  -4.380 -35.338  1.00  0.00     0.210 C 
ENDBRANCH  28  33
ENDBRANCH  24  25
ENDBRANCH  23  24
ENDBRANCH   1  23
TORSDOF 8
ENDMDL
MODEL 3
REMARK VINA RESULT:      -9.0      3.521     10.985
REMARK  8 active torsions:
REMARK  status: ('A' for Active; 'I' for Inactive)
REMARK    1  A    between atoms: O_2  and  C_3 
REMARK    2  A    between atoms: C_4  and  O_5 
REMARK    3  A    between atoms: C_8  and  C_9 
REMARK    4  A    between atoms: C_9  and  C_10 
REMARK    5  A    between atoms: C_10  and  C_11 
REMARK    6  A    between atoms: C_13  and  N_14 
REMARK       I    between atoms: N_14  and  C_15 
REMARK    7  A    between atoms: C_15  and  C_16 
REMARK    8  A    between atoms: C_20  and  C_21 
ROOT
HETATM    1  C   UNL     1      -7.544   2.532 -33.836  1.00  0.00     0.140 A 
HETATM    2  N   UNL     1      -6.371   2.973 -33.431  1.00  0.00    -0.046 NA
HETATM    3  C   UNL     1      -6.458   4.331 -33.595  1.00  0.00     0.747 A 
HETATM    4  N   UNL     1      -7.635   4.749 -34.058  1.00  0.00     0.020 NA
HETATM    5  N   UNL     1      -8.305   3.603 -34.204  1.00  0.00    -0.248 N 
HETATM    6  H   UNL     1      -9.251   3.625 -34.569  1.00  0.00     0.191 HD
ENDROOT
BRANCH   3   7
HETATM    7  N   UNL     1      -5.365   5.085 -33.307  1.00  0.00    -0.149 N 
HETATM    8  C   UNL     1      -4.382   5.439 -34.194  1.00  0.00     0.290 C 
HETATM    9  O   UNL     1      -4.337   5.203 -35.396  1.00  0.00    -0.265 OA
HETATM   10  H   UNL     1      -5.235   5.339 -32.337  1.00  0.00     0.188 HD
BRANCH   8  11
HETATM   11  C   UNL     1      -3.280   6.154 -33.521  1.00  0.00     0.147 A 
HETATM   12  N   UNL     1      -2.403   6.927 -34.193  1.00  0.00    -0.169 NA
HETATM   13  N   UNL     1      -1.588   7.397 -33.229  1.00  0.00    -0.277 N 
HETATM   14  H   UNL     1      -0.814   7.990 -33.509  1.00  0.00     0.189 HD
HETATM   15  C   UNL     1      -1.921   7.008 -31.957  1.00  0.00     0.063 A 
HETATM   16  C   UNL     1      -3.003   6.167 -32.131  1.00  0.00     0.071 A 
BRANCH  15  17
HETATM   17  C   UNL     1      -1.216   7.442 -30.748  1.00  0.00    -0.008 A 
HETATM   18  C   UNL     1       0.078   6.990 -30.452  1.00  0.00     0.014 A 
HETATM   19  C   UNL     1       0.746   7.432 -29.305  1.00  0.00     0.001 A 
HETATM   20  C   UNL     1       0.131   8.333 -28.440  1.00  0.00     0.000 A 
HETATM   21  C   UNL     1      -1.152   8.794 -28.721  1.00  0.00     0.001 A 
HETATM   22  C   UNL     1      -1.820   8.351 -29.866  1.00  0.00     0.014 A 
ENDBRANCH  15  17
ENDBRANCH   8  11
ENDBRANCH   3   7
BRANCH   1  23
HETATM   23  C   UNL     1      -8.025   1.132 -33.968  1.00  0.00     0.085 C 
BRANCH  23  24
HETATM   24  C   UNL     1      -7.332   0.370 -35.098  1.00  0.00     0.046 C 
BRANCH  24  25
HETATM   25  C   UNL     1      -6.375  -0.656 -34.533  1.00  0.00    -0.055 A 
HETATM   26  C   UNL     1      -6.558  -2.021 -34.796  1.00  0.00     0.046 A 
HETATM   27  C   UNL     1      -5.635  -2.969 -34.336  1.00  0.00     0.102 A 
HETATM   28  C   UNL     1      -4.504  -2.543 -33.614  1.00  0.00     0.101 A 
HETATM   29  C   UNL     1      -4.335  -1.183 -33.332  1.00  0.00     0.040 A 
HETATM   30  C   UNL     1      -5.262  -0.247 -33.792  1.00  0.00     0.010 A 
BRANCH  27  31
HETATM   31  O   UNL     1      -5.731  -4.321 -34.563  1.00  0.00    -0.353 OA
HETATM   32  C   UNL     1      -6.395  -4.745 -35.744  1.00  0.00     0.210 C 
ENDBRANCH  27  31
BRANCH  28  33
HETATM   33  O   UNL     1      -3.634  -3.523 -33.203  1.00  0.00    -0.353 OA
HETATM   34  C   UNL     1      -3.053  -3.358 -31.916  1.00  0.00     0.210 C 
ENDBRANCH  28  33
ENDBRANCH  24  25
ENDBRANCH  23  24
ENDBRANCH   1  23
TORSDOF 8
ENDMDL
MODEL 4
REMARK VINA RESULT:      -8.9      2.898     11.087
REMARK  8 active torsions:
REMARK  status: ('A' for Active; 'I' for Inactive)
REMARK    1  A    between atoms: O_2  and  C_3 
REMARK    2  A    between atoms: C_4  and  O_5 
REMARK    3  A    between atoms: C_8  and  C_9 
REMARK    4  A    between atoms: C_9  and  C_10 
REMARK    5  A    between atoms: C_10  and  C_11 
REMARK    6  A    between atoms: C_13  and  N_14 
REMARK       I    between atoms: N_14  and  C_15 
REMARK    7  A    between atoms: C_15  and  C_16 
REMARK    8  A    between atoms: C_20  and  C_21 
ROOT
HETATM    1  C   UNL     1      -6.040   2.987 -33.124  1.00  0.00     0.140 A 
HETATM    2  N   UNL     1      -5.088   3.172 -32.233  1.00  0.00    -0.046 NA
HETATM    3  C   UNL     1      -4.402   4.260 -32.709  1.00  0.00     0.747 A 
HETATM    4  N   UNL     1      -4.900   4.767 -33.835  1.00  0.00     0.020 NA
HETATM    5  N   UNL     1      -5.930   3.953 -34.083  1.00  0.00    -0.248 N 
HETATM    6  H   UNL     1      -6.492   4.102 -34.913  1.00  0.00     0.191 HD
ENDROOT
BRANCH   3   7
HETATM    7  N   UNL     1      -3.306   4.678 -32.025  1.00  0.00    -0.149 N 
HETATM    8  C   UNL     1      -2.062   4.890 -32.560  1.00  0.00     0.290 C 
HETATM    9  O   UNL     1      -1.729   4.806 -33.736  1.00  0.00    -0.265 OA
HETATM   10  H   UNL     1      -3.406   4.766 -31.023  1.00  0.00     0.188 HD
BRANCH   8  11
HETATM   11  C   UNL     1      -1.074   5.219 -31.515  1.00  0.00     0.147 A 
HETATM   12  N   UNL     1       0.191   4.752 -31.542  1.00  0.00    -0.169 NA
HETATM   13  N   UNL     1       0.753   5.287 -30.442  1.00  0.00    -0.277 N 
HETATM   14  H   UNL     1       1.715   5.044 -30.234  1.00  0.00     0.189 HD
HETATM   15  C   UNL     1      -0.067   6.122 -29.727  1.00  0.00     0.063 A 
HETATM   16  C   UNL     1      -1.276   6.061 -30.392  1.00  0.00     0.071 A 
BRANCH  15  17
HETATM   17  C   UNL     1       0.345   6.861 -28.531  1.00  0.00    -0.008 A 
HETATM   18  C   UNL     1       1.141   8.012 -28.619  1.00  0.00     0.014 A 
HETATM   19  C   UNL     1       1.506   8.719 -27.469  1.00  0.00     0.001 A 
HETATM   20  C   UNL     1       1.080   8.287 -26.216  1.00  0.00     0.000 A 
HETATM   21  C   UNL     1       0.286   7.148 -26.111  1.00  0.00     0.001 A 
HETATM   22  C   UNL     1      -0.078   6.441 -27.261  1.00  0.00     0.014 A 
ENDBRANCH  15  17
ENDBRANCH   8  11
ENDBRANCH   3   7
BRANCH   1  23
HETATM   23  C   UNL     1      -7.060   1.909 -33.197  1.00  0.00     0.085 C 
BRANCH  23  24
HETATM   24  C   UNL     1      -6.921   1.043 -34.450  1.00  0.00     0.046 C 
BRANCH  24  25
HETATM   25  C   UNL     1      -6.106  -0.194 -34.148  1.00  0.00    -0.055 A 
HETATM   26  C   UNL     1      -6.291  -1.368 -34.892  1.00  0.00     0.046 A 
HETATM   27  C   UNL     1      -5.489  -2.495 -34.665  1.00  0.00     0.102 A 
HETATM   28  C   UNL     1      -4.477  -2.440 -33.688  1.00  0.00     0.101 A 
HETATM   29  C   UNL     1      -4.308  -1.277 -32.930  1.00  0.00     0.040 A 
HETATM   30  C   UNL     1      -5.115  -0.161 -33.161  1.00  0.00     0.010 A 
BRANCH  27  31
HETATM   31  O   UNL     1      -5.594  -3.675 -35.359  1.00  0.00    -0.353 OA
HETATM   32  C   UNL     1      -6.722  -4.496 -35.097  1.00  0.00     0.210 C 
ENDBRANCH  27  31
BRANCH  28  33
HETATM   33  O   UNL     1      -3.721  -3.575 -33.525  1.00  0.00    -0.353 OA
HETATM   34  C   UNL     1      -3.165  -3.788 -32.234  1.00  0.00     0.210 C 
ENDBRANCH  28  33
ENDBRANCH  24  25
ENDBRANCH  23  24
ENDBRANCH   1  23
TORSDOF 8
ENDMDL
MODEL 5
REMARK VINA RESULT:      -8.7      1.865      2.350
REMARK  8 active torsions:
REMARK  status: ('A' for Active; 'I' for Inactive)
REMARK    1  A    between atoms: O_2  and  C_3 
REMARK    2  A    between atoms: C_4  and  O_5 
REMARK    3  A    between atoms: C_8  and  C_9 
REMARK    4  A    between atoms: C_9  and  C_10 
REMARK    5  A    between atoms: C_10  and  C_11 
REMARK    6  A    between atoms: C_13  and  N_14 
REMARK       I    between atoms: N_14  and  C_15 
REMARK    7  A    between atoms: C_15  and  C_16 
REMARK    8  A    between atoms: C_20  and  C_21 
ROOT
HETATM    1  C   UNL     1      -3.017   5.742 -32.520  1.00  0.00     0.140 A 
HETATM    2  N   UNL     1      -3.377   4.755 -33.315  1.00  0.00    -0.046 NA
HETATM    3  C   UNL     1      -4.314   4.071 -32.583  1.00  0.00     0.747 A 
HETATM    4  N   UNL     1      -4.564   4.603 -31.388  1.00  0.00     0.020 NA
HETATM    5  N   UNL     1      -3.739   5.654 -31.365  1.00  0.00    -0.248 N 
HETATM    6  H   UNL     1      -3.709   6.243 -30.541  1.00  0.00     0.191 HD
ENDROOT
BRANCH   3   7
HETATM    7  N   UNL     1      -4.851   2.945 -33.119  1.00  0.00    -0.149 N 
HETATM    8  C   UNL     1      -6.149   2.798 -33.534  1.00  0.00     0.290 C 
HETATM    9  O   UNL     1      -7.029   3.651 -33.560  1.00  0.00    -0.265 OA
HETATM   10  H   UNL     1      -4.257   2.127 -33.140  1.00  0.00     0.188 HD
BRANCH   8  11
HETATM   11  C   UNL     1      -6.429   1.409 -33.948  1.00  0.00     0.147 A 
HETATM   12  N   UNL     1      -7.512   1.077 -34.680  1.00  0.00    -0.169 NA
HETATM   13  N   UNL     1      -7.387  -0.253 -34.850  1.00  0.00    -0.277 N 
HETATM   14  H   UNL     1      -8.120  -0.738 -35.356  1.00  0.00     0.189 HD
HETATM   15  C   UNL     1      -6.251  -0.796 -34.307  1.00  0.00     0.063 A 
HETATM   16  C   UNL     1      -5.630   0.269 -33.682  1.00  0.00     0.071 A 
BRANCH  15  17
HETATM   17  C   UNL     1      -5.875  -2.208 -34.417  1.00  0.00    -0.008 A 
HETATM   18  C   UNL     1      -4.597  -2.657 -34.051  1.00  0.00     0.014 A 
HETATM   19  C   UNL     1      -4.262  -4.012 -34.141  1.00  0.00     0.001 A 
HETATM   20  C   UNL     1      -5.199  -4.936 -34.596  1.00  0.00     0.000 A 
HETATM   21  C   UNL     1      -6.472  -4.507 -34.960  1.00  0.00     0.001 A 
HETATM   22  C   UNL     1      -6.806  -3.153 -34.871  1.00  0.00     0.014 A 
ENDBRANCH  15  17
ENDBRANCH   8  11
ENDBRANCH   3   7
BRANCH   1  23
HETATM   23  C   UNL     1      -1.974   6.779 -32.727  1.00  0.00     0.085 C 
BRANCH  23  24
HETATM   24  C   UNL     1      -0.569   6.287 -32.373  1.00  0.00     0.046 C 
BRANCH  24  25
HETATM   25  C   UNL     1      -0.286   6.514 -30.906  1.00  0.00    -0.055 A 
HETATM   26  C   UNL     1      -0.707   7.692 -30.273  1.00  0.00     0.046 A 
HETATM   27  C   UNL     1      -0.511   7.877 -28.898  1.00  0.00     0.102 A 
HETATM   28  C   UNL     1       0.102   6.859 -28.142  1.00  0.00     0.101 A 
HETATM   29  C   UNL     1       0.543   5.694 -28.778  1.00  0.00     0.040 A 
HETATM   30  C   UNL     1       0.347   5.522 -30.150  1.00  0.00     0.010 A 
BRANCH  27  31
HETATM   31  O   UNL     1      -0.907   8.991 -28.200  1.00  0.00    -0.353 OA
HETATM   32  C   UNL     1      -1.969   9.763 -28.738  1.00  0.00     0.210 C 
ENDBRANCH  27  31
BRANCH  28  33
HETATM   33  O   UNL     1       0.253   7.100 -26.799  1.00  0.00    -0.353 OA
HETATM   34  C   UNL     1       1.527   7.567 -26.375  1.00  0.00     0.210 C 
ENDBRANCH  28  33
ENDBRANCH  24  25
ENDBRANCH  23  24
ENDBRANCH   1  23
TORSDOF 8
ENDMDL
MODEL 6
REMARK VINA RESULT:      -8.5      2.596     11.970
REMARK  8 active torsions:
REMARK  status: ('A' for Active; 'I' for Inactive)
REMARK    1  A    between atoms: O_2  and  C_3 
REMARK    2  A    between atoms: C_4  and  O_5 
REMARK    3  A    between atoms: C_8  and  C_9 
REMARK    4  A    between atoms: C_9  and  C_10 
REMARK    5  A    between atoms: C_10  and  C_11 
REMARK    6  A    between atoms: C_13  and  N_14 
REMARK       I    between atoms: N_14  and  C_15 
REMARK    7  A    between atoms: C_15  and  C_16 
REMARK    8  A    between atoms: C_20  and  C_21 
ROOT
HETATM    1  C   UNL     1      -3.517   3.188 -32.193  1.00  0.00     0.140 A 
HETATM    2  N   UNL     1      -3.272   4.050 -31.228  1.00  0.00    -0.046 NA
HETATM    3  C   UNL     1      -2.249   4.816 -31.726  1.00  0.00     0.747 A 
HETATM    4  N   UNL     1      -1.870   4.481 -32.959  1.00  0.00     0.020 NA
HETATM    5  N   UNL     1      -2.678   3.455 -33.236  1.00  0.00    -0.248 N 
HETATM    6  H   UNL     1      -2.593   2.983 -34.129  1.00  0.00     0.191 HD
ENDROOT
BRANCH   3   7
HETATM    7  N   UNL     1      -1.724   5.783 -30.932  1.00  0.00    -0.149 N 
HETATM    8  C   UNL     1      -0.521   5.717 -30.278  1.00  0.00     0.290 C 
HETATM    9  O   UNL     1       0.315   4.822 -30.338  1.00  0.00    -0.265 OA
HETATM   10  H   UNL     1      -2.311   6.587 -30.751  1.00  0.00     0.188 HD
BRANCH   8  11
HETATM   11  C   UNL     1      -0.316   6.886 -29.403  1.00  0.00     0.147 A 
HETATM   12  N   UNL     1      -1.143   7.951 -29.413  1.00  0.00    -0.169 NA
HETATM   13  N   UNL     1      -0.623   8.769 -28.478  1.00  0.00    -0.277 N 
HETATM   14  H   UNL     1      -1.071   9.666 -28.330  1.00  0.00     0.189 HD
HETATM   15  C   UNL     1       0.473   8.268 -27.824  1.00  0.00     0.063 A 
HETATM   16  C   UNL     1       0.710   7.054 -28.439  1.00  0.00     0.071 A 
BRANCH  15  17
HETATM   17  C   UNL     1       1.169   8.953 -26.732  1.00  0.00    -0.008 A 
HETATM   18  C   UNL     1       0.968  10.317 -26.476  1.00  0.00     0.014 A 
HETATM   19  C   UNL     1       1.623  10.950 -25.414  1.00  0.00     0.001 A 
HETATM   20  C   UNL     1       2.486  10.229 -24.593  1.00  0.00     0.000 A 
HETATM   21  C   UNL     1       2.693   8.873 -24.831  1.00  0.00     0.001 A 
HETATM   22  C   UNL     1       2.039   8.241 -25.893  1.00  0.00     0.014 A 
ENDBRANCH  15  17
ENDBRANCH   8  11
ENDBRANCH   3   7
BRANCH   1  23
HETATM   23  C   UNL     1      -4.471   2.049 -32.212  1.00  0.00     0.085 C 
BRANCH  23  24
HETATM   24  C   UNL     1      -3.803   0.709 -31.899  1.00  0.00     0.046 C 
BRANCH  24  25
HETATM   25  C   UNL     1      -4.388  -0.385 -32.763  1.00  0.00    -0.055 A 
HETATM   26  C   UNL     1      -5.523  -0.141 -33.551  1.00  0.00     0.046 A 
HETATM   27  C   UNL     1      -6.027  -1.128 -34.407  1.00  0.00     0.102 A 
HETATM   28  C   UNL     1      -5.376  -2.375 -34.487  1.00  0.00     0.101 A 
HETATM   29  C   UNL     1      -4.259  -2.626 -33.683  1.00  0.00     0.040 A 
HETATM   30  C   UNL     1      -3.767  -1.637 -32.830  1.00  0.00     0.010 A 
BRANCH  27  31
HETATM   31  O   UNL     1      -7.120  -0.966 -35.222  1.00  0.00    -0.353 OA
HETATM   32  C   UNL     1      -7.948   0.165 -34.996  1.00  0.00     0.210 C 
ENDBRANCH  27  31
BRANCH  28  33
HETATM   33  O   UNL     1      -5.916  -3.293 -35.354  1.00  0.00    -0.353 OA
HETATM   34  C   UNL     1      -6.529  -4.435 -34.771  1.00  0.00     0.210 C 
ENDBRANCH  28  33
ENDBRANCH  24  25
ENDBRANCH  23  24
ENDBRANCH   1  23
TORSDOF 8
ENDMDL
MODEL 7
REMARK VINA RESULT:      -8.3      7.301     13.345
REMARK  8 active torsions:
REMARK  status: ('A' for Active; 'I' for Inactive)
REMARK    1  A    between atoms: O_2  and  C_3 
REMARK    2  A    between atoms: C_4  and  O_5 
REMARK    3  A    between atoms: C_8  and  C_9 
REMARK    4  A    between atoms: C_9  and  C_10 
REMARK    5  A    between atoms: C_10  and  C_11 
REMARK    6  A    between atoms: C_13  and  N_14 
REMARK       I    between atoms: N_14  and  C_15 
REMARK    7  A    between atoms: C_15  and  C_16 
REMARK    8  A    between atoms: C_20  and  C_21 
ROOT
HETATM    1  C   UNL     1       1.427   8.979 -26.446  1.00  0.00     0.140 A 
HETATM    2  N   UNL     1       2.253   8.157 -25.833  1.00  0.00    -0.046 NA
HETATM    3  C   UNL     1       2.458   8.749 -24.613  1.00  0.00     0.747 A 
HETATM    4  N   UNL     1       1.780   9.882 -24.438  1.00  0.00     0.020 NA
HETATM    5  N   UNL     1       1.137  10.012 -25.601  1.00  0.00    -0.248 N 
HETATM    6  H   UNL     1       0.544  10.820 -25.753  1.00  0.00     0.191 HD
ENDROOT
BRANCH   3   7
HETATM    7  N   UNL     1       3.323   8.158 -23.749  1.00  0.00    -0.149 N 
HETATM    8  C   UNL     1       4.549   8.649 -23.384  1.00  0.00     0.290 C 
HETATM    9  O   UNL     1       5.056   9.716 -23.710  1.00  0.00    -0.265 OA
HETATM   10  H   UNL     1       3.065   7.242 -23.408  1.00  0.00     0.188 HD
BRANCH   8  11
HETATM   11  C   UNL     1       5.279   7.695 -22.527  1.00  0.00     0.147 A 
HETATM   12  N   UNL     1       4.710   7.100 -21.459  1.00  0.00    -0.169 NA
HETATM   13  N   UNL     1       5.688   6.312 -20.973  1.00  0.00    -0.277 N 
HETATM   14  H   UNL     1       5.495   5.779 -20.133  1.00  0.00     0.189 HD
HETATM   15  C   UNL     1       6.851   6.326 -21.701  1.00  0.00     0.063 A 
HETATM   16  C   UNL     1       6.615   7.252 -22.699  1.00  0.00     0.071 A 
BRANCH  15  17
HETATM   17  C   UNL     1       8.027   5.507 -21.398  1.00  0.00    -0.008 A 
HETATM   18  C   UNL     1       8.917   5.101 -22.403  1.00  0.00     0.014 A 
HETATM   19  C   UNL     1      10.047   4.338 -22.092  1.00  0.00     0.001 A 
HETATM   20  C   UNL     1      10.305   3.972 -20.773  1.00  0.00     0.000 A 
HETATM   21  C   UNL     1       9.433   4.370 -19.764  1.00  0.00     0.001 A 
HETATM   22  C   UNL     1       8.303   5.132 -20.074  1.00  0.00     0.014 A 
ENDBRANCH  15  17
ENDBRANCH   8  11
ENDBRANCH   3   7
BRANCH   1  23
HETATM   23  C   UNL     1       0.899   8.916 -27.833  1.00  0.00     0.085 C 
BRANCH  23  24
HETATM   24  C   UNL     1       0.362   7.532 -28.202  1.00  0.00     0.046 C 
BRANCH  24  25
HETATM   25  C   UNL     1      -0.210   7.545 -29.601  1.00  0.00    -0.055 A 
HETATM   26  C   UNL     1      -1.313   8.354 -29.912  1.00  0.00     0.046 A 
HETATM   27  C   UNL     1      -1.804   8.424 -31.222  1.00  0.00     0.102 A 
HETATM   28  C   UNL     1      -1.171   7.686 -32.240  1.00  0.00     0.101 A 
HETATM   29  C   UNL     1      -0.086   6.861 -31.926  1.00  0.00     0.040 A 
HETATM   30  C   UNL     1       0.393   6.795 -30.616  1.00  0.00     0.010 A 
BRANCH  27  31
HETATM   31  O   UNL     1      -2.867   9.202 -31.612  1.00  0.00    -0.353 OA
HETATM   32  C   UNL     1      -3.873   9.474 -30.650  1.00  0.00     0.210 C 
ENDBRANCH  27  31
BRANCH  28  33
HETATM   33  O   UNL     1      -1.696   7.810 -33.503  1.00  0.00    -0.353 OA
HETATM   34  C   UNL     1      -2.055   6.604 -34.164  1.00  0.00     0.210 C 
ENDBRANCH  28  33
ENDBRANCH  24  25
ENDBRANCH  23  24
ENDBRANCH   1  23
TORSDOF 8
ENDMDL
MODEL 8
REMARK VINA RESULT:      -8.2      3.137     10.801
REMARK  8 active torsions:
REMARK  status: ('A' for Active; 'I' for Inactive)
REMARK    1  A    between atoms: O_2  and  C_3 
REMARK    2  A    between atoms: C_4  and  O_5 
REMARK    3  A    between atoms: C_8  and  C_9 
REMARK    4  A    between atoms: C_9  and  C_10 
REMARK    5  A    between atoms: C_10  and  C_11 
REMARK    6  A    between atoms: C_13  and  N_14 
REMARK       I    between atoms: N_14  and  C_15 
REMARK    7  A    between atoms: C_15  and  C_16 
REMARK    8  A    between atoms: C_20  and  C_21 
ROOT
HETATM    1  C   UNL     1      -4.411   0.903 -32.502  1.00  0.00     0.140 A 
HETATM    2  N   UNL     1      -4.258   2.211 -32.488  1.00  0.00    -0.046 NA
HETATM    3  C   UNL     1      -3.303   2.420 -31.527  1.00  0.00     0.747 A 
HETATM    4  N   UNL     1      -2.844   1.302 -30.967  1.00  0.00     0.020 NA
HETATM    5  N   UNL     1      -3.552   0.358 -31.591  1.00  0.00    -0.248 N 
HETATM    6  H   UNL     1      -3.414  -0.614 -31.340  1.00  0.00     0.191 HD
ENDROOT
BRANCH   3   7
HETATM    7  N   UNL     1      -2.954   3.699 -31.234  1.00  0.00    -0.149 N 
HETATM    8  C   UNL     1      -2.278   4.554 -32.064  1.00  0.00     0.290 C 
HETATM    9  O   UNL     1      -1.925   4.353 -33.221  1.00  0.00    -0.265 OA
HETATM   10  H   UNL     1      -3.148   4.015 -30.293  1.00  0.00     0.188 HD
BRANCH   8  11
HETATM   11  C   UNL     1      -1.953   5.823 -31.384  1.00  0.00     0.147 A 
HETATM   12  N   UNL     1      -2.553   6.988 -31.702  1.00  0.00    -0.169 NA
HETATM   13  N   UNL     1      -1.996   7.875 -30.857  1.00  0.00    -0.277 N 
HETATM   14  H   UNL     1      -2.278   8.846 -30.935  1.00  0.00     0.189 HD
HETATM   15  C   UNL     1      -1.099   7.337 -29.970  1.00  0.00     0.063 A 
HETATM   16  C   UNL     1      -1.031   6.004 -30.323  1.00  0.00     0.071 A 
BRANCH  15  17
HETATM   17  C   UNL     1      -0.414   8.098 -28.922  1.00  0.00    -0.008 A 
HETATM   18  C   UNL     1      -1.088   9.063 -28.157  1.00  0.00     0.014 A 
HETATM   19  C   UNL     1      -0.424   9.764 -27.145  1.00  0.00     0.001 A 
HETATM   20  C   UNL     1       0.919   9.511 -26.882  1.00  0.00     0.000 A 
HETATM   21  C   UNL     1       1.601   8.554 -27.629  1.00  0.00     0.001 A 
HETATM   22  C   UNL     1       0.938   7.855 -28.642  1.00  0.00     0.014 A 
ENDBRANCH  15  17
ENDBRANCH   8  11
ENDBRANCH   3   7
BRANCH   1  23
HETATM   23  C   UNL     1      -5.367   0.079 -33.285  1.00  0.00     0.085 C 
BRANCH  23  24
HETATM   24  C   UNL     1      -6.457  -0.553 -32.417  1.00  0.00     0.046 C 
BRANCH  24  25
HETATM   25  C   UNL     1      -7.736   0.247 -32.512  1.00  0.00    -0.055 A 
HETATM   26  C   UNL     1      -8.080   1.162 -31.506  1.00  0.00     0.046 A 
HETATM   27  C   UNL     1      -9.226   1.958 -31.623  1.00  0.00     0.102 A 
HETATM   28  C   UNL     1     -10.034   1.847 -32.771  1.00  0.00     0.101 A 
HETATM   29  C   UNL     1      -9.703   0.917 -33.763  1.00  0.00     0.040 A 
HETATM   30  C   UNL     1      -8.560   0.126 -33.635  1.00  0.00     0.010 A 
BRANCH  27  31
HETATM   31  O   UNL     1      -9.625   2.888 -30.694  1.00  0.00    -0.353 OA
HETATM   32  C   UNL     1      -8.674   3.858 -30.283  1.00  0.00     0.210 C 
ENDBRANCH  27  31
BRANCH  28  33
HETATM   33  O   UNL     1     -11.136   2.664 -32.827  1.00  0.00    -0.353 OA
HETATM   34  C   UNL     1     -12.288   2.135 -33.468  1.00  0.00     0.210 C 
ENDBRANCH  28  33
ENDBRANCH  24  25
ENDBRANCH  23  24
ENDBRANCH   1  23
TORSDOF 8
ENDMDL
MODEL 9
REMARK VINA RESULT:      -8.1      1.863      2.481
REMARK  8 active torsions:
REMARK  status: ('A' for Active; 'I' for Inactive)
REMARK    1  A    between atoms: O_2  and  C_3 
REMARK    2  A    between atoms: C_4  and  O_5 
REMARK    3  A    between atoms: C_8  and  C_9 
REMARK    4  A    between atoms: C_9  and  C_10 
REMARK    5  A    between atoms: C_10  and  C_11 
REMARK    6  A    between atoms: C_13  and  N_14 
REMARK       I    between atoms: N_14  and  C_15 
REMARK    7  A    between atoms: C_15  and  C_16 
REMARK    8  A    between atoms: C_20  and  C_21 
ROOT
HETATM    1  C   UNL     1      -3.319   6.548 -32.387  1.00  0.00     0.140 A 
HETATM    2  N   UNL     1      -3.812   5.422 -31.914  1.00  0.00    -0.046 NA
HETATM    3  C   UNL     1      -3.693   4.546 -32.963  1.00  0.00     0.747 A 
HETATM    4  N   UNL     1      -3.129   5.073 -34.049  1.00  0.00     0.020 NA
HETATM    5  N   UNL     1      -2.901   6.333 -33.668  1.00  0.00    -0.248 N 
HETATM    6  H   UNL     1      -2.482   6.981 -34.326  1.00  0.00     0.191 HD
ENDROOT
BRANCH   3   7
HETATM    7  N   UNL     1      -4.171   3.285 -32.805  1.00  0.00    -0.149 N 
HETATM    8  C   UNL     1      -3.644   2.328 -31.978  1.00  0.00     0.290 C 
HETATM    9  O   UNL     1      -2.705   2.446 -31.198  1.00  0.00    -0.265 OA
HETATM   10  H   UNL     1      -4.935   3.014 -33.408  1.00  0.00     0.188 HD
BRANCH   8  11
HETATM   11  C   UNL     1      -4.331   1.033 -32.144  1.00  0.00     0.147 A 
HETATM   12  N   UNL     1      -5.345   0.644 -31.344  1.00  0.00    -0.169 NA
HETATM   13  N   UNL     1      -5.692  -0.562 -31.832  1.00  0.00    -0.277 N 
HETATM   14  H   UNL     1      -6.430  -1.071 -31.358  1.00  0.00     0.189 HD
HETATM   15  C   UNL     1      -4.989  -0.956 -32.941  1.00  0.00     0.063 A 
HETATM   16  C   UNL     1      -4.071   0.056 -33.139  1.00  0.00     0.071 A 
BRANCH  15  17
HETATM   17  C   UNL     1      -5.233  -2.200 -33.676  1.00  0.00    -0.008 A 
HETATM   18  C   UNL     1      -4.270  -3.217 -33.737  1.00  0.00     0.014 A 
HETATM   19  C   UNL     1      -4.528  -4.407 -34.424  1.00  0.00     0.001 A 
HETATM   20  C   UNL     1      -5.753  -4.598 -35.058  1.00  0.00     0.000 A 
HETATM   21  C   UNL     1      -6.721  -3.600 -35.005  1.00  0.00     0.001 A 
HETATM   22  C   UNL     1      -6.463  -2.410 -34.319  1.00  0.00     0.014 A 
ENDBRANCH  15  17
ENDBRANCH   8  11
ENDBRANCH   3   7
BRANCH   1  23
HETATM   23  C   UNL     1      -3.246   7.884 -31.741  1.00  0.00     0.085 C 
BRANCH  23  24
HETATM   24  C   UNL     1      -3.512   7.831 -30.235  1.00  0.00     0.046 C 
BRANCH  24  25
HETATM   25  C   UNL     1      -2.208   7.809 -29.471  1.00  0.00    -0.055 A 
HETATM   26  C   UNL     1      -1.474   6.620 -29.349  1.00  0.00     0.046 A 
HETATM   27  C   UNL     1      -0.231   6.608 -28.704  1.00  0.00     0.102 A 
HETATM   28  C   UNL     1       0.294   7.808 -28.186  1.00  0.00     0.101 A 
HETATM   29  C   UNL     1      -0.449   8.989 -28.287  1.00  0.00     0.040 A 
HETATM   30  C   UNL     1      -1.690   8.989 -28.929  1.00  0.00     0.010 A 
BRANCH  27  31
HETATM   31  O   UNL     1       0.557   5.493 -28.556  1.00  0.00    -0.353 OA
HETATM   32  C   UNL     1       0.909   4.774 -29.728  1.00  0.00     0.210 C 
ENDBRANCH  27  31
BRANCH  28  33
HETATM   33  O   UNL     1       1.521   7.728 -27.576  1.00  0.00    -0.353 OA
HETATM   34  C   UNL     1       1.537   7.841 -26.160  1.00  0.00     0.210 C 
ENDBRANCH  28  33
ENDBRANCH  24  25
ENDBRANCH  23  24
ENDBRANCH   1  23
TORSDOF 8
ENDMDL
MODEL 10
REMARK VINA RESULT:      -8.1      2.828     11.257
REMARK  8 active torsions:
REMARK  status: ('A' for Active; 'I' for Inactive)
REMARK    1  A    between atoms: O_2  and  C_3 
REMARK    2  A    between atoms: C_4  and  O_5 
REMARK    3  A    between atoms: C_8  and  C_9 
REMARK    4  A    between atoms: C_9  and  C_10 
REMARK    5  A    between atoms: C_10  and  C_11 
REMARK    6  A    between atoms: C_13  and  N_14 
REMARK       I    between atoms: N_14  and  C_15 
REMARK    7  A    between atoms: C_15  and  C_16 
REMARK    8  A    between atoms: C_20  and  C_21 
ROOT
HETATM    1  C   UNL     1      -6.119   3.231 -33.111  1.00  0.00     0.140 A 
HETATM    2  N   UNL     1      -5.554   3.947 -32.161  1.00  0.00    -0.046 NA
HETATM    3  C   UNL     1      -4.945   4.969 -32.841  1.00  0.00     0.747 A 
HETATM    4  N   UNL     1      -5.128   4.930 -34.160  1.00  0.00     0.020 NA
HETATM    5  N   UNL     1      -5.869   3.830 -34.312  1.00  0.00    -0.248 N 
HETATM    6  H   UNL     1      -6.147   3.543 -35.243  1.00  0.00     0.191 HD
ENDROOT
BRANCH   3   7
HETATM    7  N   UNL     1      -4.217   5.870 -32.131  1.00  0.00    -0.149 N 
HETATM    8  C   UNL     1      -4.703   7.017 -31.559  1.00  0.00     0.290 C 
HETATM    9  O   UNL     1      -5.866   7.403 -31.526  1.00  0.00    -0.265 OA
HETATM   10  H   UNL     1      -3.220   5.713 -32.090  1.00  0.00     0.188 HD
BRANCH   8  11
HETATM   11  C   UNL     1      -3.620   7.828 -30.970  1.00  0.00     0.147 A 
HETATM   12  N   UNL     1      -3.392   9.105 -31.337  1.00  0.00    -0.169 NA
HETATM   13  N   UNL     1      -2.351   9.477 -30.569  1.00  0.00    -0.277 N 
HETATM   14  H   UNL     1      -1.977  10.411 -30.696  1.00  0.00     0.189 HD
HETATM   15  C   UNL     1      -1.921   8.522 -29.684  1.00  0.00     0.063 A 
HETATM   16  C   UNL     1      -2.715   7.425 -29.957  1.00  0.00     0.071 A 
BRANCH  15  17
HETATM   17  C   UNL     1      -0.844   8.720 -28.711  1.00  0.00    -0.008 A 
HETATM   18  C   UNL     1       0.329   7.952 -28.747  1.00  0.00     0.014 A 
HETATM   19  C   UNL     1       1.356   8.170 -27.824  1.00  0.00     0.001 A 
HETATM   20  C   UNL     1       1.227   9.160 -26.853  1.00  0.00     0.000 A 
HETATM   21  C   UNL     1       0.071   9.934 -26.805  1.00  0.00     0.001 A 
HETATM   22  C   UNL     1      -0.956   9.715 -27.727  1.00  0.00     0.014 A 
ENDBRANCH  15  17
ENDBRANCH   8  11
ENDBRANCH   3   7
BRANCH   1  23
HETATM   23  C   UNL     1      -6.863   1.949 -33.002  1.00  0.00     0.085 C 
BRANCH  23  24
HETATM   24  C   UNL     1      -6.952   1.199 -34.333  1.00  0.00     0.046 C 
BRANCH  24  25
HETATM   25  C   UNL     1      -6.187  -0.102 -34.256  1.00  0.00    -0.055 A 
HETATM   26  C   UNL     1      -5.031  -0.203 -33.469  1.00  0.00     0.046 A 
HETATM   27  C   UNL     1      -4.358  -1.425 -33.337  1.00  0.00     0.102 A 
HETATM   28  C   UNL     1      -4.859  -2.567 -33.991  1.00  0.00     0.101 A 
HETATM   29  C   UNL     1      -5.998  -2.460 -34.796  1.00  0.00     0.040 A 
HETATM   30  C   UNL     1      -6.659  -1.236 -34.924  1.00  0.00     0.010 A 
BRANCH  27  31
HETATM   31  O   UNL     1      -3.232  -1.613 -32.574  1.00  0.00    -0.353 OA
HETATM   32  C   UNL     1      -2.935  -0.639 -31.585  1.00  0.00     0.210 C 
ENDBRANCH  27  31
BRANCH  28  33
HETATM   33  O   UNL     1      -4.158  -3.733 -33.811  1.00  0.00    -0.353 OA
HETATM   34  C   UNL     1      -4.759  -4.920 -34.310  1.00  0.00     0.210 C 
ENDBRANCH  28  33
ENDBRANCH  24  25
ENDBRANCH  23  24
ENDBRANCH   1  23
TORSDOF 8
ENDMDL
