MODEL 1
REMARK VINA RESULT:      -9.0      0.000      0.000
REMARK  5 active torsions:
REMARK  status: ('A' for Active; 'I' for Inactive)
REMARK    1  A    between atoms: C_7  and  C_8 
REMARK    2  A    between atoms: N_9  and  N_10 
REMARK       I    between atoms: N_10  and  C_11 
REMARK    3  A    between atoms: C_11  and  C_12 
REMARK    4  A    between atoms: C_12  and  N_13 
REMARK       I    between atoms: N_13  and  C_14 
REMARK    5  A    between atoms: C_14  and  C_15 
ROOT
HETATM    1  N   UNL     1      -8.269   1.325 -32.332  1.00  0.00    -0.246 N 
HETATM    2  C   UNL     1      -8.174   2.426 -31.494  1.00  0.00     0.255 C 
HETATM    3  O   UNL     1      -7.283   2.622 -30.671  1.00  0.00    -0.270 OA
HETATM    4  H   UNL     1      -9.120   1.195 -32.884  1.00  0.00     0.192 HD
ENDROOT
BRANCH   1   5
HETATM    5  N   UNL     1      -7.316   0.350 -32.304  1.00  0.00    -0.184 NA
HETATM    6  C   UNL     1      -6.643   0.205 -33.399  1.00  0.00     0.153 C 
BRANCH   6   7
HETATM    7  C   UNL     1      -5.619  -0.819 -33.501  1.00  0.00     0.018 A 
HETATM    8  C   UNL     1      -4.290  -0.716 -33.110  1.00  0.00     0.018 A 
HETATM    9  C   UNL     1      -3.535   0.412 -32.499  1.00  0.00     0.069 C 
HETATM   10  N   UNL     1      -3.682  -1.918 -33.371  1.00  0.00    -0.358 N 
HETATM   11  H   UNL     1      -2.713  -2.129 -33.182  1.00  0.00     0.166 HD
HETATM   12  C   UNL     1      -4.574  -2.803 -33.925  1.00  0.00     0.043 A 
HETATM   13  C   UNL     1      -5.798  -2.143 -34.024  1.00  0.00     0.004 A 
HETATM   14  C   UNL     1      -4.386  -4.127 -34.343  1.00  0.00     0.030 A 
HETATM   15  C   UNL     1      -6.892  -2.846 -34.577  1.00  0.00     0.014 A 
HETATM   16  C   UNL     1      -6.720  -4.169 -35.004  1.00  0.00     0.001 A 
HETATM   17  C   UNL     1      -5.485  -4.798 -34.886  1.00  0.00     0.002 A 
ENDBRANCH   6   7
ENDBRANCH   1   5
BRANCH   2  18
HETATM   18  C   UNL     1      -9.383   3.360 -31.592  1.00  0.00     0.227 C 
BRANCH  18  19
HETATM   19  N   UNL     1     -10.641   2.692 -31.910  1.00  0.00    -0.348 N 
HETATM   20  C   UNL     1     -11.430   3.092 -32.965  1.00  0.00     0.252 C 
HETATM   21  O   UNL     1     -11.187   4.126 -33.581  1.00  0.00    -0.268 OA
HETATM   22  H   UNL     1     -10.956   1.984 -31.263  1.00  0.00     0.163 HD
BRANCH  20  23
HETATM   23  C   UNL     1     -12.630   2.273 -33.305  1.00  0.00     0.033 A 
HETATM   24  C   UNL     1     -13.841   2.604 -32.679  1.00  0.00     0.041 A 
HETATM   25  C   UNL     1     -14.999   1.883 -32.969  1.00  0.00     0.035 A 
HETATM   26 CL   UNL     1     -16.480   2.301 -32.199  1.00  0.00    -0.084 Cl
HETATM   27  C   UNL     1     -14.968   0.832 -33.880  1.00  0.00     0.024 A 
HETATM   28  C   UNL     1     -13.770   0.502 -34.515  1.00  0.00     0.003 A 
HETATM   29  C   UNL     1     -12.605   1.222 -34.233  1.00  0.00     0.017 A 
ENDBRANCH  20  23
ENDBRANCH  18  19
ENDBRANCH   2  18
TORSDOF 5
ENDMDL
MODEL 2
REMARK VINA RESULT:      -8.7      5.382      7.955
REMARK  5 active torsions:
REMARK  status: ('A' for Active; 'I' for Inactive)
REMARK    1  A    between atoms: C_7  and  C_8 
REMARK    2  A    between atoms: N_9  and  N_10 
REMARK       I    between atoms: N_10  and  C_11 
REMARK    3  A    between atoms: C_11  and  C_12 
REMARK    4  A    between atoms: C_12  and  N_13 
REMARK       I    between atoms: N_13  and  C_14 
REMARK    5  A    between atoms: C_14  and  C_15 
ROOT
HETATM    1  N   UNL     1      -5.403   1.031 -30.753  1.00  0.00    -0.246 N 
HETATM    2  C   UNL     1      -5.967   2.282 -30.953  1.00  0.00     0.255 C 
HETATM    3  O   UNL     1      -6.807   2.558 -31.807  1.00  0.00    -0.270 OA
HETATM    4  H   UNL     1      -4.617   0.941 -30.105  1.00  0.00     0.192 HD
ENDROOT
BRANCH   1   5
HETATM    5  N   UNL     1      -5.782  -0.030 -31.521  1.00  0.00    -0.184 NA
HETATM    6  C   UNL     1      -5.128  -0.171 -32.628  1.00  0.00     0.153 C 
BRANCH   6   7
HETATM    7  C   UNL     1      -5.459  -1.248 -33.544  1.00  0.00     0.018 A 
HETATM    8  C   UNL     1      -6.421  -1.227 -34.546  1.00  0.00     0.018 A 
HETATM    9  C   UNL     1      -7.366  -0.160 -34.974  1.00  0.00     0.069 C 
HETATM   10  N   UNL     1      -6.391  -2.444 -35.181  1.00  0.00    -0.358 N 
HETATM   11  H   UNL     1      -6.983  -2.707 -35.955  1.00  0.00     0.166 HD
HETATM   12  C   UNL     1      -5.439  -3.260 -34.620  1.00  0.00     0.043 A 
HETATM   13  C   UNL     1      -4.839  -2.541 -33.587  1.00  0.00     0.004 A 
HETATM   14  C   UNL     1      -5.071  -4.571 -34.949  1.00  0.00     0.030 A 
HETATM   15  C   UNL     1      -3.819  -3.172 -32.840  1.00  0.00     0.014 A 
HETATM   16  C   UNL     1      -3.442  -4.483 -33.153  1.00  0.00     0.001 A 
HETATM   17  C   UNL     1      -4.060  -5.170 -34.194  1.00  0.00     0.002 A 
ENDBRANCH   6   7
ENDBRANCH   1   5
BRANCH   2  18
HETATM   18  C   UNL     1      -5.346   3.369 -30.071  1.00  0.00     0.227 C 
BRANCH  18  19
HETATM   19  N   UNL     1      -4.400   4.241 -30.761  1.00  0.00    -0.348 N 
HETATM   20  C   UNL     1      -3.270   3.747 -31.372  1.00  0.00     0.252 C 
HETATM   21  O   UNL     1      -2.931   2.575 -31.225  1.00  0.00    -0.268 OA
HETATM   22  H   UNL     1      -4.560   5.235 -30.685  1.00  0.00     0.163 HD
BRANCH  20  23
HETATM   23  C   UNL     1      -2.426   4.685 -32.169  1.00  0.00     0.033 A 
HETATM   24  C   UNL     1      -1.381   5.343 -31.503  1.00  0.00     0.041 A 
HETATM   25  C   UNL     1      -0.549   6.220 -32.200  1.00  0.00     0.035 A 
HETATM   26 CL   UNL     1       0.732   7.017 -31.375  1.00  0.00    -0.084 Cl
HETATM   27  C   UNL     1      -0.745   6.450 -33.558  1.00  0.00     0.024 A 
HETATM   28  C   UNL     1      -1.776   5.793 -34.230  1.00  0.00     0.003 A 
HETATM   29  C   UNL     1      -2.612   4.909 -33.541  1.00  0.00     0.017 A 
ENDBRANCH  20  23
ENDBRANCH  18  19
ENDBRANCH   2  18
TORSDOF 5
ENDMDL
MODEL 3
REMARK VINA RESULT:      -8.6      3.121      8.474
REMARK  5 active torsions:
REMARK  status: ('A' for Active; 'I' for Inactive)
REMARK    1  A    between atoms: C_7  and  C_8 
REMARK    2  A    between atoms: N_9  and  N_10 
REMARK       I    between atoms: N_10  and  C_11 
REMARK    3  A    between atoms: C_11  and  C_12 
REMARK    4  A    between atoms: C_12  and  N_13 
REMARK       I    between atoms: N_13  and  C_14 
REMARK    5  A    between atoms: C_14  and  C_15 
ROOT
HETATM    1  N   UNL     1      -7.453   1.096 -32.801  1.00  0.00    -0.246 N 
HETATM    2  C   UNL     1      -6.375   1.957 -32.668  1.00  0.00     0.255 C 
HETATM    3  O   UNL     1      -6.443   3.184 -32.609  1.00  0.00    -0.270 OA
HETATM    4  H   UNL     1      -7.275   0.104 -32.974  1.00  0.00     0.192 HD
ENDROOT
BRANCH   1   5
HETATM    5  N   UNL     1      -8.725   1.584 -32.860  1.00  0.00    -0.184 NA
HETATM    6  C   UNL     1      -9.302   1.485 -34.013  1.00  0.00     0.153 C 
BRANCH   6   7
HETATM    7  C   UNL     1     -10.647   1.994 -34.208  1.00  0.00     0.018 A 
HETATM    8  C   UNL     1     -11.007   3.273 -34.616  1.00  0.00     0.018 A 
HETATM    9  C   UNL     1     -10.177   4.460 -34.960  1.00  0.00     0.069 C 
HETATM   10  N   UNL     1     -12.376   3.321 -34.685  1.00  0.00    -0.358 N 
HETATM   11  H   UNL     1     -12.914   4.130 -34.960  1.00  0.00     0.166 HD
HETATM   12  C   UNL     1     -12.923   2.112 -34.330  1.00  0.00     0.043 A 
HETATM   13  C   UNL     1     -11.865   1.258 -34.021  1.00  0.00     0.004 A 
HETATM   14  C   UNL     1     -14.265   1.717 -34.261  1.00  0.00     0.030 A 
HETATM   15  C   UNL     1     -12.168  -0.060 -33.615  1.00  0.00     0.014 A 
HETATM   16  C   UNL     1     -13.505  -0.470 -33.535  1.00  0.00     0.001 A 
HETATM   17  C   UNL     1     -14.536   0.408 -33.856  1.00  0.00     0.002 A 
ENDBRANCH   6   7
ENDBRANCH   1   5
BRANCH   2  18
HETATM   18  C   UNL     1      -5.023   1.241 -32.724  1.00  0.00     0.227 C 
BRANCH  18  19
HETATM   19  N   UNL     1      -5.093  -0.149 -33.165  1.00  0.00    -0.348 N 
HETATM   20  C   UNL     1      -4.009  -0.993 -33.082  1.00  0.00     0.252 C 
HETATM   21  O   UNL     1      -2.896  -0.568 -32.782  1.00  0.00    -0.268 OA
HETATM   22  H   UNL     1      -5.944  -0.437 -33.625  1.00  0.00     0.163 HD
BRANCH  20  23
HETATM   23  C   UNL     1      -4.201  -2.432 -33.428  1.00  0.00     0.033 A 
HETATM   24  C   UNL     1      -5.248  -2.756 -34.304  1.00  0.00     0.041 A 
HETATM   25  C   UNL     1      -5.466  -4.082 -34.675  1.00  0.00     0.035 A 
HETATM   26 CL   UNL     1      -6.749  -4.467 -35.753  1.00  0.00    -0.084 Cl
HETATM   27  C   UNL     1      -4.650  -5.096 -34.183  1.00  0.00     0.024 A 
HETATM   28  C   UNL     1      -3.601  -4.783 -33.319  1.00  0.00     0.003 A 
HETATM   29  C   UNL     1      -3.372  -3.455 -32.945  1.00  0.00     0.017 A 
ENDBRANCH  20  23
ENDBRANCH  18  19
ENDBRANCH   2  18
TORSDOF 5
ENDMDL
MODEL 4
REMARK VINA RESULT:      -8.5      5.236      8.667
REMARK  5 active torsions:
REMARK  status: ('A' for Active; 'I' for Inactive)
REMARK    1  A    between atoms: C_7  and  C_8 
REMARK    2  A    between atoms: N_9  and  N_10 
REMARK       I    between atoms: N_10  and  C_11 
REMARK    3  A    between atoms: C_11  and  C_12 
REMARK    4  A    between atoms: C_12  and  N_13 
REMARK       I    between atoms: N_13  and  C_14 
REMARK    5  A    between atoms: C_14  and  C_15 
ROOT
HETATM    1  N   UNL     1      -4.990   2.439 -31.302  1.00  0.00    -0.246 N 
HETATM    2  C   UNL     1      -6.305   2.264 -31.704  1.00  0.00     0.255 C 
HETATM    3  O   UNL     1      -6.982   3.089 -32.316  1.00  0.00    -0.270 OA
HETATM    4  H   UNL     1      -4.565   1.744 -30.684  1.00  0.00     0.192 HD
ENDROOT
BRANCH   1   5
HETATM    5  N   UNL     1      -4.325   3.593 -31.593  1.00  0.00    -0.184 NA
HETATM    6  C   UNL     1      -3.431   3.495 -32.523  1.00  0.00     0.153 C 
BRANCH   6   7
HETATM    7  C   UNL     1      -2.637   4.649 -32.903  1.00  0.00     0.018 A 
HETATM    8  C   UNL     1      -2.758   5.401 -34.065  1.00  0.00     0.018 A 
HETATM    9  C   UNL     1      -3.683   5.271 -35.223  1.00  0.00     0.069 C 
HETATM   10  N   UNL     1      -1.824   6.405 -34.013  1.00  0.00    -0.358 N 
HETATM   11  H   UNL     1      -1.689   7.108 -34.726  1.00  0.00     0.166 HD
HETATM   12  C   UNL     1      -1.093   6.329 -32.853  1.00  0.00     0.043 A 
HETATM   13  C   UNL     1      -1.575   5.235 -32.135  1.00  0.00     0.004 A 
HETATM   14  C   UNL     1      -0.049   7.141 -32.392  1.00  0.00     0.030 A 
HETATM   15  C   UNL     1      -0.975   4.935 -30.892  1.00  0.00     0.014 A 
HETATM   16  C   UNL     1       0.073   5.734 -30.419  1.00  0.00     0.001 A 
HETATM   17  C   UNL     1       0.526   6.822 -31.160  1.00  0.00     0.002 A 
ENDBRANCH   6   7
ENDBRANCH   1   5
BRANCH   2  18
HETATM   18  C   UNL     1      -6.918   0.955 -31.200  1.00  0.00     0.227 C 
BRANCH  18  19
HETATM   19  N   UNL     1      -6.863  -0.147 -32.156  1.00  0.00    -0.348 N 
HETATM   20  C   UNL     1      -5.668  -0.681 -32.582  1.00  0.00     0.252 C 
HETATM   21  O   UNL     1      -4.599  -0.147 -32.297  1.00  0.00    -0.268 OA
HETATM   22  H   UNL     1      -7.739  -0.436 -32.567  1.00  0.00     0.163 HD
BRANCH  20  23
HETATM   23  C   UNL     1      -5.701  -1.890 -33.455  1.00  0.00     0.033 A 
HETATM   24  C   UNL     1      -4.576  -2.728 -33.446  1.00  0.00     0.041 A 
HETATM   25  C   UNL     1      -4.555  -3.881 -34.230  1.00  0.00     0.035 A 
HETATM   26 CL   UNL     1      -3.173  -4.904 -34.207  1.00  0.00    -0.084 Cl
HETATM   27  C   UNL     1      -5.647  -4.214 -35.027  1.00  0.00     0.024 A 
HETATM   28  C   UNL     1      -6.773  -3.391 -35.035  1.00  0.00     0.003 A 
HETATM   29  C   UNL     1      -6.805  -2.235 -34.248  1.00  0.00     0.017 A 
ENDBRANCH  20  23
ENDBRANCH  18  19
ENDBRANCH   2  18
TORSDOF 5
ENDMDL
MODEL 5
REMARK VINA RESULT:      -8.2      5.163      8.646
REMARK  5 active torsions:
REMARK  status: ('A' for Active; 'I' for Inactive)
REMARK    1  A    between atoms: C_7  and  C_8 
REMARK    2  A    between atoms: N_9  and  N_10 
REMARK       I    between atoms: N_10  and  C_11 
REMARK    3  A    between atoms: C_11  and  C_12 
REMARK    4  A    between atoms: C_12  and  N_13 
REMARK       I    between atoms: N_13  and  C_14 
REMARK    5  A    between atoms: C_14  and  C_15 
ROOT
HETATM    1  N   UNL     1      -5.535   3.492 -33.174  1.00  0.00    -0.246 N 
HETATM    2  C   UNL     1      -6.718   3.720 -33.861  1.00  0.00     0.255 C 
HETATM    3  O   UNL     1      -7.185   4.825 -34.132  1.00  0.00    -0.270 OA
HETATM    4  H   UNL     1      -5.306   2.539 -32.886  1.00  0.00     0.192 HD
ENDROOT
BRANCH   1   5
HETATM    5  N   UNL     1      -4.767   4.537 -32.753  1.00  0.00    -0.184 NA
HETATM    6  C   UNL     1      -4.480   4.538 -31.492  1.00  0.00     0.153 C 
BRANCH   6   7
HETATM    7  C   UNL     1      -3.692   5.614 -30.919  1.00  0.00     0.018 A 
HETATM    8  C   UNL     1      -4.163   6.699 -30.188  1.00  0.00     0.018 A 
HETATM    9  C   UNL     1      -5.543   7.083 -29.787  1.00  0.00     0.069 C 
HETATM   10  N   UNL     1      -3.081   7.461 -29.826  1.00  0.00    -0.358 N 
HETATM   11  H   UNL     1      -3.127   8.311 -29.283  1.00  0.00     0.166 HD
HETATM   12  C   UNL     1      -1.916   6.908 -30.301  1.00  0.00     0.043 A 
HETATM   13  C   UNL     1      -2.265   5.750 -30.995  1.00  0.00     0.004 A 
HETATM   14  C   UNL     1      -0.593   7.347 -30.168  1.00  0.00     0.030 A 
HETATM   15  C   UNL     1      -1.233   4.994 -31.593  1.00  0.00     0.014 A 
HETATM   16  C   UNL     1       0.096   5.421 -31.474  1.00  0.00     0.001 A 
HETATM   17  C   UNL     1       0.408   6.580 -30.770  1.00  0.00     0.002 A 
ENDBRANCH   6   7
ENDBRANCH   1   5
BRANCH   2  18
HETATM   18  C   UNL     1      -7.494   2.435 -34.162  1.00  0.00     0.227 C 
BRANCH  18  19
HETATM   19  N   UNL     1      -6.666   1.237 -34.264  1.00  0.00    -0.348 N 
HETATM   20  C   UNL     1      -6.900   0.124 -33.489  1.00  0.00     0.252 C 
HETATM   21  O   UNL     1      -7.714   0.152 -32.569  1.00  0.00    -0.268 OA
HETATM   22  H   UNL     1      -5.853   1.297 -34.858  1.00  0.00     0.163 HD
BRANCH  20  23
HETATM   23  C   UNL     1      -6.094  -1.105 -33.749  1.00  0.00     0.033 A 
HETATM   24  C   UNL     1      -6.715  -2.154 -34.442  1.00  0.00     0.041 A 
HETATM   25  C   UNL     1      -6.007  -3.321 -34.727  1.00  0.00     0.035 A 
HETATM   26 CL   UNL     1      -6.777  -4.599 -35.583  1.00  0.00    -0.084 Cl
HETATM   27  C   UNL     1      -4.681  -3.457 -34.329  1.00  0.00     0.024 A 
HETATM   28  C   UNL     1      -4.052  -2.416 -33.647  1.00  0.00     0.003 A 
HETATM   29  C   UNL     1      -4.753  -1.240 -33.361  1.00  0.00     0.017 A 
ENDBRANCH  20  23
ENDBRANCH  18  19
ENDBRANCH   2  18
TORSDOF 5
ENDMDL
MODEL 6
REMARK VINA RESULT:      -8.2      1.657      1.983
REMARK  5 active torsions:
REMARK  status: ('A' for Active; 'I' for Inactive)
REMARK    1  A    between atoms: C_7  and  C_8 
REMARK    2  A    between atoms: N_9  and  N_10 
REMARK       I    between atoms: N_10  and  C_11 
REMARK    3  A    between atoms: C_11  and  C_12 
REMARK    4  A    between atoms: C_12  and  N_13 
REMARK       I    between atoms: N_13  and  C_14 
REMARK    5  A    between atoms: C_14  and  C_15 
ROOT
HETATM    1  N   UNL     1      -8.003   2.378 -33.738  1.00  0.00    -0.246 N 
HETATM    2  C   UNL     1      -7.782   3.742 -33.857  1.00  0.00     0.255 C 
HETATM    3  O   UNL     1      -6.726   4.267 -34.206  1.00  0.00    -0.270 OA
HETATM    4  H   UNL     1      -8.875   2.054 -33.313  1.00  0.00     0.192 HD
ENDROOT
BRANCH   1   5
HETATM    5  N   UNL     1      -7.015   1.488 -34.037  1.00  0.00    -0.184 NA
HETATM    6  C   UNL     1      -6.757   0.620 -33.114  1.00  0.00     0.153 C 
BRANCH   6   7
HETATM    7  C   UNL     1      -5.706  -0.363 -33.303  1.00  0.00     0.018 A 
HETATM    8  C   UNL     1      -4.363  -0.225 -32.974  1.00  0.00     0.018 A 
HETATM    9  C   UNL     1      -3.617   0.908 -32.361  1.00  0.00     0.069 C 
HETATM   10  N   UNL     1      -3.728  -1.396 -33.306  1.00  0.00    -0.358 N 
HETATM   11  H   UNL     1      -2.744  -1.579 -33.173  1.00  0.00     0.166 HD
HETATM   12  C   UNL     1      -4.616  -2.293 -33.847  1.00  0.00     0.043 A 
HETATM   13  C   UNL     1      -5.866  -1.675 -33.863  1.00  0.00     0.004 A 
HETATM   14  C   UNL     1      -4.404  -3.595 -34.319  1.00  0.00     0.030 A 
HETATM   15  C   UNL     1      -6.961  -2.397 -34.386  1.00  0.00     0.014 A 
HETATM   16  C   UNL     1      -6.766  -3.698 -34.866  1.00  0.00     0.001 A 
HETATM   17  C   UNL     1      -5.505  -4.286 -34.831  1.00  0.00     0.002 A 
ENDBRANCH   6   7
ENDBRANCH   1   5
BRANCH   2  18
HETATM   18  C   UNL     1      -8.967   4.587 -33.381  1.00  0.00     0.227 C 
BRANCH  18  19
HETATM   19  N   UNL     1     -10.194   3.831 -33.148  1.00  0.00    -0.348 N 
HETATM   20  C   UNL     1     -11.337   4.430 -32.669  1.00  0.00     0.252 C 
HETATM   21  O   UNL     1     -11.324   5.591 -32.269  1.00  0.00    -0.268 OA
HETATM   22  H   UNL     1     -10.138   2.829 -33.260  1.00  0.00     0.163 HD
BRANCH  20  23
HETATM   23  C   UNL     1     -12.585   3.615 -32.586  1.00  0.00     0.033 A 
HETATM   24  C   UNL     1     -12.658   2.457 -33.375  1.00  0.00     0.041 A 
HETATM   25  C   UNL     1     -13.793   1.649 -33.327  1.00  0.00     0.035 A 
HETATM   26 CL   UNL     1     -13.871   0.228 -34.294  1.00  0.00    -0.084 Cl
HETATM   27  C   UNL     1     -14.862   1.979 -32.499  1.00  0.00     0.024 A 
HETATM   28  C   UNL     1     -14.794   3.124 -31.704  1.00  0.00     0.003 A 
HETATM   29  C   UNL     1     -13.658   3.938 -31.742  1.00  0.00     0.017 A 
ENDBRANCH  20  23
ENDBRANCH  18  19
ENDBRANCH   2  18
TORSDOF 5
ENDMDL
MODEL 7
REMARK VINA RESULT:      -8.2      6.573      9.530
REMARK  5 active torsions:
REMARK  status: ('A' for Active; 'I' for Inactive)
REMARK    1  A    between atoms: C_7  and  C_8 
REMARK    2  A    between atoms: N_9  and  N_10 
REMARK       I    between atoms: N_10  and  C_11 
REMARK    3  A    between atoms: C_11  and  C_12 
REMARK    4  A    between atoms: C_12  and  N_13 
REMARK       I    between atoms: N_13  and  C_14 
REMARK    5  A    between atoms: C_14  and  C_15 
ROOT
HETATM    1  N   UNL     1      -4.510   3.023 -32.088  1.00  0.00    -0.246 N 
HETATM    2  C   UNL     1      -3.426   3.883 -31.999  1.00  0.00     0.255 C 
HETATM    3  O   UNL     1      -2.310   3.679 -32.473  1.00  0.00    -0.270 OA
HETATM    4  H   UNL     1      -5.351   3.229 -31.545  1.00  0.00     0.192 HD
ENDROOT
BRANCH   1   5
HETATM    5  N   UNL     1      -4.402   1.841 -32.760  1.00  0.00    -0.184 NA
HETATM    6  C   UNL     1      -5.446   1.080 -32.708  1.00  0.00     0.153 C 
BRANCH   6   7
HETATM    7  C   UNL     1      -5.442  -0.217 -33.361  1.00  0.00     0.018 A 
HETATM    8  C   UNL     1      -6.211  -0.606 -34.452  1.00  0.00     0.018 A 
HETATM    9  C   UNL     1      -7.226   0.137 -35.248  1.00  0.00     0.069 C 
HETATM   10  N   UNL     1      -5.883  -1.903 -34.754  1.00  0.00    -0.358 N 
HETATM   11  H   UNL     1      -6.286  -2.442 -35.508  1.00  0.00     0.166 HD
HETATM   12  C   UNL     1      -4.924  -2.375 -33.891  1.00  0.00     0.043 A 
HETATM   13  C   UNL     1      -4.629  -1.343 -33.002  1.00  0.00     0.004 A 
HETATM   14  C   UNL     1      -4.305  -3.630 -33.834  1.00  0.00     0.030 A 
HETATM   15  C   UNL     1      -3.665  -1.583 -31.997  1.00  0.00     0.014 A 
HETATM   16  C   UNL     1      -3.039  -2.833 -31.923  1.00  0.00     0.001 A 
HETATM   17  C   UNL     1      -3.356  -3.840 -32.830  1.00  0.00     0.002 A 
ENDBRANCH   6   7
ENDBRANCH   1   5
BRANCH   2  18
HETATM   18  C   UNL     1      -3.702   5.108 -31.121  1.00  0.00     0.227 C 
BRANCH  18  19
HETATM   19  N   UNL     1      -2.517   5.676 -30.486  1.00  0.00    -0.348 N 
HETATM   20  C   UNL     1      -2.593   6.769 -29.653  1.00  0.00     0.252 C 
HETATM   21  O   UNL     1      -3.637   7.407 -29.538  1.00  0.00    -0.268 OA
HETATM   22  H   UNL     1      -1.625   5.292 -30.762  1.00  0.00     0.163 HD
BRANCH  20  23
HETATM   23  C   UNL     1      -1.358   7.206 -28.939  1.00  0.00     0.033 A 
HETATM   24  C   UNL     1      -1.335   8.508 -28.418  1.00  0.00     0.041 A 
HETATM   25  C   UNL     1      -0.213   8.966 -27.727  1.00  0.00     0.035 A 
HETATM   26 CL   UNL     1      -0.198  10.563 -27.088  1.00  0.00    -0.084 Cl
HETATM   27  C   UNL     1       0.891   8.139 -27.546  1.00  0.00     0.024 A 
HETATM   28  C   UNL     1       0.874   6.840 -28.053  1.00  0.00     0.003 A 
HETATM   29  C   UNL     1      -0.248   6.371 -28.743  1.00  0.00     0.017 A 
ENDBRANCH  20  23
ENDBRANCH  18  19
ENDBRANCH   2  18
TORSDOF 5
ENDMDL
MODEL 8
REMARK VINA RESULT:      -8.1      7.028     10.037
REMARK  5 active torsions:
REMARK  status: ('A' for Active; 'I' for Inactive)
REMARK    1  A    between atoms: C_7  and  C_8 
REMARK    2  A    between atoms: N_9  and  N_10 
REMARK       I    between atoms: N_10  and  C_11 
REMARK    3  A    between atoms: C_11  and  C_12 
REMARK    4  A    between atoms: C_12  and  N_13 
REMARK       I    between atoms: N_13  and  C_14 
REMARK    5  A    between atoms: C_14  and  C_15 
ROOT
HETATM    1  N   UNL     1      -4.095   4.010 -31.062  1.00  0.00    -0.246 N 
HETATM    2  C   UNL     1      -2.857   4.614 -31.223  1.00  0.00     0.255 C 
HETATM    3  O   UNL     1      -1.803   4.028 -31.467  1.00  0.00    -0.270 OA
HETATM    4  H   UNL     1      -4.880   4.574 -30.731  1.00  0.00     0.192 HD
ENDROOT
BRANCH   1   5
HETATM    5  N   UNL     1      -4.229   2.660 -31.191  1.00  0.00    -0.184 NA
HETATM    6  C   UNL     1      -4.380   2.233 -32.402  1.00  0.00     0.153 C 
BRANCH   6   7
HETATM    7  C   UNL     1      -4.561   0.817 -32.666  1.00  0.00     0.018 A 
HETATM    8  C   UNL     1      -3.833  -0.234 -32.121  1.00  0.00     0.018 A 
HETATM    9  C   UNL     1      -2.702  -0.244 -31.153  1.00  0.00     0.069 C 
HETATM   10  N   UNL     1      -4.344  -1.403 -32.628  1.00  0.00    -0.358 N 
HETATM   11  H   UNL     1      -4.008  -2.328 -32.400  1.00  0.00     0.166 HD
HETATM   12  C   UNL     1      -5.381  -1.147 -33.491  1.00  0.00     0.043 A 
HETATM   13  C   UNL     1      -5.540   0.238 -33.540  1.00  0.00     0.004 A 
HETATM   14  C   UNL     1      -6.180  -2.032 -34.225  1.00  0.00     0.030 A 
HETATM   15  C   UNL     1      -6.551   0.763 -34.375  1.00  0.00     0.014 A 
HETATM   16  C   UNL     1      -7.357  -0.107 -35.119  1.00  0.00     0.001 A 
HETATM   17  C   UNL     1      -7.173  -1.484 -35.042  1.00  0.00     0.002 A 
ENDBRANCH   6   7
ENDBRANCH   1   5
BRANCH   2  18
HETATM   18  C   UNL     1      -2.881   6.118 -30.941  1.00  0.00     0.227 C 
BRANCH  18  19
HETATM   19  N   UNL     1      -2.108   6.527 -29.772  1.00  0.00    -0.348 N 
HETATM   20  C   UNL     1      -0.970   7.294 -29.885  1.00  0.00     0.252 C 
HETATM   21  O   UNL     1      -0.472   7.530 -30.983  1.00  0.00    -0.268 OA
HETATM   22  H   UNL     1      -2.390   6.140 -28.883  1.00  0.00     0.163 HD
BRANCH  20  23
HETATM   23  C   UNL     1      -0.315   7.781 -28.636  1.00  0.00     0.033 A 
HETATM   24  C   UNL     1      -1.137   8.035 -27.528  1.00  0.00     0.041 A 
HETATM   25  C   UNL     1      -0.579   8.478 -26.329  1.00  0.00     0.035 A 
HETATM   26 CL   UNL     1      -1.596   8.781 -24.975  1.00  0.00    -0.084 Cl
HETATM   27  C   UNL     1       0.795   8.671 -26.218  1.00  0.00     0.024 A 
HETATM   28  C   UNL     1       1.621   8.412 -27.312  1.00  0.00     0.003 A 
HETATM   29  C   UNL     1       1.070   7.963 -28.517  1.00  0.00     0.017 A 
ENDBRANCH  20  23
ENDBRANCH  18  19
ENDBRANCH   2  18
TORSDOF 5
ENDMDL
MODEL 9
REMARK VINA RESULT:      -8.0      7.051     10.179
REMARK  5 active torsions:
REMARK  status: ('A' for Active; 'I' for Inactive)
REMARK    1  A    between atoms: C_7  and  C_8 
REMARK    2  A    between atoms: N_9  and  N_10 
REMARK       I    between atoms: N_10  and  C_11 
REMARK    3  A    between atoms: C_11  and  C_12 
REMARK    4  A    between atoms: C_12  and  N_13 
REMARK       I    between atoms: N_13  and  C_14 
REMARK    5  A    between atoms: C_14  and  C_15 
ROOT
HETATM    1  N   UNL     1      -3.038   3.042 -31.181  1.00  0.00    -0.246 N 
HETATM    2  C   UNL     1      -2.714   4.183 -31.899  1.00  0.00     0.255 C 
HETATM    3  O   UNL     1      -3.382   4.667 -32.810  1.00  0.00    -0.270 OA
HETATM    4  H   UNL     1      -2.348   2.651 -30.536  1.00  0.00     0.192 HD
ENDROOT
BRANCH   1   5
HETATM    5  N   UNL     1      -4.191   2.363 -31.443  1.00  0.00    -0.184 NA
HETATM    6  C   UNL     1      -4.133   1.544 -32.443  1.00  0.00     0.153 C 
BRANCH   6   7
HETATM    7  C   UNL     1      -5.305   0.784 -32.839  1.00  0.00     0.018 A 
HETATM    8  C   UNL     1      -6.632   1.184 -32.745  1.00  0.00     0.018 A 
HETATM    9  C   UNL     1      -7.241   2.444 -32.236  1.00  0.00     0.069 C 
HETATM   10  N   UNL     1      -7.412   0.171 -33.244  1.00  0.00    -0.358 N 
HETATM   11  H   UNL     1      -8.419   0.191 -33.303  1.00  0.00     0.166 HD
HETATM   12  C   UNL     1      -6.632  -0.882 -33.657  1.00  0.00     0.043 A 
HETATM   13  C   UNL     1      -5.305  -0.531 -33.413  1.00  0.00     0.004 A 
HETATM   14  C   UNL     1      -7.004  -2.108 -34.224  1.00  0.00     0.030 A 
HETATM   15  C   UNL     1      -4.297  -1.461 -33.749  1.00  0.00     0.014 A 
HETATM   16  C   UNL     1      -4.651  -2.693 -34.312  1.00  0.00     0.001 A 
HETATM   17  C   UNL     1      -5.986  -3.009 -34.545  1.00  0.00     0.002 A 
ENDBRANCH   6   7
ENDBRANCH   1   5
BRANCH   2  18
HETATM   18  C   UNL     1      -1.338   4.749 -31.538  1.00  0.00     0.227 C 
BRANCH  18  19
HETATM   19  N   UNL     1      -1.344   5.686 -30.418  1.00  0.00    -0.348 N 
HETATM   20  C   UNL     1      -0.244   5.859 -29.609  1.00  0.00     0.252 C 
HETATM   21  O   UNL     1       0.732   5.117 -29.699  1.00  0.00    -0.268 OA
HETATM   22  H   UNL     1      -2.225   6.129 -30.201  1.00  0.00     0.163 HD
BRANCH  20  23
HETATM   23  C   UNL     1      -0.286   6.930 -28.571  1.00  0.00     0.033 A 
HETATM   24  C   UNL     1       0.834   7.073 -27.739  1.00  0.00     0.041 A 
HETATM   25  C   UNL     1       0.858   8.066 -26.761  1.00  0.00     0.035 A 
HETATM   26 CL   UNL     1       2.240   8.236 -25.750  1.00  0.00    -0.084 Cl
HETATM   27  C   UNL     1      -0.225   8.925 -26.600  1.00  0.00     0.024 A 
HETATM   28  C   UNL     1      -1.340   8.796 -27.428  1.00  0.00     0.003 A 
HETATM   29  C   UNL     1      -1.371   7.806 -28.415  1.00  0.00     0.017 A 
ENDBRANCH  20  23
ENDBRANCH  18  19
ENDBRANCH   2  18
TORSDOF 5
ENDMDL
MODEL 10
REMARK VINA RESULT:      -8.0      5.249      8.722
REMARK  5 active torsions:
REMARK  status: ('A' for Active; 'I' for Inactive)
REMARK    1  A    between atoms: C_7  and  C_8 
REMARK    2  A    between atoms: N_9  and  N_10 
REMARK       I    between atoms: N_10  and  C_11 
REMARK    3  A    between atoms: C_11  and  C_12 
REMARK    4  A    between atoms: C_12  and  N_13 
REMARK       I    between atoms: N_13  and  C_14 
REMARK    5  A    between atoms: C_14  and  C_15 
ROOT
HETATM    1  N   UNL     1      -6.790   3.103 -32.060  1.00  0.00    -0.246 N 
HETATM    2  C   UNL     1      -6.352   1.857 -32.482  1.00  0.00     0.255 C 
HETATM    3  O   UNL     1      -5.177   1.508 -32.580  1.00  0.00    -0.270 OA
HETATM    4  H   UNL     1      -7.782   3.332 -32.142  1.00  0.00     0.192 HD
ENDROOT
BRANCH   1   5
HETATM    5  N   UNL     1      -5.894   4.062 -31.689  1.00  0.00    -0.184 NA
HETATM    6  C   UNL     1      -5.743   5.031 -32.532  1.00  0.00     0.153 C 
BRANCH   6   7
HETATM    7  C   UNL     1      -4.796   6.098 -32.263  1.00  0.00     0.018 A 
HETATM    8  C   UNL     1      -4.985   7.193 -31.427  1.00  0.00     0.018 A 
HETATM    9  C   UNL     1      -6.150   7.598 -30.593  1.00  0.00     0.069 C 
HETATM   10  N   UNL     1      -3.835   7.941 -31.452  1.00  0.00    -0.358 N 
HETATM   11  H   UNL     1      -3.689   8.795 -30.931  1.00  0.00     0.166 HD
HETATM   12  C   UNL     1      -2.902   7.371 -32.282  1.00  0.00     0.043 A 
HETATM   13  C   UNL     1      -3.475   6.214 -32.810  1.00  0.00     0.004 A 
HETATM   14  C   UNL     1      -1.604   7.792 -32.601  1.00  0.00     0.030 A 
HETATM   15  C   UNL     1      -2.709   5.442 -33.711  1.00  0.00     0.014 A 
HETATM   16  C   UNL     1      -1.412   5.850 -34.044  1.00  0.00     0.001 A 
HETATM   17  C   UNL     1      -0.870   7.008 -33.494  1.00  0.00     0.002 A 
ENDBRANCH   6   7
ENDBRANCH   1   5
BRANCH   2  18
HETATM   18  C   UNL     1      -7.490   0.949 -32.954  1.00  0.00     0.227 C 
BRANCH  18  19
HETATM   19  N   UNL     1      -7.106  -0.443 -33.168  1.00  0.00    -0.348 N 
HETATM   20  C   UNL     1      -6.720  -0.909 -34.404  1.00  0.00     0.252 C 
HETATM   21  O   UNL     1      -6.838  -0.211 -35.409  1.00  0.00    -0.268 OA
HETATM   22  H   UNL     1      -7.229  -1.073 -32.389  1.00  0.00     0.163 HD
BRANCH  20  23
HETATM   23  C   UNL     1      -6.214  -2.309 -34.510  1.00  0.00     0.033 A 
HETATM   24  C   UNL     1      -5.023  -2.621 -33.838  1.00  0.00     0.041 A 
HETATM   25  C   UNL     1      -4.510  -3.917 -33.888  1.00  0.00     0.035 A 
HETATM   26 CL   UNL     1      -3.052  -4.290 -33.056  1.00  0.00    -0.084 Cl
HETATM   27  C   UNL     1      -5.171  -4.911 -34.603  1.00  0.00     0.024 A 
HETATM   28  C   UNL     1      -6.361  -4.612 -35.267  1.00  0.00     0.003 A 
HETATM   29  C   UNL     1      -6.885  -3.316 -35.218  1.00  0.00     0.017 A 
ENDBRANCH  20  23
ENDBRANCH  18  19
ENDBRANCH   2  18
TORSDOF 5
ENDMDL
