MODEL 1
REMARK VINA RESULT:      -8.2      0.000      0.000
REMARK  4 active torsions:
REMARK  status: ('A' for Active; 'I' for Inactive)
REMARK    1  A    between atoms: C_4  and  C_5 
REMARK    2  A    between atoms: C_8  and  C_9 
REMARK       I    between atoms: C_9  and  N_10 
REMARK    3  A    between atoms: N_10  and  C_11 
REMARK    4  A    between atoms: C_14  and  N_15 
ROOT
HETATM    1  C   UNL     1      -3.830   2.526 -31.366  1.00  0.00     0.252 C 
HETATM    2  N   UNL     1      -2.935   3.390 -31.972  1.00  0.00    -0.352 N 
HETATM    3  O   UNL     1      -4.561   2.852 -30.438  1.00  0.00    -0.268 OA
HETATM    4  H   UNL     1      -2.245   2.934 -32.557  1.00  0.00     0.163 HD
ENDROOT
BRANCH   1   5
HETATM    5  C   UNL     1      -3.885   1.121 -31.878  1.00  0.00     0.032 A 
HETATM    6  C   UNL     1      -3.050   0.097 -31.417  1.00  0.00     0.018 A 
HETATM    7  C   UNL     1      -3.187  -1.204 -31.922  1.00  0.00     0.015 A 
HETATM    8  C   UNL     1      -4.142  -1.508 -32.906  1.00  0.00    -0.002 A 
HETATM    9  C   UNL     1      -4.951  -0.469 -33.383  1.00  0.00     0.015 A 
HETATM   10  C   UNL     1      -4.824   0.829 -32.875  1.00  0.00     0.018 A 
BRANCH   8  11
HETATM   11  C   UNL     1      -4.298  -2.866 -33.422  1.00  0.00     0.086 A 
HETATM   12  O   UNL     1      -5.349  -3.075 -34.273  1.00  0.00    -0.315 OA
HETATM   13  C   UNL     1      -5.310  -4.380 -34.661  1.00  0.00     0.050 A 
HETATM   14  C   UNL     1      -6.357  -4.826 -35.602  1.00  0.00     0.076 C 
HETATM   15  C   UNL     1      -4.250  -5.020 -34.060  1.00  0.00     0.035 A 
HETATM   16  C   UNL     1      -3.597  -4.047 -33.265  1.00  0.00     0.040 A 
ENDBRANCH   8  11
ENDBRANCH   1   5
BRANCH   2  17
HETATM   17  C   UNL     1      -2.483   4.672 -31.421  1.00  0.00     0.084 C 
HETATM   18  C   UNL     1      -1.119   5.024 -32.043  1.00  0.00     0.027 C 
HETATM   19  C   UNL     1      -1.248   5.449 -33.512  1.00  0.00     0.035 C 
HETATM   20  C   UNL     1      -2.270   6.564 -33.742  1.00  0.00     0.183 C 
HETATM   21  C   UNL     1      -3.597   6.313 -33.033  1.00  0.00     0.035 C 
HETATM   22  C   UNL     1      -3.418   5.884 -31.575  1.00  0.00     0.027 C 
BRANCH  20  23
HETATM   23  N   UNL     1      -1.702   7.859 -33.257  1.00  0.00    -0.075 N 
HETATM   24  H   UNL     1      -1.631   8.570 -33.994  1.00  0.00     0.274 HD
HETATM   25  H   UNL     1      -2.272   8.254 -32.496  1.00  0.00     0.274 HD
HETATM   26  H   UNL     1      -0.756   7.721 -32.877  1.00  0.00     0.274 HD
ENDBRANCH  20  23
ENDBRANCH   2  17
TORSDOF 4
ENDMDL
MODEL 2
REMARK VINA RESULT:      -8.2      1.620      2.640
REMARK  4 active torsions:
REMARK  status: ('A' for Active; 'I' for Inactive)
REMARK    1  A    between atoms: C_4  and  C_5 
REMARK    2  A    between atoms: C_8  and  C_9 
REMARK       I    between atoms: C_9  and  N_10 
REMARK    3  A    between atoms: N_10  and  C_11 
REMARK    4  A    between atoms: C_14  and  N_15 
ROOT
HETATM    1  C   UNL     1      -5.831   3.290 -33.227  1.00  0.00     0.252 C 
HETATM    2  N   UNL     1      -4.640   3.937 -33.506  1.00  0.00    -0.352 N 
HETATM    3  O   UNL     1      -6.803   3.848 -32.732  1.00  0.00    -0.268 OA
HETATM    4  H   UNL     1      -3.861   3.317 -33.693  1.00  0.00     0.163 HD
ENDROOT
BRANCH   1   5
HETATM    5  C   UNL     1      -5.911   1.829 -33.542  1.00  0.00     0.032 A 
HETATM    6  C   UNL     1      -6.776   1.292 -34.502  1.00  0.00     0.018 A 
HETATM    7  C   UNL     1      -6.767  -0.086 -34.765  1.00  0.00     0.015 A 
HETATM    8  C   UNL     1      -5.912  -0.956 -34.069  1.00  0.00    -0.002 A 
HETATM    9  C   UNL     1      -5.073  -0.411 -33.089  1.00  0.00     0.015 A 
HETATM   10  C   UNL     1      -5.072   0.964 -32.829  1.00  0.00     0.018 A 
BRANCH   8  11
HETATM   11  C   UNL     1      -5.888  -2.388 -34.353  1.00  0.00     0.086 A 
HETATM   12  O   UNL     1      -4.748  -3.058 -34.001  1.00  0.00    -0.315 OA
HETATM   13  C   UNL     1      -4.928  -4.371 -34.319  1.00  0.00     0.050 A 
HETATM   14  C   UNL     1      -3.814  -5.289 -34.009  1.00  0.00     0.076 C 
HETATM   15  C   UNL     1      -6.170  -4.555 -34.882  1.00  0.00     0.035 A 
HETATM   16  C   UNL     1      -6.789  -3.281 -34.902  1.00  0.00     0.040 A 
ENDBRANCH   8  11
ENDBRANCH   1   5
BRANCH   2  17
HETATM   17  C   UNL     1      -4.236   5.243 -32.976  1.00  0.00     0.084 C 
HETATM   18  C   UNL     1      -3.657   5.046 -31.563  1.00  0.00     0.027 C 
HETATM   19  C   UNL     1      -2.272   4.385 -31.596  1.00  0.00     0.035 C 
HETATM   20  C   UNL     1      -1.274   5.094 -32.514  1.00  0.00     0.183 C 
HETATM   21  C   UNL     1      -1.855   5.423 -33.886  1.00  0.00     0.035 C 
HETATM   22  C   UNL     1      -3.238   6.072 -33.803  1.00  0.00     0.027 C 
BRANCH  20  23
HETATM   23  N   UNL     1      -0.823   6.362 -31.865  1.00  0.00    -0.075 N 
HETATM   24  H   UNL     1      -1.470   7.145 -32.015  1.00  0.00     0.274 HD
HETATM   25  H   UNL     1      -0.710   6.241 -30.849  1.00  0.00     0.274 HD
HETATM   26  H   UNL     1       0.094   6.651 -32.232  1.00  0.00     0.274 HD
ENDBRANCH  20  23
ENDBRANCH   2  17
TORSDOF 4
ENDMDL
MODEL 3
REMARK VINA RESULT:      -8.1      5.106      6.289
REMARK  4 active torsions:
REMARK  status: ('A' for Active; 'I' for Inactive)
REMARK    1  A    between atoms: C_4  and  C_5 
REMARK    2  A    between atoms: C_8  and  C_9 
REMARK       I    between atoms: C_9  and  N_10 
REMARK    3  A    between atoms: N_10  and  C_11 
REMARK    4  A    between atoms: C_14  and  N_15 
ROOT
HETATM    1  C   UNL     1      -7.765   2.891 -33.844  1.00  0.00     0.252 C 
HETATM    2  N   UNL     1      -9.134   3.061 -33.727  1.00  0.00    -0.352 N 
HETATM    3  O   UNL     1      -6.967   3.821 -33.847  1.00  0.00    -0.268 OA
HETATM    4  H   UNL     1      -9.679   2.242 -33.968  1.00  0.00     0.163 HD
ENDROOT
BRANCH   1   5
HETATM    5  C   UNL     1      -7.255   1.491 -33.983  1.00  0.00     0.032 A 
HETATM    6  C   UNL     1      -6.209   0.969 -33.213  1.00  0.00     0.018 A 
HETATM    7  C   UNL     1      -5.812  -0.366 -33.380  1.00  0.00     0.015 A 
HETATM    8  C   UNL     1      -6.432  -1.200 -34.324  1.00  0.00    -0.002 A 
HETATM    9  C   UNL     1      -7.456  -0.657 -35.110  1.00  0.00     0.015 A 
HETATM   10  C   UNL     1      -7.862   0.671 -34.943  1.00  0.00     0.018 A 
BRANCH   8  11
HETATM   11  C   UNL     1      -6.031  -2.595 -34.487  1.00  0.00     0.086 A 
HETATM   12  O   UNL     1      -4.778  -2.923 -34.047  1.00  0.00    -0.315 OA
HETATM   13  C   UNL     1      -4.604  -4.257 -34.261  1.00  0.00     0.050 A 
HETATM   14  C   UNL     1      -3.311  -4.835 -33.843  1.00  0.00     0.076 C 
HETATM   15  C   UNL     1      -5.729  -4.793 -34.845  1.00  0.00     0.035 A 
HETATM   16  C   UNL     1      -6.649  -3.726 -34.989  1.00  0.00     0.040 A 
ENDBRANCH   8  11
ENDBRANCH   1   5
BRANCH   2  17
HETATM   17  C   UNL     1      -9.854   4.323 -33.921  1.00  0.00     0.084 C 
HETATM   18  C   UNL     1     -10.531   4.299 -35.304  1.00  0.00     0.027 C 
HETATM   19  C   UNL     1     -11.736   3.350 -35.339  1.00  0.00     0.035 C 
HETATM   20  C   UNL     1     -12.754   3.607 -34.225  1.00  0.00     0.183 C 
HETATM   21  C   UNL     1     -12.108   3.766 -32.852  1.00  0.00     0.035 C 
HETATM   22  C   UNL     1     -10.907   4.714 -32.869  1.00  0.00     0.027 C 
BRANCH  20  23
HETATM   23  N   UNL     1     -13.526   4.847 -34.541  1.00  0.00    -0.075 N 
HETATM   24  H   UNL     1     -13.046   5.707 -34.251  1.00  0.00     0.274 HD
HETATM   25  H   UNL     1     -13.716   4.922 -35.550  1.00  0.00     0.274 HD
HETATM   26  H   UNL     1     -14.440   4.836 -34.068  1.00  0.00     0.274 HD
ENDBRANCH  20  23
ENDBRANCH   2  17
TORSDOF 4
ENDMDL
MODEL 4
REMARK VINA RESULT:      -7.8      6.047      7.849
REMARK  4 active torsions:
REMARK  status: ('A' for Active; 'I' for Inactive)
REMARK    1  A    between atoms: C_4  and  C_5 
REMARK    2  A    between atoms: C_8  and  C_9 
REMARK       I    between atoms: C_9  and  N_10 
REMARK    3  A    between atoms: N_10  and  C_11 
REMARK    4  A    between atoms: C_14  and  N_15 
ROOT
HETATM    1  C   UNL     1      -9.670   1.989 -34.223  1.00  0.00     0.252 C 
HETATM    2  N   UNL     1     -10.943   1.446 -34.235  1.00  0.00    -0.352 N 
HETATM    3  O   UNL     1      -9.442   3.179 -34.410  1.00  0.00    -0.268 OA
HETATM    4  H   UNL     1     -10.966   0.436 -34.297  1.00  0.00     0.163 HD
ENDROOT
BRANCH   1   5
HETATM    5  C   UNL     1      -8.526   1.056 -33.981  1.00  0.00     0.032 A 
HETATM    6  C   UNL     1      -7.882   0.342 -34.997  1.00  0.00     0.018 A 
HETATM    7  C   UNL     1      -6.792  -0.487 -34.693  1.00  0.00     0.015 A 
HETATM    8  C   UNL     1      -6.334  -0.635 -33.374  1.00  0.00    -0.002 A 
HETATM    9  C   UNL     1      -7.006   0.060 -32.361  1.00  0.00     0.015 A 
HETATM   10  C   UNL     1      -8.088   0.895 -32.660  1.00  0.00     0.018 A 
BRANCH   8  11
HETATM   11  C   UNL     1      -5.189  -1.484 -33.057  1.00  0.00     0.086 A 
HETATM   12  O   UNL     1      -5.076  -2.645 -33.772  1.00  0.00    -0.315 OA
HETATM   13  C   UNL     1      -3.944  -3.278 -33.353  1.00  0.00     0.050 A 
HETATM   14  C   UNL     1      -3.617  -4.559 -34.009  1.00  0.00     0.076 C 
HETATM   15  C   UNL     1      -3.329  -2.542 -32.366  1.00  0.00     0.035 A 
HETATM   16  C   UNL     1      -4.127  -1.387 -32.176  1.00  0.00     0.040 A 
ENDBRANCH   8  11
ENDBRANCH   1   5
BRANCH   2  17
HETATM   17  C   UNL     1     -12.141   2.095 -34.778  1.00  0.00     0.084 C 
HETATM   18  C   UNL     1     -13.256   1.041 -34.913  1.00  0.00     0.027 C 
HETATM   19  C   UNL     1     -13.827   0.631 -33.550  1.00  0.00     0.035 C 
HETATM   20  C   UNL     1     -14.280   1.813 -32.691  1.00  0.00     0.183 C 
HETATM   21  C   UNL     1     -13.251   2.939 -32.636  1.00  0.00     0.035 C 
HETATM   22  C   UNL     1     -12.704   3.308 -34.017  1.00  0.00     0.027 C 
BRANCH  20  23
HETATM   23  N   UNL     1     -15.560   2.357 -33.237  1.00  0.00    -0.075 N 
HETATM   24  H   UNL     1     -16.277   1.635 -33.382  1.00  0.00     0.274 HD
HETATM   25  H   UNL     1     -15.959   3.071 -32.612  1.00  0.00     0.274 HD
HETATM   26  H   UNL     1     -15.402   2.813 -34.146  1.00  0.00     0.274 HD
ENDBRANCH  20  23
ENDBRANCH   2  17
TORSDOF 4
ENDMDL
MODEL 5
REMARK VINA RESULT:      -7.7      5.669      6.676
REMARK  4 active torsions:
REMARK  status: ('A' for Active; 'I' for Inactive)
REMARK    1  A    between atoms: C_4  and  C_5 
REMARK    2  A    between atoms: C_8  and  C_9 
REMARK       I    between atoms: C_9  and  N_10 
REMARK    3  A    between atoms: N_10  and  C_11 
REMARK    4  A    between atoms: C_14  and  N_15 
ROOT
HETATM    1  C   UNL     1      -9.457   2.433 -31.415  1.00  0.00     0.252 C 
HETATM    2  N   UNL     1     -10.642   2.662 -32.093  1.00  0.00    -0.352 N 
HETATM    3  O   UNL     1      -9.135   3.035 -30.397  1.00  0.00    -0.268 OA
HETATM    4  H   UNL     1     -10.671   2.269 -33.026  1.00  0.00     0.163 HD
ENDROOT
BRANCH   1   5
HETATM    5  C   UNL     1      -8.529   1.404 -31.978  1.00  0.00     0.032 A 
HETATM    6  C   UNL     1      -7.373   0.963 -31.323  1.00  0.00     0.018 A 
HETATM    7  C   UNL     1      -6.572  -0.033 -31.901  1.00  0.00     0.015 A 
HETATM    8  C   UNL     1      -6.894  -0.596 -33.146  1.00  0.00    -0.002 A 
HETATM    9  C   UNL     1      -8.036  -0.126 -33.807  1.00  0.00     0.015 A 
HETATM   10  C   UNL     1      -8.843   0.861 -33.231  1.00  0.00     0.018 A 
BRANCH   8  11
HETATM   11  C   UNL     1      -6.071  -1.645 -33.743  1.00  0.00     0.086 A 
HETATM   12  O   UNL     1      -6.742  -2.679 -34.337  1.00  0.00    -0.315 OA
HETATM   13  C   UNL     1      -5.812  -3.531 -34.851  1.00  0.00     0.050 A 
HETATM   14  C   UNL     1      -6.320  -4.724 -35.556  1.00  0.00     0.076 C 
HETATM   15  C   UNL     1      -4.545  -3.063 -34.586  1.00  0.00     0.035 A 
HETATM   16  C   UNL     1      -4.710  -1.849 -33.876  1.00  0.00     0.040 A 
ENDBRANCH   8  11
ENDBRANCH   1   5
BRANCH   2  17
HETATM   17  C   UNL     1     -11.510   3.830 -31.920  1.00  0.00     0.084 C 
HETATM   18  C   UNL     1     -11.057   4.932 -32.895  1.00  0.00     0.027 C 
HETATM   19  C   UNL     1     -11.422   4.600 -34.348  1.00  0.00     0.035 C 
HETATM   20  C   UNL     1     -12.899   4.252 -34.548  1.00  0.00     0.183 C 
HETATM   21  C   UNL     1     -13.421   3.256 -33.517  1.00  0.00     0.035 C 
HETATM   22  C   UNL     1     -13.026   3.623 -32.085  1.00  0.00     0.027 C 
BRANCH  20  23
HETATM   23  N   UNL     1     -13.714   5.502 -34.467  1.00  0.00    -0.075 N 
HETATM   24  H   UNL     1     -14.664   5.389 -34.839  1.00  0.00     0.274 HD
HETATM   25  H   UNL     1     -13.798   5.831 -33.495  1.00  0.00     0.274 HD
HETATM   26  H   UNL     1     -13.268   6.261 -34.999  1.00  0.00     0.274 HD
ENDBRANCH  20  23
ENDBRANCH   2  17
TORSDOF 4
ENDMDL
MODEL 6
REMARK VINA RESULT:      -7.6      2.060      2.483
REMARK  4 active torsions:
REMARK  status: ('A' for Active; 'I' for Inactive)
REMARK    1  A    between atoms: C_4  and  C_5 
REMARK    2  A    between atoms: C_8  and  C_9 
REMARK       I    between atoms: C_9  and  N_10 
REMARK    3  A    between atoms: N_10  and  C_11 
REMARK    4  A    between atoms: C_14  and  N_15 
ROOT
HETATM    1  C   UNL     1      -3.639   2.566 -31.434  1.00  0.00     0.252 C 
HETATM    2  N   UNL     1      -4.817   3.279 -31.290  1.00  0.00    -0.352 N 
HETATM    3  O   UNL     1      -2.534   3.030 -31.178  1.00  0.00    -0.268 OA
HETATM    4  H   UNL     1      -5.617   2.860 -31.748  1.00  0.00     0.163 HD
ENDROOT
BRANCH   1   5
HETATM    5  C   UNL     1      -3.741   1.162 -31.941  1.00  0.00     0.032 A 
HETATM    6  C   UNL     1      -2.931   0.115 -31.487  1.00  0.00     0.018 A 
HETATM    7  C   UNL     1      -3.112  -1.182 -31.987  1.00  0.00     0.015 A 
HETATM    8  C   UNL     1      -4.087  -1.461 -32.958  1.00  0.00    -0.002 A 
HETATM    9  C   UNL     1      -4.871  -0.399 -33.428  1.00  0.00     0.015 A 
HETATM   10  C   UNL     1      -4.701   0.895 -32.926  1.00  0.00     0.018 A 
BRANCH   8  11
HETATM   11  C   UNL     1      -4.290  -2.814 -33.468  1.00  0.00     0.086 A 
HETATM   12  O   UNL     1      -5.357  -2.995 -34.305  1.00  0.00    -0.315 OA
HETATM   13  C   UNL     1      -5.361  -4.302 -34.689  1.00  0.00     0.050 A 
HETATM   14  C   UNL     1      -6.433  -4.720 -35.615  1.00  0.00     0.076 C 
HETATM   15  C   UNL     1      -4.312  -4.971 -34.102  1.00  0.00     0.035 A 
HETATM   16  C   UNL     1      -3.620  -4.015 -33.318  1.00  0.00     0.040 A 
ENDBRANCH   8  11
ENDBRANCH   1   5
BRANCH   2  17
HETATM   17  C   UNL     1      -4.919   4.734 -31.143  1.00  0.00     0.084 C 
HETATM   18  C   UNL     1      -4.684   5.387 -32.517  1.00  0.00     0.027 C 
HETATM   19  C   UNL     1      -5.872   5.177 -33.466  1.00  0.00     0.035 C 
HETATM   20  C   UNL     1      -7.216   5.601 -32.871  1.00  0.00     0.183 C 
HETATM   21  C   UNL     1      -7.433   5.078 -31.454  1.00  0.00     0.035 C 
HETATM   22  C   UNL     1      -6.220   5.302 -30.548  1.00  0.00     0.027 C 
BRANCH  20  23
HETATM   23  N   UNL     1      -7.298   7.093 -32.851  1.00  0.00    -0.075 N 
HETATM   24  H   UNL     1      -6.813   7.534 -33.641  1.00  0.00     0.274 HD
HETATM   25  H   UNL     1      -8.275   7.414 -32.867  1.00  0.00     0.274 HD
HETATM   26  H   UNL     1      -6.877   7.468 -31.990  1.00  0.00     0.274 HD
ENDBRANCH  20  23
ENDBRANCH   2  17
TORSDOF 4
ENDMDL
MODEL 7
REMARK VINA RESULT:      -7.2      2.889      4.596
REMARK  4 active torsions:
REMARK  status: ('A' for Active; 'I' for Inactive)
REMARK    1  A    between atoms: C_4  and  C_5 
REMARK    2  A    between atoms: C_8  and  C_9 
REMARK       I    between atoms: C_9  and  N_10 
REMARK    3  A    between atoms: N_10  and  C_11 
REMARK    4  A    between atoms: C_14  and  N_15 
ROOT
HETATM    1  C   UNL     1      -2.650   5.871 -33.401  1.00  0.00     0.252 C 
HETATM    2  N   UNL     1      -1.707   5.857 -32.388  1.00  0.00    -0.352 N 
HETATM    3  O   UNL     1      -2.676   6.717 -34.287  1.00  0.00    -0.268 OA
HETATM    4  H   UNL     1      -1.938   5.252 -31.609  1.00  0.00     0.163 HD
ENDROOT
BRANCH   1   5
HETATM    5  C   UNL     1      -3.690   4.796 -33.388  1.00  0.00     0.032 A 
HETATM    6  C   UNL     1      -4.872   4.855 -34.134  1.00  0.00     0.018 A 
HETATM    7  C   UNL     1      -5.783   3.788 -34.095  1.00  0.00     0.015 A 
HETATM    8  C   UNL     1      -5.545   2.654 -33.303  1.00  0.00    -0.002 A 
HETATM    9  C   UNL     1      -4.374   2.620 -32.535  1.00  0.00     0.015 A 
HETATM   10  C   UNL     1      -3.458   3.677 -32.577  1.00  0.00     0.018 A 
BRANCH   8  11
HETATM   11  C   UNL     1      -6.483   1.535 -33.273  1.00  0.00     0.086 A 
HETATM   12  O   UNL     1      -6.084   0.391 -33.909  1.00  0.00    -0.315 OA
HETATM   13  C   UNL     1      -7.072  -0.533 -33.749  1.00  0.00     0.050 A 
HETATM   14  C   UNL     1      -6.844  -1.862 -34.352  1.00  0.00     0.076 C 
HETATM   15  C   UNL     1      -8.111   0.005 -33.024  1.00  0.00     0.035 A 
HETATM   16  C   UNL     1      -7.732   1.334 -32.715  1.00  0.00     0.040 A 
ENDBRANCH   8  11
ENDBRANCH   1   5
BRANCH   2  17
HETATM   17  C   UNL     1      -0.834   6.977 -32.021  1.00  0.00     0.084 C 
HETATM   18  C   UNL     1      -1.641   7.974 -31.168  1.00  0.00     0.027 C 
HETATM   19  C   UNL     1      -1.913   7.436 -29.758  1.00  0.00     0.035 C 
HETATM   20  C   UNL     1      -0.655   6.967 -29.024  1.00  0.00     0.183 C 
HETATM   21  C   UNL     1       0.239   6.078 -29.883  1.00  0.00     0.035 C 
HETATM   22  C   UNL     1       0.475   6.650 -31.282  1.00  0.00     0.027 C 
BRANCH  20  23
HETATM   23  N   UNL     1       0.131   8.159 -28.585  1.00  0.00    -0.075 N 
HETATM   24  H   UNL     1       0.798   7.949 -27.832  1.00  0.00     0.274 HD
HETATM   25  H   UNL     1       0.663   8.565 -29.367  1.00  0.00     0.274 HD
HETATM   26  H   UNL     1      -0.495   8.899 -28.237  1.00  0.00     0.274 HD
ENDBRANCH  20  23
ENDBRANCH   2  17
TORSDOF 4
ENDMDL
MODEL 8
REMARK VINA RESULT:      -7.2      6.009     11.129
REMARK  4 active torsions:
REMARK  status: ('A' for Active; 'I' for Inactive)
REMARK    1  A    between atoms: C_4  and  C_5 
REMARK    2  A    between atoms: C_8  and  C_9 
REMARK       I    between atoms: C_9  and  N_10 
REMARK    3  A    between atoms: N_10  and  C_11 
REMARK    4  A    between atoms: C_14  and  N_15 
ROOT
HETATM    1  C   UNL     1       0.337   5.536 -30.098  1.00  0.00     0.252 C 
HETATM    2  N   UNL     1      -0.389   6.003 -31.179  1.00  0.00    -0.352 N 
HETATM    3  O   UNL     1       0.861   4.429 -30.064  1.00  0.00    -0.268 OA
HETATM    4  H   UNL     1      -0.949   6.824 -30.984  1.00  0.00     0.163 HD
ENDROOT
BRANCH   1   5
HETATM    5  C   UNL     1       0.469   6.442 -28.914  1.00  0.00     0.032 A 
HETATM    6  C   UNL     1       0.987   7.740 -28.987  1.00  0.00     0.018 A 
HETATM    7  C   UNL     1       1.045   8.540 -27.836  1.00  0.00     0.015 A 
HETATM    8  C   UNL     1       0.606   8.061 -26.592  1.00  0.00    -0.002 A 
HETATM    9  C   UNL     1       0.118   6.750 -26.524  1.00  0.00     0.015 A 
HETATM   10  C   UNL     1       0.050   5.950 -27.671  1.00  0.00     0.018 A 
BRANCH   8  11
HETATM   11  C   UNL     1       0.649   8.898 -25.395  1.00  0.00     0.086 A 
HETATM   12  O   UNL     1       1.828   8.905 -24.700  1.00  0.00    -0.315 OA
HETATM   13  C   UNL     1       1.678   9.755 -23.646  1.00  0.00     0.050 A 
HETATM   14  C   UNL     1       2.846   9.926 -22.759  1.00  0.00     0.076 C 
HETATM   15  C   UNL     1       0.410  10.290 -23.646  1.00  0.00     0.035 A 
HETATM   16  C   UNL     1      -0.252   9.742 -24.772  1.00  0.00     0.040 A 
ENDBRANCH   8  11
ENDBRANCH   1   5
BRANCH   2  17
HETATM   17  C   UNL     1      -0.920   5.178 -32.269  1.00  0.00     0.084 C 
HETATM   18  C   UNL     1      -2.219   4.503 -31.791  1.00  0.00     0.027 C 
HETATM   19  C   UNL     1      -3.380   5.501 -31.686  1.00  0.00     0.035 C 
HETATM   20  C   UNL     1      -3.611   6.314 -32.962  1.00  0.00     0.183 C 
HETATM   21  C   UNL     1      -2.323   6.894 -33.540  1.00  0.00     0.035 C 
HETATM   22  C   UNL     1      -1.193   5.866 -33.617  1.00  0.00     0.027 C 
BRANCH  20  23
HETATM   23  N   UNL     1      -4.251   5.441 -33.992  1.00  0.00    -0.075 N 
HETATM   24  H   UNL     1      -3.904   5.616 -34.942  1.00  0.00     0.274 HD
HETATM   25  H   UNL     1      -4.100   4.445 -33.784  1.00  0.00     0.274 HD
HETATM   26  H   UNL     1      -5.270   5.588 -34.009  1.00  0.00     0.274 HD
ENDBRANCH  20  23
ENDBRANCH   2  17
TORSDOF 4
ENDMDL
MODEL 9
REMARK VINA RESULT:      -7.0      2.870      3.875
REMARK  4 active torsions:
REMARK  status: ('A' for Active; 'I' for Inactive)
REMARK    1  A    between atoms: C_4  and  C_5 
REMARK    2  A    between atoms: C_8  and  C_9 
REMARK       I    between atoms: C_9  and  N_10 
REMARK    3  A    between atoms: N_10  and  C_11 
REMARK    4  A    between atoms: C_14  and  N_15 
ROOT
HETATM    1  C   UNL     1      -4.113   3.668 -31.245  1.00  0.00     0.252 C 
HETATM    2  N   UNL     1      -4.973   4.096 -30.248  1.00  0.00    -0.352 N 
HETATM    3  O   UNL     1      -3.143   4.315 -31.623  1.00  0.00    -0.268 OA
HETATM    4  H   UNL     1      -5.844   3.583 -30.199  1.00  0.00     0.163 HD
ENDROOT
BRANCH   1   5
HETATM    5  C   UNL     1      -4.407   2.351 -31.889  1.00  0.00     0.032 A 
HETATM    6  C   UNL     1      -5.607   2.064 -32.550  1.00  0.00     0.018 A 
HETATM    7  C   UNL     1      -5.793   0.814 -33.160  1.00  0.00     0.015 A 
HETATM    8  C   UNL     1      -4.800  -0.177 -33.110  1.00  0.00    -0.002 A 
HETATM    9  C   UNL     1      -3.615   0.110 -32.420  1.00  0.00     0.015 A 
HETATM   10  C   UNL     1      -3.421   1.358 -31.817  1.00  0.00     0.018 A 
BRANCH   8  11
HETATM   11  C   UNL     1      -4.984  -1.472 -33.759  1.00  0.00     0.086 A 
HETATM   12  O   UNL     1      -4.079  -2.447 -33.438  1.00  0.00    -0.315 OA
HETATM   13  C   UNL     1      -4.431  -3.575 -34.117  1.00  0.00     0.050 A 
HETATM   14  C   UNL     1      -3.589  -4.769 -33.905  1.00  0.00     0.076 C 
HETATM   15  C   UNL     1      -5.549  -3.336 -34.883  1.00  0.00     0.035 A 
HETATM   16  C   UNL     1      -5.907  -1.985 -34.652  1.00  0.00     0.040 A 
ENDBRANCH   8  11
ENDBRANCH   1   5
BRANCH   2  17
HETATM   17  C   UNL     1      -5.070   5.468 -29.738  1.00  0.00     0.084 C 
HETATM   18  C   UNL     1      -5.876   6.312 -30.742  1.00  0.00     0.027 C 
HETATM   19  C   UNL     1      -7.370   5.962 -30.720  1.00  0.00     0.035 C 
HETATM   20  C   UNL     1      -7.993   6.013 -29.323  1.00  0.00     0.183 C 
HETATM   21  C   UNL     1      -7.155   5.293 -28.271  1.00  0.00     0.035 C 
HETATM   22  C   UNL     1      -5.673   5.667 -28.337  1.00  0.00     0.027 C 
BRANCH  20  23
HETATM   23  N   UNL     1      -8.164   7.439 -28.912  1.00  0.00    -0.075 N 
HETATM   24  H   UNL     1      -8.375   8.064 -29.698  1.00  0.00     0.274 HD
HETATM   25  H   UNL     1      -8.919   7.540 -28.221  1.00  0.00     0.274 HD
HETATM   26  H   UNL     1      -7.306   7.793 -28.466  1.00  0.00     0.274 HD
ENDBRANCH  20  23
ENDBRANCH   2  17
TORSDOF 4
ENDMDL
MODEL 10
REMARK VINA RESULT:      -6.9      3.964      8.293
REMARK  4 active torsions:
REMARK  status: ('A' for Active; 'I' for Inactive)
REMARK    1  A    between atoms: C_4  and  C_5 
REMARK    2  A    between atoms: C_8  and  C_9 
REMARK       I    between atoms: C_9  and  N_10 
REMARK    3  A    between atoms: N_10  and  C_11 
REMARK    4  A    between atoms: C_14  and  N_15 
ROOT
HETATM    1  C   UNL     1      -6.043   1.146 -32.313  1.00  0.00     0.252 C 
HETATM    2  N   UNL     1      -7.119   1.268 -33.175  1.00  0.00    -0.352 N 
HETATM    3  O   UNL     1      -5.903   0.208 -31.538  1.00  0.00    -0.268 OA
HETATM    4  H   UNL     1      -7.225   2.189 -33.584  1.00  0.00     0.163 HD
ENDROOT
BRANCH   1   5
HETATM    5  C   UNL     1      -5.016   2.234 -32.336  1.00  0.00     0.032 A 
HETATM    6  C   UNL     1      -3.848   2.210 -31.565  1.00  0.00     0.018 A 
HETATM    7  C   UNL     1      -2.916   3.253 -31.669  1.00  0.00     0.015 A 
HETATM    8  C   UNL     1      -3.133   4.344 -32.525  1.00  0.00    -0.002 A 
HETATM    9  C   UNL     1      -4.320   4.373 -33.268  1.00  0.00     0.015 A 
HETATM   10  C   UNL     1      -5.250   3.331 -33.175  1.00  0.00     0.018 A 
BRANCH   8  11
HETATM   11  C   UNL     1      -2.156   5.423 -32.648  1.00  0.00     0.086 A 
HETATM   12  O   UNL     1      -1.266   5.557 -31.618  1.00  0.00    -0.315 OA
HETATM   13  C   UNL     1      -0.431   6.588 -31.928  1.00  0.00     0.050 A 
HETATM   14  C   UNL     1       0.629   6.903 -30.950  1.00  0.00     0.076 C 
HETATM   15  C   UNL     1      -0.780   7.129 -33.144  1.00  0.00     0.035 A 
HETATM   16  C   UNL     1      -1.887   6.380 -33.610  1.00  0.00     0.040 A 
ENDBRANCH   8  11
ENDBRANCH   1   5
BRANCH   2  17
HETATM   17  C   UNL     1      -8.377   0.521 -33.079  1.00  0.00     0.084 C 
HETATM   18  C   UNL     1      -9.091   0.922 -31.775  1.00  0.00     0.027 C 
HETATM   19  C   UNL     1      -9.681   2.336 -31.852  1.00  0.00     0.035 C 
HETATM   20  C   UNL     1     -10.578   2.562 -33.071  1.00  0.00     0.183 C 
HETATM   21  C   UNL     1      -9.957   2.059 -34.371  1.00  0.00     0.035 C 
HETATM   22  C   UNL     1      -9.375   0.650 -34.242  1.00  0.00     0.027 C 
BRANCH  20  23
HETATM   23  N   UNL     1     -11.882   1.864 -32.858  1.00  0.00    -0.075 N 
HETATM   24  H   UNL     1     -11.794   1.004 -32.305  1.00  0.00     0.274 HD
HETATM   25  H   UNL     1     -12.559   2.474 -32.380  1.00  0.00     0.274 HD
HETATM   26  H   UNL     1     -12.305   1.603 -33.759  1.00  0.00     0.274 HD
ENDBRANCH  20  23
ENDBRANCH   2  17
TORSDOF 4
ENDMDL
