MODEL 1
REMARK VINA RESULT:      -8.2      0.000      0.000
REMARK  8 active torsions:
REMARK  status: ('A' for Active; 'I' for Inactive)
REMARK    1  A    between atoms: CG_8  and  CB_9 
REMARK    2  A    between atoms: CB_9  and  CA_10 
REMARK    3  A    between atoms: CA_10  and  N_11 
REMARK    4  A    between atoms: CA_10  and  C_14 
REMARK    5  A    between atoms: N_11  and  C_19 
REMARK    6  A    between atoms: C_14  and  O_15 
REMARK    7  A    between atoms: C_19  and  C_20 
REMARK    8  A    between atoms: C_22  and  C_23 
ROOT
ATOM      1  CA  TRP A   1      -7.654   0.762 -32.677  1.00  0.00     0.214 C 
ENDROOT
BRANCH   1   2
ATOM      2  CB  TRP A   1      -7.250   0.089 -34.003  1.00  0.00     0.076 C 
BRANCH   2   3
ATOM      3  CG  TRP A   1      -6.058  -0.820 -33.943  1.00  0.00    -0.028 A 
ATOM      4  CD2 TRP A   1      -5.958  -2.217 -34.262  1.00  0.00    -0.002 A 
ATOM      5  CE3 TRP A   1      -6.853  -3.201 -34.739  1.00  0.00     0.014 A 
ATOM      6  CE2 TRP A   1      -4.643  -2.606 -33.998  1.00  0.00     0.042 A 
ATOM      7  CZ3 TRP A   1      -6.416  -4.523 -34.892  1.00  0.00     0.001 A 
ATOM      8  CH2 TRP A   1      -5.102  -4.876 -34.600  1.00  0.00     0.002 A 
ATOM      9  CZ2 TRP A   1      -4.187  -3.920 -34.157  1.00  0.00     0.030 A 
ATOM     10  NE1 TRP A   1      -3.951  -1.486 -33.606  1.00  0.00    -0.365 N 
ATOM     11  HE1 TRP A   1      -2.960  -1.466 -33.396  1.00  0.00     0.165 HD
ATOM     12  CD1 TRP A   1      -4.796  -0.413 -33.549  1.00  0.00     0.096 A 
ENDBRANCH   2   3
ENDBRANCH   1   2
BRANCH   1  13
ATOM     13  N   TRP A   1      -7.352   2.247 -32.716  1.00  0.00    -0.064 N 
ATOM     14  H1  TRP A   1      -6.805   2.492 -33.554  1.00  0.00     0.278 HD
ATOM     15  H2  TRP A   1      -8.268   2.720 -32.818  1.00  0.00     0.278 HD
BRANCH  13  16
HETATM   16  C   UNK A   0      -6.658   2.779 -31.516  1.00  0.00     0.280 C 
BRANCH  16  17
HETATM   17  C   UNK A   0      -5.230   3.086 -31.764  1.00  0.00     0.027 A 
HETATM   18  S   UNK A   0      -4.758   4.202 -32.981  1.00  0.00    -0.076 SA
HETATM   19  C   UNK A   0      -3.113   3.817 -32.679  1.00  0.00     0.079 A 
HETATM   20  N   UNK A   0      -2.906   2.969 -31.696  1.00  0.00    -0.257 NA
HETATM   21  C   UNK A   0      -4.106   2.549 -31.171  1.00  0.00     0.133 A 
BRANCH  19  22
HETATM   22  C   UNK A   0      -1.976   4.388 -33.526  1.00  0.00     0.045 C 
HETATM   23  C   UNK A   0      -2.414   5.369 -34.655  1.00  0.00     0.011 C 
HETATM   24  C   UNK A   0      -1.190   6.229 -34.291  1.00  0.00     0.002 C 
HETATM   25  C   UNK A   0      -1.306   5.638 -32.874  1.00  0.00     0.011 C 
ENDBRANCH  19  22
ENDBRANCH  16  17
ENDBRANCH  13  16
ENDBRANCH   1  13
BRANCH   1  26
ATOM     26  C   TRP A   1      -9.172   0.606 -32.437  1.00  0.00     0.197 C 
BRANCH  26  27
ATOM     27  O   TRP A   1      -9.379   0.407 -31.034  1.00  0.00    -0.399 OA
ATOM     28  H   TRP A   1      -8.554   0.027 -30.669  1.00  0.00     0.209 HD
ENDBRANCH  26  27
ENDBRANCH   1  26
TORSDOF 8
ENDMDL
MODEL 2
REMARK VINA RESULT:      -8.2      1.052      1.313
REMARK  8 active torsions:
REMARK  status: ('A' for Active; 'I' for Inactive)
REMARK    1  A    between atoms: CG_8  and  CB_9 
REMARK    2  A    between atoms: CB_9  and  CA_10 
REMARK    3  A    between atoms: CA_10  and  N_11 
REMARK    4  A    between atoms: CA_10  and  C_14 
REMARK    5  A    between atoms: N_11  and  C_19 
REMARK    6  A    between atoms: C_14  and  O_15 
REMARK    7  A    between atoms: C_19  and  C_20 
REMARK    8  A    between atoms: C_22  and  C_23 
ROOT
ATOM      1  CA  TRP A   1      -7.167   0.993 -32.328  1.00  0.00     0.214 C 
ENDROOT
BRANCH   1   2
ATOM      2  CB  TRP A   1      -6.692   0.506 -33.711  1.00  0.00     0.076 C 
BRANCH   2   3
ATOM      3  CG  TRP A   1      -5.683  -0.604 -33.706  1.00  0.00    -0.028 A 
ATOM      4  CD2 TRP A   1      -5.820  -1.965 -34.146  1.00  0.00    -0.002 A 
ATOM      5  CE3 TRP A   1      -6.857  -2.729 -34.728  1.00  0.00     0.014 A 
ATOM      6  CE2 TRP A   1      -4.605  -2.604 -33.889  1.00  0.00     0.042 A 
ATOM      7  CZ3 TRP A   1      -6.655  -4.090 -34.989  1.00  0.00     0.001 A 
ATOM      8  CH2 TRP A   1      -5.437  -4.696 -34.701  1.00  0.00     0.002 A 
ATOM      9  CZ2 TRP A   1      -4.384  -3.960 -34.155  1.00  0.00     0.030 A 
ATOM     10  NE1 TRP A   1      -3.741  -1.664 -33.384  1.00  0.00    -0.365 N 
ATOM     11  HE1 TRP A   1      -2.771  -1.840 -33.152  1.00  0.00     0.165 HD
ATOM     12  CD1 TRP A   1      -4.385  -0.465 -33.250  1.00  0.00     0.096 A 
ENDBRANCH   2   3
ENDBRANCH   1   2
BRANCH   1  13
ATOM     13  N   TRP A   1      -6.589   2.359 -32.015  1.00  0.00    -0.064 N 
ATOM     14  H1  TRP A   1      -7.334   3.034 -31.790  1.00  0.00     0.278 HD
ATOM     15  H2  TRP A   1      -6.033   2.240 -31.149  1.00  0.00     0.278 HD
BRANCH  13  16
HETATM   16  C   UNK A   0      -5.724   2.934 -33.077  1.00  0.00     0.280 C 
BRANCH  16  17
HETATM   17  C   UNK A   0      -4.409   3.386 -32.566  1.00  0.00     0.027 A 
HETATM   18  S   UNK A   0      -3.605   4.739 -33.254  1.00  0.00    -0.076 SA
HETATM   19  C   UNK A   0      -2.248   4.428 -32.250  1.00  0.00     0.079 A 
HETATM   20  N   UNK A   0      -2.392   3.432 -31.404  1.00  0.00    -0.257 NA
HETATM   21  C   UNK A   0      -3.619   2.835 -31.579  1.00  0.00     0.133 A 
BRANCH  19  22
HETATM   22  C   UNK A   0      -0.951   5.227 -32.366  1.00  0.00     0.045 C 
HETATM   23  C   UNK A   0      -1.098   6.767 -32.178  1.00  0.00     0.011 C 
HETATM   24  C   UNK A   0       0.213   6.727 -31.371  1.00  0.00     0.002 C 
HETATM   25  C   UNK A   0      -0.145   5.270 -31.029  1.00  0.00     0.011 C 
ENDBRANCH  19  22
ENDBRANCH  16  17
ENDBRANCH  13  16
ENDBRANCH   1  13
BRANCH   1  26
ATOM     26  C   TRP A   1      -8.705   1.127 -32.307  1.00  0.00     0.197 C 
BRANCH  26  27
ATOM     27  O   TRP A   1      -9.185   0.521 -31.100  1.00  0.00    -0.399 OA
ATOM     28  H   TRP A   1      -8.616  -0.254 -30.919  1.00  0.00     0.209 HD
ENDBRANCH  26  27
ENDBRANCH   1  26
TORSDOF 8
ENDMDL
MODEL 3
REMARK VINA RESULT:      -7.7      1.761      2.197
REMARK  8 active torsions:
REMARK  status: ('A' for Active; 'I' for Inactive)
REMARK    1  A    between atoms: CG_8  and  CB_9 
REMARK    2  A    between atoms: CB_9  and  CA_10 
REMARK    3  A    between atoms: CA_10  and  N_11 
REMARK    4  A    between atoms: CA_10  and  C_14 
REMARK    5  A    between atoms: N_11  and  C_19 
REMARK    6  A    between atoms: C_14  and  O_15 
REMARK    7  A    between atoms: C_19  and  C_20 
REMARK    8  A    between atoms: C_22  and  C_23 
ROOT
ATOM      1  CA  TRP A   1      -5.471   1.236 -31.433  1.00  0.00     0.214 C 
ENDROOT
BRANCH   1   2
ATOM      2  CB  TRP A   1      -5.938   0.431 -32.661  1.00  0.00     0.076 C 
BRANCH   2   3
ATOM      3  CG  TRP A   1      -5.157  -0.813 -32.967  1.00  0.00    -0.028 A 
ATOM      4  CD2 TRP A   1      -5.548  -1.976 -33.715  1.00  0.00    -0.002 A 
ATOM      5  CE3 TRP A   1      -6.708  -2.369 -34.419  1.00  0.00     0.014 A 
ATOM      6  CE2 TRP A   1      -4.477  -2.872 -33.672  1.00  0.00     0.042 A 
ATOM      7  CZ3 TRP A   1      -6.768  -3.639 -35.008  1.00  0.00     0.001 A 
ATOM      8  CH2 TRP A   1      -5.687  -4.511 -34.927  1.00  0.00     0.002 A 
ATOM      9  CZ2 TRP A   1      -4.516  -4.139 -34.266  1.00  0.00     0.030 A 
ATOM     10  NE1 TRP A   1      -3.452  -2.260 -32.994  1.00  0.00    -0.365 N 
ATOM     11  HE1 TRP A   1      -2.534  -2.663 -32.852  1.00  0.00     0.165 HD
ATOM     12  CD1 TRP A   1      -3.857  -1.032 -32.547  1.00  0.00     0.096 A 
ENDBRANCH   2   3
ENDBRANCH   1   2
BRANCH   1  13
ATOM     13  N   TRP A   1      -5.784   2.709 -31.609  1.00  0.00    -0.064 N 
ATOM     14  H1  TRP A   1      -6.668   2.958 -31.144  1.00  0.00     0.278 HD
ATOM     15  H2  TRP A   1      -5.036   3.220 -31.106  1.00  0.00     0.278 HD
BRANCH  13  16
HETATM   16  C   UNK A   0      -5.832   3.177 -33.018  1.00  0.00     0.280 C 
BRANCH  16  17
HETATM   17  C   UNK A   0      -4.714   4.087 -33.362  1.00  0.00     0.027 A 
HETATM   18  S   UNK A   0      -3.148   3.864 -32.694  1.00  0.00    -0.076 SA
HETATM   19  C   UNK A   0      -2.635   5.321 -33.444  1.00  0.00     0.079 A 
HETATM   20  N   UNK A   0      -3.534   5.910 -34.200  1.00  0.00    -0.257 NA
HETATM   21  C   UNK A   0      -4.720   5.213 -34.157  1.00  0.00     0.133 A 
BRANCH  19  22
HETATM   22  C   UNK A   0      -1.244   5.910 -33.209  1.00  0.00     0.045 C 
HETATM   23  C   UNK A   0      -1.221   7.332 -32.575  1.00  0.00     0.011 C 
HETATM   24  C   UNK A   0      -0.033   6.858 -31.716  1.00  0.00     0.002 C 
HETATM   25  C   UNK A   0      -0.608   5.438 -31.863  1.00  0.00     0.011 C 
ENDBRANCH  19  22
ENDBRANCH  16  17
ENDBRANCH  13  16
ENDBRANCH   1  13
BRANCH   1  26
ATOM     26  C   TRP A   1      -6.209   0.756 -30.165  1.00  0.00     0.197 C 
BRANCH  26  27
ATOM     27  O   TRP A   1      -6.626   1.914 -29.432  1.00  0.00    -0.399 OA
ATOM     28  H   TRP A   1      -7.574   1.795 -29.216  1.00  0.00     0.209 HD
ENDBRANCH  26  27
ENDBRANCH   1  26
TORSDOF 8
ENDMDL
MODEL 4
REMARK VINA RESULT:      -7.6      3.496      6.727
REMARK  8 active torsions:
REMARK  status: ('A' for Active; 'I' for Inactive)
REMARK    1  A    between atoms: CG_8  and  CB_9 
REMARK    2  A    between atoms: CB_9  and  CA_10 
REMARK    3  A    between atoms: CA_10  and  N_11 
REMARK    4  A    between atoms: CA_10  and  C_14 
REMARK    5  A    between atoms: N_11  and  C_19 
REMARK    6  A    between atoms: C_14  and  O_15 
REMARK    7  A    between atoms: C_19  and  C_20 
REMARK    8  A    between atoms: C_22  and  C_23 
ROOT
ATOM      1  CA  TRP A   1      -6.762   1.239 -34.483  1.00  0.00     0.214 C 
ENDROOT
BRANCH   1   2
ATOM      2  CB  TRP A   1      -6.466   0.417 -33.214  1.00  0.00     0.076 C 
BRANCH   2   3
ATOM      3  CG  TRP A   1      -5.519  -0.734 -33.383  1.00  0.00    -0.028 A 
ATOM      4  CD2 TRP A   1      -5.748  -2.028 -33.963  1.00  0.00    -0.002 A 
ATOM      5  CE3 TRP A   1      -6.848  -2.671 -34.573  1.00  0.00     0.014 A 
ATOM      6  CE2 TRP A   1      -4.558  -2.750 -33.840  1.00  0.00     0.042 A 
ATOM      7  CZ3 TRP A   1      -6.731  -4.002 -34.993  1.00  0.00     0.001 A 
ATOM      8  CH2 TRP A   1      -5.536  -4.695 -34.835  1.00  0.00     0.002 A 
ATOM      9  CZ2 TRP A   1      -4.422  -4.077 -34.265  1.00  0.00     0.030 A 
ATOM     10  NE1 TRP A   1      -3.624  -1.917 -33.278  1.00  0.00    -0.365 N 
ATOM     11  HE1 TRP A   1      -2.655  -2.164 -33.115  1.00  0.00     0.165 HD
ATOM     12  CD1 TRP A   1      -4.195  -0.710 -32.980  1.00  0.00     0.096 A 
ENDBRANCH   2   3
ENDBRANCH   1   2
BRANCH   1  13
ATOM     13  N   TRP A   1      -8.203   1.051 -34.918  1.00  0.00    -0.064 N 
ATOM     14  H1  TRP A   1      -8.623   1.947 -35.205  1.00  0.00     0.278 HD
ATOM     15  H2  TRP A   1      -8.168   0.460 -35.768  1.00  0.00     0.278 HD
BRANCH  13  16
HETATM   16  C   UNK A   0      -9.084   0.408 -33.911  1.00  0.00     0.280 C 
BRANCH  16  17
HETATM   17  C   UNK A   0     -10.215   1.272 -33.498  1.00  0.00     0.027 A 
HETATM   18  S   UNK A   0     -11.843   0.765 -33.701  1.00  0.00    -0.076 SA
HETATM   19  C   UNK A   0     -12.377   2.305 -33.165  1.00  0.00     0.079 A 
HETATM   20  N   UNK A   0     -11.425   3.130 -32.789  1.00  0.00    -0.257 NA
HETATM   21  C   UNK A   0     -10.192   2.549 -32.977  1.00  0.00     0.133 A 
BRANCH  19  22
HETATM   22  C   UNK A   0     -13.853   2.700 -33.168  1.00  0.00     0.045 C 
HETATM   23  C   UNK A   0     -14.860   1.513 -33.104  1.00  0.00     0.011 C 
HETATM   24  C   UNK A   0     -15.701   2.365 -32.135  1.00  0.00     0.002 C 
HETATM   25  C   UNK A   0     -14.386   3.061 -31.745  1.00  0.00     0.011 C 
ENDBRANCH  19  22
ENDBRANCH  16  17
ENDBRANCH  13  16
ENDBRANCH   1  13
BRANCH   1  26
ATOM     26  C   TRP A   1      -6.557   2.744 -34.206  1.00  0.00     0.197 C 
BRANCH  26  27
ATOM     27  O   TRP A   1      -6.609   2.944 -32.788  1.00  0.00    -0.399 OA
ATOM     28  H   TRP A   1      -7.257   2.304 -32.429  1.00  0.00     0.209 HD
ENDBRANCH  26  27
ENDBRANCH   1  26
TORSDOF 8
ENDMDL
MODEL 5
REMARK VINA RESULT:      -7.4      1.482      2.116
REMARK  8 active torsions:
REMARK  status: ('A' for Active; 'I' for Inactive)
REMARK    1  A    between atoms: CG_8  and  CB_9 
REMARK    2  A    between atoms: CB_9  and  CA_10 
REMARK    3  A    between atoms: CA_10  and  N_11 
REMARK    4  A    between atoms: CA_10  and  C_14 
REMARK    5  A    between atoms: N_11  and  C_19 
REMARK    6  A    between atoms: C_14  and  O_15 
REMARK    7  A    between atoms: C_19  and  C_20 
REMARK    8  A    between atoms: C_22  and  C_23 
ROOT
ATOM      1  CA  TRP A   1      -7.372   0.320 -33.386  1.00  0.00     0.214 C 
ENDROOT
BRANCH   1   2
ATOM      2  CB  TRP A   1      -6.176   0.018 -34.308  1.00  0.00     0.076 C 
BRANCH   2   3
ATOM      3  CG  TRP A   1      -5.723  -1.412 -34.351  1.00  0.00    -0.028 A 
ATOM      4  CD2 TRP A   1      -4.763  -2.091 -33.526  1.00  0.00    -0.002 A 
ATOM      5  CE3 TRP A   1      -3.950  -1.726 -32.430  1.00  0.00     0.014 A 
ATOM      6  CE2 TRP A   1      -4.669  -3.402 -33.999  1.00  0.00     0.042 A 
ATOM      7  CZ3 TRP A   1      -3.059  -2.659 -31.883  1.00  0.00     0.001 A 
ATOM      8  CH2 TRP A   1      -2.981  -3.950 -32.394  1.00  0.00     0.002 A 
ATOM      9  CZ2 TRP A   1      -3.793  -4.349 -33.456  1.00  0.00     0.030 A 
ATOM     10  NE1 TRP A   1      -5.580  -3.542 -35.017  1.00  0.00    -0.365 N 
ATOM     11  HE1 TRP A   1      -5.760  -4.406 -35.513  1.00  0.00     0.165 HD
ATOM     12  CD1 TRP A   1      -6.203  -2.347 -35.250  1.00  0.00     0.096 A 
ENDBRANCH   2   3
ENDBRANCH   1   2
BRANCH   1  13
ATOM     13  N   TRP A   1      -7.057   1.484 -32.466  1.00  0.00    -0.064 N 
ATOM     14  H1  TRP A   1      -6.890   2.346 -33.003  1.00  0.00     0.278 HD
ATOM     15  H2  TRP A   1      -7.917   1.648 -31.911  1.00  0.00     0.278 HD
BRANCH  13  16
HETATM   16  C   UNK A   0      -5.915   1.263 -31.543  1.00  0.00     0.280 C 
BRANCH  16  17
HETATM   17  C   UNK A   0      -4.823   2.247 -31.731  1.00  0.00     0.027 A 
HETATM   18  S   UNK A   0      -5.061   3.674 -32.656  1.00  0.00    -0.076 SA
HETATM   19  C   UNK A   0      -3.397   4.053 -32.476  1.00  0.00     0.079 A 
HETATM   20  N   UNK A   0      -2.709   3.223 -31.724  1.00  0.00    -0.257 NA
HETATM   21  C   UNK A   0      -3.515   2.192 -31.297  1.00  0.00     0.133 A 
BRANCH  19  22
HETATM   22  C   UNK A   0      -2.755   5.249 -33.180  1.00  0.00     0.045 C 
HETATM   23  C   UNK A   0      -1.200   5.309 -33.107  1.00  0.00     0.011 C 
HETATM   24  C   UNK A   0      -1.215   5.769 -34.577  1.00  0.00     0.002 C 
HETATM   25  C   UNK A   0      -2.547   5.009 -34.709  1.00  0.00     0.011 C 
ENDBRANCH  19  22
ENDBRANCH  16  17
ENDBRANCH  13  16
ENDBRANCH   1  13
BRANCH   1  26
ATOM     26  C   TRP A   1      -8.608   0.716 -34.222  1.00  0.00     0.197 C 
BRANCH  26  27
ATOM     27  O   TRP A   1      -8.697   2.145 -34.231  1.00  0.00    -0.399 OA
ATOM     28  H   TRP A   1      -9.621   2.377 -34.453  1.00  0.00     0.209 HD
ENDBRANCH  26  27
ENDBRANCH   1  26
TORSDOF 8
ENDMDL
MODEL 6
REMARK VINA RESULT:      -7.3      3.118      6.277
REMARK  8 active torsions:
REMARK  status: ('A' for Active; 'I' for Inactive)
REMARK    1  A    between atoms: CG_8  and  CB_9 
REMARK    2  A    between atoms: CB_9  and  CA_10 
REMARK    3  A    between atoms: CA_10  and  N_11 
REMARK    4  A    between atoms: CA_10  and  C_14 
REMARK    5  A    between atoms: N_11  and  C_19 
REMARK    6  A    between atoms: C_14  and  O_15 
REMARK    7  A    between atoms: C_19  and  C_20 
REMARK    8  A    between atoms: C_22  and  C_23 
ROOT
ATOM      1  CA  TRP A   1      -5.776   3.410 -31.248  1.00  0.00     0.214 C 
ENDROOT
BRANCH   1   2
ATOM      2  CB  TRP A   1      -4.617   2.583 -31.835  1.00  0.00     0.076 C 
BRANCH   2   3
ATOM      3  CG  TRP A   1      -4.954   1.181 -32.251  1.00  0.00    -0.028 A 
ATOM      4  CD2 TRP A   1      -5.790   0.724 -33.326  1.00  0.00    -0.002 A 
ATOM      5  CE3 TRP A   1      -6.542   1.350 -34.344  1.00  0.00     0.014 A 
ATOM      6  CE2 TRP A   1      -5.813  -0.672 -33.263  1.00  0.00     0.042 A 
ATOM      7  CZ3 TRP A   1      -7.309   0.572 -35.221  1.00  0.00     0.001 A 
ATOM      8  CH2 TRP A   1      -7.322  -0.815 -35.115  1.00  0.00     0.002 A 
ATOM      9  CZ2 TRP A   1      -6.564  -1.464 -34.139  1.00  0.00     0.030 A 
ATOM     10  NE1 TRP A   1      -4.975  -1.055 -32.246  1.00  0.00    -0.365 N 
ATOM     11  HE1 TRP A   1      -4.763  -2.015 -32.005  1.00  0.00     0.165 HD
ATOM     12  CD1 TRP A   1      -4.470   0.050 -31.617  1.00  0.00     0.096 A 
ENDBRANCH   2   3
ENDBRANCH   1   2
BRANCH   1  13
ATOM     13  N   TRP A   1      -6.711   2.527 -30.445  1.00  0.00    -0.064 N 
ATOM     14  H1  TRP A   1      -6.587   1.535 -30.692  1.00  0.00     0.278 HD
ATOM     15  H2  TRP A   1      -6.412   2.621 -29.457  1.00  0.00     0.278 HD
BRANCH  13  16
HETATM   16  C   UNK A   0      -8.151   2.874 -30.554  1.00  0.00     0.280 C 
BRANCH  16  17
HETATM   17  C   UNK A   0      -8.879   2.017 -31.519  1.00  0.00     0.027 A 
HETATM   18  S   UNK A   0      -9.946   2.694 -32.683  1.00  0.00    -0.076 SA
HETATM   19  C   UNK A   0     -10.396   1.112 -33.172  1.00  0.00     0.079 A 
HETATM   20  N   UNK A   0      -9.755   0.134 -32.571  1.00  0.00    -0.257 NA
HETATM   21  C   UNK A   0      -8.891   0.642 -31.629  1.00  0.00     0.133 A 
BRANCH  19  22
HETATM   22  C   UNK A   0     -11.497   0.863 -34.203  1.00  0.00     0.045 C 
HETATM   23  C   UNK A   0     -12.939   0.755 -33.625  1.00  0.00     0.011 C 
HETATM   24  C   UNK A   0     -13.416   1.572 -34.840  1.00  0.00     0.002 C 
HETATM   25  C   UNK A   0     -12.002   2.178 -34.877  1.00  0.00     0.011 C 
ENDBRANCH  19  22
ENDBRANCH  16  17
ENDBRANCH  13  16
ENDBRANCH   1  13
BRANCH   1  26
ATOM     26  C   TRP A   1      -5.232   4.494 -30.292  1.00  0.00     0.197 C 
BRANCH  26  27
ATOM     27  O   TRP A   1      -5.225   3.951 -28.967  1.00  0.00    -0.399 OA
ATOM     28  H   TRP A   1      -5.161   2.978 -29.052  1.00  0.00     0.209 HD
ENDBRANCH  26  27
ENDBRANCH   1  26
TORSDOF 8
ENDMDL
MODEL 7
REMARK VINA RESULT:      -7.3      3.511      8.930
REMARK  8 active torsions:
REMARK  status: ('A' for Active; 'I' for Inactive)
REMARK    1  A    between atoms: CG_8  and  CB_9 
REMARK    2  A    between atoms: CB_9  and  CA_10 
REMARK    3  A    between atoms: CA_10  and  N_11 
REMARK    4  A    between atoms: CA_10  and  C_14 
REMARK    5  A    between atoms: N_11  and  C_19 
REMARK    6  A    between atoms: C_14  and  O_15 
REMARK    7  A    between atoms: C_19  and  C_20 
REMARK    8  A    between atoms: C_22  and  C_23 
ROOT
ATOM      1  CA  TRP A   1      -1.644   5.272 -33.382  1.00  0.00     0.214 C 
ENDROOT
BRANCH   1   2
ATOM      2  CB  TRP A   1      -1.214   6.737 -33.178  1.00  0.00     0.076 C 
BRANCH   2   3
ATOM      3  CG  TRP A   1      -1.216   7.232 -31.762  1.00  0.00    -0.028 A 
ATOM      4  CD2 TRP A   1      -0.539   6.705 -30.610  1.00  0.00    -0.002 A 
ATOM      5  CE3 TRP A   1       0.338   5.623 -30.372  1.00  0.00     0.014 A 
ATOM      6  CE2 TRP A   1      -0.901   7.502 -29.520  1.00  0.00     0.042 A 
ATOM      7  CZ3 TRP A   1       0.780   5.359 -29.069  1.00  0.00     0.001 A 
ATOM      8  CH2 TRP A   1       0.382   6.164 -28.007  1.00  0.00     0.002 A 
ATOM      9  CZ2 TRP A   1      -0.458   7.258 -28.215  1.00  0.00     0.030 A 
ATOM     10  NE1 TRP A   1      -1.701   8.512 -29.994  1.00  0.00    -0.365 N 
ATOM     11  HE1 TRP A   1      -2.072   9.266 -29.428  1.00  0.00     0.165 HD
ATOM     12  CD1 TRP A   1      -1.914   8.347 -31.335  1.00  0.00     0.096 A 
ENDBRANCH   2   3
ENDBRANCH   1   2
BRANCH   1  13
ATOM     13  N   TRP A   1      -2.880   4.958 -32.561  1.00  0.00    -0.064 N 
ATOM     14  H1  TRP A   1      -3.157   5.766 -31.986  1.00  0.00     0.278 HD
ATOM     15  H2  TRP A   1      -3.645   4.811 -33.244  1.00  0.00     0.278 HD
BRANCH  13  16
HETATM   16  C   UNK A   0      -2.767   3.762 -31.689  1.00  0.00     0.280 C 
BRANCH  16  17
HETATM   17  C   UNK A   0      -3.893   2.814 -31.861  1.00  0.00     0.027 A 
HETATM   18  S   UNK A   0      -3.617   1.158 -32.220  1.00  0.00    -0.076 SA
HETATM   19  C   UNK A   0      -5.308   0.924 -32.388  1.00  0.00     0.079 A 
HETATM   20  N   UNK A   0      -6.050   1.979 -32.130  1.00  0.00    -0.257 NA
HETATM   21  C   UNK A   0      -5.251   3.058 -31.830  1.00  0.00     0.133 A 
BRANCH  19  22
HETATM   22  C   UNK A   0      -5.903  -0.407 -32.849  1.00  0.00     0.045 C 
HETATM   23  C   UNK A   0      -6.402  -0.438 -34.324  1.00  0.00     0.011 C 
HETATM   24  C   UNK A   0      -5.803  -1.854 -34.426  1.00  0.00     0.002 C 
HETATM   25  C   UNK A   0      -4.816  -1.421 -33.328  1.00  0.00     0.011 C 
ENDBRANCH  19  22
ENDBRANCH  16  17
ENDBRANCH  13  16
ENDBRANCH   1  13
BRANCH   1  26
ATOM     26  C   TRP A   1      -1.999   5.019 -34.864  1.00  0.00     0.197 C 
BRANCH  26  27
ATOM     27  O   TRP A   1      -0.795   5.133 -35.632  1.00  0.00    -0.399 OA
ATOM     28  H   TRP A   1      -0.489   6.060 -35.556  1.00  0.00     0.209 HD
ENDBRANCH  26  27
ENDBRANCH   1  26
TORSDOF 8
ENDMDL
MODEL 8
REMARK VINA RESULT:      -7.2      2.548      6.729
REMARK  8 active torsions:
REMARK  status: ('A' for Active; 'I' for Inactive)
REMARK    1  A    between atoms: CG_8  and  CB_9 
REMARK    2  A    between atoms: CB_9  and  CA_10 
REMARK    3  A    between atoms: CA_10  and  N_11 
REMARK    4  A    between atoms: CA_10  and  C_14 
REMARK    5  A    between atoms: N_11  and  C_19 
REMARK    6  A    between atoms: C_14  and  O_15 
REMARK    7  A    between atoms: C_19  and  C_20 
REMARK    8  A    between atoms: C_22  and  C_23 
ROOT
ATOM      1  CA  TRP A   1      -3.329   3.024 -31.211  1.00  0.00     0.214 C 
ENDROOT
BRANCH   1   2
ATOM      2  CB  TRP A   1      -4.756   3.555 -30.975  1.00  0.00     0.076 C 
BRANCH   2   3
ATOM      3  CG  TRP A   1      -5.732   3.337 -32.094  1.00  0.00    -0.028 A 
ATOM      4  CD2 TRP A   1      -6.746   2.330 -32.238  1.00  0.00    -0.002 A 
ATOM      5  CE3 TRP A   1      -7.207   1.253 -31.447  1.00  0.00     0.014 A 
ATOM      6  CE2 TRP A   1      -7.355   2.534 -33.479  1.00  0.00     0.042 A 
ATOM      7  CZ3 TRP A   1      -8.214   0.411 -31.937  1.00  0.00     0.001 A 
ATOM      8  CH2 TRP A   1      -8.783   0.636 -33.186  1.00  0.00     0.002 A 
ATOM      9  CZ2 TRP A   1      -8.371   1.710 -33.977  1.00  0.00     0.030 A 
ATOM     10  NE1 TRP A   1      -6.793   3.655 -34.036  1.00  0.00    -0.365 N 
ATOM     11  HE1 TRP A   1      -7.078   4.065 -34.918  1.00  0.00     0.165 HD
ATOM     12  CD1 TRP A   1      -5.802   4.133 -33.223  1.00  0.00     0.096 A 
ENDBRANCH   2   3
ENDBRANCH   1   2
BRANCH   1  13
ATOM     13  N   TRP A   1      -3.360   1.760 -32.048  1.00  0.00    -0.064 N 
ATOM     14  H1  TRP A   1      -4.137   1.782 -32.723  1.00  0.00     0.278 HD
ATOM     15  H2  TRP A   1      -2.488   1.769 -32.608  1.00  0.00     0.278 HD
BRANCH  13  16
HETATM   16  C   UNK A   0      -3.430   0.496 -31.273  1.00  0.00     0.280 C 
BRANCH  16  17
HETATM   17  C   UNK A   0      -3.629  -0.696 -32.131  1.00  0.00     0.027 A 
HETATM   18  S   UNK A   0      -4.617  -0.627 -33.535  1.00  0.00    -0.076 SA
HETATM   19  C   UNK A   0      -4.409  -2.317 -33.748  1.00  0.00     0.079 A 
HETATM   20  N   UNK A   0      -3.607  -2.899 -32.884  1.00  0.00    -0.257 NA
HETATM   21  C   UNK A   0      -3.160  -1.982 -31.961  1.00  0.00     0.133 A 
BRANCH  19  22
HETATM   22  C   UNK A   0      -5.144  -3.094 -34.841  1.00  0.00     0.045 C 
HETATM   23  C   UNK A   0      -5.293  -4.623 -34.585  1.00  0.00     0.011 C 
HETATM   24  C   UNK A   0      -6.723  -4.510 -35.146  1.00  0.00     0.002 C 
HETATM   25  C   UNK A   0      -6.696  -3.044 -34.679  1.00  0.00     0.011 C 
ENDBRANCH  19  22
ENDBRANCH  16  17
ENDBRANCH  13  16
ENDBRANCH   1  13
BRANCH   1  26
ATOM     26  C   TRP A   1      -2.490   4.067 -31.981  1.00  0.00     0.197 C 
BRANCH  26  27
ATOM     27  O   TRP A   1      -2.024   5.042 -31.040  1.00  0.00    -0.399 OA
ATOM     28  H   TRP A   1      -2.742   5.697 -30.922  1.00  0.00     0.209 HD
ENDBRANCH  26  27
ENDBRANCH   1  26
TORSDOF 8
ENDMDL
MODEL 9
REMARK VINA RESULT:      -7.2      2.997      5.881
REMARK  8 active torsions:
REMARK  status: ('A' for Active; 'I' for Inactive)
REMARK    1  A    between atoms: CG_8  and  CB_9 
REMARK    2  A    between atoms: CB_9  and  CA_10 
REMARK    3  A    between atoms: CA_10  and  N_11 
REMARK    4  A    between atoms: CA_10  and  C_14 
REMARK    5  A    between atoms: N_11  and  C_19 
REMARK    6  A    between atoms: C_14  and  O_15 
REMARK    7  A    between atoms: C_19  and  C_20 
REMARK    8  A    between atoms: C_22  and  C_23 
ROOT
ATOM      1  CA  TRP A   1      -5.090   1.396 -32.116  1.00  0.00     0.214 C 
ENDROOT
BRANCH   1   2
ATOM      2  CB  TRP A   1      -4.190   0.219 -32.539  1.00  0.00     0.076 C 
BRANCH   2   3
ATOM      3  CG  TRP A   1      -4.843  -0.842 -33.375  1.00  0.00    -0.028 A 
ATOM      4  CD2 TRP A   1      -4.538  -2.241 -33.476  1.00  0.00    -0.002 A 
ATOM      5  CE3 TRP A   1      -3.601  -3.108 -32.869  1.00  0.00     0.014 A 
ATOM      6  CE2 TRP A   1      -5.409  -2.785 -34.424  1.00  0.00     0.042 A 
ATOM      7  CZ3 TRP A   1      -3.545  -4.453 -33.257  1.00  0.00     0.001 A 
ATOM      8  CH2 TRP A   1      -4.417  -4.953 -34.218  1.00  0.00     0.002 A 
ATOM      9  CZ2 TRP A   1      -5.374  -4.129 -34.813  1.00  0.00     0.030 A 
ATOM     10  NE1 TRP A   1      -6.256  -1.783 -34.830  1.00  0.00    -0.365 N 
ATOM     11  HE1 TRP A   1      -7.022  -1.906 -35.480  1.00  0.00     0.165 HD
ATOM     12  CD1 TRP A   1      -5.912  -0.607 -34.222  1.00  0.00     0.096 A 
ENDBRANCH   2   3
ENDBRANCH   1   2
BRANCH   1  13
ATOM     13  N   TRP A   1      -6.197   0.918 -31.196  1.00  0.00    -0.064 N 
ATOM     14  H1  TRP A   1      -6.760   0.182 -31.646  1.00  0.00     0.278 HD
ATOM     15  H2  TRP A   1      -5.724   0.472 -30.390  1.00  0.00     0.278 HD
BRANCH  13  16
HETATM   16  C   UNK A   0      -7.106   1.984 -30.702  1.00  0.00     0.280 C 
BRANCH  16  17
HETATM   17  C   UNK A   0      -8.386   2.041 -31.445  1.00  0.00     0.027 A 
HETATM   18  S   UNK A   0      -8.929   0.712 -32.387  1.00  0.00    -0.076 SA
HETATM   19  C   UNK A   0     -10.248   1.659 -32.941  1.00  0.00     0.079 A 
HETATM   20  N   UNK A   0     -10.335   2.862 -32.419  1.00  0.00    -0.257 NA
HETATM   21  C   UNK A   0      -9.278   3.086 -31.567  1.00  0.00     0.133 A 
BRANCH  19  22
HETATM   22  C   UNK A   0     -11.225   1.150 -34.002  1.00  0.00     0.045 C 
HETATM   23  C   UNK A   0     -12.709   1.038 -33.542  1.00  0.00     0.011 C 
HETATM   24  C   UNK A   0     -13.109   1.589 -34.923  1.00  0.00     0.002 C 
HETATM   25  C   UNK A   0     -11.736   2.283 -34.947  1.00  0.00     0.011 C 
ENDBRANCH  19  22
ENDBRANCH  16  17
ENDBRANCH  13  16
ENDBRANCH   1  13
BRANCH   1  26
ATOM     26  C   TRP A   1      -4.268   2.448 -31.340  1.00  0.00     0.197 C 
BRANCH  26  27
ATOM     27  O   TRP A   1      -2.923   1.968 -31.235  1.00  0.00    -0.399 OA
ATOM     28  H   TRP A   1      -2.332   2.699 -31.507  1.00  0.00     0.209 HD
ENDBRANCH  26  27
ENDBRANCH   1  26
TORSDOF 8
ENDMDL
MODEL 10
REMARK VINA RESULT:      -7.1      2.863      7.252
REMARK  8 active torsions:
REMARK  status: ('A' for Active; 'I' for Inactive)
REMARK    1  A    between atoms: CG_8  and  CB_9 
REMARK    2  A    between atoms: CB_9  and  CA_10 
REMARK    3  A    between atoms: CA_10  and  N_11 
REMARK    4  A    between atoms: CA_10  and  C_14 
REMARK    5  A    between atoms: N_11  and  C_19 
REMARK    6  A    between atoms: C_14  and  O_15 
REMARK    7  A    between atoms: C_19  and  C_20 
REMARK    8  A    between atoms: C_22  and  C_23 
ROOT
ATOM      1  CA  TRP A   1      -5.683   5.129 -29.365  1.00  0.00     0.214 C 
ENDROOT
BRANCH   1   2
ATOM      2  CB  TRP A   1      -4.554   5.805 -30.166  1.00  0.00     0.076 C 
BRANCH   2   3
ATOM      3  CG  TRP A   1      -4.623   5.651 -31.657  1.00  0.00    -0.028 A 
ATOM      4  CD2 TRP A   1      -3.563   5.444 -32.604  1.00  0.00    -0.002 A 
ATOM      5  CE3 TRP A   1      -2.161   5.291 -32.519  1.00  0.00     0.014 A 
ATOM      6  CE2 TRP A   1      -4.147   5.410 -33.873  1.00  0.00     0.042 A 
ATOM      7  CZ3 TRP A   1      -1.404   5.154 -33.690  1.00  0.00     0.001 A 
ATOM      8  CH2 TRP A   1      -2.019   5.145 -34.937  1.00  0.00     0.002 A 
ATOM      9  CZ2 TRP A   1      -3.405   5.261 -35.051  1.00  0.00     0.030 A 
ATOM     10  NE1 TRP A   1      -5.505   5.518 -33.708  1.00  0.00    -0.365 N 
ATOM     11  HE1 TRP A   1      -6.182   5.475 -34.460  1.00  0.00     0.165 HD
ATOM     12  CD1 TRP A   1      -5.801   5.684 -32.383  1.00  0.00     0.096 A 
ENDBRANCH   2   3
ENDBRANCH   1   2
BRANCH   1  13
ATOM     13  N   TRP A   1      -5.523   3.621 -29.383  1.00  0.00    -0.064 N 
ATOM     14  H1  TRP A   1      -4.694   3.343 -29.928  1.00  0.00     0.278 HD
ATOM     15  H2  TRP A   1      -5.333   3.343 -28.403  1.00  0.00     0.278 HD
BRANCH  13  16
HETATM   16  C   UNK A   0      -6.702   2.871 -29.885  1.00  0.00     0.280 C 
BRANCH  16  17
HETATM   17  C   UNK A   0      -6.331   1.703 -30.718  1.00  0.00     0.027 A 
HETATM   18  S   UNK A   0      -6.031   1.869 -32.401  1.00  0.00    -0.076 SA
HETATM   19  C   UNK A   0      -5.867   0.165 -32.527  1.00  0.00     0.079 A 
HETATM   20  N   UNK A   0      -5.956  -0.494 -31.393  1.00  0.00    -0.257 NA
HETATM   21  C   UNK A   0      -6.220   0.376 -30.360  1.00  0.00     0.133 A 
BRANCH  19  22
HETATM   22  C   UNK A   0      -5.675  -0.535 -33.873  1.00  0.00     0.045 C 
HETATM   23  C   UNK A   0      -4.830  -1.843 -33.828  1.00  0.00     0.011 C 
HETATM   24  C   UNK A   0      -5.834  -2.446 -34.829  1.00  0.00     0.002 C 
HETATM   25  C   UNK A   0      -6.869  -1.469 -34.244  1.00  0.00     0.011 C 
ENDBRANCH  19  22
ENDBRANCH  16  17
ENDBRANCH  13  16
ENDBRANCH   1  13
BRANCH   1  26
ATOM     26  C   TRP A   1      -5.636   5.579 -27.888  1.00  0.00     0.197 C 
BRANCH  26  27
ATOM     27  O   TRP A   1      -4.299   6.004 -27.599  1.00  0.00    -0.399 OA
ATOM     28  H   TRP A   1      -3.997   5.499 -26.816  1.00  0.00     0.209 HD
ENDBRANCH  26  27
ENDBRANCH   1  26
TORSDOF 8
ENDMDL
