MODEL 1
REMARK VINA RESULT:      -9.4      0.000      0.000
REMARK  5 active torsions:
REMARK  status: ('A' for Active; 'I' for Inactive)
REMARK    1  A    between atoms: C_5  and  C_6 
REMARK    2  A    between atoms: C_13  and  C_14 
REMARK       I    between atoms: C_14  and  N_15 
REMARK    3  A    between atoms: N_15  and  C_16 
REMARK    4  A    between atoms: C_19  and  C_20 
REMARK    5  A    between atoms: C_23  and  N_24 
ROOT
HETATM    1  C   UNL     1      -2.220   4.693 -31.988  1.00  0.00     0.262 C 
HETATM    2  N   UNL     1      -3.383   4.166 -32.498  1.00  0.00    -0.301 N 
HETATM    3  O   UNL     1      -1.428   4.143 -31.238  1.00  0.00    -0.267 OA
HETATM    4  H   UNL     1      -3.884   4.650 -33.226  1.00  0.00     0.171 HD
ENDROOT
BRANCH   2   5
HETATM    5  C   UNL     1      -3.836   2.919 -32.181  1.00  0.00     0.173 A 
HETATM    6  S   UNL     1      -4.785   2.886 -30.762  1.00  0.00    -0.061 SA
HETATM    7  C   UNL     1      -4.983   1.193 -30.962  1.00  0.00     0.085 A 
HETATM    8  C   UNL     1      -4.312   0.770 -32.096  1.00  0.00     0.076 A 
HETATM    9  N   UNL     1      -3.639   1.774 -32.778  1.00  0.00    -0.223 NA
BRANCH   8  10
HETATM   10  C   UNL     1      -4.262  -0.618 -32.550  1.00  0.00    -0.007 A 
HETATM   11  C   UNL     1      -3.416  -1.564 -31.951  1.00  0.00     0.016 A 
HETATM   12  C   UNL     1      -3.377  -2.885 -32.412  1.00  0.00     0.037 A 
HETATM   13  C   UNL     1      -4.195  -3.268 -33.482  1.00  0.00     0.102 A 
HETATM   14  C   UNL     1      -5.055  -2.342 -34.084  1.00  0.00     0.037 A 
HETATM   15  C   UNL     1      -5.087  -1.025 -33.611  1.00  0.00     0.016 A 
BRANCH  13  16
HETATM   16  N   UNL     1      -4.150  -4.651 -33.974  1.00  0.00    -0.116 N 
HETATM   17  O   UNL     1      -5.204  -5.146 -34.395  1.00  0.00    -0.532 OA
HETATM   18  O   UNL     1      -3.062  -5.243 -33.932  1.00  0.00    -0.532 OA
ENDBRANCH  13  16
ENDBRANCH   8  10
ENDBRANCH   2   5
BRANCH   1  19
HETATM   19  C   UNL     1      -1.968   6.034 -32.484  1.00  0.00     0.095 A 
HETATM   20  C   UNL     1      -1.553   6.388 -33.751  1.00  0.00     0.093 A 
HETATM   21  C   UNL     1      -1.251   5.646 -34.992  1.00  0.00     0.080 C 
HETATM   22  O   UNL     1      -1.456   7.739 -33.830  1.00  0.00    -0.217 OA
HETATM   23  N   UNL     1      -1.822   8.301 -32.628  1.00  0.00    -0.127 NA
HETATM   24  C   UNL     1      -2.135   7.281 -31.812  1.00  0.00     0.114 A 
BRANCH  24  25
HETATM   25  C   UNL     1      -2.571   7.545 -30.444  1.00  0.00     0.018 A 
HETATM   26  C   UNL     1      -1.688   7.582 -29.353  1.00  0.00     0.046 A 
HETATM   27 CL   UNL     1       0.024   7.380 -29.526  1.00  0.00    -0.083 Cl
HETATM   28  C   UNL     1      -2.172   7.841 -28.065  1.00  0.00     0.025 A 
HETATM   29  C   UNL     1      -3.531   8.080 -27.856  1.00  0.00     0.002 A 
HETATM   30  C   UNL     1      -4.412   8.064 -28.933  1.00  0.00     0.001 A 
HETATM   31  C   UNL     1      -3.936   7.799 -30.219  1.00  0.00     0.016 A 
ENDBRANCH  24  25
ENDBRANCH   1  19
TORSDOF 5
ENDMDL
MODEL 2
REMARK VINA RESULT:      -8.9      2.996      4.079
REMARK  5 active torsions:
REMARK  status: ('A' for Active; 'I' for Inactive)
REMARK    1  A    between atoms: C_5  and  C_6 
REMARK    2  A    between atoms: C_13  and  C_14 
REMARK       I    between atoms: C_14  and  N_15 
REMARK    3  A    between atoms: N_15  and  C_16 
REMARK    4  A    between atoms: C_19  and  C_20 
REMARK    5  A    between atoms: C_23  and  N_24 
ROOT
HETATM    1  C   UNL     1      -6.178   4.884 -33.439  1.00  0.00     0.262 C 
HETATM    2  N   UNL     1      -6.805   3.878 -32.742  1.00  0.00    -0.301 N 
HETATM    3  O   UNL     1      -5.785   4.845 -34.595  1.00  0.00    -0.267 OA
HETATM    4  H   UNL     1      -7.222   4.066 -31.844  1.00  0.00     0.171 HD
ENDROOT
BRANCH   2   5
HETATM    5  C   UNL     1      -7.037   2.641 -33.267  1.00  0.00     0.173 A 
HETATM    6  S   UNL     1      -8.560   2.504 -34.024  1.00  0.00    -0.061 SA
HETATM    7  C   UNL     1      -8.198   0.871 -34.406  1.00  0.00     0.085 A 
HETATM    8  C   UNL     1      -6.941   0.542 -33.930  1.00  0.00     0.076 A 
HETATM    9  N   UNL     1      -6.291   1.569 -33.257  1.00  0.00    -0.223 NA
BRANCH   8  10
HETATM   10  C   UNL     1      -6.329  -0.777 -34.070  1.00  0.00    -0.007 A 
HETATM   11  C   UNL     1      -7.031  -1.867 -34.609  1.00  0.00     0.016 A 
HETATM   12  C   UNL     1      -6.427  -3.124 -34.722  1.00  0.00     0.037 A 
HETATM   13  C   UNL     1      -5.104  -3.296 -34.295  1.00  0.00     0.102 A 
HETATM   14  C   UNL     1      -4.384  -2.218 -33.768  1.00  0.00     0.037 A 
HETATM   15  C   UNL     1      -4.998  -0.965 -33.663  1.00  0.00     0.016 A 
BRANCH  13  16
HETATM   16  N   UNL     1      -4.471  -4.616 -34.404  1.00  0.00    -0.116 N 
HETATM   17  O   UNL     1      -3.289  -4.718 -34.046  1.00  0.00    -0.532 OA
HETATM   18  O   UNL     1      -5.153  -5.549 -34.852  1.00  0.00    -0.532 OA
ENDBRANCH  13  16
ENDBRANCH   8  10
ENDBRANCH   2   5
BRANCH   1  19
HETATM   19  C   UNL     1      -6.055   6.096 -32.651  1.00  0.00     0.095 A 
HETATM   20  C   UNL     1      -7.075   6.935 -32.249  1.00  0.00     0.093 A 
HETATM   21  C   UNL     1      -8.542   6.940 -32.411  1.00  0.00     0.080 C 
HETATM   22  O   UNL     1      -6.557   7.947 -31.507  1.00  0.00    -0.217 OA
HETATM   23  N   UNL     1      -5.195   7.784 -31.389  1.00  0.00    -0.127 NA
HETATM   24  C   UNL     1      -4.884   6.671 -32.072  1.00  0.00     0.114 A 
BRANCH  24  25
HETATM   25  C   UNL     1      -3.499   6.216 -32.141  1.00  0.00     0.018 A 
HETATM   26  C   UNL     1      -3.056   5.020 -31.555  1.00  0.00     0.046 A 
HETATM   27 CL   UNL     1      -4.123   3.925 -30.739  1.00  0.00    -0.083 Cl
HETATM   28  C   UNL     1      -1.712   4.641 -31.658  1.00  0.00     0.025 A 
HETATM   29  C   UNL     1      -0.805   5.439 -32.356  1.00  0.00     0.002 A 
HETATM   30  C   UNL     1      -1.238   6.617 -32.958  1.00  0.00     0.001 A 
HETATM   31  C   UNL     1      -2.576   7.004 -32.852  1.00  0.00     0.016 A 
ENDBRANCH  24  25
ENDBRANCH   1  19
TORSDOF 5
ENDMDL
MODEL 3
REMARK VINA RESULT:      -8.8      2.449      3.976
REMARK  5 active torsions:
REMARK  status: ('A' for Active; 'I' for Inactive)
REMARK    1  A    between atoms: C_5  and  C_6 
REMARK    2  A    between atoms: C_13  and  C_14 
REMARK       I    between atoms: C_14  and  N_15 
REMARK    3  A    between atoms: N_15  and  C_16 
REMARK    4  A    between atoms: C_19  and  C_20 
REMARK    5  A    between atoms: C_23  and  N_24 
ROOT
HETATM    1  C   UNL     1      -5.228   3.833 -30.893  1.00  0.00     0.262 C 
HETATM    2  N   UNL     1      -5.854   3.855 -32.117  1.00  0.00    -0.301 N 
HETATM    3  O   UNL     1      -4.957   2.849 -30.221  1.00  0.00    -0.267 OA
HETATM    4  H   UNL     1      -5.893   4.707 -32.653  1.00  0.00     0.171 HD
ENDROOT
BRANCH   2   5
HETATM    5  C   UNL     1      -6.306   2.730 -32.742  1.00  0.00     0.173 A 
HETATM    6  S   UNL     1      -7.851   2.921 -33.441  1.00  0.00    -0.061 SA
HETATM    7  C   UNL     1      -7.781   1.295 -33.985  1.00  0.00     0.085 A 
HETATM    8  C   UNL     1      -6.585   0.718 -33.596  1.00  0.00     0.076 A 
HETATM    9  N   UNL     1      -5.752   1.553 -32.862  1.00  0.00    -0.223 NA
BRANCH   8  10
HETATM   10  C   UNL     1      -6.209  -0.664 -33.882  1.00  0.00    -0.007 A 
HETATM   11  C   UNL     1      -7.125  -1.588 -34.409  1.00  0.00     0.016 A 
HETATM   12  C   UNL     1      -6.743  -2.910 -34.663  1.00  0.00     0.037 A 
HETATM   13  C   UNL     1      -5.431  -3.317 -34.390  1.00  0.00     0.102 A 
HETATM   14  C   UNL     1      -4.500  -2.406 -33.877  1.00  0.00     0.037 A 
HETATM   15  C   UNL     1      -4.893  -1.086 -33.631  1.00  0.00     0.016 A 
BRANCH  13  16
HETATM   16  N   UNL     1      -5.031  -4.706 -34.647  1.00  0.00    -0.116 N 
HETATM   17  O   UNL     1      -3.964  -5.098 -34.152  1.00  0.00    -0.532 OA
HETATM   18  O   UNL     1      -5.779  -5.402 -35.347  1.00  0.00    -0.532 OA
ENDBRANCH  13  16
ENDBRANCH   8  10
ENDBRANCH   2   5
BRANCH   1  19
HETATM   19  C   UNL     1      -4.848   5.163 -30.453  1.00  0.00     0.095 A 
HETATM   20  C   UNL     1      -5.327   5.843 -29.353  1.00  0.00     0.093 A 
HETATM   21  C   UNL     1      -6.290   5.536 -28.277  1.00  0.00     0.080 C 
HETATM   22  O   UNL     1      -4.707   7.048 -29.266  1.00  0.00    -0.217 OA
HETATM   23  N   UNL     1      -3.798   7.176 -30.292  1.00  0.00    -0.127 NA
HETATM   24  C   UNL     1      -3.874   6.044 -31.011  1.00  0.00     0.114 A 
BRANCH  24  25
HETATM   25  C   UNL     1      -3.024   5.862 -32.183  1.00  0.00     0.018 A 
HETATM   26  C   UNL     1      -1.665   5.523 -32.098  1.00  0.00     0.046 A 
HETATM   27 CL   UNL     1      -0.867   5.224 -30.589  1.00  0.00    -0.083 Cl
HETATM   28  C   UNL     1      -0.904   5.362 -33.262  1.00  0.00     0.025 A 
HETATM   29  C   UNL     1      -1.494   5.523 -34.518  1.00  0.00     0.002 A 
HETATM   30  C   UNL     1      -2.845   5.839 -34.614  1.00  0.00     0.001 A 
HETATM   31  C   UNL     1      -3.607   6.008 -33.455  1.00  0.00     0.016 A 
ENDBRANCH  24  25
ENDBRANCH   1  19
TORSDOF 5
ENDMDL
MODEL 4
REMARK VINA RESULT:      -8.7      6.855      8.586
REMARK  5 active torsions:
REMARK  status: ('A' for Active; 'I' for Inactive)
REMARK    1  A    between atoms: C_5  and  C_6 
REMARK    2  A    between atoms: C_13  and  C_14 
REMARK       I    between atoms: C_14  and  N_15 
REMARK    3  A    between atoms: N_15  and  C_16 
REMARK    4  A    between atoms: C_19  and  C_20 
REMARK    5  A    between atoms: C_23  and  N_24 
ROOT
HETATM    1  C   UNL     1     -10.044   3.678 -33.010  1.00  0.00     0.262 C 
HETATM    2  N   UNL     1      -9.145   3.401 -34.013  1.00  0.00    -0.301 N 
HETATM    3  O   UNL     1     -10.000   3.289 -31.853  1.00  0.00    -0.267 OA
HETATM    4  H   UNL     1      -9.194   3.895 -34.890  1.00  0.00     0.171 HD
ENDROOT
BRANCH   2   5
HETATM    5  C   UNL     1      -8.066   2.586 -33.841  1.00  0.00     0.173 A 
HETATM    6  S   UNL     1      -6.706   3.392 -33.198  1.00  0.00    -0.061 SA
HETATM    7  C   UNL     1      -5.834   1.915 -33.248  1.00  0.00     0.085 A 
HETATM    8  C   UNL     1      -6.640   0.908 -33.752  1.00  0.00     0.076 A 
HETATM    9  N   UNL     1      -7.919   1.316 -34.107  1.00  0.00    -0.223 NA
BRANCH   8  10
HETATM   10  C   UNL     1      -6.205  -0.473 -33.943  1.00  0.00    -0.007 A 
HETATM   11  C   UNL     1      -4.906  -0.893 -33.616  1.00  0.00     0.016 A 
HETATM   12  C   UNL     1      -4.509  -2.220 -33.820  1.00  0.00     0.037 A 
HETATM   13  C   UNL     1      -5.420  -3.140 -34.355  1.00  0.00     0.102 A 
HETATM   14  C   UNL     1      -6.723  -2.742 -34.675  1.00  0.00     0.037 A 
HETATM   15  C   UNL     1      -7.109  -1.414 -34.462  1.00  0.00     0.016 A 
BRANCH  13  16
HETATM   16  N   UNL     1      -5.003  -4.530 -34.579  1.00  0.00    -0.116 N 
HETATM   17  O   UNL     1      -3.891  -4.872 -34.152  1.00  0.00    -0.532 OA
HETATM   18  O   UNL     1      -5.783  -5.276 -35.187  1.00  0.00    -0.532 OA
ENDBRANCH  13  16
ENDBRANCH   8  10
ENDBRANCH   2   5
BRANCH   1  19
HETATM   19  C   UNL     1     -11.098   4.570 -33.457  1.00  0.00     0.095 A 
HETATM   20  C   UNL     1     -10.996   5.925 -33.695  1.00  0.00     0.093 A 
HETATM   21  C   UNL     1      -9.901   6.914 -33.628  1.00  0.00     0.080 C 
HETATM   22  O   UNL     1     -12.194   6.397 -34.123  1.00  0.00    -0.217 OA
HETATM   23  N   UNL     1     -13.100   5.363 -34.195  1.00  0.00    -0.127 NA
HETATM   24  C   UNL     1     -12.448   4.258 -33.798  1.00  0.00     0.114 A 
BRANCH  24  25
HETATM   25  C   UNL     1     -13.139   2.973 -33.761  1.00  0.00     0.018 A 
HETATM   26  C   UNL     1     -14.155   2.676 -32.839  1.00  0.00     0.046 A 
HETATM   27 CL   UNL     1     -14.739   3.828 -31.686  1.00  0.00    -0.083 Cl
HETATM   28  C   UNL     1     -14.778   1.422 -32.858  1.00  0.00     0.025 A 
HETATM   29  C   UNL     1     -14.406   0.463 -33.802  1.00  0.00     0.002 A 
HETATM   30  C   UNL     1     -13.414   0.754 -34.733  1.00  0.00     0.001 A 
HETATM   31  C   UNL     1     -12.784   2.001 -34.714  1.00  0.00     0.016 A 
ENDBRANCH  24  25
ENDBRANCH   1  19
TORSDOF 5
ENDMDL
MODEL 5
REMARK VINA RESULT:      -8.5      6.244      8.087
REMARK  5 active torsions:
REMARK  status: ('A' for Active; 'I' for Inactive)
REMARK    1  A    between atoms: C_5  and  C_6 
REMARK    2  A    between atoms: C_13  and  C_14 
REMARK       I    between atoms: C_14  and  N_15 
REMARK    3  A    between atoms: N_15  and  C_16 
REMARK    4  A    between atoms: C_19  and  C_20 
REMARK    5  A    between atoms: C_23  and  N_24 
ROOT
HETATM    1  C   UNL     1      -9.598   3.262 -31.660  1.00  0.00     0.262 C 
HETATM    2  N   UNL     1      -8.672   3.401 -32.667  1.00  0.00    -0.301 N 
HETATM    3  O   UNL     1      -9.616   2.406 -30.789  1.00  0.00    -0.267 OA
HETATM    4  H   UNL     1      -8.666   4.229 -33.241  1.00  0.00     0.171 HD
ENDROOT
BRANCH   2   5
HETATM    5  C   UNL     1      -7.635   2.534 -32.850  1.00  0.00     0.173 A 
HETATM    6  S   UNL     1      -6.108   3.239 -32.563  1.00  0.00    -0.061 SA
HETATM    7  C   UNL     1      -5.369   1.737 -32.940  1.00  0.00     0.085 A 
HETATM    8  C   UNL     1      -6.338   0.801 -33.260  1.00  0.00     0.076 A 
HETATM    9  N   UNL     1      -7.640   1.282 -33.222  1.00  0.00    -0.223 NA
BRANCH   8  10
HETATM   10  C   UNL     1      -6.051  -0.578 -33.646  1.00  0.00    -0.007 A 
HETATM   11  C   UNL     1      -7.025  -1.402 -34.233  1.00  0.00     0.016 A 
HETATM   12  C   UNL     1      -6.729  -2.724 -34.583  1.00  0.00     0.037 A 
HETATM   13  C   UNL     1      -5.445  -3.231 -34.349  1.00  0.00     0.102 A 
HETATM   14  C   UNL     1      -4.457  -2.421 -33.777  1.00  0.00     0.037 A 
HETATM   15  C   UNL     1      -4.764  -1.099 -33.434  1.00  0.00     0.016 A 
BRANCH  13  16
HETATM   16  N   UNL     1      -5.135  -4.620 -34.707  1.00  0.00    -0.116 N 
HETATM   17  O   UNL     1      -5.995  -5.258 -35.331  1.00  0.00    -0.532 OA
HETATM   18  O   UNL     1      -4.036  -5.075 -34.359  1.00  0.00    -0.532 OA
ENDBRANCH  13  16
ENDBRANCH   8  10
ENDBRANCH   2   5
BRANCH   1  19
HETATM   19  C   UNL     1     -10.596   4.315 -31.690  1.00  0.00     0.095 A 
HETATM   20  C   UNL     1     -10.498   5.570 -31.126  1.00  0.00     0.093 A 
HETATM   21  C   UNL     1      -9.456   6.291 -30.367  1.00  0.00     0.080 C 
HETATM   22  O   UNL     1     -11.628   6.272 -31.393  1.00  0.00    -0.217 OA
HETATM   23  N   UNL     1     -12.481   5.504 -32.153  1.00  0.00    -0.127 NA
HETATM   24  C   UNL     1     -11.866   4.324 -32.339  1.00  0.00     0.114 A 
BRANCH  24  25
HETATM   25  C   UNL     1     -12.516   3.274 -33.117  1.00  0.00     0.018 A 
HETATM   26  C   UNL     1     -12.156   2.967 -34.439  1.00  0.00     0.046 A 
HETATM   27 CL   UNL     1     -10.858   3.762 -35.266  1.00  0.00    -0.083 Cl
HETATM   28  C   UNL     1     -12.820   1.946 -35.130  1.00  0.00     0.025 A 
HETATM   29  C   UNL     1     -13.833   1.215 -34.507  1.00  0.00     0.002 A 
HETATM   30  C   UNL     1     -14.184   1.498 -33.191  1.00  0.00     0.001 A 
HETATM   31  C   UNL     1     -13.530   2.521 -32.499  1.00  0.00     0.016 A 
ENDBRANCH  24  25
ENDBRANCH   1  19
TORSDOF 5
ENDMDL
MODEL 6
REMARK VINA RESULT:      -8.4      2.327      2.821
REMARK  5 active torsions:
REMARK  status: ('A' for Active; 'I' for Inactive)
REMARK    1  A    between atoms: C_5  and  C_6 
REMARK    2  A    between atoms: C_13  and  C_14 
REMARK       I    between atoms: C_14  and  N_15 
REMARK    3  A    between atoms: N_15  and  C_16 
REMARK    4  A    between atoms: C_19  and  C_20 
REMARK    5  A    between atoms: C_23  and  N_24 
ROOT
HETATM    1  C   UNL     1      -4.644   4.877 -33.542  1.00  0.00     0.262 C 
HETATM    2  N   UNL     1      -4.804   3.911 -32.578  1.00  0.00    -0.301 N 
HETATM    3  O   UNL     1      -5.118   4.881 -34.668  1.00  0.00    -0.267 OA
HETATM    4  H   UNL     1      -4.495   4.078 -31.634  1.00  0.00     0.171 HD
ENDROOT
BRANCH   2   5
HETATM    5  C   UNL     1      -5.512   2.763 -32.785  1.00  0.00     0.173 A 
HETATM    6  S   UNL     1      -7.178   2.927 -32.453  1.00  0.00    -0.061 SA
HETATM    7  C   UNL     1      -7.403   1.282 -32.886  1.00  0.00     0.085 A 
HETATM    8  C   UNL     1      -6.192   0.721 -33.253  1.00  0.00     0.076 A 
HETATM    9  N   UNL     1      -5.107   1.583 -33.171  1.00  0.00    -0.223 NA
BRANCH   8  10
HETATM   10  C   UNL     1      -6.024  -0.671 -33.663  1.00  0.00    -0.007 A 
HETATM   11  C   UNL     1      -4.768  -1.299 -33.661  1.00  0.00     0.016 A 
HETATM   12  C   UNL     1      -4.631  -2.630 -34.070  1.00  0.00     0.037 A 
HETATM   13  C   UNL     1      -5.761  -3.346 -34.485  1.00  0.00     0.102 A 
HETATM   14  C   UNL     1      -7.023  -2.742 -34.482  1.00  0.00     0.037 A 
HETATM   15  C   UNL     1      -7.148  -1.410 -34.067  1.00  0.00     0.016 A 
BRANCH  13  16
HETATM   16  N   UNL     1      -5.618  -4.740 -34.924  1.00  0.00    -0.116 N 
HETATM   17  O   UNL     1      -4.756  -5.433 -34.365  1.00  0.00    -0.532 OA
HETATM   18  O   UNL     1      -6.363  -5.139 -35.830  1.00  0.00    -0.532 OA
ENDBRANCH  13  16
ENDBRANCH   8  10
ENDBRANCH   2   5
BRANCH   1  19
HETATM   19  C   UNL     1      -3.848   5.994 -33.065  1.00  0.00     0.095 A 
HETATM   20  C   UNL     1      -2.580   6.348 -33.478  1.00  0.00     0.093 A 
HETATM   21  C   UNL     1      -1.625   5.820 -34.472  1.00  0.00     0.080 C 
HETATM   22  O   UNL     1      -2.188   7.464 -32.813  1.00  0.00    -0.217 OA
HETATM   23  N   UNL     1      -3.193   7.877 -31.969  1.00  0.00    -0.127 NA
HETATM   24  C   UNL     1      -4.198   6.999 -32.116  1.00  0.00     0.114 A 
BRANCH  24  25
HETATM   25  C   UNL     1      -5.430   7.160 -31.349  1.00  0.00     0.018 A 
HETATM   26  C   UNL     1      -5.489   7.007 -29.954  1.00  0.00     0.046 A 
HETATM   27 CL   UNL     1      -4.090   6.671 -28.989  1.00  0.00    -0.083 Cl
HETATM   28  C   UNL     1      -6.703   7.175 -29.278  1.00  0.00     0.025 A 
HETATM   29  C   UNL     1      -7.861   7.511 -29.981  1.00  0.00     0.002 A 
HETATM   30  C   UNL     1      -7.810   7.685 -31.361  1.00  0.00     0.001 A 
HETATM   31  C   UNL     1      -6.602   7.510 -32.041  1.00  0.00     0.016 A 
ENDBRANCH  24  25
ENDBRANCH   1  19
TORSDOF 5
ENDMDL
MODEL 7
REMARK VINA RESULT:      -8.4     17.918     19.807
REMARK  5 active torsions:
REMARK  status: ('A' for Active; 'I' for Inactive)
REMARK    1  A    between atoms: C_5  and  C_6 
REMARK    2  A    between atoms: C_13  and  C_14 
REMARK       I    between atoms: C_14  and  N_15 
REMARK    3  A    between atoms: N_15  and  C_16 
REMARK    4  A    between atoms: C_19  and  C_20 
REMARK    5  A    between atoms: C_23  and  N_24 
ROOT
HETATM    1  C   UNL     1      -6.812 -13.558 -37.368  1.00  0.00     0.262 C 
HETATM    2  N   UNL     1      -6.085 -14.697 -37.117  1.00  0.00    -0.301 N 
HETATM    3  O   UNL     1      -7.689 -13.074 -36.667  1.00  0.00    -0.267 OA
HETATM    4  H   UNL     1      -5.283 -14.923 -37.684  1.00  0.00     0.171 HD
ENDROOT
BRANCH   2   5
HETATM    5  C   UNL     1      -6.292 -15.487 -36.025  1.00  0.00     0.173 A 
HETATM    6  S   UNL     1      -7.178 -16.903 -36.374  1.00  0.00    -0.061 SA
HETATM    7  C   UNL     1      -7.065 -17.353 -34.722  1.00  0.00     0.085 A 
HETATM    8  C   UNL     1      -6.360 -16.393 -34.018  1.00  0.00     0.076 A 
HETATM    9  N   UNL     1      -5.937 -15.312 -34.780  1.00  0.00    -0.223 NA
BRANCH   8  10
HETATM   10  C   UNL     1      -6.094 -16.457 -32.583  1.00  0.00    -0.007 A 
HETATM   11  C   UNL     1      -5.222 -15.558 -31.949  1.00  0.00     0.016 A 
HETATM   12  C   UNL     1      -4.975 -15.648 -30.574  1.00  0.00     0.037 A 
HETATM   13  C   UNL     1      -5.606 -16.646 -29.821  1.00  0.00     0.102 A 
HETATM   14  C   UNL     1      -6.488 -17.544 -30.434  1.00  0.00     0.037 A 
HETATM   15  C   UNL     1      -6.730 -17.441 -31.808  1.00  0.00     0.016 A 
BRANCH  13  16
HETATM   16  N   UNL     1      -5.340 -16.748 -28.381  1.00  0.00    -0.116 N 
HETATM   17  O   UNL     1      -4.480 -15.996 -27.901  1.00  0.00    -0.532 OA
HETATM   18  O   UNL     1      -5.986 -17.583 -27.732  1.00  0.00    -0.532 OA
ENDBRANCH  13  16
ENDBRANCH   8  10
ENDBRANCH   2   5
BRANCH   1  19
HETATM   19  C   UNL     1      -6.393 -12.904 -38.594  1.00  0.00     0.095 A 
HETATM   20  C   UNL     1      -5.140 -12.405 -38.884  1.00  0.00     0.093 A 
HETATM   21  C   UNL     1      -3.849 -12.353 -38.169  1.00  0.00     0.080 C 
HETATM   22  O   UNL     1      -5.141 -11.893 -40.141  1.00  0.00    -0.217 OA
HETATM   23  N   UNL     1      -6.384 -12.061 -40.708  1.00  0.00    -0.127 NA
HETATM   24  C   UNL     1      -7.144 -12.672 -39.785  1.00  0.00     0.114 A 
BRANCH  24  25
HETATM   25  C   UNL     1      -8.536 -12.999 -40.080  1.00  0.00     0.018 A 
HETATM   26  C   UNL     1      -8.965 -14.296 -40.403  1.00  0.00     0.046 A 
HETATM   27 CL   UNL     1      -7.896 -15.659 -40.425  1.00  0.00    -0.083 Cl
HETATM   28  C   UNL     1     -10.316 -14.542 -40.675  1.00  0.00     0.025 A 
HETATM   29  C   UNL     1     -11.250 -13.506 -40.613  1.00  0.00     0.002 A 
HETATM   30  C   UNL     1     -10.837 -12.221 -40.274  1.00  0.00     0.001 A 
HETATM   31  C   UNL     1      -9.489 -11.968 -40.009  1.00  0.00     0.016 A 
ENDBRANCH  24  25
ENDBRANCH   1  19
TORSDOF 5
ENDMDL
MODEL 8
REMARK VINA RESULT:      -8.3      2.639      3.663
REMARK  5 active torsions:
REMARK  status: ('A' for Active; 'I' for Inactive)
REMARK    1  A    between atoms: C_5  and  C_6 
REMARK    2  A    between atoms: C_13  and  C_14 
REMARK       I    between atoms: C_14  and  N_15 
REMARK    3  A    between atoms: N_15  and  C_16 
REMARK    4  A    between atoms: C_19  and  C_20 
REMARK    5  A    between atoms: C_23  and  N_24 
ROOT
HETATM    1  C   UNL     1      -5.382   5.234 -33.130  1.00  0.00     0.262 C 
HETATM    2  N   UNL     1      -6.124   4.279 -32.475  1.00  0.00    -0.301 N 
HETATM    3  O   UNL     1      -4.948   5.176 -34.270  1.00  0.00    -0.267 OA
HETATM    4  H   UNL     1      -6.558   4.492 -31.591  1.00  0.00     0.171 HD
ENDROOT
BRANCH   2   5
HETATM    5  C   UNL     1      -6.447   3.077 -33.031  1.00  0.00     0.173 A 
HETATM    6  S   UNL     1      -7.967   3.077 -33.807  1.00  0.00    -0.061 SA
HETATM    7  C   UNL     1      -7.730   1.429 -34.223  1.00  0.00     0.085 A 
HETATM    8  C   UNL     1      -6.508   0.992 -33.741  1.00  0.00     0.076 A 
HETATM    9  N   UNL     1      -5.788   1.949 -33.038  1.00  0.00    -0.223 NA
BRANCH   8  10
HETATM   10  C   UNL     1      -6.000  -0.368 -33.906  1.00  0.00    -0.007 A 
HETATM   11  C   UNL     1      -6.686  -1.330 -34.663  1.00  0.00     0.016 A 
HETATM   12  C   UNL     1      -6.185  -2.629 -34.796  1.00  0.00     0.037 A 
HETATM   13  C   UNL     1      -4.982  -2.974 -34.167  1.00  0.00     0.102 A 
HETATM   14  C   UNL     1      -4.276  -2.025 -33.418  1.00  0.00     0.037 A 
HETATM   15  C   UNL     1      -4.787  -0.728 -33.296  1.00  0.00     0.016 A 
BRANCH  13  16
HETATM   16  N   UNL     1      -4.459  -4.340 -34.297  1.00  0.00    -0.116 N 
HETATM   17  O   UNL     1      -5.252  -5.229 -34.636  1.00  0.00    -0.532 OA
HETATM   18  O   UNL     1      -3.258  -4.524 -34.053  1.00  0.00    -0.532 OA
ENDBRANCH  13  16
ENDBRANCH   8  10
ENDBRANCH   2   5
BRANCH   1  19
HETATM   19  C   UNL     1      -5.181   6.419 -32.316  1.00  0.00     0.095 A 
HETATM   20  C   UNL     1      -6.134   7.345 -31.945  1.00  0.00     0.093 A 
HETATM   21  C   UNL     1      -7.586   7.491 -32.172  1.00  0.00     0.080 C 
HETATM   22  O   UNL     1      -5.558   8.293 -31.163  1.00  0.00    -0.217 OA
HETATM   23  N   UNL     1      -4.224   8.000 -30.988  1.00  0.00    -0.127 NA
HETATM   24  C   UNL     1      -3.989   6.871 -31.676  1.00  0.00     0.114 A 
BRANCH  24  25
HETATM   25  C   UNL     1      -2.651   6.288 -31.691  1.00  0.00     0.018 A 
HETATM   26  C   UNL     1      -1.816   6.316 -32.820  1.00  0.00     0.046 A 
HETATM   27 CL   UNL     1      -2.264   7.103 -34.297  1.00  0.00    -0.083 Cl
HETATM   28  C   UNL     1      -0.542   5.738 -32.768  1.00  0.00     0.025 A 
HETATM   29  C   UNL     1      -0.085   5.142 -31.591  1.00  0.00     0.002 A 
HETATM   30  C   UNL     1      -0.897   5.126 -30.461  1.00  0.00     0.001 A 
HETATM   31  C   UNL     1      -2.172   5.695 -30.509  1.00  0.00     0.016 A 
ENDBRANCH  24  25
ENDBRANCH   1  19
TORSDOF 5
ENDMDL
MODEL 9
REMARK VINA RESULT:      -8.3      2.444      3.003
REMARK  5 active torsions:
REMARK  status: ('A' for Active; 'I' for Inactive)
REMARK    1  A    between atoms: C_5  and  C_6 
REMARK    2  A    between atoms: C_13  and  C_14 
REMARK       I    between atoms: C_14  and  N_15 
REMARK    3  A    between atoms: N_15  and  C_16 
REMARK    4  A    between atoms: C_19  and  C_20 
REMARK    5  A    between atoms: C_23  and  N_24 
ROOT
HETATM    1  C   UNL     1      -3.905   4.657 -32.115  1.00  0.00     0.262 C 
HETATM    2  N   UNL     1      -4.464   3.553 -31.516  1.00  0.00    -0.301 N 
HETATM    3  O   UNL     1      -3.974   4.971 -33.294  1.00  0.00    -0.267 OA
HETATM    4  H   UNL     1      -4.473   3.469 -30.512  1.00  0.00     0.171 HD
ENDROOT
BRANCH   2   5
HETATM    5  C   UNL     1      -5.162   2.606 -32.206  1.00  0.00     0.173 A 
HETATM    6  S   UNL     1      -6.667   3.165 -32.785  1.00  0.00    -0.061 SA
HETATM    7  C   UNL     1      -6.952   1.618 -33.471  1.00  0.00     0.085 A 
HETATM    8  C   UNL     1      -5.880   0.782 -33.211  1.00  0.00     0.076 A 
HETATM    9  N   UNL     1      -4.864   1.361 -32.463  1.00  0.00    -0.223 NA
BRANCH   8  10
HETATM   10  C   UNL     1      -5.804  -0.612 -33.640  1.00  0.00    -0.007 A 
HETATM   11  C   UNL     1      -4.601  -1.335 -33.604  1.00  0.00     0.016 A 
HETATM   12  C   UNL     1      -4.552  -2.667 -34.032  1.00  0.00     0.037 A 
HETATM   13  C   UNL     1      -5.718  -3.287 -34.499  1.00  0.00     0.102 A 
HETATM   14  C   UNL     1      -6.929  -2.587 -34.530  1.00  0.00     0.037 A 
HETATM   15  C   UNL     1      -6.966  -1.256 -34.096  1.00  0.00     0.016 A 
BRANCH  13  16
HETATM   16  N   UNL     1      -5.666  -4.681 -34.957  1.00  0.00    -0.116 N 
HETATM   17  O   UNL     1      -6.522  -5.049 -35.775  1.00  0.00    -0.532 OA
HETATM   18  O   UNL     1      -4.776  -5.408 -34.496  1.00  0.00    -0.532 OA
ENDBRANCH  13  16
ENDBRANCH   8  10
ENDBRANCH   2   5
BRANCH   1  19
HETATM   19  C   UNL     1      -3.216   5.504 -31.158  1.00  0.00     0.095 A 
HETATM   20  C   UNL     1      -1.869   5.801 -31.130  1.00  0.00     0.093 A 
HETATM   21  C   UNL     1      -0.707   5.447 -31.969  1.00  0.00     0.080 C 
HETATM   22  O   UNL     1      -1.618   6.647 -30.097  1.00  0.00    -0.217 OA
HETATM   23  N   UNL     1      -2.793   6.937 -29.441  1.00  0.00    -0.127 NA
HETATM   24  C   UNL     1      -3.761   6.255 -30.075  1.00  0.00     0.114 A 
BRANCH  24  25
HETATM   25  C   UNL     1      -5.144   6.351 -29.619  1.00  0.00     0.018 A 
HETATM   26  C   UNL     1      -6.044   7.316 -30.100  1.00  0.00     0.046 A 
HETATM   27 CL   UNL     1      -5.623   8.456 -31.335  1.00  0.00    -0.083 Cl
HETATM   28  C   UNL     1      -7.359   7.354 -29.621  1.00  0.00     0.025 A 
HETATM   29  C   UNL     1      -7.791   6.425 -28.673  1.00  0.00     0.002 A 
HETATM   30  C   UNL     1      -6.914   5.452 -28.204  1.00  0.00     0.001 A 
HETATM   31  C   UNL     1      -5.598   5.415 -28.673  1.00  0.00     0.016 A 
ENDBRANCH  24  25
ENDBRANCH   1  19
TORSDOF 5
ENDMDL
MODEL 10
REMARK VINA RESULT:      -8.3      3.874      9.322
REMARK  5 active torsions:
REMARK  status: ('A' for Active; 'I' for Inactive)
REMARK    1  A    between atoms: C_5  and  C_6 
REMARK    2  A    between atoms: C_13  and  C_14 
REMARK       I    between atoms: C_14  and  N_15 
REMARK    3  A    between atoms: N_15  and  C_16 
REMARK    4  A    between atoms: C_19  and  C_20 
REMARK    5  A    between atoms: C_23  and  N_24 
ROOT
HETATM    1  C   UNL     1      -4.306   1.593 -31.673  1.00  0.00     0.262 C 
HETATM    2  N   UNL     1      -3.444   2.235 -32.530  1.00  0.00    -0.301 N 
HETATM    3  O   UNL     1      -4.734   2.012 -30.608  1.00  0.00    -0.267 OA
HETATM    4  H   UNL     1      -3.274   1.864 -33.452  1.00  0.00     0.171 HD
ENDROOT
BRANCH   2   5
HETATM    5  C   UNL     1      -2.902   3.457 -32.264  1.00  0.00     0.173 A 
HETATM    6  S   UNL     1      -3.239   4.622 -33.466  1.00  0.00    -0.061 SA
HETATM    7  C   UNL     1      -2.347   5.777 -32.564  1.00  0.00     0.085 A 
HETATM    8  C   UNL     1      -1.852   5.196 -31.410  1.00  0.00     0.076 A 
HETATM    9  N   UNL     1      -2.165   3.851 -31.260  1.00  0.00    -0.223 NA
BRANCH   8  10
HETATM   10  C   UNL     1      -1.034   5.897 -30.424  1.00  0.00    -0.007 A 
HETATM   11  C   UNL     1       0.017   5.260 -29.744  1.00  0.00     0.016 A 
HETATM   12  C   UNL     1       0.779   5.950 -28.795  1.00  0.00     0.037 A 
HETATM   13  C   UNL     1       0.492   7.293 -28.520  1.00  0.00     0.102 A 
HETATM   14  C   UNL     1      -0.543   7.948 -29.197  1.00  0.00     0.037 A 
HETATM   15  C   UNL     1      -1.296   7.248 -30.147  1.00  0.00     0.016 A 
BRANCH  13  16
HETATM   16  N   UNL     1       1.284   8.016 -27.518  1.00  0.00    -0.116 N 
HETATM   17  O   UNL     1       1.847   7.347 -26.639  1.00  0.00    -0.532 OA
HETATM   18  O   UNL     1       1.339   9.250 -27.605  1.00  0.00    -0.532 OA
ENDBRANCH  13  16
ENDBRANCH   8  10
ENDBRANCH   2   5
BRANCH   1  19
HETATM   19  C   UNL     1      -4.734   0.308 -32.193  1.00  0.00     0.095 A 
HETATM   20  C   UNL     1      -3.977  -0.841 -32.297  1.00  0.00     0.093 A 
HETATM   21  C   UNL     1      -2.592  -1.210 -31.945  1.00  0.00     0.080 C 
HETATM   22  O   UNL     1      -4.743  -1.838 -32.810  1.00  0.00    -0.217 OA
HETATM   23  N   UNL     1      -6.019  -1.372 -33.034  1.00  0.00    -0.127 NA
HETATM   24  C   UNL     1      -6.024  -0.082 -32.663  1.00  0.00     0.114 A 
BRANCH  24  25
HETATM   25  C   UNL     1      -7.245   0.709 -32.776  1.00  0.00     0.018 A 
HETATM   26  C   UNL     1      -7.769   1.137 -34.006  1.00  0.00     0.046 A 
HETATM   27 CL   UNL     1      -7.052   0.717 -35.526  1.00  0.00    -0.083 Cl
HETATM   28  C   UNL     1      -8.947   1.893 -34.045  1.00  0.00     0.025 A 
HETATM   29  C   UNL     1      -9.618   2.215 -32.864  1.00  0.00     0.002 A 
HETATM   30  C   UNL     1      -9.118   1.779 -31.641  1.00  0.00     0.001 A 
HETATM   31  C   UNL     1      -7.939   1.031 -31.596  1.00  0.00     0.016 A 
ENDBRANCH  24  25
ENDBRANCH   1  19
TORSDOF 5
ENDMDL
