MODEL 1
REMARK VINA RESULT:      -9.5      0.000      0.000
REMARK  6 active torsions:
REMARK  status: ('A' for Active; 'I' for Inactive)
REMARK    1  A    between atoms: C_4  and  C_5 
REMARK    2  A    between atoms: C_8  and  C_9 
REMARK    3  A    between atoms: C_9  and  N_10 
REMARK       I    between atoms: N_10  and  C_11 
REMARK       I    between atoms: C_11  and  N_12 
REMARK    4  A    between atoms: N_12  and  C_13 
REMARK    5  A    between atoms: C_15  and  C_16 
REMARK    6  A    between atoms: C_30  and  C_31 
ROOT
HETATM    1  C   UNL     1     -10.836   1.749 -33.084  1.00  0.00     0.068 C 
HETATM    2  C   UNL     1     -11.142   2.011 -34.591  1.00  0.00     0.001 C 
HETATM    3  C   UNL     1     -10.520   3.335 -35.094  1.00  0.00     0.040 C 
HETATM    4  C   UNL     1     -10.968   4.521 -34.224  1.00  0.00     0.206 C 
HETATM    5  N   UNL     1     -11.950   3.964 -33.195  1.00  0.00    -0.065 N 
HETATM    6  H   UNL     1     -12.245   4.770 -32.601  1.00  0.00     0.280 HD
HETATM    7  C   UNL     1     -11.328   2.950 -32.258  1.00  0.00     0.246 C 
HETATM    8  C   UNL     1     -12.678   2.179 -34.716  1.00  0.00     0.033 C 
HETATM    9  C   UNL     1     -13.157   3.375 -33.882  1.00  0.00     0.236 C 
ENDROOT
BRANCH   4  10
HETATM   10  C   UNL     1      -9.786   5.309 -33.592  1.00  0.00     0.157 C 
BRANCH  10  11
HETATM   11  N   UNL     1      -8.458   5.031 -34.142  1.00  0.00    -0.341 N 
HETATM   12  C   UNL     1      -7.296   5.102 -33.408  1.00  0.00     0.320 C 
HETATM   13  N   UNL     1      -6.212   4.659 -34.121  1.00  0.00    -0.309 N 
HETATM   14  O   UNL     1      -7.290   5.563 -32.272  1.00  0.00    -0.247 OA
HETATM   15  H   UNL     1      -6.366   4.445 -35.097  1.00  0.00     0.170 HD
HETATM   16  H   UNL     1      -8.441   4.341 -34.883  1.00  0.00     0.164 HD
BRANCH  13  17
HETATM   17  C   UNL     1      -4.873   4.561 -33.682  1.00  0.00     0.037 A 
HETATM   18  C   UNL     1      -3.878   5.488 -34.001  1.00  0.00     0.045 A 
HETATM   19  C   UNL     1      -2.561   5.329 -33.532  1.00  0.00     0.050 A 
HETATM   20  C   UNL     1      -2.251   4.219 -32.734  1.00  0.00     0.016 A 
HETATM   21  C   UNL     1      -3.239   3.295 -32.404  1.00  0.00     0.003 A 
HETATM   22  C   UNL     1      -4.543   3.467 -32.874  1.00  0.00     0.029 A 
BRANCH  19  23
HETATM   23  C   UNL     1      -1.485   6.318 -33.907  1.00  0.00     0.417 C 
HETATM   24  F   UNL     1      -0.757   5.934 -34.995  1.00  0.00    -0.166 F 
HETATM   25  F   UNL     1      -1.977   7.551 -34.205  1.00  0.00    -0.166 F 
HETATM   26  F   UNL     1      -0.582   6.502 -32.904  1.00  0.00    -0.166 F 
ENDBRANCH  19  23
ENDBRANCH  13  17
ENDBRANCH  10  11
ENDBRANCH   4  10
BRANCH   1  27
HETATM   27  C   UNL     1      -9.399   1.423 -32.728  1.00  0.00     0.045 A 
HETATM   28  N   UNL     1      -8.847   2.057 -31.680  1.00  0.00    -0.238 NA
HETATM   29  C   UNL     1      -7.580   1.735 -31.355  1.00  0.00     0.123 A 
HETATM   30  C   UNL     1      -6.926   2.483 -30.236  1.00  0.00     0.093 C 
HETATM   31  N   UNL     1      -6.871   0.770 -31.952  1.00  0.00    -0.233 NA
HETATM   32  C   UNL     1      -7.450   0.115 -32.979  1.00  0.00     0.077 A 
HETATM   33  C   UNL     1      -8.724   0.428 -33.415  1.00  0.00     0.060 A 
BRANCH  32  34
HETATM   34  C   UNL     1      -6.617  -0.962 -33.544  1.00  0.00     0.033 A 
HETATM   35  S   UNL     1      -4.913  -1.019 -33.304  1.00  0.00    -0.100 SA
HETATM   36  C   UNL     1      -4.743  -2.437 -34.238  1.00  0.00     0.050 A 
HETATM   37  C   UNL     1      -5.950  -2.876 -34.731  1.00  0.00     0.008 A 
HETATM   38  C   UNL     1      -7.023  -2.031 -34.330  1.00  0.00     0.021 A 
ENDBRANCH  32  34
ENDBRANCH   1  27
TORSDOF 6
ENDMDL
MODEL 2
REMARK VINA RESULT:      -9.4      2.946      5.783
REMARK  6 active torsions:
REMARK  status: ('A' for Active; 'I' for Inactive)
REMARK    1  A    between atoms: C_4  and  C_5 
REMARK    2  A    between atoms: C_8  and  C_9 
REMARK    3  A    between atoms: C_9  and  N_10 
REMARK       I    between atoms: N_10  and  C_11 
REMARK       I    between atoms: C_11  and  N_12 
REMARK    4  A    between atoms: N_12  and  C_13 
REMARK    5  A    between atoms: C_15  and  C_16 
REMARK    6  A    between atoms: C_30  and  C_31 
ROOT
HETATM    1  C   UNL     1      -8.133   0.191 -34.509  1.00  0.00     0.068 C 
HETATM    2  C   UNL     1      -7.905  -0.877 -33.395  1.00  0.00     0.001 C 
HETATM    3  C   UNL     1      -7.110  -0.311 -32.195  1.00  0.00     0.040 C 
HETATM    4  C   UNL     1      -5.777   0.301 -32.656  1.00  0.00     0.206 C 
HETATM    5  N   UNL     1      -5.680   0.059 -34.161  1.00  0.00    -0.065 N 
HETATM    6  H   UNL     1      -4.778   0.484 -34.471  1.00  0.00     0.280 HD
HETATM    7  C   UNL     1      -6.771   0.749 -34.952  1.00  0.00     0.246 C 
HETATM    8  C   UNL     1      -7.023  -1.992 -34.013  1.00  0.00     0.033 C 
HETATM    9  C   UNL     1      -5.670  -1.421 -34.458  1.00  0.00     0.236 C 
ENDROOT
BRANCH   4  10
HETATM   10  C   UNL     1      -5.608   1.793 -32.254  1.00  0.00     0.157 C 
BRANCH  10  11
HETATM   11  N   UNL     1      -4.364   2.439 -32.677  1.00  0.00    -0.341 N 
HETATM   12  C   UNL     1      -3.825   3.543 -32.056  1.00  0.00     0.320 C 
HETATM   13  N   UNL     1      -2.590   3.861 -32.560  1.00  0.00    -0.309 N 
HETATM   14  O   UNL     1      -4.448   4.154 -31.195  1.00  0.00    -0.247 OA
HETATM   15  H   UNL     1      -2.281   3.340 -33.369  1.00  0.00     0.170 HD
HETATM   16  H   UNL     1      -3.680   1.815 -33.086  1.00  0.00     0.164 HD
BRANCH  13  17
HETATM   17  C   UNL     1      -1.735   4.906 -32.146  1.00  0.00     0.037 A 
HETATM   18  C   UNL     1      -1.133   4.969 -30.888  1.00  0.00     0.045 A 
HETATM   19  C   UNL     1      -0.291   6.041 -30.538  1.00  0.00     0.050 A 
HETATM   20  C   UNL     1      -0.061   7.060 -31.474  1.00  0.00     0.016 A 
HETATM   21  C   UNL     1      -0.651   7.000 -32.734  1.00  0.00     0.003 A 
HETATM   22  C   UNL     1      -1.481   5.928 -33.069  1.00  0.00     0.029 A 
BRANCH  19  23
HETATM   23  C   UNL     1       0.331   6.118 -29.165  1.00  0.00     0.417 C 
HETATM   24  F   UNL     1       1.181   5.084 -28.902  1.00  0.00    -0.166 F 
HETATM   25  F   UNL     1       1.053   7.254 -28.972  1.00  0.00    -0.166 F 
HETATM   26  F   UNL     1      -0.604   6.089 -28.175  1.00  0.00    -0.166 F 
ENDBRANCH  19  23
ENDBRANCH  13  17
ENDBRANCH  10  11
ENDBRANCH   4  10
BRANCH   1  27
HETATM   27  C   UNL     1      -9.083   1.326 -34.180  1.00  0.00     0.045 A 
HETATM   28  N   UNL     1      -8.628   2.585 -34.299  1.00  0.00    -0.238 NA
HETATM   29  C   UNL     1      -9.490   3.585 -34.033  1.00  0.00     0.123 A 
HETATM   30  C   UNL     1      -8.981   4.991 -34.090  1.00  0.00     0.093 C 
HETATM   31  N   UNL     1     -10.785   3.408 -33.743  1.00  0.00    -0.233 NA
HETATM   32  C   UNL     1     -11.237   2.140 -33.664  1.00  0.00     0.077 A 
HETATM   33  C   UNL     1     -10.402   1.056 -33.861  1.00  0.00     0.060 A 
BRANCH  32  34
HETATM   34  C   UNL     1     -12.683   2.039 -33.389  1.00  0.00     0.033 A 
HETATM   35  S   UNL     1     -13.517   3.215 -32.449  1.00  0.00    -0.100 SA
HETATM   36  C   UNL     1     -15.005   2.391 -32.583  1.00  0.00     0.050 A 
HETATM   37  C   UNL     1     -14.890   1.241 -33.327  1.00  0.00     0.008 A 
HETATM   38  C   UNL     1     -13.559   1.041 -33.791  1.00  0.00     0.021 A 
ENDBRANCH  32  34
ENDBRANCH   1  27
TORSDOF 6
ENDMDL
MODEL 3
REMARK VINA RESULT:      -9.3      1.713      2.187
REMARK  6 active torsions:
REMARK  status: ('A' for Active; 'I' for Inactive)
REMARK    1  A    between atoms: C_4  and  C_5 
REMARK    2  A    between atoms: C_8  and  C_9 
REMARK    3  A    between atoms: C_9  and  N_10 
REMARK       I    between atoms: N_10  and  C_11 
REMARK       I    between atoms: C_11  and  N_12 
REMARK    4  A    between atoms: N_12  and  C_13 
REMARK    5  A    between atoms: C_15  and  C_16 
REMARK    6  A    between atoms: C_30  and  C_31 
ROOT
HETATM    1  C   UNL     1      -9.585   1.776 -33.076  1.00  0.00     0.068 C 
HETATM    2  C   UNL     1      -9.468   2.751 -34.288  1.00  0.00     0.001 C 
HETATM    3  C   UNL     1      -8.615   3.999 -33.956  1.00  0.00     0.040 C 
HETATM    4  C   UNL     1      -9.156   4.723 -32.713  1.00  0.00     0.206 C 
HETATM    5  N   UNL     1     -10.418   3.975 -32.284  1.00  0.00    -0.065 N 
HETATM    6  H   UNL     1     -10.777   4.465 -31.435  1.00  0.00     0.280 HD
HETATM    7  C   UNL     1     -10.156   2.543 -31.871  1.00  0.00     0.246 C 
HETATM    8  C   UNL     1     -10.898   3.271 -34.588  1.00  0.00     0.033 C 
HETATM    9  C   UNL     1     -11.459   4.028 -33.376  1.00  0.00     0.236 C 
ENDROOT
BRANCH   4  10
HETATM   10  C   UNL     1      -8.107   4.873 -31.577  1.00  0.00     0.157 C 
BRANCH  10  11
HETATM   11  N   UNL     1      -6.782   4.308 -31.841  1.00  0.00    -0.341 N 
HETATM   12  C   UNL     1      -5.707   5.049 -32.277  1.00  0.00     0.320 C 
HETATM   13  N   UNL     1      -4.555   4.306 -32.311  1.00  0.00    -0.309 N 
HETATM   14  O   UNL     1      -5.839   6.217 -32.623  1.00  0.00    -0.247 OA
HETATM   15  H   UNL     1      -4.645   3.317 -32.127  1.00  0.00     0.170 HD
HETATM   16  H   UNL     1      -6.535   3.516 -31.261  1.00  0.00     0.164 HD
BRANCH  13  17
HETATM   17  C   UNL     1      -3.261   4.741 -32.674  1.00  0.00     0.037 A 
HETATM   18  C   UNL     1      -2.227   4.962 -31.761  1.00  0.00     0.045 A 
HETATM   19  C   UNL     1      -0.960   5.398 -32.190  1.00  0.00     0.050 A 
HETATM   20  C   UNL     1      -0.741   5.613 -33.558  1.00  0.00     0.016 A 
HETATM   21  C   UNL     1      -1.763   5.386 -34.476  1.00  0.00     0.003 A 
HETATM   22  C   UNL     1      -3.015   4.950 -34.036  1.00  0.00     0.029 A 
BRANCH  19  23
HETATM   23  C   UNL     1       0.142   5.665 -31.193  1.00  0.00     0.417 C 
HETATM   24  F   UNL     1       1.172   4.775 -31.280  1.00  0.00    -0.166 F 
HETATM   25  F   UNL     1       0.700   6.897 -31.338  1.00  0.00    -0.166 F 
HETATM   26  F   UNL     1      -0.300   5.596 -29.907  1.00  0.00    -0.166 F 
ENDBRANCH  19  23
ENDBRANCH  13  17
ENDBRANCH  10  11
ENDBRANCH   4  10
BRANCH   1  27
HETATM   27  C   UNL     1      -8.326   1.034 -32.675  1.00  0.00     0.045 A 
HETATM   28  N   UNL     1      -7.786   1.306 -31.475  1.00  0.00    -0.238 NA
HETATM   29  C   UNL     1      -6.684   0.618 -31.119  1.00  0.00     0.123 A 
HETATM   30  C   UNL     1      -6.029   0.959 -29.818  1.00  0.00     0.093 C 
HETATM   31  N   UNL     1      -6.147  -0.373 -31.841  1.00  0.00    -0.233 NA
HETATM   32  C   UNL     1      -6.721  -0.661 -33.027  1.00  0.00     0.077 A 
HETATM   33  C   UNL     1      -7.817   0.040 -33.494  1.00  0.00     0.060 A 
BRANCH  32  34
HETATM   34  C   UNL     1      -6.096  -1.796 -33.731  1.00  0.00     0.033 A 
HETATM   35  S   UNL     1      -4.398  -2.076 -33.683  1.00  0.00    -0.100 SA
HETATM   36  C   UNL     1      -4.509  -3.445 -34.696  1.00  0.00     0.050 A 
HETATM   37  C   UNL     1      -5.806  -3.701 -35.073  1.00  0.00     0.008 A 
HETATM   38  C   UNL     1      -6.715  -2.757 -34.517  1.00  0.00     0.021 A 
ENDBRANCH  32  34
ENDBRANCH   1  27
TORSDOF 6
ENDMDL
MODEL 4
REMARK VINA RESULT:      -9.2      3.088      5.515
REMARK  6 active torsions:
REMARK  status: ('A' for Active; 'I' for Inactive)
REMARK    1  A    between atoms: C_4  and  C_5 
REMARK    2  A    between atoms: C_8  and  C_9 
REMARK    3  A    between atoms: C_9  and  N_10 
REMARK       I    between atoms: N_10  and  C_11 
REMARK       I    between atoms: C_11  and  N_12 
REMARK    4  A    between atoms: N_12  and  C_13 
REMARK    5  A    between atoms: C_15  and  C_16 
REMARK    6  A    between atoms: C_30  and  C_31 
ROOT
HETATM    1  C   UNL     1      -8.947   4.571 -31.125  1.00  0.00     0.068 C 
HETATM    2  C   UNL     1     -10.144   3.618 -30.819  1.00  0.00     0.001 C 
HETATM    3  C   UNL     1     -10.421   2.634 -31.979  1.00  0.00     0.040 C 
HETATM    4  C   UNL     1     -10.636   3.386 -33.303  1.00  0.00     0.206 C 
HETATM    5  N   UNL     1     -10.572   4.877 -32.975  1.00  0.00    -0.065 N 
HETATM    6  H   UNL     1     -10.710   5.384 -33.877  1.00  0.00     0.280 HD
HETATM    7  C   UNL     1      -9.226   5.317 -32.440  1.00  0.00     0.246 C 
HETATM    8  C   UNL     1     -11.408   4.508 -30.695  1.00  0.00     0.033 C 
HETATM    9  C   UNL     1     -11.670   5.253 -32.011  1.00  0.00     0.236 C 
ENDROOT
BRANCH   4  10
HETATM   10  C   UNL     1      -9.655   2.954 -34.428  1.00  0.00     0.157 C 
BRANCH  10  11
HETATM   11  N   UNL     1      -9.271   1.541 -34.444  1.00  0.00    -0.341 N 
HETATM   12  C   UNL     1      -7.971   1.100 -34.344  1.00  0.00     0.320 C 
HETATM   13  N   UNL     1      -7.901  -0.265 -34.243  1.00  0.00    -0.309 N 
HETATM   14  O   UNL     1      -7.030   1.883 -34.394  1.00  0.00    -0.247 OA
HETATM   15  H   UNL     1      -8.766  -0.775 -34.361  1.00  0.00     0.170 HD
HETATM   16  H   UNL     1      -9.957   0.911 -34.048  1.00  0.00     0.164 HD
BRANCH  13  17
HETATM   17  C   UNL     1      -6.743  -1.060 -34.096  1.00  0.00     0.037 A 
HETATM   18  C   UNL     1      -5.679  -0.737 -33.250  1.00  0.00     0.045 A 
HETATM   19  C   UNL     1      -4.551  -1.573 -33.151  1.00  0.00     0.050 A 
HETATM   20  C   UNL     1      -4.501  -2.744 -33.920  1.00  0.00     0.016 A 
HETATM   21  C   UNL     1      -5.562  -3.078 -34.759  1.00  0.00     0.003 A 
HETATM   22  C   UNL     1      -6.677  -2.241 -34.844  1.00  0.00     0.029 A 
BRANCH  19  23
HETATM   23  C   UNL     1      -3.391  -1.201 -32.259  1.00  0.00     0.417 C 
HETATM   24  F   UNL     1      -3.781  -0.683 -31.060  1.00  0.00    -0.166 F 
HETATM   25  F   UNL     1      -2.588  -2.258 -31.966  1.00  0.00    -0.166 F 
HETATM   26  F   UNL     1      -2.588  -0.258 -32.826  1.00  0.00    -0.166 F 
ENDBRANCH  19  23
ENDBRANCH  13  17
ENDBRANCH  10  11
ENDBRANCH   4  10
BRANCH   1  27
HETATM   27  C   UNL     1      -7.568   3.941 -31.162  1.00  0.00     0.045 A 
HETATM   28  N   UNL     1      -7.380   2.792 -30.490  1.00  0.00    -0.238 NA
HETATM   29  C   UNL     1      -6.159   2.227 -30.556  1.00  0.00     0.123 A 
HETATM   30  C   UNL     1      -5.911   0.986 -29.757  1.00  0.00     0.093 C 
HETATM   31  N   UNL     1      -5.155   2.687 -31.311  1.00  0.00    -0.233 NA
HETATM   32  C   UNL     1      -5.369   3.821 -32.009  1.00  0.00     0.077 A 
HETATM   33  C   UNL     1      -6.573   4.497 -31.947  1.00  0.00     0.060 A 
BRANCH  32  34
HETATM   34  C   UNL     1      -4.228   4.227 -32.850  1.00  0.00     0.033 A 
HETATM   35  S   UNL     1      -4.442   5.098 -34.320  1.00  0.00    -0.100 SA
HETATM   36  C   UNL     1      -2.767   5.128 -34.646  1.00  0.00     0.050 A 
HETATM   37  C   UNL     1      -2.042   4.494 -33.665  1.00  0.00     0.008 A 
HETATM   38  C   UNL     1      -2.880   3.980 -32.635  1.00  0.00     0.021 A 
ENDBRANCH  32  34
ENDBRANCH   1  27
TORSDOF 6
ENDMDL
MODEL 5
REMARK VINA RESULT:      -8.9      6.139     10.275
REMARK  6 active torsions:
REMARK  status: ('A' for Active; 'I' for Inactive)
REMARK    1  A    between atoms: C_4  and  C_5 
REMARK    2  A    between atoms: C_8  and  C_9 
REMARK    3  A    between atoms: C_9  and  N_10 
REMARK       I    between atoms: N_10  and  C_11 
REMARK       I    between atoms: C_11  and  N_12 
REMARK    4  A    between atoms: N_12  and  C_13 
REMARK    5  A    between atoms: C_15  and  C_16 
REMARK    6  A    between atoms: C_30  and  C_31 
ROOT
HETATM    1  C   UNL     1      -0.740   6.970 -31.010  1.00  0.00     0.068 C 
HETATM    2  C   UNL     1      -1.682   7.602 -32.081  1.00  0.00     0.001 C 
HETATM    3  C   UNL     1      -3.127   7.059 -31.984  1.00  0.00     0.040 C 
HETATM    4  C   UNL     1      -3.147   5.524 -32.065  1.00  0.00     0.206 C 
HETATM    5  N   UNL     1      -1.704   5.078 -32.293  1.00  0.00    -0.065 N 
HETATM    6  H   UNL     1      -1.720   4.035 -32.340  1.00  0.00     0.280 HD
HETATM    7  C   UNL     1      -0.775   5.439 -31.154  1.00  0.00     0.246 C 
HETATM    8  C   UNL     1      -1.146   7.162 -33.468  1.00  0.00     0.033 C 
HETATM    9  C   UNL     1      -1.180   5.633 -33.596  1.00  0.00     0.236 C 
ENDROOT
BRANCH   4  10
HETATM   10  C   UNL     1      -3.820   4.846 -30.839  1.00  0.00     0.157 C 
BRANCH  10  11
HETATM   11  N   UNL     1      -4.569   3.617 -31.110  1.00  0.00    -0.341 N 
HETATM   12  C   UNL     1      -4.021   2.501 -31.700  1.00  0.00     0.320 C 
HETATM   13  N   UNL     1      -4.896   1.446 -31.710  1.00  0.00    -0.309 N 
HETATM   14  O   UNL     1      -2.895   2.527 -32.184  1.00  0.00    -0.247 OA
HETATM   15  H   UNL     1      -5.839   1.634 -31.398  1.00  0.00     0.170 HD
HETATM   16  H   UNL     1      -5.311   3.418 -30.450  1.00  0.00     0.164 HD
BRANCH  13  17
HETATM   17  C   UNL     1      -4.668   0.142 -32.204  1.00  0.00     0.037 A 
HETATM   18  C   UNL     1      -5.404  -0.440 -33.238  1.00  0.00     0.045 A 
HETATM   19  C   UNL     1      -5.126  -1.746 -33.681  1.00  0.00     0.050 A 
HETATM   20  C   UNL     1      -4.093  -2.468 -33.067  1.00  0.00     0.016 A 
HETATM   21  C   UNL     1      -3.348  -1.892 -32.041  1.00  0.00     0.003 A 
HETATM   22  C   UNL     1      -3.633  -0.593 -31.614  1.00  0.00     0.029 A 
BRANCH  19  23
HETATM   23  C   UNL     1      -5.948  -2.379 -34.778  1.00  0.00     0.417 C 
HETATM   24  F   UNL     1      -5.193  -3.047 -35.697  1.00  0.00    -0.166 F 
HETATM   25  F   UNL     1      -6.851  -3.282 -34.310  1.00  0.00    -0.166 F 
HETATM   26  F   UNL     1      -6.661  -1.459 -35.483  1.00  0.00    -0.166 F 
ENDBRANCH  19  23
ENDBRANCH  13  17
ENDBRANCH  10  11
ENDBRANCH   4  10
BRANCH   1  27
HETATM   27  C   UNL     1      -0.987   7.367 -29.567  1.00  0.00     0.045 A 
HETATM   28  N   UNL     1      -2.194   7.104 -29.037  1.00  0.00    -0.238 NA
HETATM   29  C   UNL     1      -2.390   7.434 -27.746  1.00  0.00     0.123 A 
HETATM   30  C   UNL     1      -3.750   7.215 -27.160  1.00  0.00     0.093 C 
HETATM   31  N   UNL     1      -1.441   7.923 -26.940  1.00  0.00    -0.233 NA
HETATM   32  C   UNL     1      -0.223   8.147 -27.475  1.00  0.00     0.077 A 
HETATM   33  C   UNL     1       0.043   7.895 -28.808  1.00  0.00     0.060 A 
BRANCH  32  34
HETATM   34  C   UNL     1       0.773   8.639 -26.505  1.00  0.00     0.033 A 
HETATM   35  S   UNL     1       0.583  10.141 -25.685  1.00  0.00    -0.100 SA
HETATM   36  C   UNL     1       2.064   9.973 -24.855  1.00  0.00     0.050 A 
HETATM   37  C   UNL     1       2.705   8.801 -25.181  1.00  0.00     0.008 A 
HETATM   38  C   UNL     1       1.963   8.037 -26.125  1.00  0.00     0.021 A 
ENDBRANCH  32  34
ENDBRANCH   1  27
TORSDOF 6
ENDMDL
MODEL 6
REMARK VINA RESULT:      -8.9      5.690      9.761
REMARK  6 active torsions:
REMARK  status: ('A' for Active; 'I' for Inactive)
REMARK    1  A    between atoms: C_4  and  C_5 
REMARK    2  A    between atoms: C_8  and  C_9 
REMARK    3  A    between atoms: C_9  and  N_10 
REMARK       I    between atoms: N_10  and  C_11 
REMARK       I    between atoms: C_11  and  N_12 
REMARK    4  A    between atoms: N_12  and  C_13 
REMARK    5  A    between atoms: C_15  and  C_16 
REMARK    6  A    between atoms: C_30  and  C_31 
ROOT
HETATM    1  C   UNL     1      -3.153   6.728 -31.559  1.00  0.00     0.068 C 
HETATM    2  C   UNL     1      -4.531   6.608 -30.838  1.00  0.00     0.001 C 
HETATM    3  C   UNL     1      -4.798   5.175 -30.318  1.00  0.00     0.040 C 
HETATM    4  C   UNL     1      -4.674   4.144 -31.452  1.00  0.00     0.206 C 
HETATM    5  N   UNL     1      -4.399   4.931 -32.732  1.00  0.00    -0.065 N 
HETATM    6  H   UNL     1      -4.308   4.228 -33.498  1.00  0.00     0.280 HD
HETATM    7  C   UNL     1      -3.094   5.697 -32.699  1.00  0.00     0.246 C 
HETATM    8  C   UNL     1      -5.622   6.893 -31.901  1.00  0.00     0.033 C 
HETATM    9  C   UNL     1      -5.548   5.862 -33.036  1.00  0.00     0.236 C 
ENDROOT
BRANCH   4  10
HETATM   10  C   UNL     1      -3.626   3.033 -31.169  1.00  0.00     0.157 C 
BRANCH  10  11
HETATM   11  N   UNL     1      -3.508   1.982 -32.182  1.00  0.00    -0.341 N 
HETATM   12  C   UNL     1      -4.332   0.881 -32.242  1.00  0.00     0.320 C 
HETATM   13  N   UNL     1      -4.099   0.129 -33.364  1.00  0.00    -0.309 N 
HETATM   14  O   UNL     1      -5.126   0.633 -31.342  1.00  0.00    -0.247 OA
HETATM   15  H   UNL     1      -3.309   0.396 -33.935  1.00  0.00     0.170 HD
HETATM   16  H   UNL     1      -3.166   2.297 -33.081  1.00  0.00     0.164 HD
BRANCH  13  17
HETATM   17  C   UNL     1      -4.771  -1.046 -33.769  1.00  0.00     0.037 A 
HETATM   18  C   UNL     1      -4.194  -2.317 -33.758  1.00  0.00     0.045 A 
HETATM   19  C   UNL     1      -4.920  -3.448 -34.177  1.00  0.00     0.050 A 
HETATM   20  C   UNL     1      -6.242  -3.285 -34.613  1.00  0.00     0.016 A 
HETATM   21  C   UNL     1      -6.828  -2.021 -34.619  1.00  0.00     0.003 A 
HETATM   22  C   UNL     1      -6.097  -0.909 -34.197  1.00  0.00     0.029 A 
BRANCH  19  23
HETATM   23  C   UNL     1      -4.279  -4.814 -34.192  1.00  0.00     0.417 C 
HETATM   24  F   UNL     1      -4.381  -5.469 -33.000  1.00  0.00    -0.166 F 
HETATM   25  F   UNL     1      -4.822  -5.645 -35.121  1.00  0.00    -0.166 F 
HETATM   26  F   UNL     1      -2.947  -4.754 -34.469  1.00  0.00    -0.166 F 
ENDBRANCH  19  23
ENDBRANCH  13  17
ENDBRANCH  10  11
ENDBRANCH   4  10
BRANCH   1  27
HETATM   27  C   UNL     1      -1.917   6.617 -30.688  1.00  0.00     0.045 A 
HETATM   28  N   UNL     1      -0.997   5.692 -31.010  1.00  0.00    -0.238 NA
HETATM   29  C   UNL     1       0.110   5.625 -30.246  1.00  0.00     0.123 A 
HETATM   30  C   UNL     1       1.111   4.553 -30.547  1.00  0.00     0.093 C 
HETATM   31  N   UNL     1       0.391   6.470 -29.248  1.00  0.00    -0.233 NA
HETATM   32  C   UNL     1      -0.524   7.418 -28.958  1.00  0.00     0.077 A 
HETATM   33  C   UNL     1      -1.715   7.515 -29.653  1.00  0.00     0.060 A 
BRANCH  32  34
HETATM   34  C   UNL     1      -0.112   8.334 -27.879  1.00  0.00     0.033 A 
HETATM   35  S   UNL     1      -1.207   8.856 -26.657  1.00  0.00    -0.100 SA
HETATM   36  C   UNL     1      -0.031   9.834 -25.901  1.00  0.00     0.050 A 
HETATM   37  C   UNL     1       1.179   9.777 -26.550  1.00  0.00     0.008 A 
HETATM   38  C   UNL     1       1.132   8.915 -27.682  1.00  0.00     0.021 A 
ENDBRANCH  32  34
ENDBRANCH   1  27
TORSDOF 6
ENDMDL
MODEL 7
REMARK VINA RESULT:      -8.8      2.885      5.614
REMARK  6 active torsions:
REMARK  status: ('A' for Active; 'I' for Inactive)
REMARK    1  A    between atoms: C_4  and  C_5 
REMARK    2  A    between atoms: C_8  and  C_9 
REMARK    3  A    between atoms: C_9  and  N_10 
REMARK       I    between atoms: N_10  and  C_11 
REMARK       I    between atoms: C_11  and  N_12 
REMARK    4  A    between atoms: N_12  and  C_13 
REMARK    5  A    between atoms: C_15  and  C_16 
REMARK    6  A    between atoms: C_30  and  C_31 
ROOT
HETATM    1  C   UNL     1      -7.929   0.553 -34.435  1.00  0.00     0.068 C 
HETATM    2  C   UNL     1      -7.808  -0.703 -33.518  1.00  0.00     0.001 C 
HETATM    3  C   UNL     1      -7.355  -0.341 -32.084  1.00  0.00     0.040 C 
HETATM    4  C   UNL     1      -6.041   0.458 -32.105  1.00  0.00     0.206 C 
HETATM    5  N   UNL     1      -5.604   0.545 -33.567  1.00  0.00    -0.065 N 
HETATM    6  H   UNL     1      -4.717   1.095 -33.578  1.00  0.00     0.280 HD
HETATM    7  C   UNL     1      -6.583   1.297 -34.443  1.00  0.00     0.246 C 
HETATM    8  C   UNL     1      -6.686  -1.591 -34.116  1.00  0.00     0.033 C 
HETATM    9  C   UNL     1      -5.350  -0.834 -34.125  1.00  0.00     0.236 C 
ENDROOT
BRANCH   4  10
HETATM   10  C   UNL     1      -6.144   1.841 -31.404  1.00  0.00     0.157 C 
BRANCH  10  11
HETATM   11  N   UNL     1      -4.877   2.482 -31.049  1.00  0.00    -0.341 N 
HETATM   12  C   UNL     1      -4.415   3.641 -31.630  1.00  0.00     0.320 C 
HETATM   13  N   UNL     1      -3.277   4.101 -31.020  1.00  0.00    -0.309 N 
HETATM   14  O   UNL     1      -4.975   4.128 -32.606  1.00  0.00    -0.247 OA
HETATM   15  H   UNL     1      -2.864   3.503 -30.317  1.00  0.00     0.170 HD
HETATM   16  H   UNL     1      -4.595   2.358 -30.084  1.00  0.00     0.164 HD
BRANCH  13  17
HETATM   17  C   UNL     1      -2.548   5.271 -31.327  1.00  0.00     0.037 A 
HETATM   18  C   UNL     1      -2.737   6.498 -30.687  1.00  0.00     0.045 A 
HETATM   19  C   UNL     1      -1.978   7.628 -31.043  1.00  0.00     0.050 A 
HETATM   20  C   UNL     1      -1.020   7.511 -32.060  1.00  0.00     0.016 A 
HETATM   21  C   UNL     1      -0.819   6.289 -32.697  1.00  0.00     0.003 A 
HETATM   22  C   UNL     1      -1.577   5.176 -32.331  1.00  0.00     0.029 A 
BRANCH  19  23
HETATM   23  C   UNL     1      -2.210   8.958 -30.369  1.00  0.00     0.417 C 
HETATM   24  F   UNL     1      -1.350   9.195 -29.338  1.00  0.00    -0.166 F 
HETATM   25  F   UNL     1      -2.076  10.013 -31.217  1.00  0.00    -0.166 F 
HETATM   26  F   UNL     1      -3.460   9.054 -29.837  1.00  0.00    -0.166 F 
ENDBRANCH  19  23
ENDBRANCH  13  17
ENDBRANCH  10  11
ENDBRANCH   4  10
BRANCH   1  27
HETATM   27  C   UNL     1      -9.058   1.516 -34.125  1.00  0.00     0.045 A 
HETATM   28  N   UNL     1      -8.770   2.827 -34.055  1.00  0.00    -0.238 NA
HETATM   29  C   UNL     1      -9.788   3.674 -33.810  1.00  0.00     0.123 A 
HETATM   30  C   UNL     1      -9.474   5.129 -33.656  1.00  0.00     0.093 C 
HETATM   31  N   UNL     1     -11.071   3.305 -33.717  1.00  0.00    -0.233 NA
HETATM   32  C   UNL     1     -11.351   1.990 -33.827  1.00  0.00     0.077 A 
HETATM   33  C   UNL     1     -10.357   1.049 -34.017  1.00  0.00     0.060 A 
BRANCH  32  34
HETATM   34  C   UNL     1     -12.791   1.680 -33.763  1.00  0.00     0.033 A 
HETATM   35  S   UNL     1     -13.875   2.582 -32.775  1.00  0.00    -0.100 SA
HETATM   36  C   UNL     1     -15.215   1.625 -33.224  1.00  0.00     0.050 A 
HETATM   37  C   UNL     1     -14.864   0.634 -34.110  1.00  0.00     0.008 A 
HETATM   38  C   UNL     1     -13.475   0.668 -34.420  1.00  0.00     0.021 A 
ENDBRANCH  32  34
ENDBRANCH   1  27
TORSDOF 6
ENDMDL
MODEL 8
REMARK VINA RESULT:      -8.7      4.212      6.444
REMARK  6 active torsions:
REMARK  status: ('A' for Active; 'I' for Inactive)
REMARK    1  A    between atoms: C_4  and  C_5 
REMARK    2  A    between atoms: C_8  and  C_9 
REMARK    3  A    between atoms: C_9  and  N_10 
REMARK       I    between atoms: N_10  and  C_11 
REMARK       I    between atoms: C_11  and  N_12 
REMARK    4  A    between atoms: N_12  and  C_13 
REMARK    5  A    between atoms: C_15  and  C_16 
REMARK    6  A    between atoms: C_30  and  C_31 
ROOT
HETATM    1  C   UNL     1      -8.912   4.560 -30.605  1.00  0.00     0.068 C 
HETATM    2  C   UNL     1     -10.122   3.575 -30.636  1.00  0.00     0.001 C 
HETATM    3  C   UNL     1     -10.250   2.847 -31.995  1.00  0.00     0.040 C 
HETATM    4  C   UNL     1     -10.323   3.853 -33.156  1.00  0.00     0.206 C 
HETATM    5  N   UNL     1     -10.319   5.246 -32.529  1.00  0.00    -0.065 N 
HETATM    6  H   UNL     1     -10.361   5.927 -33.321  1.00  0.00     0.280 HD
HETATM    7  C   UNL     1      -9.050   5.559 -31.766  1.00  0.00     0.246 C 
HETATM    8  C   UNL     1     -11.404   4.433 -30.482  1.00  0.00     0.033 C 
HETATM    9  C   UNL     1     -11.526   5.430 -31.642  1.00  0.00     0.236 C 
ENDROOT
BRANCH   4  10
HETATM   10  C   UNL     1      -9.214   3.649 -34.225  1.00  0.00     0.157 C 
BRANCH  10  11
HETATM   11  N   UNL     1      -8.916   2.263 -34.590  1.00  0.00    -0.341 N 
HETATM   12  C   UNL     1      -7.736   1.626 -34.280  1.00  0.00     0.320 C 
HETATM   13  N   UNL     1      -7.769   0.297 -34.612  1.00  0.00    -0.309 N 
HETATM   14  O   UNL     1      -6.787   2.243 -33.807  1.00  0.00    -0.247 OA
HETATM   15  H   UNL     1      -8.579  -0.024 -35.125  1.00  0.00     0.170 HD
HETATM   16  H   UNL     1      -9.722   1.651 -34.628  1.00  0.00     0.164 HD
BRANCH  13  17
HETATM   17  C   UNL     1      -6.756  -0.667 -34.412  1.00  0.00     0.037 A 
HETATM   18  C   UNL     1      -6.888  -2.017 -34.741  1.00  0.00     0.045 A 
HETATM   19  C   UNL     1      -5.838  -2.927 -34.514  1.00  0.00     0.050 A 
HETATM   20  C   UNL     1      -4.645  -2.461 -33.944  1.00  0.00     0.016 A 
HETATM   21  C   UNL     1      -4.502  -1.114 -33.620  1.00  0.00     0.003 A 
HETATM   22  C   UNL     1      -5.550  -0.222 -33.855  1.00  0.00     0.029 A 
BRANCH  19  23
HETATM   23  C   UNL     1      -6.001  -4.391 -34.843  1.00  0.00     0.417 C 
HETATM   24  F   UNL     1      -5.989  -4.644 -36.183  1.00  0.00    -0.166 F 
HETATM   25  F   UNL     1      -5.021  -5.167 -34.308  1.00  0.00    -0.166 F 
HETATM   26  F   UNL     1      -7.179  -4.894 -34.382  1.00  0.00    -0.166 F 
ENDBRANCH  19  23
ENDBRANCH  13  17
ENDBRANCH  10  11
ENDBRANCH   4  10
BRANCH   1  27
HETATM   27  C   UNL     1      -7.529   3.938 -30.609  1.00  0.00     0.045 A 
HETATM   28  N   UNL     1      -7.409   2.660 -30.212  1.00  0.00    -0.238 NA
HETATM   29  C   UNL     1      -6.180   2.111 -30.250  1.00  0.00     0.123 A 
HETATM   30  C   UNL     1      -6.015   0.712 -29.743  1.00  0.00     0.093 C 
HETATM   31  N   UNL     1      -5.094   2.725 -30.735  1.00  0.00    -0.233 NA
HETATM   32  C   UNL     1      -5.236   3.995 -31.165  1.00  0.00     0.077 A 
HETATM   33  C   UNL     1      -6.450   4.653 -31.102  1.00  0.00     0.060 A 
BRANCH  32  34
HETATM   34  C   UNL     1      -4.002   4.575 -31.727  1.00  0.00     0.033 A 
HETATM   35  S   UNL     1      -2.900   3.642 -32.664  1.00  0.00    -0.100 SA
HETATM   36  C   UNL     1      -1.830   4.956 -32.869  1.00  0.00     0.050 A 
HETATM   37  C   UNL     1      -2.286   6.092 -32.245  1.00  0.00     0.008 A 
HETATM   38  C   UNL     1      -3.532   5.873 -31.592  1.00  0.00     0.021 A 
ENDBRANCH  32  34
ENDBRANCH   1  27
TORSDOF 6
ENDMDL
MODEL 9
REMARK VINA RESULT:      -8.6      5.368      9.040
REMARK  6 active torsions:
REMARK  status: ('A' for Active; 'I' for Inactive)
REMARK    1  A    between atoms: C_4  and  C_5 
REMARK    2  A    between atoms: C_8  and  C_9 
REMARK    3  A    between atoms: C_9  and  N_10 
REMARK       I    between atoms: N_10  and  C_11 
REMARK       I    between atoms: C_11  and  N_12 
REMARK    4  A    between atoms: N_12  and  C_13 
REMARK    5  A    between atoms: C_15  and  C_16 
REMARK    6  A    between atoms: C_30  and  C_31 
ROOT
HETATM    1  C   UNL     1      -4.689   7.355 -29.875  1.00  0.00     0.068 C 
HETATM    2  C   UNL     1      -5.406   7.340 -28.490  1.00  0.00     0.001 C 
HETATM    3  C   UNL     1      -5.597   5.905 -27.944  1.00  0.00     0.040 C 
HETATM    4  C   UNL     1      -6.338   5.021 -28.961  1.00  0.00     0.206 C 
HETATM    5  N   UNL     1      -6.695   5.919 -30.144  1.00  0.00    -0.065 N 
HETATM    6  H   UNL     1      -7.191   5.314 -30.836  1.00  0.00     0.280 HD
HETATM    7  C   UNL     1      -5.485   6.481 -30.859  1.00  0.00     0.246 C 
HETATM    8  C   UNL     1      -6.830   7.912 -28.713  1.00  0.00     0.033 C 
HETATM    9  C   UNL     1      -7.611   7.035 -29.702  1.00  0.00     0.236 C 
ENDROOT
BRANCH   4  10
HETATM   10  C   UNL     1      -5.549   3.745 -29.365  1.00  0.00     0.157 C 
BRANCH  10  11
HETATM   11  N   UNL     1      -6.337   2.652 -29.939  1.00  0.00    -0.341 N 
HETATM   12  C   UNL     1      -6.234   2.239 -31.247  1.00  0.00     0.320 C 
HETATM   13  N   UNL     1      -6.976   1.112 -31.487  1.00  0.00    -0.309 N 
HETATM   14  O   UNL     1      -5.577   2.874 -32.064  1.00  0.00    -0.247 OA
HETATM   15  H   UNL     1      -7.576   0.793 -30.738  1.00  0.00     0.170 HD
HETATM   16  H   UNL     1      -6.580   1.917 -29.286  1.00  0.00     0.164 HD
BRANCH  13  17
HETATM   17  C   UNL     1      -7.085   0.394 -32.699  1.00  0.00     0.037 A 
HETATM   18  C   UNL     1      -6.409  -0.800 -32.961  1.00  0.00     0.045 A 
HETATM   19  C   UNL     1      -6.559  -1.465 -34.192  1.00  0.00     0.050 A 
HETATM   20  C   UNL     1      -7.402  -0.911 -35.166  1.00  0.00     0.016 A 
HETATM   21  C   UNL     1      -8.087   0.274 -34.910  1.00  0.00     0.003 A 
HETATM   22  C   UNL     1      -7.930   0.921 -33.682  1.00  0.00     0.029 A 
BRANCH  19  23
HETATM   23  C   UNL     1      -5.800  -2.737 -34.480  1.00  0.00     0.417 C 
HETATM   24  F   UNL     1      -4.781  -2.964 -33.603  1.00  0.00    -0.166 F 
HETATM   25  F   UNL     1      -6.587  -3.846 -34.432  1.00  0.00    -0.166 F 
HETATM   26  F   UNL     1      -5.230  -2.728 -35.716  1.00  0.00    -0.166 F 
ENDBRANCH  19  23
ENDBRANCH  13  17
ENDBRANCH  10  11
ENDBRANCH   4  10
BRANCH   1  27
HETATM   27  C   UNL     1      -3.225   6.959 -29.888  1.00  0.00     0.045 A 
HETATM   28  N   UNL     1      -2.761   6.291 -30.958  1.00  0.00    -0.238 NA
HETATM   29  C   UNL     1      -1.452   5.973 -30.971  1.00  0.00     0.123 A 
HETATM   30  C   UNL     1      -0.933   5.167 -32.121  1.00  0.00     0.093 C 
HETATM   31  N   UNL     1      -0.575   6.350 -30.034  1.00  0.00    -0.233 NA
HETATM   32  C   UNL     1      -1.047   7.051 -28.984  1.00  0.00     0.077 A 
HETATM   33  C   UNL     1      -2.388   7.365 -28.863  1.00  0.00     0.060 A 
BRANCH  32  34
HETATM   34  C   UNL     1      -0.005   7.466 -28.027  1.00  0.00     0.033 A 
HETATM   35  S   UNL     1      -0.014   6.946 -26.385  1.00  0.00    -0.100 SA
HETATM   36  C   UNL     1       1.393   7.835 -26.007  1.00  0.00     0.050 A 
HETATM   37  C   UNL     1       1.876   8.520 -27.097  1.00  0.00     0.008 A 
HETATM   38  C   UNL     1       1.075   8.306 -28.254  1.00  0.00     0.021 A 
ENDBRANCH  32  34
ENDBRANCH   1  27
TORSDOF 6
ENDMDL
MODEL 10
REMARK VINA RESULT:      -8.4      5.583      9.774
REMARK  6 active torsions:
REMARK  status: ('A' for Active; 'I' for Inactive)
REMARK    1  A    between atoms: C_4  and  C_5 
REMARK    2  A    between atoms: C_8  and  C_9 
REMARK    3  A    between atoms: C_9  and  N_10 
REMARK       I    between atoms: N_10  and  C_11 
REMARK       I    between atoms: C_11  and  N_12 
REMARK    4  A    between atoms: N_12  and  C_13 
REMARK    5  A    between atoms: C_15  and  C_16 
REMARK    6  A    between atoms: C_30  and  C_31 
ROOT
HETATM    1  C   UNL     1      -0.279   8.571 -28.391  1.00  0.00     0.068 C 
HETATM    2  C   UNL     1       0.211   7.180 -27.883  1.00  0.00     0.001 C 
HETATM    3  C   UNL     1      -0.893   6.414 -27.117  1.00  0.00     0.040 C 
HETATM    4  C   UNL     1      -1.453   7.260 -25.962  1.00  0.00     0.206 C 
HETATM    5  N   UNL     1      -0.646   8.557 -25.937  1.00  0.00    -0.065 N 
HETATM    6  H   UNL     1      -1.034   9.132 -25.157  1.00  0.00     0.280 HD
HETATM    7  C   UNL     1      -0.800   9.385 -27.195  1.00  0.00     0.246 C 
HETATM    8  C   UNL     1       1.343   7.448 -26.858  1.00  0.00     0.033 C 
HETATM    9  C   UNL     1       0.811   8.266 -25.673  1.00  0.00     0.236 C 
ENDROOT
BRANCH   4  10
HETATM   10  C   UNL     1      -2.989   7.485 -26.045  1.00  0.00     0.157 C 
BRANCH  10  11
HETATM   11  N   UNL     1      -3.786   6.342 -26.494  1.00  0.00    -0.341 N 
HETATM   12  C   UNL     1      -4.561   6.348 -27.631  1.00  0.00     0.320 C 
HETATM   13  N   UNL     1      -5.090   5.111 -27.896  1.00  0.00    -0.309 N 
HETATM   14  O   UNL     1      -4.754   7.381 -28.261  1.00  0.00    -0.247 OA
HETATM   15  H   UNL     1      -4.948   4.396 -27.196  1.00  0.00     0.170 HD
HETATM   16  H   UNL     1      -3.399   5.436 -26.257  1.00  0.00     0.164 HD
BRANCH  13  17
HETATM   17  C   UNL     1      -5.904   4.739 -28.989  1.00  0.00     0.037 A 
HETATM   18  C   UNL     1      -5.431   4.074 -30.122  1.00  0.00     0.045 A 
HETATM   19  C   UNL     1      -6.296   3.733 -31.179  1.00  0.00     0.050 A 
HETATM   20  C   UNL     1      -7.653   4.074 -31.084  1.00  0.00     0.016 A 
HETATM   21  C   UNL     1      -8.134   4.730 -29.953  1.00  0.00     0.003 A 
HETATM   22  C   UNL     1      -7.265   5.058 -28.911  1.00  0.00     0.029 A 
BRANCH  19  23
HETATM   23  C   UNL     1      -5.771   3.043 -32.414  1.00  0.00     0.417 C 
HETATM   24  F   UNL     1      -6.053   3.716 -33.566  1.00  0.00    -0.166 F 
HETATM   25  F   UNL     1      -4.421   2.881 -32.397  1.00  0.00    -0.166 F 
HETATM   26  F   UNL     1      -6.301   1.799 -32.572  1.00  0.00    -0.166 F 
ENDBRANCH  19  23
ENDBRANCH  13  17
ENDBRANCH  10  11
ENDBRANCH   4  10
BRANCH   1  27
HETATM   27  C   UNL     1      -1.304   8.565 -29.508  1.00  0.00     0.045 A 
HETATM   28  N   UNL     1      -2.237   9.532 -29.515  1.00  0.00    -0.238 NA
HETATM   29  C   UNL     1      -3.123   9.534 -30.529  1.00  0.00     0.123 A 
HETATM   30  C   UNL     1      -4.213  10.559 -30.513  1.00  0.00     0.093 C 
HETATM   31  N   UNL     1      -3.081   8.692 -31.568  1.00  0.00    -0.233 NA
HETATM   32  C   UNL     1      -2.117   7.749 -31.569  1.00  0.00     0.077 A 
HETATM   33  C   UNL     1      -1.206   7.640 -30.534  1.00  0.00     0.060 A 
BRANCH  32  34
HETATM   34  C   UNL     1      -2.115   6.899 -32.773  1.00  0.00     0.033 A 
HETATM   35  S   UNL     1      -3.518   6.048 -33.292  1.00  0.00    -0.100 SA
HETATM   36  C   UNL     1      -2.708   5.347 -34.619  1.00  0.00     0.050 A 
HETATM   37  C   UNL     1      -1.392   5.742 -34.685  1.00  0.00     0.008 A 
HETATM   38  C   UNL     1      -1.054   6.633 -33.627  1.00  0.00     0.021 A 
ENDBRANCH  32  34
ENDBRANCH   1  27
TORSDOF 6
ENDMDL
