MODEL 1
REMARK VINA RESULT:     -10.6      0.000      0.000
REMARK  5 active torsions:
REMARK  status: ('A' for Active; 'I' for Inactive)
REMARK    1  A    between atoms: C_4  and  C_5 
REMARK    2  A    between atoms: C_5  and  C_6 
REMARK    3  A    between atoms: N_15  and  N_16 
REMARK       I    between atoms: N_16  and  C_17 
REMARK    4  A    between atoms: C_17  and  C_18 
REMARK    5  A    between atoms: C_18  and  C_19 
ROOT
HETATM    1  C   UNL     1      -6.998   0.254 -32.721  1.00  0.00     0.173 A 
HETATM    2  N   UNL     1      -6.901   0.041 -31.283  1.00  0.00    -0.315 N 
HETATM    3  C   UNL     1      -6.080   0.949 -30.660  1.00  0.00     0.346 A 
HETATM    4  O   UNL     1      -5.891   0.994 -29.455  1.00  0.00    -0.245 OA
HETATM    5  N   UNL     1      -5.584   1.794 -31.610  1.00  0.00    -0.167 N 
HETATM    6  C   UNL     1      -6.124   1.546 -32.852  1.00  0.00     0.285 A 
HETATM    7  O   UNL     1      -5.969   2.220 -33.865  1.00  0.00    -0.267 OA
HETATM    8  H   UNL     1      -7.311  -0.736 -30.786  1.00  0.00     0.166 HD
ENDROOT
BRANCH   5   9
HETATM    9  N   UNL     1      -4.827   2.918 -31.304  1.00  0.00    -0.256 N 
HETATM   10  C   UNL     1      -5.509   4.081 -30.985  1.00  0.00     0.242 C 
HETATM   11  O   UNL     1      -6.732   4.167 -30.903  1.00  0.00    -0.271 OA
HETATM   12  H   UNL     1      -3.996   3.033 -31.885  1.00  0.00     0.191 HD
BRANCH  10  13
HETATM   13  C   UNL     1      -4.597   5.224 -30.602  1.00  0.00     0.166 C 
BRANCH  13  14
HETATM   14  C   UNL     1      -3.560   5.624 -31.631  1.00  0.00     0.074 A 
HETATM   15  N   UNL     1      -3.876   5.526 -32.887  1.00  0.00    -0.175 NA
HETATM   16  N   UNL     1      -2.962   5.905 -33.818  1.00  0.00    -0.243 N 
HETATM   17  C   UNL     1      -1.708   6.407 -33.566  1.00  0.00     0.272 A 
HETATM   18  H   UNL     1      -3.252   5.849 -34.791  1.00  0.00     0.192 HD
HETATM   19  O   UNL     1      -0.946   6.759 -34.459  1.00  0.00    -0.266 OA
HETATM   20  C   UNL     1      -1.321   6.494 -32.148  1.00  0.00     0.046 A 
HETATM   21  C   UNL     1      -2.237   6.113 -31.168  1.00  0.00     0.006 A 
HETATM   22  C   UNL     1      -0.045   6.946 -31.793  1.00  0.00     0.018 A 
HETATM   23  C   UNL     1      -1.874   6.188 -29.819  1.00  0.00     0.014 A 
HETATM   24  C   UNL     1      -0.595   6.633 -29.464  1.00  0.00     0.001 A 
HETATM   25  C   UNL     1       0.318   7.011 -30.448  1.00  0.00     0.001 A 
ENDBRANCH  13  14
ENDBRANCH  10  13
ENDBRANCH   5   9
BRANCH   1  26
HETATM   26  C   UNL     1      -6.406  -0.986 -33.406  1.00  0.00    -0.016 A 
HETATM   27  C   UNL     1      -7.199  -1.904 -34.118  1.00  0.00     0.010 A 
HETATM   28  C   UNL     1      -6.618  -2.995 -34.773  1.00  0.00     0.001 A 
HETATM   29  C   UNL     1      -5.239  -3.187 -34.737  1.00  0.00     0.000 A 
HETATM   30  C   UNL     1      -4.435  -2.286 -34.048  1.00  0.00     0.001 A 
HETATM   31  C   UNL     1      -5.010  -1.193 -33.396  1.00  0.00     0.010 A 
ENDBRANCH   1  26
BRANCH   1  32
HETATM   32  C   UNL     1      -8.431   0.583 -33.174  1.00  0.00    -0.016 A 
HETATM   33  C   UNL     1      -9.564  -0.056 -32.638  1.00  0.00     0.010 A 
HETATM   34  C   UNL     1     -10.850   0.288 -33.065  1.00  0.00     0.001 A 
HETATM   35  C   UNL     1     -11.029   1.278 -34.028  1.00  0.00     0.000 A 
HETATM   36  C   UNL     1      -9.924   1.926 -34.568  1.00  0.00     0.001 A 
HETATM   37  C   UNL     1      -8.638   1.584 -34.145  1.00  0.00     0.010 A 
ENDBRANCH   1  32
TORSDOF 5
ENDMDL
MODEL 2
REMARK VINA RESULT:     -10.3      3.783      8.416
REMARK  5 active torsions:
REMARK  status: ('A' for Active; 'I' for Inactive)
REMARK    1  A    between atoms: C_4  and  C_5 
REMARK    2  A    between atoms: C_5  and  C_6 
REMARK    3  A    between atoms: N_15  and  N_16 
REMARK       I    between atoms: N_16  and  C_17 
REMARK    4  A    between atoms: C_17  and  C_18 
REMARK    5  A    between atoms: C_18  and  C_19 
ROOT
HETATM    1  C   UNL     1      -6.542  -0.241 -33.316  1.00  0.00     0.173 A 
HETATM    2  N   UNL     1      -7.487  -0.406 -32.219  1.00  0.00    -0.315 N 
HETATM    3  C   UNL     1      -8.712   0.159 -32.479  1.00  0.00     0.346 A 
HETATM    4  O   UNL     1      -9.672   0.098 -31.727  1.00  0.00    -0.245 OA
HETATM    5  N   UNL     1      -8.664   0.726 -33.719  1.00  0.00    -0.167 N 
HETATM    6  C   UNL     1      -7.468   0.478 -34.353  1.00  0.00     0.285 A 
HETATM    7  O   UNL     1      -7.187   0.747 -35.516  1.00  0.00    -0.267 OA
HETATM    8  H   UNL     1      -7.265  -0.809 -31.321  1.00  0.00     0.166 HD
ENDROOT
BRANCH   5   9
HETATM    9  N   UNL     1      -9.779   1.265 -34.350  1.00  0.00    -0.256 N 
HETATM   10  C   UNL     1      -9.964   2.635 -34.261  1.00  0.00     0.242 C 
HETATM   11  O   UNL     1      -9.182   3.406 -33.710  1.00  0.00    -0.271 OA
HETATM   12  H   UNL     1     -10.621   0.694 -34.267  1.00  0.00     0.191 HD
BRANCH  10  13
HETATM   13  C   UNL     1     -11.165   3.128 -35.035  1.00  0.00     0.166 C 
BRANCH  13  14
HETATM   14  C   UNL     1     -12.520   2.746 -34.479  1.00  0.00     0.074 A 
HETATM   15  N   UNL     1     -13.158   1.764 -35.041  1.00  0.00    -0.175 NA
HETATM   16  N   UNL     1     -14.363   1.397 -34.534  1.00  0.00    -0.243 N 
HETATM   17  C   UNL     1     -14.994   1.962 -33.452  1.00  0.00     0.272 A 
HETATM   18  H   UNL     1     -14.820   0.602 -34.975  1.00  0.00     0.192 HD
HETATM   19  O   UNL     1     -16.071   1.557 -33.031  1.00  0.00    -0.266 OA
HETATM   20  C   UNL     1     -14.302   3.098 -32.823  1.00  0.00     0.046 A 
HETATM   21  C   UNL     1     -13.062   3.499 -33.319  1.00  0.00     0.006 A 
HETATM   22  C   UNL     1     -14.889   3.771 -31.745  1.00  0.00     0.018 A 
HETATM   23  C   UNL     1     -12.401   4.582 -32.729  1.00  0.00     0.014 A 
HETATM   24  C   UNL     1     -12.991   5.260 -31.656  1.00  0.00     0.001 A 
HETATM   25  C   UNL     1     -14.232   4.856 -31.165  1.00  0.00     0.001 A 
ENDBRANCH  13  14
ENDBRANCH  10  13
ENDBRANCH   5   9
BRANCH   1  26
HETATM   26  C   UNL     1      -5.384   0.621 -32.792  1.00  0.00    -0.016 A 
HETATM   27  C   UNL     1      -5.262   1.987 -33.102  1.00  0.00     0.010 A 
HETATM   28  C   UNL     1      -4.223   2.754 -32.565  1.00  0.00     0.001 A 
HETATM   29  C   UNL     1      -3.292   2.176 -31.705  1.00  0.00     0.000 A 
HETATM   30  C   UNL     1      -3.400   0.829 -31.375  1.00  0.00     0.001 A 
HETATM   31  C   UNL     1      -4.439   0.062 -31.906  1.00  0.00     0.010 A 
ENDBRANCH   1  26
BRANCH   1  32
HETATM   32  C   UNL     1      -6.088  -1.586 -33.911  1.00  0.00    -0.016 A 
HETATM   33  C   UNL     1      -4.733  -1.934 -34.060  1.00  0.00     0.010 A 
HETATM   34  C   UNL     1      -4.367  -3.175 -34.588  1.00  0.00     0.001 A 
HETATM   35  C   UNL     1      -5.342  -4.092 -34.972  1.00  0.00     0.000 A 
HETATM   36  C   UNL     1      -6.688  -3.770 -34.829  1.00  0.00     0.001 A 
HETATM   37  C   UNL     1      -7.058  -2.531 -34.304  1.00  0.00     0.010 A 
ENDBRANCH   1  32
TORSDOF 5
ENDMDL
MODEL 3
REMARK VINA RESULT:     -10.3      1.621      2.246
REMARK  5 active torsions:
REMARK  status: ('A' for Active; 'I' for Inactive)
REMARK    1  A    between atoms: C_4  and  C_5 
REMARK    2  A    between atoms: C_5  and  C_6 
REMARK    3  A    between atoms: N_15  and  N_16 
REMARK       I    between atoms: N_16  and  C_17 
REMARK    4  A    between atoms: C_17  and  C_18 
REMARK    5  A    between atoms: C_18  and  C_19 
ROOT
HETATM    1  C   UNL     1      -7.099   0.562 -32.979  1.00  0.00     0.173 A 
HETATM    2  N   UNL     1      -6.820   0.607 -31.550  1.00  0.00    -0.315 N 
HETATM    3  C   UNL     1      -6.002   1.653 -31.197  1.00  0.00     0.346 A 
HETATM    4  O   UNL     1      -5.678   1.917 -30.050  1.00  0.00    -0.245 OA
HETATM    5  N   UNL     1      -5.686   2.346 -32.329  1.00  0.00    -0.167 N 
HETATM    6  C   UNL     1      -6.347   1.857 -33.433  1.00  0.00     0.285 A 
HETATM    7  O   UNL     1      -6.363   2.352 -34.555  1.00  0.00    -0.267 OA
HETATM    8  H   UNL     1      -7.109  -0.093 -30.882  1.00  0.00     0.166 HD
ENDROOT
BRANCH   5   9
HETATM    9  N   UNL     1      -4.985   3.546 -32.312  1.00  0.00    -0.256 N 
HETATM   10  C   UNL     1      -3.602   3.479 -32.339  1.00  0.00     0.242 C 
HETATM   11  O   UNL     1      -2.960   2.435 -32.433  1.00  0.00    -0.271 OA
HETATM   12  H   UNL     1      -5.386   4.254 -31.697  1.00  0.00     0.191 HD
BRANCH  10  13
HETATM   13  C   UNL     1      -2.938   4.836 -32.387  1.00  0.00     0.166 C 
BRANCH  13  14
HETATM   14  C   UNL     1      -2.953   5.631 -31.099  1.00  0.00     0.074 A 
HETATM   15  N   UNL     1      -4.078   5.733 -30.457  1.00  0.00    -0.175 NA
HETATM   16  N   UNL     1      -4.097   6.424 -29.287  1.00  0.00    -0.243 N 
HETATM   17  C   UNL     1      -3.022   7.034 -28.688  1.00  0.00     0.272 A 
HETATM   18  H   UNL     1      -4.985   6.456 -28.791  1.00  0.00     0.192 HD
HETATM   19  O   UNL     1      -3.109   7.616 -27.612  1.00  0.00    -0.266 OA
HETATM   20  C   UNL     1      -1.747   6.958 -29.419  1.00  0.00     0.046 A 
HETATM   21  C   UNL     1      -1.694   6.255 -30.621  1.00  0.00     0.006 A 
HETATM   22  C   UNL     1      -0.606   7.591 -28.912  1.00  0.00     0.018 A 
HETATM   23  C   UNL     1      -0.485   6.182 -31.324  1.00  0.00     0.014 A 
HETATM   24  C   UNL     1       0.654   6.822 -30.822  1.00  0.00     0.001 A 
HETATM   25  C   UNL     1       0.594   7.525 -29.619  1.00  0.00     0.001 A 
ENDBRANCH  13  14
ENDBRANCH  10  13
ENDBRANCH   5   9
BRANCH   1  26
HETATM   26  C   UNL     1      -6.500  -0.745 -33.519  1.00  0.00    -0.016 A 
HETATM   27  C   UNL     1      -7.265  -1.690 -34.225  1.00  0.00     0.010 A 
HETATM   28  C   UNL     1      -6.673  -2.845 -34.748  1.00  0.00     0.001 A 
HETATM   29  C   UNL     1      -5.310  -3.075 -34.582  1.00  0.00     0.000 A 
HETATM   30  C   UNL     1      -4.531  -2.148 -33.897  1.00  0.00     0.001 A 
HETATM   31  C   UNL     1      -5.118  -0.992 -33.378  1.00  0.00     0.010 A 
ENDBRANCH   1  26
BRANCH   1  32
HETATM   32  C   UNL     1      -8.597   0.728 -33.293  1.00  0.00    -0.016 A 
HETATM   33  C   UNL     1      -9.590  -0.090 -32.723  1.00  0.00     0.010 A 
HETATM   34  C   UNL     1     -10.941   0.109 -33.021  1.00  0.00     0.001 A 
HETATM   35  C   UNL     1     -11.326   1.130 -33.887  1.00  0.00     0.000 A 
HETATM   36  C   UNL     1     -10.362   1.954 -34.457  1.00  0.00     0.001 A 
HETATM   37  C   UNL     1      -9.012   1.757 -34.163  1.00  0.00     0.010 A 
ENDBRANCH   1  32
TORSDOF 5
ENDMDL
MODEL 4
REMARK VINA RESULT:      -9.7      3.648      8.357
REMARK  5 active torsions:
REMARK  status: ('A' for Active; 'I' for Inactive)
REMARK    1  A    between atoms: C_4  and  C_5 
REMARK    2  A    between atoms: C_5  and  C_6 
REMARK    3  A    between atoms: N_15  and  N_16 
REMARK       I    between atoms: N_16  and  C_17 
REMARK    4  A    between atoms: C_17  and  C_18 
REMARK    5  A    between atoms: C_18  and  C_19 
ROOT
HETATM    1  C   UNL     1      -6.529  -0.021 -33.142  1.00  0.00     0.173 A 
HETATM    2  N   UNL     1      -7.482  -0.213 -32.056  1.00  0.00    -0.315 N 
HETATM    3  C   UNL     1      -8.698   0.378 -32.300  1.00  0.00     0.346 A 
HETATM    4  O   UNL     1      -9.662   0.303 -31.555  1.00  0.00    -0.245 OA
HETATM    5  N   UNL     1      -8.637   0.989 -33.519  1.00  0.00    -0.167 N 
HETATM    6  C   UNL     1      -7.441   0.748 -34.156  1.00  0.00     0.285 A 
HETATM    7  O   UNL     1      -7.150   1.055 -35.307  1.00  0.00    -0.267 OA
HETATM    8  H   UNL     1      -7.269  -0.651 -31.172  1.00  0.00     0.166 HD
ENDROOT
BRANCH   5   9
HETATM    9  N   UNL     1      -9.741   1.566 -34.134  1.00  0.00    -0.256 N 
HETATM   10  C   UNL     1      -9.873   2.942 -34.051  1.00  0.00     0.242 C 
HETATM   11  O   UNL     1      -9.052   3.687 -33.519  1.00  0.00    -0.271 OA
HETATM   12  H   UNL     1     -10.603   1.028 -34.033  1.00  0.00     0.191 HD
BRANCH  10  13
HETATM   13  C   UNL     1     -11.067   3.476 -34.808  1.00  0.00     0.166 C 
BRANCH  13  14
HETATM   14  C   UNL     1     -12.115   4.191 -33.982  1.00  0.00     0.074 A 
HETATM   15  N   UNL     1     -11.972   5.467 -33.784  1.00  0.00    -0.175 NA
HETATM   16  N   UNL     1     -12.920   6.123 -33.064  1.00  0.00    -0.243 N 
HETATM   17  C   UNL     1     -14.051   5.569 -32.517  1.00  0.00     0.272 A 
HETATM   18  H   UNL     1     -12.797   7.128 -32.958  1.00  0.00     0.192 HD
HETATM   19  O   UNL     1     -14.881   6.231 -31.905  1.00  0.00    -0.266 OA
HETATM   20  C   UNL     1     -14.212   4.117 -32.703  1.00  0.00     0.046 A 
HETATM   21  C   UNL     1     -13.258   3.415 -33.437  1.00  0.00     0.006 A 
HETATM   22  C   UNL     1     -15.308   3.453 -32.140  1.00  0.00     0.018 A 
HETATM   23  C   UNL     1     -13.402   2.034 -33.613  1.00  0.00     0.014 A 
HETATM   24  C   UNL     1     -14.494   1.369 -33.044  1.00  0.00     0.001 A 
HETATM   25  C   UNL     1     -15.445   2.076 -32.308  1.00  0.00     0.001 A 
ENDBRANCH  13  14
ENDBRANCH  10  13
ENDBRANCH   5   9
BRANCH   1  26
HETATM   26  C   UNL     1      -5.362   0.806 -32.582  1.00  0.00    -0.016 A 
HETATM   27  C   UNL     1      -4.398   0.259 -31.717  1.00  0.00     0.010 A 
HETATM   28  C   UNL     1      -3.319   1.028 -31.269  1.00  0.00     0.001 A 
HETATM   29  C   UNL     1      -3.179   2.352 -31.678  1.00  0.00     0.000 A 
HETATM   30  C   UNL     1      -4.114   2.910 -32.543  1.00  0.00     0.001 A 
HETATM   31  C   UNL     1      -5.190   2.144 -32.996  1.00  0.00     0.010 A 
ENDBRANCH   1  26
BRANCH   1  32
HETATM   32  C   UNL     1      -6.091  -1.349 -33.784  1.00  0.00    -0.016 A 
HETATM   33  C   UNL     1      -4.740  -1.703 -33.955  1.00  0.00     0.010 A 
HETATM   34  C   UNL     1      -4.387  -2.929 -34.526  1.00  0.00     0.001 A 
HETATM   35  C   UNL     1      -5.373  -3.825 -34.932  1.00  0.00     0.000 A 
HETATM   36  C   UNL     1      -6.715  -3.498 -34.768  1.00  0.00     0.001 A 
HETATM   37  C   UNL     1      -7.071  -2.273 -34.200  1.00  0.00     0.010 A 
ENDBRANCH   1  32
TORSDOF 5
ENDMDL
MODEL 5
REMARK VINA RESULT:      -9.6      2.506      5.025
REMARK  5 active torsions:
REMARK  status: ('A' for Active; 'I' for Inactive)
REMARK    1  A    between atoms: C_4  and  C_5 
REMARK    2  A    between atoms: C_5  and  C_6 
REMARK    3  A    between atoms: N_15  and  N_16 
REMARK       I    between atoms: N_16  and  C_17 
REMARK    4  A    between atoms: C_17  and  C_18 
REMARK    5  A    between atoms: C_18  and  C_19 
ROOT
HETATM    1  C   UNL     1      -5.674   3.068 -32.792  1.00  0.00     0.173 A 
HETATM    2  N   UNL     1      -5.634   3.614 -34.143  1.00  0.00    -0.315 N 
HETATM    3  C   UNL     1      -4.817   4.712 -34.254  1.00  0.00     0.346 A 
HETATM    4  O   UNL     1      -4.591   5.300 -35.300  1.00  0.00    -0.245 OA
HETATM    5  N   UNL     1      -4.282   4.969 -33.025  1.00  0.00    -0.167 N 
HETATM    6  C   UNL     1      -4.637   4.015 -32.099  1.00  0.00     0.285 A 
HETATM    7  O   UNL     1      -4.207   3.909 -30.955  1.00  0.00    -0.267 OA
HETATM    8  H   UNL     1      -6.205   3.293 -34.912  1.00  0.00     0.166 HD
ENDROOT
BRANCH   5   9
HETATM    9  N   UNL     1      -3.302   5.931 -32.811  1.00  0.00    -0.256 N 
HETATM   10  C   UNL     1      -2.005   5.617 -33.185  1.00  0.00     0.242 C 
HETATM   11  O   UNL     1      -1.678   4.570 -33.740  1.00  0.00    -0.271 OA
HETATM   12  H   UNL     1      -3.402   6.440 -31.933  1.00  0.00     0.191 HD
BRANCH  10  13
HETATM   13  C   UNL     1      -1.030   6.752 -32.974  1.00  0.00     0.166 C 
BRANCH  13  14
HETATM   14  C   UNL     1      -1.320   7.672 -31.808  1.00  0.00     0.074 A 
HETATM   15  N   UNL     1      -2.034   8.734 -32.029  1.00  0.00    -0.175 NA
HETATM   16  N   UNL     1      -2.321   9.554 -30.984  1.00  0.00    -0.243 N 
HETATM   17  C   UNL     1      -1.934   9.369 -29.679  1.00  0.00     0.272 A 
HETATM   18  H   UNL     1      -2.912  10.358 -31.184  1.00  0.00     0.192 HD
HETATM   19  O   UNL     1      -2.257  10.137 -28.780  1.00  0.00    -0.266 OA
HETATM   20  C   UNL     1      -1.096   8.189 -29.416  1.00  0.00     0.046 A 
HETATM   21  C   UNL     1      -0.785   7.327 -30.467  1.00  0.00     0.006 A 
HETATM   22  C   UNL     1      -0.612   7.942 -28.126  1.00  0.00     0.018 A 
HETATM   23  C   UNL     1       0.017   6.205 -30.224  1.00  0.00     0.014 A 
HETATM   24  C   UNL     1       0.507   5.963 -28.936  1.00  0.00     0.001 A 
HETATM   25  C   UNL     1       0.195   6.830 -27.889  1.00  0.00     0.001 A 
ENDBRANCH  13  14
ENDBRANCH  10  13
ENDBRANCH   5   9
BRANCH   1  26
HETATM   26  C   UNL     1      -7.114   3.220 -32.282  1.00  0.00    -0.016 A 
HETATM   27  C   UNL     1      -8.198   3.455 -33.146  1.00  0.00     0.010 A 
HETATM   28  C   UNL     1      -9.504   3.536 -32.650  1.00  0.00     0.001 A 
HETATM   29  C   UNL     1      -9.753   3.378 -31.289  1.00  0.00     0.000 A 
HETATM   30  C   UNL     1      -8.697   3.134 -30.418  1.00  0.00     0.001 A 
HETATM   31  C   UNL     1      -7.393   3.048 -30.909  1.00  0.00     0.010 A 
ENDBRANCH   1  26
BRANCH   1  32
HETATM   32  C   UNL     1      -5.144   1.625 -32.723  1.00  0.00    -0.016 A 
HETATM   33  C   UNL     1      -5.944   0.506 -33.018  1.00  0.00     0.010 A 
HETATM   34  C   UNL     1      -5.416  -0.787 -32.962  1.00  0.00     0.001 A 
HETATM   35  C   UNL     1      -4.082  -0.987 -32.615  1.00  0.00     0.000 A 
HETATM   36  C   UNL     1      -3.272   0.105 -32.324  1.00  0.00     0.001 A 
HETATM   37  C   UNL     1      -3.796   1.397 -32.378  1.00  0.00     0.010 A 
ENDBRANCH   1  32
TORSDOF 5
ENDMDL
MODEL 6
REMARK VINA RESULT:      -9.6      2.264      3.254
REMARK  5 active torsions:
REMARK  status: ('A' for Active; 'I' for Inactive)
REMARK    1  A    between atoms: C_4  and  C_5 
REMARK    2  A    between atoms: C_5  and  C_6 
REMARK    3  A    between atoms: N_15  and  N_16 
REMARK       I    between atoms: N_16  and  C_17 
REMARK    4  A    between atoms: C_17  and  C_18 
REMARK    5  A    between atoms: C_18  and  C_19 
ROOT
HETATM    1  C   UNL     1      -6.985   3.025 -33.232  1.00  0.00     0.173 A 
HETATM    2  N   UNL     1      -6.803   3.128 -31.790  1.00  0.00    -0.315 N 
HETATM    3  C   UNL     1      -5.651   3.790 -31.442  1.00  0.00     0.346 A 
HETATM    4  O   UNL     1      -5.320   4.040 -30.294  1.00  0.00    -0.245 OA
HETATM    5  N   UNL     1      -5.006   4.153 -32.589  1.00  0.00    -0.167 N 
HETATM    6  C   UNL     1      -5.738   3.840 -33.712  1.00  0.00     0.285 A 
HETATM    7  O   UNL     1      -5.477   4.158 -34.867  1.00  0.00    -0.267 OA
HETATM    8  H   UNL     1      -7.397   2.692 -31.100  1.00  0.00     0.166 HD
ENDROOT
BRANCH   5   9
HETATM    9  N   UNL     1      -3.875   4.960 -32.600  1.00  0.00    -0.256 N 
HETATM   10  C   UNL     1      -2.641   4.332 -32.646  1.00  0.00     0.242 C 
HETATM   11  O   UNL     1      -2.485   3.116 -32.734  1.00  0.00    -0.271 OA
HETATM   12  H   UNL     1      -3.938   5.775 -31.988  1.00  0.00     0.191 HD
BRANCH  10  13
HETATM   13  C   UNL     1      -1.480   5.297 -32.723  1.00  0.00     0.166 C 
BRANCH  13  14
HETATM   14  C   UNL     1      -1.565   6.514 -31.826  1.00  0.00     0.074 A 
HETATM   15  N   UNL     1      -2.303   7.510 -32.213  1.00  0.00    -0.175 NA
HETATM   16  N   UNL     1      -2.405   8.596 -31.404  1.00  0.00    -0.243 N 
HETATM   17  C   UNL     1      -1.803   8.755 -30.180  1.00  0.00     0.272 A 
HETATM   18  H   UNL     1      -3.019   9.344 -31.720  1.00  0.00     0.192 HD
HETATM   19  O   UNL     1      -1.966   9.754 -29.489  1.00  0.00    -0.266 OA
HETATM   20  C   UNL     1      -0.935   7.651 -29.740  1.00  0.00     0.046 A 
HETATM   21  C   UNL     1      -0.810   6.521 -30.547  1.00  0.00     0.006 A 
HETATM   22  C   UNL     1      -0.239   7.741 -28.529  1.00  0.00     0.018 A 
HETATM   23  C   UNL     1       0.018   5.469 -30.138  1.00  0.00     0.014 A 
HETATM   24  C   UNL     1       0.719   5.563 -28.930  1.00  0.00     0.001 A 
HETATM   25  C   UNL     1       0.592   6.696 -28.128  1.00  0.00     0.001 A 
ENDBRANCH  13  14
ENDBRANCH  10  13
ENDBRANCH   5   9
BRANCH   1  26
HETATM   26  C   UNL     1      -6.945   1.532 -33.590  1.00  0.00    -0.016 A 
HETATM   27  C   UNL     1      -6.951   1.076 -34.920  1.00  0.00     0.010 A 
HETATM   28  C   UNL     1      -6.861  -0.290 -35.209  1.00  0.00     0.001 A 
HETATM   29  C   UNL     1      -6.757  -1.223 -34.180  1.00  0.00     0.000 A 
HETATM   30  C   UNL     1      -6.737  -0.794 -32.858  1.00  0.00     0.001 A 
HETATM   31  C   UNL     1      -6.823   0.569 -32.566  1.00  0.00     0.010 A 
ENDBRANCH   1  26
BRANCH   1  32
HETATM   32  C   UNL     1      -8.257   3.742 -33.719  1.00  0.00    -0.016 A 
HETATM   33  C   UNL     1      -8.332   5.138 -33.874  1.00  0.00     0.010 A 
HETATM   34  C   UNL     1      -9.502   5.746 -34.338  1.00  0.00     0.001 A 
HETATM   35  C   UNL     1     -10.615   4.973 -34.660  1.00  0.00     0.000 A 
HETATM   36  C   UNL     1     -10.562   3.591 -34.519  1.00  0.00     0.001 A 
HETATM   37  C   UNL     1      -9.396   2.981 -34.054  1.00  0.00     0.010 A 
ENDBRANCH   1  32
TORSDOF 5
ENDMDL
MODEL 7
REMARK VINA RESULT:      -9.6      2.704      4.970
REMARK  5 active torsions:
REMARK  status: ('A' for Active; 'I' for Inactive)
REMARK    1  A    between atoms: C_4  and  C_5 
REMARK    2  A    between atoms: C_5  and  C_6 
REMARK    3  A    between atoms: N_15  and  N_16 
REMARK       I    between atoms: N_16  and  C_17 
REMARK    4  A    between atoms: C_17  and  C_18 
REMARK    5  A    between atoms: C_18  and  C_19 
ROOT
HETATM    1  C   UNL     1      -6.187   2.738 -32.841  1.00  0.00     0.173 A 
HETATM    2  N   UNL     1      -6.082   3.451 -34.107  1.00  0.00    -0.315 N 
HETATM    3  C   UNL     1      -5.153   4.463 -34.077  1.00  0.00     0.346 A 
HETATM    4  O   UNL     1      -4.860   5.158 -35.037  1.00  0.00    -0.245 OA
HETATM    5  N   UNL     1      -4.602   4.497 -32.828  1.00  0.00    -0.167 N 
HETATM    6  C   UNL     1      -5.061   3.470 -32.035  1.00  0.00     0.285 A 
HETATM    7  O   UNL     1      -4.653   3.169 -30.919  1.00  0.00    -0.267 OA
HETATM    8  H   UNL     1      -6.677   3.297 -34.907  1.00  0.00     0.166 HD
ENDROOT
BRANCH   5   9
HETATM    9  N   UNL     1      -3.528   5.314 -32.496  1.00  0.00    -0.256 N 
HETATM   10  C   UNL     1      -2.268   4.910 -32.904  1.00  0.00     0.242 C 
HETATM   11  O   UNL     1      -2.046   3.911 -33.584  1.00  0.00    -0.271 OA
HETATM   12  H   UNL     1      -3.586   5.719 -31.561  1.00  0.00     0.191 HD
BRANCH  10  13
HETATM   13  C   UNL     1      -1.180   5.899 -32.553  1.00  0.00     0.166 C 
BRANCH  13  14
HETATM   14  C   UNL     1      -0.828   6.010 -31.085  1.00  0.00     0.074 A 
HETATM   15  N   UNL     1      -0.214   5.012 -30.525  1.00  0.00    -0.175 NA
HETATM   16  N   UNL     1       0.128   5.111 -29.214  1.00  0.00    -0.243 N 
HETATM   17  C   UNL     1      -0.102   6.191 -28.396  1.00  0.00     0.272 A 
HETATM   18  H   UNL     1       0.638   4.327 -28.815  1.00  0.00     0.192 HD
HETATM   19  O   UNL     1       0.264   6.222 -27.227  1.00  0.00    -0.266 OA
HETATM   20  C   UNL     1      -0.826   7.318 -29.004  1.00  0.00     0.046 A 
HETATM   21  C   UNL     1      -1.190   7.247 -30.349  1.00  0.00     0.006 A 
HETATM   22  C   UNL     1      -1.150   8.443 -28.237  1.00  0.00     0.018 A 
HETATM   23  C   UNL     1      -1.884   8.314 -30.932  1.00  0.00     0.014 A 
HETATM   24  C   UNL     1      -2.215   9.436 -30.163  1.00  0.00     0.001 A 
HETATM   25  C   UNL     1      -1.850   9.500 -28.818  1.00  0.00     0.001 A 
ENDBRANCH  13  14
ENDBRANCH  10  13
ENDBRANCH   5   9
BRANCH   1  26
HETATM   26  C   UNL     1      -7.607   2.971 -32.304  1.00  0.00    -0.016 A 
HETATM   27  C   UNL     1      -7.930   2.830 -30.943  1.00  0.00     0.010 A 
HETATM   28  C   UNL     1      -9.223   3.101 -30.482  1.00  0.00     0.001 A 
HETATM   29  C   UNL     1     -10.213   3.523 -31.366  1.00  0.00     0.000 A 
HETATM   30  C   UNL     1      -9.912   3.680 -32.715  1.00  0.00     0.001 A 
HETATM   31  C   UNL     1      -8.622   3.415 -33.178  1.00  0.00     0.010 A 
ENDBRANCH   1  26
BRANCH   1  32
HETATM   32  C   UNL     1      -5.812   1.251 -32.968  1.00  0.00    -0.016 A 
HETATM   33  C   UNL     1      -6.757   0.250 -33.256  1.00  0.00     0.010 A 
HETATM   34  C   UNL     1      -6.369  -1.087 -33.382  1.00  0.00     0.001 A 
HETATM   35  C   UNL     1      -5.033  -1.448 -33.229  1.00  0.00     0.000 A 
HETATM   36  C   UNL     1      -4.081  -0.474 -32.949  1.00  0.00     0.001 A 
HETATM   37  C   UNL     1      -4.465   0.861 -32.820  1.00  0.00     0.010 A 
ENDBRANCH   1  32
TORSDOF 5
ENDMDL
MODEL 8
REMARK VINA RESULT:      -9.5      2.346      2.950
REMARK  5 active torsions:
REMARK  status: ('A' for Active; 'I' for Inactive)
REMARK    1  A    between atoms: C_4  and  C_5 
REMARK    2  A    between atoms: C_5  and  C_6 
REMARK    3  A    between atoms: N_15  and  N_16 
REMARK       I    between atoms: N_16  and  C_17 
REMARK    4  A    between atoms: C_17  and  C_18 
REMARK    5  A    between atoms: C_18  and  C_19 
ROOT
HETATM    1  C   UNL     1      -8.557   1.997 -32.594  1.00  0.00     0.173 A 
HETATM    2  N   UNL     1      -8.258   1.834 -31.177  1.00  0.00    -0.315 N 
HETATM    3  C   UNL     1      -7.523   2.873 -30.661  1.00  0.00     0.346 A 
HETATM    4  O   UNL     1      -7.202   2.974 -29.488  1.00  0.00    -0.245 OA
HETATM    5  N   UNL     1      -7.283   3.764 -31.667  1.00  0.00    -0.167 N 
HETATM    6  C   UNL     1      -7.919   3.406 -32.834  1.00  0.00     0.285 A 
HETATM    7  O   UNL     1      -7.994   4.073 -33.860  1.00  0.00    -0.267 OA
HETATM    8  H   UNL     1      -8.479   1.014 -30.631  1.00  0.00     0.166 HD
ENDROOT
BRANCH   5   9
HETATM    9  N   UNL     1      -6.681   4.999 -31.458  1.00  0.00    -0.256 N 
HETATM   10  C   UNL     1      -5.305   5.071 -31.596  1.00  0.00     0.242 C 
HETATM   11  O   UNL     1      -4.592   4.132 -31.944  1.00  0.00    -0.271 OA
HETATM   12  H   UNL     1      -7.081   5.532 -30.685  1.00  0.00     0.191 HD
BRANCH  10  13
HETATM   13  C   UNL     1      -4.758   6.469 -31.416  1.00  0.00     0.166 C 
BRANCH  13  14
HETATM   14  C   UNL     1      -3.738   6.648 -30.311  1.00  0.00     0.074 A 
HETATM   15  N   UNL     1      -4.167   6.717 -29.088  1.00  0.00    -0.175 NA
HETATM   16  N   UNL     1      -3.258   6.852 -28.087  1.00  0.00    -0.243 N 
HETATM   17  C   UNL     1      -1.893   6.915 -28.234  1.00  0.00     0.272 A 
HETATM   18  H   UNL     1      -3.624   6.868 -27.137  1.00  0.00     0.192 HD
HETATM   19  O   UNL     1      -1.131   7.007 -27.279  1.00  0.00    -0.266 OA
HETATM   20  C   UNL     1      -1.391   6.872 -29.617  1.00  0.00     0.046 A 
HETATM   21  C   UNL     1      -2.299   6.732 -30.666  1.00  0.00     0.006 A 
HETATM   22  C   UNL     1      -0.019   6.979 -29.871  1.00  0.00     0.018 A 
HETATM   23  C   UNL     1      -1.828   6.696 -31.984  1.00  0.00     0.014 A 
HETATM   24  C   UNL     1      -0.456   6.811 -32.239  1.00  0.00     0.001 A 
HETATM   25  C   UNL     1       0.446   6.953 -31.185  1.00  0.00     0.001 A 
ENDBRANCH  13  14
ENDBRANCH  10  13
ENDBRANCH   5   9
BRANCH   1  26
HETATM   26  C   UNL     1      -7.862   0.849 -33.340  1.00  0.00    -0.016 A 
HETATM   27  C   UNL     1      -7.666   0.865 -34.732  1.00  0.00     0.010 A 
HETATM   28  C   UNL     1      -6.982  -0.174 -35.372  1.00  0.00     0.001 A 
HETATM   29  C   UNL     1      -6.478  -1.244 -34.636  1.00  0.00     0.000 A 
HETATM   30  C   UNL     1      -6.651  -1.275 -33.257  1.00  0.00     0.001 A 
HETATM   31  C   UNL     1      -7.329  -0.237 -32.614  1.00  0.00     0.010 A 
ENDBRANCH   1  26
BRANCH   1  32
HETATM   32  C   UNL     1     -10.068   2.088 -32.871  1.00  0.00    -0.016 A 
HETATM   33  C   UNL     1     -10.775   1.092 -33.571  1.00  0.00     0.010 A 
HETATM   34  C   UNL     1     -12.151   1.206 -33.784  1.00  0.00     0.001 A 
HETATM   35  C   UNL     1     -12.848   2.311 -33.300  1.00  0.00     0.000 A 
HETATM   36  C   UNL     1     -12.171   3.304 -32.601  1.00  0.00     0.001 A 
HETATM   37  C   UNL     1     -10.796   3.194 -32.388  1.00  0.00     0.010 A 
ENDBRANCH   1  32
TORSDOF 5
ENDMDL
MODEL 9
REMARK VINA RESULT:      -9.5      3.119      7.978
REMARK  5 active torsions:
REMARK  status: ('A' for Active; 'I' for Inactive)
REMARK    1  A    between atoms: C_4  and  C_5 
REMARK    2  A    between atoms: C_5  and  C_6 
REMARK    3  A    between atoms: N_15  and  N_16 
REMARK       I    between atoms: N_16  and  C_17 
REMARK    4  A    between atoms: C_17  and  C_18 
REMARK    5  A    between atoms: C_18  and  C_19 
ROOT
HETATM    1  C   UNL     1      -5.043   2.496 -32.226  1.00  0.00     0.173 A 
HETATM    2  N   UNL     1      -5.476   2.651 -30.843  1.00  0.00    -0.315 N 
HETATM    3  C   UNL     1      -6.741   3.174 -30.733  1.00  0.00     0.346 A 
HETATM    4  O   UNL     1      -7.327   3.342 -29.676  1.00  0.00    -0.245 OA
HETATM    5  N   UNL     1      -7.218   3.402 -31.992  1.00  0.00    -0.167 N 
HETATM    6  C   UNL     1      -6.347   2.957 -32.960  1.00  0.00     0.285 A 
HETATM    7  O   UNL     1      -6.558   2.909 -34.167  1.00  0.00    -0.267 OA
HETATM    8  H   UNL     1      -4.895   2.485 -30.035  1.00  0.00     0.166 HD
ENDROOT
BRANCH   5   9
HETATM    9  N   UNL     1      -8.524   3.801 -32.247  1.00  0.00    -0.256 N 
HETATM   10  C   UNL     1      -8.758   5.155 -32.416  1.00  0.00     0.242 C 
HETATM   11  O   UNL     1      -7.881   6.016 -32.410  1.00  0.00    -0.271 OA
HETATM   12  H   UNL     1      -9.228   3.290 -31.712  1.00  0.00     0.191 HD
BRANCH  10  13
HETATM   13  C   UNL     1     -10.195   5.477 -32.755  1.00  0.00     0.166 C 
BRANCH  13  14
HETATM   14  C   UNL     1     -10.935   4.441 -33.575  1.00  0.00     0.074 A 
HETATM   15  N   UNL     1     -10.450   4.119 -34.736  1.00  0.00    -0.175 NA
HETATM   16  N   UNL     1     -11.092   3.173 -35.469  1.00  0.00    -0.243 N 
HETATM   17  C   UNL     1     -12.226   2.491 -35.099  1.00  0.00     0.272 A 
HETATM   18  H   UNL     1     -10.667   2.918 -36.358  1.00  0.00     0.192 HD
HETATM   19  O   UNL     1     -12.734   1.625 -35.801  1.00  0.00    -0.266 OA
HETATM   20  C   UNL     1     -12.808   2.867 -33.801  1.00  0.00     0.046 A 
HETATM   21  C   UNL     1     -12.172   3.834 -33.024  1.00  0.00     0.006 A 
HETATM   22  C   UNL     1     -13.991   2.263 -33.359  1.00  0.00     0.018 A 
HETATM   23  C   UNL     1     -12.724   4.200 -31.791  1.00  0.00     0.014 A 
HETATM   24  C   UNL     1     -13.911   3.602 -31.352  1.00  0.00     0.001 A 
HETATM   25  C   UNL     1     -14.544   2.636 -32.134  1.00  0.00     0.001 A 
ENDBRANCH  13  14
ENDBRANCH  10  13
ENDBRANCH   5   9
BRANCH   1  26
HETATM   26  C   UNL     1      -3.836   3.422 -32.432  1.00  0.00    -0.016 A 
HETATM   27  C   UNL     1      -3.577   4.061 -33.658  1.00  0.00     0.010 A 
HETATM   28  C   UNL     1      -2.497   4.939 -33.793  1.00  0.00     0.001 A 
HETATM   29  C   UNL     1      -1.660   5.200 -32.711  1.00  0.00     0.000 A 
HETATM   30  C   UNL     1      -1.904   4.588 -31.486  1.00  0.00     0.001 A 
HETATM   31  C   UNL     1      -2.984   3.715 -31.346  1.00  0.00     0.010 A 
ENDBRANCH   1  26
BRANCH   1  32
HETATM   32  C   UNL     1      -4.765   1.028 -32.596  1.00  0.00    -0.016 A 
HETATM   33  C   UNL     1      -5.757   0.169 -33.103  1.00  0.00     0.010 A 
HETATM   34  C   UNL     1      -5.456  -1.152 -33.444  1.00  0.00     0.001 A 
HETATM   35  C   UNL     1      -4.160  -1.639 -33.291  1.00  0.00     0.000 A 
HETATM   36  C   UNL     1      -3.162  -0.807 -32.795  1.00  0.00     0.001 A 
HETATM   37  C   UNL     1      -3.460   0.513 -32.452  1.00  0.00     0.010 A 
ENDBRANCH   1  32
TORSDOF 5
ENDMDL
MODEL 10
REMARK VINA RESULT:      -9.2      3.992      8.086
REMARK  5 active torsions:
REMARK  status: ('A' for Active; 'I' for Inactive)
REMARK    1  A    between atoms: C_4  and  C_5 
REMARK    2  A    between atoms: C_5  and  C_6 
REMARK    3  A    between atoms: N_15  and  N_16 
REMARK       I    between atoms: N_16  and  C_17 
REMARK    4  A    between atoms: C_17  and  C_18 
REMARK    5  A    between atoms: C_18  and  C_19 
ROOT
HETATM    1  C   UNL     1      -6.555  -0.034 -33.269  1.00  0.00     0.173 A 
HETATM    2  N   UNL     1      -7.582  -0.184 -32.247  1.00  0.00    -0.315 N 
HETATM    3  C   UNL     1      -8.752   0.463 -32.564  1.00  0.00     0.346 A 
HETATM    4  O   UNL     1      -9.764   0.430 -31.881  1.00  0.00    -0.245 OA
HETATM    5  N   UNL     1      -8.585   1.074 -33.772  1.00  0.00    -0.167 N 
HETATM    6  C   UNL     1      -7.364   0.780 -34.334  1.00  0.00     0.285 A 
HETATM    7  O   UNL     1      -6.987   1.077 -35.463  1.00  0.00    -0.267 OA
HETATM    8  H   UNL     1      -7.446  -0.635 -31.354  1.00  0.00     0.166 HD
ENDROOT
BRANCH   5   9
HETATM    9  N   UNL     1      -9.621   1.703 -34.452  1.00  0.00    -0.256 N 
HETATM   10  C   UNL     1      -9.704   3.082 -34.357  1.00  0.00     0.242 C 
HETATM   11  O   UNL     1      -8.892   3.786 -33.760  1.00  0.00    -0.271 OA
HETATM   12  H   UNL     1     -10.508   1.200 -34.419  1.00  0.00     0.191 HD
BRANCH  10  13
HETATM   13  C   UNL     1     -10.821   3.674 -35.186  1.00  0.00     0.166 C 
BRANCH  13  14
HETATM   14  C   UNL     1     -12.044   4.137 -34.423  1.00  0.00     0.074 A 
HETATM   15  N   UNL     1     -12.586   3.313 -33.578  1.00  0.00    -0.175 NA
HETATM   16  N   UNL     1     -13.669   3.727 -32.870  1.00  0.00    -0.243 N 
HETATM   17  C   UNL     1     -14.262   4.964 -32.945  1.00  0.00     0.272 A 
HETATM   18  H   UNL     1     -14.048   3.071 -32.191  1.00  0.00     0.192 HD
HETATM   19  O   UNL     1     -15.222   5.278 -32.251  1.00  0.00    -0.266 OA
HETATM   20  C   UNL     1     -13.682   5.899 -33.922  1.00  0.00     0.046 A 
HETATM   21  C   UNL     1     -12.569   5.504 -34.664  1.00  0.00     0.006 A 
HETATM   22  C   UNL     1     -14.249   7.165 -34.107  1.00  0.00     0.018 A 
HETATM   23  C   UNL     1     -12.016   6.387 -35.599  1.00  0.00     0.014 A 
HETATM   24  C   UNL     1     -12.587   7.651 -35.789  1.00  0.00     0.001 A 
HETATM   25  C   UNL     1     -13.701   8.039 -35.046  1.00  0.00     0.001 A 
ENDBRANCH  13  14
ENDBRANCH  10  13
ENDBRANCH   5   9
BRANCH   1  26
HETATM   26  C   UNL     1      -5.389   0.737 -32.632  1.00  0.00    -0.016 A 
HETATM   27  C   UNL     1      -4.470   0.127 -31.760  1.00  0.00     0.010 A 
HETATM   28  C   UNL     1      -3.390   0.846 -31.239  1.00  0.00     0.001 A 
HETATM   29  C   UNL     1      -3.202   2.183 -31.583  1.00  0.00     0.000 A 
HETATM   30  C   UNL     1      -4.092   2.804 -32.453  1.00  0.00     0.001 A 
HETATM   31  C   UNL     1      -5.169   2.087 -32.978  1.00  0.00     0.010 A 
ENDBRANCH   1  26
BRANCH   1  32
HETATM   32  C   UNL     1      -6.139  -1.379 -33.890  1.00  0.00    -0.016 A 
HETATM   33  C   UNL     1      -4.794  -1.743 -34.085  1.00  0.00     0.010 A 
HETATM   34  C   UNL     1      -4.461  -2.984 -34.636  1.00  0.00     0.001 A 
HETATM   35  C   UNL     1      -5.460  -3.884 -34.996  1.00  0.00     0.000 A 
HETATM   36  C   UNL     1      -6.796  -3.547 -34.808  1.00  0.00     0.001 A 
HETATM   37  C   UNL     1      -7.132  -2.308 -34.260  1.00  0.00     0.010 A 
ENDBRANCH   1  32
TORSDOF 5
ENDMDL
