MODEL 1
REMARK VINA RESULT:      -9.6      0.000      0.000
REMARK  6 active torsions:
REMARK  status: ('A' for Active; 'I' for Inactive)
REMARK    1  A    between atoms: C_2  and  C_3 
REMARK    2  A    between atoms: C_7  and  C_8 
REMARK       I    between atoms: C_8  and  N_9 
REMARK    3  A    between atoms: N_9  and  C_10 
REMARK    4  A    between atoms: C_13  and  C_14 
REMARK       I    between atoms: C_14  and  N_15 
REMARK    5  A    between atoms: N_15  and  C_16 
REMARK    6  A    between atoms: C_16  and  C_17 
ROOT
HETATM    1  C   UNL     1      -3.306   3.974 -31.534  1.00  0.00     0.035 A 
HETATM    2  C   UNL     1      -4.305   4.592 -32.289  1.00  0.00     0.030 A 
HETATM    3  C   UNL     1      -5.236   3.826 -33.006  1.00  0.00     0.019 A 
HETATM    4  C   UNL     1      -5.178   2.430 -32.968  1.00  0.00     0.032 A 
HETATM    5  C   UNL     1      -4.156   1.809 -32.245  1.00  0.00     0.019 A 
HETATM    6  C   UNL     1      -3.229   2.575 -31.532  1.00  0.00     0.030 A 
ENDROOT
BRANCH   1   7
HETATM    7  N   UNL     1      -2.359   4.666 -30.755  1.00  0.00    -0.322 N 
HETATM    8  C   UNL     1      -1.087   5.067 -31.119  1.00  0.00     0.274 C 
HETATM    9  O   UNL     1      -0.558   4.847 -32.203  1.00  0.00    -0.266 OA
HETATM   10  H   UNL     1      -2.664   4.931 -29.829  1.00  0.00     0.169 HD
BRANCH   8  11
HETATM   11  C   UNL     1      -0.383   5.814 -30.103  1.00  0.00     0.120 A 
HETATM   12  N   UNL     1       0.074   5.201 -28.966  1.00  0.00    -0.273 N 
HETATM   13  N   UNL     1       0.716   6.021 -28.118  1.00  0.00    -0.179 NA
HETATM   14  H   UNL     1      -0.026   4.221 -28.722  1.00  0.00     0.189 HD
HETATM   15  C   UNL     1       0.672   7.211 -28.726  1.00  0.00     0.056 A 
HETATM   16  C   UNL     1      -0.004   7.136 -29.967  1.00  0.00     0.065 A 
BRANCH  15  17
HETATM   17  C   UNL     1       1.293   8.409 -28.088  1.00  0.00     0.056 C 
HETATM   18  C   UNL     1       1.705   8.147 -26.648  1.00  0.00     0.011 C 
ENDBRANCH  15  17
ENDBRANCH   8  11
ENDBRANCH   1   7
BRANCH   4  19
HETATM   19  C   UNL     1      -6.174   1.565 -33.657  1.00  0.00     0.251 C 
HETATM   20  N   UNL     1      -5.874   0.224 -33.730  1.00  0.00    -0.353 N 
HETATM   21  H   UNL     1      -5.033  -0.143 -33.310  1.00  0.00     0.163 HD
HETATM   22  O   UNL     1      -7.169   2.063 -34.172  1.00  0.00    -0.268 OA
BRANCH  20  23
HETATM   23  C   UNL     1      -6.714  -0.693 -34.469  1.00  0.00     0.161 C 
BRANCH  23  24
HETATM   24  C   UNL     1      -6.130  -2.085 -34.490  1.00  0.00    -0.040 A 
HETATM   25  C   UNL     1      -4.784  -2.295 -34.151  1.00  0.00     0.012 A 
HETATM   26  C   UNL     1      -4.249  -3.585 -34.142  1.00  0.00     0.043 A 
HETATM   27  C   UNL     1      -5.058  -4.667 -34.467  1.00  0.00     0.116 A 
HETATM   28  F   UNL     1      -4.542  -5.903 -34.460  1.00  0.00    -0.206 F 
HETATM   29  C   UNL     1      -6.397  -4.486 -34.792  1.00  0.00     0.043 A 
HETATM   30  C   UNL     1      -6.935  -3.199 -34.794  1.00  0.00     0.012 A 
ENDBRANCH  23  24
ENDBRANCH  20  23
ENDBRANCH   4  19
TORSDOF 6
ENDMDL
MODEL 2
REMARK VINA RESULT:      -8.1      1.470      1.774
REMARK  6 active torsions:
REMARK  status: ('A' for Active; 'I' for Inactive)
REMARK    1  A    between atoms: C_2  and  C_3 
REMARK    2  A    between atoms: C_7  and  C_8 
REMARK       I    between atoms: C_8  and  N_9 
REMARK    3  A    between atoms: N_9  and  C_10 
REMARK    4  A    between atoms: C_13  and  C_14 
REMARK       I    between atoms: C_14  and  N_15 
REMARK    5  A    between atoms: N_15  and  C_16 
REMARK    6  A    between atoms: C_16  and  C_17 
ROOT
HETATM    1  C   UNL     1      -4.351   3.915 -31.240  1.00  0.00     0.035 A 
HETATM    2  C   UNL     1      -5.554   4.132 -31.916  1.00  0.00     0.030 A 
HETATM    3  C   UNL     1      -6.247   3.064 -32.504  1.00  0.00     0.019 A 
HETATM    4  C   UNL     1      -5.742   1.764 -32.416  1.00  0.00     0.032 A 
HETATM    5  C   UNL     1      -4.519   1.547 -31.774  1.00  0.00     0.019 A 
HETATM    6  C   UNL     1      -3.831   2.615 -31.189  1.00  0.00     0.030 A 
ENDROOT
BRANCH   1   7
HETATM    7  N   UNL     1      -3.614   4.923 -30.588  1.00  0.00    -0.322 N 
HETATM    8  C   UNL     1      -2.488   5.582 -31.043  1.00  0.00     0.274 C 
HETATM    9  O   UNL     1      -1.919   5.362 -32.106  1.00  0.00    -0.266 OA
HETATM   10  H   UNL     1      -3.978   5.221 -29.695  1.00  0.00     0.169 HD
BRANCH   8  11
HETATM   11  C   UNL     1      -2.001   6.612 -30.155  1.00  0.00     0.120 A 
HETATM   12  N   UNL     1      -1.047   6.337 -29.211  1.00  0.00    -0.273 N 
HETATM   13  N   UNL     1      -0.688   7.395 -28.466  1.00  0.00    -0.179 NA
HETATM   14  H   UNL     1      -0.605   5.439 -29.037  1.00  0.00     0.189 HD
HETATM   15  C   UNL     1      -1.438   8.393 -28.942  1.00  0.00     0.056 A 
HETATM   16  C   UNL     1      -2.276   7.957 -29.996  1.00  0.00     0.065 A 
BRANCH  15  17
HETATM   17  C   UNL     1      -1.328   9.764 -28.363  1.00  0.00     0.056 C 
HETATM   18  C   UNL     1      -0.679   9.759 -26.988  1.00  0.00     0.011 C 
ENDBRANCH  15  17
ENDBRANCH   8  11
ENDBRANCH   1   7
BRANCH   4  19
HETATM   19  C   UNL     1      -6.462   0.583 -32.966  1.00  0.00     0.251 C 
HETATM   20  N   UNL     1      -6.113   0.190 -34.238  1.00  0.00    -0.353 N 
HETATM   21  H   UNL     1      -5.386   0.670 -34.748  1.00  0.00     0.163 HD
HETATM   22  O   UNL     1      -7.355   0.050 -32.317  1.00  0.00    -0.268 OA
BRANCH  20  23
HETATM   23  C   UNL     1      -6.821  -0.874 -34.916  1.00  0.00     0.161 C 
BRANCH  23  24
HETATM   24  C   UNL     1      -6.157  -2.211 -34.693  1.00  0.00    -0.040 A 
HETATM   25  C   UNL     1      -6.860  -3.402 -34.935  1.00  0.00     0.012 A 
HETATM   26  C   UNL     1      -6.239  -4.640 -34.756  1.00  0.00     0.043 A 
HETATM   27  C   UNL     1      -4.915  -4.690 -34.339  1.00  0.00     0.116 A 
HETATM   28  F   UNL     1      -4.322  -5.879 -34.167  1.00  0.00    -0.206 F 
HETATM   29  C   UNL     1      -4.194  -3.526 -34.107  1.00  0.00     0.043 A 
HETATM   30  C   UNL     1      -4.810  -2.288 -34.292  1.00  0.00     0.012 A 
ENDBRANCH  23  24
ENDBRANCH  20  23
ENDBRANCH   4  19
TORSDOF 6
ENDMDL
MODEL 3
REMARK VINA RESULT:      -8.0      4.216     10.599
REMARK  6 active torsions:
REMARK  status: ('A' for Active; 'I' for Inactive)
REMARK    1  A    between atoms: C_2  and  C_3 
REMARK    2  A    between atoms: C_7  and  C_8 
REMARK       I    between atoms: C_8  and  N_9 
REMARK    3  A    between atoms: N_9  and  C_10 
REMARK    4  A    between atoms: C_13  and  C_14 
REMARK       I    between atoms: C_14  and  N_15 
REMARK    5  A    between atoms: N_15  and  C_16 
REMARK    6  A    between atoms: C_16  and  C_17 
ROOT
HETATM    1  C   UNL     1      -3.967   1.921 -32.101  1.00  0.00     0.035 A 
HETATM    2  C   UNL     1      -3.127   2.877 -32.676  1.00  0.00     0.030 A 
HETATM    3  C   UNL     1      -3.137   4.203 -32.220  1.00  0.00     0.019 A 
HETATM    4  C   UNL     1      -3.988   4.584 -31.179  1.00  0.00     0.032 A 
HETATM    5  C   UNL     1      -4.857   3.638 -30.627  1.00  0.00     0.019 A 
HETATM    6  C   UNL     1      -4.844   2.317 -31.084  1.00  0.00     0.030 A 
ENDROOT
BRANCH   1   7
HETATM    7  N   UNL     1      -3.991   0.562 -32.471  1.00  0.00    -0.322 N 
HETATM    8  C   UNL     1      -3.202  -0.465 -31.987  1.00  0.00     0.274 C 
HETATM    9  O   UNL     1      -2.308  -0.341 -31.157  1.00  0.00    -0.266 OA
HETATM   10  H   UNL     1      -4.696   0.305 -33.147  1.00  0.00     0.169 HD
BRANCH   8  11
HETATM   11  C   UNL     1      -3.516  -1.766 -32.533  1.00  0.00     0.120 A 
HETATM   12  N   UNL     1      -2.983  -2.905 -31.991  1.00  0.00    -0.273 N 
HETATM   13  N   UNL     1      -3.372  -4.038 -32.598  1.00  0.00    -0.179 NA
HETATM   14  H   UNL     1      -2.347  -2.963 -31.202  1.00  0.00     0.189 HD
HETATM   15  C   UNL     1      -4.187  -3.618 -33.571  1.00  0.00     0.056 A 
HETATM   16  C   UNL     1      -4.309  -2.208 -33.575  1.00  0.00     0.065 A 
BRANCH  15  17
HETATM   17  C   UNL     1      -4.839  -4.599 -34.488  1.00  0.00     0.056 C 
HETATM   18  C   UNL     1      -6.238  -4.164 -34.896  1.00  0.00     0.011 C 
ENDBRANCH  15  17
ENDBRANCH   8  11
ENDBRANCH   1   7
BRANCH   4  19
HETATM   19  C   UNL     1      -3.998   5.960 -30.612  1.00  0.00     0.251 C 
HETATM   20  N   UNL     1      -3.024   6.247 -29.683  1.00  0.00    -0.353 N 
HETATM   21  H   UNL     1      -2.329   5.560 -29.430  1.00  0.00     0.163 HD
HETATM   22  O   UNL     1      -4.878   6.750 -30.932  1.00  0.00    -0.268 OA
BRANCH  20  23
HETATM   23  C   UNL     1      -3.003   7.514 -28.985  1.00  0.00     0.161 C 
BRANCH  23  24
HETATM   24  C   UNL     1      -1.604   7.888 -28.557  1.00  0.00    -0.040 A 
HETATM   25  C   UNL     1      -0.491   7.293 -29.172  1.00  0.00     0.012 A 
HETATM   26  C   UNL     1       0.803   7.658 -28.797  1.00  0.00     0.043 A 
HETATM   27  C   UNL     1       0.988   8.619 -27.811  1.00  0.00     0.116 A 
HETATM   28  F   UNL     1       2.231   8.966 -27.452  1.00  0.00    -0.206 F 
HETATM   29  C   UNL     1      -0.097   9.232 -27.198  1.00  0.00     0.043 A 
HETATM   30  C   UNL     1      -1.391   8.874 -27.576  1.00  0.00     0.012 A 
ENDBRANCH  23  24
ENDBRANCH  20  23
ENDBRANCH   4  19
TORSDOF 6
ENDMDL
MODEL 4
REMARK VINA RESULT:      -8.0      3.844      5.062
REMARK  6 active torsions:
REMARK  status: ('A' for Active; 'I' for Inactive)
REMARK    1  A    between atoms: C_2  and  C_3 
REMARK    2  A    between atoms: C_7  and  C_8 
REMARK       I    between atoms: C_8  and  N_9 
REMARK    3  A    between atoms: N_9  and  C_10 
REMARK    4  A    between atoms: C_13  and  C_14 
REMARK       I    between atoms: C_14  and  N_15 
REMARK    5  A    between atoms: N_15  and  C_16 
REMARK    6  A    between atoms: C_16  and  C_17 
ROOT
HETATM    1  C   UNL     1      -3.675   3.401 -31.634  1.00  0.00     0.035 A 
HETATM    2  C   UNL     1      -3.602   2.040 -31.938  1.00  0.00     0.030 A 
HETATM    3  C   UNL     1      -4.637   1.406 -32.641  1.00  0.00     0.019 A 
HETATM    4  C   UNL     1      -5.757   2.135 -33.051  1.00  0.00     0.032 A 
HETATM    5  C   UNL     1      -5.852   3.488 -32.716  1.00  0.00     0.019 A 
HETATM    6  C   UNL     1      -4.818   4.116 -32.015  1.00  0.00     0.030 A 
ENDROOT
BRANCH   1   7
HETATM    7  N   UNL     1      -2.664   4.121 -30.969  1.00  0.00    -0.322 N 
HETATM    8  C   UNL     1      -1.642   4.865 -31.527  1.00  0.00     0.274 C 
HETATM    9  O   UNL     1      -1.432   4.991 -32.728  1.00  0.00    -0.266 OA
HETATM   10  H   UNL     1      -2.717   4.119 -29.960  1.00  0.00     0.169 HD
BRANCH   8  11
HETATM   11  C   UNL     1      -0.797   5.534 -30.565  1.00  0.00     0.120 A 
HETATM   12  N   UNL     1      -0.037   4.821 -29.677  1.00  0.00    -0.273 N 
HETATM   13  N   UNL     1       0.703   5.580 -28.852  1.00  0.00    -0.179 NA
HETATM   14  H   UNL     1       0.015   3.811 -29.596  1.00  0.00     0.189 HD
HETATM   15  C   UNL     1       0.409   6.832 -29.216  1.00  0.00     0.056 A 
HETATM   16  C   UNL     1      -0.523   6.859 -30.280  1.00  0.00     0.065 A 
BRANCH  15  17
HETATM   17  C   UNL     1       1.044   7.990 -28.521  1.00  0.00     0.056 C 
HETATM   18  C   UNL     1       1.343   7.692 -27.060  1.00  0.00     0.011 C 
ENDBRANCH  15  17
ENDBRANCH   8  11
ENDBRANCH   1   7
BRANCH   4  19
HETATM   19  C   UNL     1      -6.857   1.533 -33.853  1.00  0.00     0.251 C 
HETATM   20  N   UNL     1      -8.122   1.619 -33.319  1.00  0.00    -0.353 N 
HETATM   21  H   UNL     1      -8.284   2.093 -32.442  1.00  0.00     0.163 HD
HETATM   22  O   UNL     1      -6.606   0.947 -34.899  1.00  0.00    -0.268 OA
BRANCH  20  23
HETATM   23  C   UNL     1      -9.251   0.976 -33.954  1.00  0.00     0.161 C 
BRANCH  23  24
HETATM   24  C   UNL     1     -10.288   1.982 -34.394  1.00  0.00    -0.040 A 
HETATM   25  C   UNL     1      -9.970   3.348 -34.452  1.00  0.00     0.012 A 
HETATM   26  C   UNL     1     -10.919   4.277 -34.884  1.00  0.00     0.043 A 
HETATM   27  C   UNL     1     -12.183   3.843 -35.264  1.00  0.00     0.116 A 
HETATM   28  F   UNL     1     -13.091   4.736 -35.677  1.00  0.00    -0.206 F 
HETATM   29  C   UNL     1     -12.516   2.495 -35.228  1.00  0.00     0.043 A 
HETATM   30  C   UNL     1     -11.567   1.564 -34.803  1.00  0.00     0.012 A 
ENDBRANCH  23  24
ENDBRANCH  20  23
ENDBRANCH   4  19
TORSDOF 6
ENDMDL
MODEL 5
REMARK VINA RESULT:      -7.9      3.746     10.718
REMARK  6 active torsions:
REMARK  status: ('A' for Active; 'I' for Inactive)
REMARK    1  A    between atoms: C_2  and  C_3 
REMARK    2  A    between atoms: C_7  and  C_8 
REMARK       I    between atoms: C_8  and  N_9 
REMARK    3  A    between atoms: N_9  and  C_10 
REMARK    4  A    between atoms: C_13  and  C_14 
REMARK       I    between atoms: C_14  and  N_15 
REMARK    5  A    between atoms: N_15  and  C_16 
REMARK    6  A    between atoms: C_16  and  C_17 
ROOT
HETATM    1  C   UNL     1      -4.647   2.445 -31.905  1.00  0.00     0.035 A 
HETATM    2  C   UNL     1      -5.481   3.131 -31.019  1.00  0.00     0.030 A 
HETATM    3  C   UNL     1      -5.134   4.406 -30.550  1.00  0.00     0.019 A 
HETATM    4  C   UNL     1      -3.945   5.010 -30.970  1.00  0.00     0.032 A 
HETATM    5  C   UNL     1      -3.089   4.312 -31.826  1.00  0.00     0.019 A 
HETATM    6  C   UNL     1      -3.440   3.040 -32.292  1.00  0.00     0.030 A 
ENDROOT
BRANCH   1   7
HETATM    7  N   UNL     1      -4.941   1.182 -32.454  1.00  0.00    -0.322 N 
HETATM    8  C   UNL     1      -5.801   0.886 -33.495  1.00  0.00     0.274 C 
HETATM    9  O   UNL     1      -6.487   1.702 -34.101  1.00  0.00    -0.266 OA
HETATM   10  H   UNL     1      -4.432   0.405 -32.058  1.00  0.00     0.169 HD
BRANCH   8  11
HETATM   11  C   UNL     1      -5.836  -0.511 -33.861  1.00  0.00     0.120 A 
HETATM   12  N   UNL     1      -4.716  -1.294 -33.765  1.00  0.00    -0.273 N 
HETATM   13  N   UNL     1      -4.905  -2.572 -34.131  1.00  0.00    -0.179 NA
HETATM   14  H   UNL     1      -3.795  -1.002 -33.452  1.00  0.00     0.189 HD
HETATM   15  C   UNL     1      -6.194  -2.621 -34.479  1.00  0.00     0.056 A 
HETATM   16  C   UNL     1      -6.820  -1.360 -34.330  1.00  0.00     0.065 A 
BRANCH  15  17
HETATM   17  C   UNL     1      -6.802  -3.898 -34.952  1.00  0.00     0.056 C 
HETATM   18  C   UNL     1      -5.759  -4.980 -35.190  1.00  0.00     0.011 C 
ENDBRANCH  15  17
ENDBRANCH   8  11
ENDBRANCH   1   7
BRANCH   4  19
HETATM   19  C   UNL     1      -3.553   6.385 -30.556  1.00  0.00     0.251 C 
HETATM   20  N   UNL     1      -2.250   6.752 -30.808  1.00  0.00    -0.353 N 
HETATM   21  H   UNL     1      -1.615   6.122 -31.275  1.00  0.00     0.163 HD
HETATM   22  O   UNL     1      -4.354   7.103 -29.970  1.00  0.00    -0.268 OA
BRANCH  20  23
HETATM   23  C   UNL     1      -1.727   8.021 -30.352  1.00  0.00     0.161 C 
BRANCH  23  24
HETATM   24  C   UNL     1      -0.744   7.842 -29.220  1.00  0.00    -0.040 A 
HETATM   25  C   UNL     1      -0.041   6.635 -29.076  1.00  0.00     0.012 A 
HETATM   26  C   UNL     1       0.889   6.477 -28.046  1.00  0.00     0.043 A 
HETATM   27  C   UNL     1       1.120   7.524 -27.163  1.00  0.00     0.116 A 
HETATM   28  F   UNL     1       2.012   7.369 -26.175  1.00  0.00    -0.206 F 
HETATM   29  C   UNL     1       0.448   8.732 -27.294  1.00  0.00     0.043 A 
HETATM   30  C   UNL     1      -0.477   8.895 -28.326  1.00  0.00     0.012 A 
ENDBRANCH  23  24
ENDBRANCH  20  23
ENDBRANCH   4  19
TORSDOF 6
ENDMDL
MODEL 6
REMARK VINA RESULT:      -7.8      4.200     10.938
REMARK  6 active torsions:
REMARK  status: ('A' for Active; 'I' for Inactive)
REMARK    1  A    between atoms: C_2  and  C_3 
REMARK    2  A    between atoms: C_7  and  C_8 
REMARK       I    between atoms: C_8  and  N_9 
REMARK    3  A    between atoms: N_9  and  C_10 
REMARK    4  A    between atoms: C_13  and  C_14 
REMARK       I    between atoms: C_14  and  N_15 
REMARK    5  A    between atoms: N_15  and  C_16 
REMARK    6  A    between atoms: C_16  and  C_17 
ROOT
HETATM    1  C   UNL     1      -3.494   3.781 -32.510  1.00  0.00     0.035 A 
HETATM    2  C   UNL     1      -2.270   4.320 -32.914  1.00  0.00     0.030 A 
HETATM    3  C   UNL     1      -1.884   5.604 -32.505  1.00  0.00     0.019 A 
HETATM    4  C   UNL     1      -2.722   6.362 -31.682  1.00  0.00     0.032 A 
HETATM    5  C   UNL     1      -3.964   5.842 -31.308  1.00  0.00     0.019 A 
HETATM    6  C   UNL     1      -4.345   4.561 -31.717  1.00  0.00     0.030 A 
ENDROOT
BRANCH   1   7
HETATM    7  N   UNL     1      -3.938   2.486 -32.842  1.00  0.00    -0.322 N 
HETATM    8  C   UNL     1      -3.636   1.295 -32.208  1.00  0.00     0.274 C 
HETATM    9  O   UNL     1      -2.885   1.175 -31.247  1.00  0.00    -0.266 OA
HETATM   10  H   UNL     1      -4.584   2.431 -33.616  1.00  0.00     0.169 HD
BRANCH   8  11
HETATM   11  C   UNL     1      -4.304   0.140 -32.762  1.00  0.00     0.120 A 
HETATM   12  N   UNL     1      -3.692  -1.085 -32.784  1.00  0.00    -0.273 N 
HETATM   13  N   UNL     1      -4.438  -2.064 -33.320  1.00  0.00    -0.179 NA
HETATM   14  H   UNL     1      -2.762  -1.306 -32.442  1.00  0.00     0.189 HD
HETATM   15  C   UNL     1      -5.576  -1.452 -33.661  1.00  0.00     0.056 A 
HETATM   16  C   UNL     1      -5.543  -0.075 -33.335  1.00  0.00     0.065 A 
BRANCH  15  17
HETATM   17  C   UNL     1      -6.686  -2.218 -34.300  1.00  0.00     0.056 C 
HETATM   18  C   UNL     1      -6.216  -3.551 -34.863  1.00  0.00     0.011 C 
ENDBRANCH  15  17
ENDBRANCH   8  11
ENDBRANCH   1   7
BRANCH   4  19
HETATM   19  C   UNL     1      -2.341   7.705 -31.166  1.00  0.00     0.251 C 
HETATM   20  N   UNL     1      -2.148   7.807 -29.807  1.00  0.00    -0.353 N 
HETATM   21  H   UNL     1      -2.237   6.999 -29.208  1.00  0.00     0.163 HD
HETATM   22  O   UNL     1      -2.270   8.660 -31.930  1.00  0.00    -0.268 OA
BRANCH  20  23
HETATM   23  C   UNL     1      -1.883   9.084 -29.180  1.00  0.00     0.161 C 
BRANCH  23  24
HETATM   24  C   UNL     1      -0.657   9.025 -28.302  1.00  0.00    -0.040 A 
HETATM   25  C   UNL     1      -0.505   9.925 -27.235  1.00  0.00     0.012 A 
HETATM   26  C   UNL     1       0.615   9.855 -26.404  1.00  0.00     0.043 A 
HETATM   27  C   UNL     1       1.582   8.885 -26.634  1.00  0.00     0.116 A 
HETATM   28  F   UNL     1       2.656   8.821 -25.836  1.00  0.00    -0.206 F 
HETATM   29  C   UNL     1       1.447   7.974 -27.674  1.00  0.00     0.043 A 
HETATM   30  C   UNL     1       0.326   8.038 -28.501  1.00  0.00     0.012 A 
ENDBRANCH  23  24
ENDBRANCH  20  23
ENDBRANCH   4  19
TORSDOF 6
ENDMDL
MODEL 7
REMARK VINA RESULT:      -7.7      5.642      9.693
REMARK  6 active torsions:
REMARK  status: ('A' for Active; 'I' for Inactive)
REMARK    1  A    between atoms: C_2  and  C_3 
REMARK    2  A    between atoms: C_7  and  C_8 
REMARK       I    between atoms: C_8  and  N_9 
REMARK    3  A    between atoms: N_9  and  C_10 
REMARK    4  A    between atoms: C_13  and  C_14 
REMARK       I    between atoms: C_14  and  N_15 
REMARK    5  A    between atoms: N_15  and  C_16 
REMARK    6  A    between atoms: C_16  and  C_17 
ROOT
HETATM    1  C   UNL     1      -9.818   2.381 -32.362  1.00  0.00     0.035 A 
HETATM    2  C   UNL     1      -9.149   2.303 -33.586  1.00  0.00     0.030 A 
HETATM    3  C   UNL     1      -7.768   2.069 -33.633  1.00  0.00     0.019 A 
HETATM    4  C   UNL     1      -7.041   1.906 -32.450  1.00  0.00     0.032 A 
HETATM    5  C   UNL     1      -7.699   2.021 -31.222  1.00  0.00     0.019 A 
HETATM    6  C   UNL     1      -9.077   2.254 -31.180  1.00  0.00     0.030 A 
ENDROOT
BRANCH   1   7
HETATM    7  N   UNL     1     -11.207   2.572 -32.228  1.00  0.00    -0.322 N 
HETATM    8  C   UNL     1     -11.987   3.565 -32.791  1.00  0.00     0.274 C 
HETATM    9  O   UNL     1     -11.572   4.480 -33.493  1.00  0.00    -0.266 OA
HETATM   10  H   UNL     1     -11.693   1.876 -31.680  1.00  0.00     0.169 HD
BRANCH   8  11
HETATM   11  C   UNL     1     -13.398   3.448 -32.505  1.00  0.00     0.120 A 
HETATM   12  N   UNL     1     -13.968   2.229 -32.248  1.00  0.00    -0.273 N 
HETATM   13  N   UNL     1     -15.285   2.279 -31.990  1.00  0.00    -0.179 NA
HETATM   14  H   UNL     1     -13.497   1.329 -32.234  1.00  0.00     0.189 HD
HETATM   15  C   UNL     1     -15.582   3.579 -32.086  1.00  0.00     0.056 A 
HETATM   16  C   UNL     1     -14.440   4.351 -32.407  1.00  0.00     0.065 A 
BRANCH  15  17
HETATM   17  C   UNL     1     -16.978   4.054 -31.862  1.00  0.00     0.056 C 
HETATM   18  C   UNL     1     -17.966   2.903 -31.741  1.00  0.00     0.011 C 
ENDBRANCH  15  17
ENDBRANCH   8  11
ENDBRANCH   1   7
BRANCH   4  19
HETATM   19  C   UNL     1      -5.586   1.594 -32.437  1.00  0.00     0.251 C 
HETATM   20  N   UNL     1      -5.220   0.358 -32.921  1.00  0.00    -0.353 N 
HETATM   21  H   UNL     1      -5.910  -0.280 -33.288  1.00  0.00     0.163 HD
HETATM   22  O   UNL     1      -4.790   2.393 -31.959  1.00  0.00    -0.268 OA
BRANCH  20  23
HETATM   23  C   UNL     1      -3.848  -0.096 -32.858  1.00  0.00     0.161 C 
BRANCH  23  24
HETATM   24  C   UNL     1      -3.755  -1.598 -32.986  1.00  0.00    -0.040 A 
HETATM   25  C   UNL     1      -3.153  -2.360 -31.973  1.00  0.00     0.012 A 
HETATM   26  C   UNL     1      -3.091  -3.752 -32.077  1.00  0.00     0.043 A 
HETATM   27  C   UNL     1      -3.633  -4.383 -33.190  1.00  0.00     0.116 A 
HETATM   28  F   UNL     1      -3.570  -5.717 -33.288  1.00  0.00    -0.206 F 
HETATM   29  C   UNL     1      -4.246  -3.650 -34.199  1.00  0.00     0.043 A 
HETATM   30  C   UNL     1      -4.316  -2.261 -34.093  1.00  0.00     0.012 A 
ENDBRANCH  23  24
ENDBRANCH  20  23
ENDBRANCH   4  19
TORSDOF 6
ENDMDL
MODEL 8
REMARK VINA RESULT:      -7.5     16.723     20.660
REMARK  6 active torsions:
REMARK  status: ('A' for Active; 'I' for Inactive)
REMARK    1  A    between atoms: C_2  and  C_3 
REMARK    2  A    between atoms: C_7  and  C_8 
REMARK       I    between atoms: C_8  and  N_9 
REMARK    3  A    between atoms: N_9  and  C_10 
REMARK    4  A    between atoms: C_13  and  C_14 
REMARK       I    between atoms: C_14  and  N_15 
REMARK    5  A    between atoms: N_15  and  C_16 
REMARK    6  A    between atoms: C_16  and  C_17 
ROOT
HETATM    1  C   UNL     1      -7.764 -13.648 -40.117  1.00  0.00     0.035 A 
HETATM    2  C   UNL     1      -6.903 -12.788 -40.803  1.00  0.00     0.030 A 
HETATM    3  C   UNL     1      -5.720 -12.332 -40.204  1.00  0.00     0.019 A 
HETATM    4  C   UNL     1      -5.385 -12.739 -38.909  1.00  0.00     0.032 A 
HETATM    5  C   UNL     1      -6.262 -13.569 -38.205  1.00  0.00     0.019 A 
HETATM    6  C   UNL     1      -7.441 -14.022 -38.807  1.00  0.00     0.030 A 
ENDROOT
BRANCH   1   7
HETATM    7  N   UNL     1      -8.948 -14.184 -40.660  1.00  0.00    -0.322 N 
HETATM    8  C   UNL     1     -10.250 -13.786 -40.419  1.00  0.00     0.274 C 
HETATM    9  O   UNL     1     -10.587 -12.896 -39.647  1.00  0.00    -0.266 OA
HETATM   10  H   UNL     1      -8.824 -14.926 -41.333  1.00  0.00     0.169 HD
BRANCH   8  11
HETATM   11  C   UNL     1     -11.244 -14.505 -41.182  1.00  0.00     0.120 A 
HETATM   12  N   UNL     1     -12.540 -14.067 -41.242  1.00  0.00    -0.273 N 
HETATM   13  N   UNL     1     -13.345 -14.833 -41.996  1.00  0.00    -0.179 NA
HETATM   14  H   UNL     1     -12.926 -13.246 -40.787  1.00  0.00     0.189 HD
HETATM   15  C   UNL     1     -12.543 -15.806 -42.439  1.00  0.00     0.056 A 
HETATM   16  C   UNL     1     -11.221 -15.648 -41.959  1.00  0.00     0.065 A 
BRANCH  15  17
HETATM   17  C   UNL     1     -13.075 -16.879 -43.329  1.00  0.00     0.056 C 
HETATM   18  C   UNL     1     -14.573 -17.083 -43.153  1.00  0.00     0.011 C 
ENDBRANCH  15  17
ENDBRANCH   8  11
ENDBRANCH   1   7
BRANCH   4  19
HETATM   19  C   UNL     1      -4.115 -12.339 -38.245  1.00  0.00     0.251 C 
HETATM   20  N   UNL     1      -2.972 -12.418 -39.009  1.00  0.00    -0.353 N 
HETATM   21  H   UNL     1      -3.014 -12.708 -39.975  1.00  0.00     0.163 HD
HETATM   22  O   UNL     1      -4.114 -12.018 -37.062  1.00  0.00    -0.268 OA
BRANCH  20  23
HETATM   23  C   UNL     1      -1.669 -12.160 -38.438  1.00  0.00     0.161 C 
BRANCH  23  24
HETATM   24  C   UNL     1      -0.983 -13.438 -38.019  1.00  0.00    -0.040 A 
HETATM   25  C   UNL     1       0.048 -13.979 -38.802  1.00  0.00     0.012 A 
HETATM   26  C   UNL     1       0.702 -15.147 -38.402  1.00  0.00     0.043 A 
HETATM   27  C   UNL     1       0.330 -15.771 -37.218  1.00  0.00     0.116 A 
HETATM   28  F   UNL     1       0.958 -16.892 -36.837  1.00  0.00    -0.206 F 
HETATM   29  C   UNL     1      -0.678 -15.247 -36.419  1.00  0.00     0.043 A 
HETATM   30  C   UNL     1      -1.328 -14.077 -36.813  1.00  0.00     0.012 A 
ENDBRANCH  23  24
ENDBRANCH  20  23
ENDBRANCH   4  19
TORSDOF 6
ENDMDL
MODEL 9
REMARK VINA RESULT:      -7.4      5.659      7.151
REMARK  6 active torsions:
REMARK  status: ('A' for Active; 'I' for Inactive)
REMARK    1  A    between atoms: C_2  and  C_3 
REMARK    2  A    between atoms: C_7  and  C_8 
REMARK       I    between atoms: C_8  and  N_9 
REMARK    3  A    between atoms: N_9  and  C_10 
REMARK    4  A    between atoms: C_13  and  C_14 
REMARK       I    between atoms: C_14  and  N_15 
REMARK    5  A    between atoms: N_15  and  C_16 
REMARK    6  A    between atoms: C_16  and  C_17 
ROOT
HETATM    1  C   UNL     1      -6.371   2.869 -32.555  1.00  0.00     0.035 A 
HETATM    2  C   UNL     1      -7.106   2.470 -31.436  1.00  0.00     0.030 A 
HETATM    3  C   UNL     1      -8.330   1.803 -31.585  1.00  0.00     0.019 A 
HETATM    4  C   UNL     1      -8.829   1.523 -32.860  1.00  0.00     0.032 A 
HETATM    5  C   UNL     1      -8.115   1.954 -33.982  1.00  0.00     0.019 A 
HETATM    6  C   UNL     1      -6.895   2.619 -33.830  1.00  0.00     0.030 A 
ENDROOT
BRANCH   1   7
HETATM    7  N   UNL     1      -5.116   3.506 -32.494  1.00  0.00    -0.322 N 
HETATM    8  C   UNL     1      -3.866   2.919 -32.443  1.00  0.00     0.274 C 
HETATM    9  O   UNL     1      -3.650   1.713 -32.409  1.00  0.00    -0.266 OA
HETATM   10  H   UNL     1      -5.137   4.515 -32.528  1.00  0.00     0.169 HD
BRANCH   8  11
HETATM   11  C   UNL     1      -2.767   3.857 -32.446  1.00  0.00     0.120 A 
HETATM   12  N   UNL     1      -2.306   4.399 -33.616  1.00  0.00    -0.273 N 
HETATM   13  N   UNL     1      -1.287   5.260 -33.461  1.00  0.00    -0.179 NA
HETATM   14  H   UNL     1      -2.656   4.215 -34.551  1.00  0.00     0.189 HD
HETATM   15  C   UNL     1      -1.077   5.276 -32.141  1.00  0.00     0.056 A 
HETATM   16  C   UNL     1      -1.973   4.416 -31.462  1.00  0.00     0.065 A 
BRANCH  15  17
HETATM   17  C   UNL     1      -0.004   6.132 -31.556  1.00  0.00     0.056 C 
HETATM   18  C   UNL     1       0.390   5.685 -30.156  1.00  0.00     0.011 C 
ENDBRANCH  15  17
ENDBRANCH   8  11
ENDBRANCH   1   7
BRANCH   4  19
HETATM   19  C   UNL     1     -10.090   0.764 -33.081  1.00  0.00     0.251 C 
HETATM   20  N   UNL     1     -11.117   1.447 -33.690  1.00  0.00    -0.353 N 
HETATM   21  H   UNL     1     -10.998   2.404 -33.990  1.00  0.00     0.163 HD
HETATM   22  O   UNL     1     -10.193  -0.388 -32.676  1.00  0.00    -0.268 OA
BRANCH  20  23
HETATM   23  C   UNL     1     -12.423   0.847 -33.857  1.00  0.00     0.161 C 
BRANCH  23  24
HETATM   24  C   UNL     1     -13.510   1.710 -33.263  1.00  0.00    -0.040 A 
HETATM   25  C   UNL     1     -14.831   1.240 -33.197  1.00  0.00     0.012 A 
HETATM   26  C   UNL     1     -15.833   2.025 -32.623  1.00  0.00     0.043 A 
HETATM   27  C   UNL     1     -15.517   3.277 -32.111  1.00  0.00     0.116 A 
HETATM   28  F   UNL     1     -16.480   4.029 -31.563  1.00  0.00    -0.206 F 
HETATM   29  C   UNL     1     -14.214   3.758 -32.152  1.00  0.00     0.043 A 
HETATM   30  C   UNL     1     -13.210   2.972 -32.719  1.00  0.00     0.012 A 
ENDBRANCH  23  24
ENDBRANCH  20  23
ENDBRANCH   4  19
TORSDOF 6
ENDMDL
MODEL 10
REMARK VINA RESULT:      -7.4      4.940     10.944
REMARK  6 active torsions:
REMARK  status: ('A' for Active; 'I' for Inactive)
REMARK    1  A    between atoms: C_2  and  C_3 
REMARK    2  A    between atoms: C_7  and  C_8 
REMARK       I    between atoms: C_8  and  N_9 
REMARK    3  A    between atoms: N_9  and  C_10 
REMARK    4  A    between atoms: C_13  and  C_14 
REMARK       I    between atoms: C_14  and  N_15 
REMARK    5  A    between atoms: N_15  and  C_16 
REMARK    6  A    between atoms: C_16  and  C_17 
ROOT
HETATM    1  C   UNL     1      -4.707   4.040 -32.264  1.00  0.00     0.035 A 
HETATM    2  C   UNL     1      -3.536   3.608 -32.890  1.00  0.00     0.030 A 
HETATM    3  C   UNL     1      -2.288   4.116 -32.502  1.00  0.00     0.019 A 
HETATM    4  C   UNL     1      -2.201   5.062 -31.477  1.00  0.00     0.032 A 
HETATM    5  C   UNL     1      -3.374   5.526 -30.874  1.00  0.00     0.019 A 
HETATM    6  C   UNL     1      -4.616   5.017 -31.264  1.00  0.00     0.030 A 
ENDROOT
BRANCH   1   7
HETATM    7  N   UNL     1      -5.993   3.551 -32.564  1.00  0.00    -0.322 N 
HETATM    8  C   UNL     1      -6.902   4.053 -33.477  1.00  0.00     0.274 C 
HETATM    9  O   UNL     1      -6.736   5.053 -34.166  1.00  0.00    -0.266 OA
HETATM   10  H   UNL     1      -6.267   2.711 -32.075  1.00  0.00     0.169 HD
BRANCH   8  11
HETATM   11  C   UNL     1      -8.119   3.284 -33.591  1.00  0.00     0.120 A 
HETATM   12  N   UNL     1      -9.221   3.794 -34.225  1.00  0.00    -0.273 N 
HETATM   13  N   UNL     1     -10.272   2.960 -34.260  1.00  0.00    -0.179 NA
HETATM   14  H   UNL     1      -9.304   4.710 -34.655  1.00  0.00     0.189 HD
HETATM   15  C   UNL     1      -9.839   1.869 -33.622  1.00  0.00     0.056 A 
HETATM   16  C   UNL     1      -8.502   2.020 -33.183  1.00  0.00     0.065 A 
BRANCH  15  17
HETATM   17  C   UNL     1     -10.735   0.688 -33.449  1.00  0.00     0.056 C 
HETATM   18  C   UNL     1     -12.193   1.027 -33.719  1.00  0.00     0.011 C 
ENDBRANCH  15  17
ENDBRANCH   8  11
ENDBRANCH   1   7
BRANCH   4  19
HETATM   19  C   UNL     1      -0.902   5.592 -30.980  1.00  0.00     0.251 C 
HETATM   20  N   UNL     1      -0.418   5.037 -29.817  1.00  0.00    -0.353 N 
HETATM   21  H   UNL     1      -0.916   4.292 -29.352  1.00  0.00     0.163 HD
HETATM   22  O   UNL     1      -0.349   6.515 -31.567  1.00  0.00    -0.268 OA
BRANCH  20  23
HETATM   23  C   UNL     1       0.777   5.547 -29.183  1.00  0.00     0.161 C 
BRANCH  23  24
HETATM   24  C   UNL     1       0.456   6.631 -28.183  1.00  0.00    -0.040 A 
HETATM   25  C   UNL     1       1.037   7.903 -28.304  1.00  0.00     0.012 A 
HETATM   26  C   UNL     1       0.720   8.916 -27.396  1.00  0.00     0.043 A 
HETATM   27  C   UNL     1      -0.182   8.661 -26.370  1.00  0.00     0.116 A 
HETATM   28  F   UNL     1      -0.483   9.633 -25.500  1.00  0.00    -0.206 F 
HETATM   29  C   UNL     1      -0.781   7.415 -26.238  1.00  0.00     0.043 A 
HETATM   30  C   UNL     1      -0.471   6.404 -27.148  1.00  0.00     0.012 A 
ENDBRANCH  23  24
ENDBRANCH  20  23
ENDBRANCH   4  19
TORSDOF 6
ENDMDL
