MODEL 1
REMARK VINA RESULT:      -8.8      0.000      0.000
REMARK  5 active torsions:
REMARK  status: ('A' for Active; 'I' for Inactive)
REMARK    1  A    between atoms: C_2  and  C_3 
REMARK    2  A    between atoms: C_3  and  O_4 
REMARK    3  A    between atoms: O_4  and  C_5 
REMARK    4  A    between atoms: C_8  and  C_9 
REMARK    5  A    between atoms: C_15  and  C_16 
ROOT
HETATM    1  C   UNL     1      -7.748   1.269 -33.774  1.00  0.00     0.066 C 
HETATM    2  C   UNL     1      -7.480   1.802 -32.413  1.00  0.00     0.028 A 
HETATM    3  C   UNL     1      -8.226   1.449 -31.318  1.00  0.00     0.133 A 
HETATM    4  N   UNL     1      -7.679   2.071 -30.242  1.00  0.00    -0.261 N 
HETATM    5  H   UNL     1      -7.958   2.031 -29.267  1.00  0.00     0.191 HD
HETATM    6  N   UNL     1      -6.631   2.840 -30.568  1.00  0.00    -0.172 NA
HETATM    7  C   UNL     1      -6.493   2.698 -31.899  1.00  0.00     0.098 A 
HETATM    8  N   UNL     1      -9.285   0.581 -31.393  1.00  0.00    -0.312 N 
HETATM    9  C   UNL     1      -9.730   0.113 -32.669  1.00  0.00     0.224 C 
HETATM   10  O   UNL     1     -10.624  -0.718 -32.649  1.00  0.00    -0.273 OA
HETATM   11  C   UNL     1      -9.186   0.761 -33.918  1.00  0.00     0.117 C 
HETATM   12  H   UNL     1      -9.765   0.230 -30.572  1.00  0.00     0.170 HD
ENDROOT
BRANCH   1  13
HETATM   13  C   UNL     1      -6.715   0.186 -34.049  1.00  0.00    -0.049 A 
HETATM   14  C   UNL     1      -5.447   0.157 -33.444  1.00  0.00     0.010 A 
HETATM   15  C   UNL     1      -4.581  -0.917 -33.655  1.00  0.00     0.037 A 
HETATM   16  C   UNL     1      -4.966  -1.991 -34.452  1.00  0.00     0.069 A 
HETATM   17  C   UNL     1      -6.194  -1.956 -35.107  1.00  0.00     0.037 A 
HETATM   18  C   UNL     1      -7.063  -0.878 -34.902  1.00  0.00     0.010 A 
BRANCH  16  19
HETATM   19  O   UNL     1      -4.064  -3.013 -34.548  1.00  0.00    -0.348 OA
BRANCH  19  20
HETATM   20  C   UNL     1      -4.426  -4.199 -33.836  1.00  0.00     0.202 C 
BRANCH  20  21
HETATM   21  C   UNL     1      -3.318  -4.495 -32.871  1.00  0.00    -0.011 C 
HETATM   22  C   UNL     1      -2.996  -3.726 -31.823  1.00  0.00     0.009 C 
ENDBRANCH  20  21
ENDBRANCH  19  20
ENDBRANCH  16  19
ENDBRANCH   1  13
BRANCH   7  23
HETATM   23  C   UNL     1      -5.422   3.394 -32.610  1.00  0.00    -0.005 A 
HETATM   24  C   UNL     1      -5.732   4.212 -33.704  1.00  0.00     0.014 A 
HETATM   25  C   UNL     1      -4.723   4.884 -34.397  1.00  0.00     0.001 A 
HETATM   26  C   UNL     1      -3.394   4.742 -34.003  1.00  0.00     0.000 A 
HETATM   27  C   UNL     1      -3.072   3.920 -32.924  1.00  0.00     0.001 A 
HETATM   28  C   UNL     1      -4.082   3.244 -32.234  1.00  0.00     0.014 A 
ENDBRANCH   7  23
TORSDOF 5
ENDMDL
MODEL 2
REMARK VINA RESULT:      -8.7      2.405      5.799
REMARK  5 active torsions:
REMARK  status: ('A' for Active; 'I' for Inactive)
REMARK    1  A    between atoms: C_2  and  C_3 
REMARK    2  A    between atoms: C_3  and  O_4 
REMARK    3  A    between atoms: O_4  and  C_5 
REMARK    4  A    between atoms: C_8  and  C_9 
REMARK    5  A    between atoms: C_15  and  C_16 
ROOT
HETATM    1  C   UNL     1      -7.140   0.808 -31.833  1.00  0.00     0.066 C 
HETATM    2  C   UNL     1      -7.680   0.619 -33.205  1.00  0.00     0.028 A 
HETATM    3  C   UNL     1      -8.672   1.411 -33.726  1.00  0.00     0.133 A 
HETATM    4  N   UNL     1      -8.882   1.001 -35.003  1.00  0.00    -0.261 N 
HETATM    5  H   UNL     1      -9.528   1.364 -35.696  1.00  0.00     0.191 HD
HETATM    6  N   UNL     1      -8.105  -0.036 -35.347  1.00  0.00    -0.172 NA
HETATM    7  C   UNL     1      -7.362  -0.295 -34.255  1.00  0.00     0.098 A 
HETATM    8  N   UNL     1      -9.251   2.434 -33.019  1.00  0.00    -0.312 N 
HETATM    9  C   UNL     1      -8.917   2.622 -31.641  1.00  0.00     0.224 C 
HETATM   10  O   UNL     1      -9.411   3.600 -31.103  1.00  0.00    -0.273 OA
HETATM   11  C   UNL     1      -8.123   1.556 -30.927  1.00  0.00     0.117 C 
HETATM   12  H   UNL     1      -9.900   3.090 -33.438  1.00  0.00     0.170 HD
ENDROOT
BRANCH   1  13
HETATM   13  C   UNL     1      -5.804   1.524 -31.965  1.00  0.00    -0.049 A 
HETATM   14  C   UNL     1      -5.613   2.658 -32.772  1.00  0.00     0.010 A 
HETATM   15  C   UNL     1      -4.391   3.335 -32.773  1.00  0.00     0.037 A 
HETATM   16  C   UNL     1      -3.347   2.912 -31.956  1.00  0.00     0.069 A 
HETATM   17  C   UNL     1      -3.497   1.759 -31.191  1.00  0.00     0.037 A 
HETATM   18  C   UNL     1      -4.717   1.075 -31.192  1.00  0.00     0.010 A 
BRANCH  16  19
HETATM   19  O   UNL     1      -2.216   3.678 -31.994  1.00  0.00    -0.348 OA
BRANCH  19  20
HETATM   20  C   UNL     1      -2.415   5.015 -32.457  1.00  0.00     0.202 C 
BRANCH  20  21
HETATM   21  C   UNL     1      -1.424   5.258 -33.556  1.00  0.00    -0.011 C 
HETATM   22  C   UNL     1      -1.688   5.121 -34.862  1.00  0.00     0.009 C 
ENDBRANCH  20  21
ENDBRANCH  19  20
ENDBRANCH  16  19
ENDBRANCH   1  13
BRANCH   7  23
HETATM   23  C   UNL     1      -6.375  -1.373 -34.270  1.00  0.00    -0.005 A 
HETATM   24  C   UNL     1      -6.761  -2.663 -34.655  1.00  0.00     0.014 A 
HETATM   25  C   UNL     1      -5.834  -3.707 -34.675  1.00  0.00     0.001 A 
HETATM   26  C   UNL     1      -4.511  -3.469 -34.307  1.00  0.00     0.000 A 
HETATM   27  C   UNL     1      -4.117  -2.192 -33.909  1.00  0.00     0.001 A 
HETATM   28  C   UNL     1      -5.047  -1.149 -33.885  1.00  0.00     0.014 A 
ENDBRANCH   7  23
TORSDOF 5
ENDMDL
MODEL 3
REMARK VINA RESULT:      -8.4      2.567      6.452
REMARK  5 active torsions:
REMARK  status: ('A' for Active; 'I' for Inactive)
REMARK    1  A    between atoms: C_2  and  C_3 
REMARK    2  A    between atoms: C_3  and  O_4 
REMARK    3  A    between atoms: O_4  and  C_5 
REMARK    4  A    between atoms: C_8  and  C_9 
REMARK    5  A    between atoms: C_15  and  C_16 
ROOT
HETATM    1  C   UNL     1      -6.054   1.747 -33.588  1.00  0.00     0.066 C 
HETATM    2  C   UNL     1      -5.369   0.976 -32.517  1.00  0.00     0.028 A 
HETATM    3  C   UNL     1      -4.928   1.554 -31.354  1.00  0.00     0.133 A 
HETATM    4  N   UNL     1      -4.405   0.563 -30.587  1.00  0.00    -0.261 N 
HETATM    5  H   UNL     1      -3.999   0.615 -29.659  1.00  0.00     0.191 HD
HETATM    6  N   UNL     1      -4.449  -0.634 -31.190  1.00  0.00    -0.172 NA
HETATM    7  C   UNL     1      -5.030  -0.405 -32.382  1.00  0.00     0.098 A 
HETATM    8  N   UNL     1      -5.076   2.891 -31.089  1.00  0.00    -0.312 N 
HETATM    9  C   UNL     1      -5.590   3.762 -32.101  1.00  0.00     0.224 C 
HETATM   10  O   UNL     1      -5.767   4.922 -31.764  1.00  0.00    -0.273 OA
HETATM   11  C   UNL     1      -5.735   3.243 -33.510  1.00  0.00     0.117 C 
HETATM   12  H   UNL     1      -4.855   3.299 -30.188  1.00  0.00     0.170 HD
ENDROOT
BRANCH   1  13
HETATM   13  C   UNL     1      -7.543   1.459 -33.472  1.00  0.00    -0.049 A 
HETATM   14  C   UNL     1      -8.408   1.412 -34.579  1.00  0.00     0.010 A 
HETATM   15  C   UNL     1      -9.746   1.041 -34.423  1.00  0.00     0.037 A 
HETATM   16  C   UNL     1     -10.241   0.689 -33.171  1.00  0.00     0.069 A 
HETATM   17  C   UNL     1      -9.417   0.784 -32.054  1.00  0.00     0.037 A 
HETATM   18  C   UNL     1      -8.078   1.161 -32.205  1.00  0.00     0.010 A 
BRANCH  16  19
HETATM   19  O   UNL     1     -11.548   0.290 -33.141  1.00  0.00    -0.348 OA
BRANCH  19  20
HETATM   20  C   UNL     1     -12.454   1.155 -33.828  1.00  0.00     0.202 C 
BRANCH  20  21
HETATM   21  C   UNL     1     -13.642   0.332 -34.226  1.00  0.00    -0.011 C 
HETATM   22  C   UNL     1     -14.909   0.764 -34.202  1.00  0.00     0.009 C 
ENDBRANCH  20  21
ENDBRANCH  19  20
ENDBRANCH  16  19
ENDBRANCH   1  13
BRANCH   7  23
HETATM   23  C   UNL     1      -5.258  -1.505 -33.317  1.00  0.00    -0.005 A 
HETATM   24  C   UNL     1      -4.175  -2.277 -33.759  1.00  0.00     0.014 A 
HETATM   25  C   UNL     1      -4.372  -3.331 -34.653  1.00  0.00     0.001 A 
HETATM   26  C   UNL     1      -5.654  -3.621 -35.116  1.00  0.00     0.000 A 
HETATM   27  C   UNL     1      -6.738  -2.851 -34.695  1.00  0.00     0.001 A 
HETATM   28  C   UNL     1      -6.540  -1.793 -33.803  1.00  0.00     0.014 A 
ENDBRANCH   7  23
TORSDOF 5
ENDMDL
MODEL 4
REMARK VINA RESULT:      -8.0      2.860      6.268
REMARK  5 active torsions:
REMARK  status: ('A' for Active; 'I' for Inactive)
REMARK    1  A    between atoms: C_2  and  C_3 
REMARK    2  A    between atoms: C_3  and  O_4 
REMARK    3  A    between atoms: O_4  and  C_5 
REMARK    4  A    between atoms: C_8  and  C_9 
REMARK    5  A    between atoms: C_15  and  C_16 
ROOT
HETATM    1  C   UNL     1      -6.739   2.634 -32.451  1.00  0.00     0.066 C 
HETATM    2  C   UNL     1      -6.444   1.664 -31.363  1.00  0.00     0.028 A 
HETATM    3  C   UNL     1      -6.453   2.012 -30.037  1.00  0.00     0.133 A 
HETATM    4  N   UNL     1      -6.198   0.885 -29.324  1.00  0.00    -0.261 N 
HETATM    5  H   UNL     1      -6.142   0.760 -28.319  1.00  0.00     0.191 HD
HETATM    6  N   UNL     1      -5.993  -0.184 -30.106  1.00  0.00    -0.172 NA
HETATM    7  C   UNL     1      -6.130   0.271 -31.365  1.00  0.00     0.098 A 
HETATM    8  N   UNL     1      -6.725   3.286 -29.608  1.00  0.00    -0.312 N 
HETATM    9  C   UNL     1      -6.883   4.339 -30.564  1.00  0.00     0.224 C 
HETATM   10  O   UNL     1      -7.202   5.426 -30.110  1.00  0.00    -0.273 OA
HETATM   11  C   UNL     1      -6.513   4.082 -32.004  1.00  0.00     0.117 C 
HETATM   12  H   UNL     1      -6.844   3.521 -28.629  1.00  0.00     0.170 HD
ENDROOT
BRANCH   1  13
HETATM   13  C   UNL     1      -8.166   2.379 -32.912  1.00  0.00    -0.049 A 
HETATM   14  C   UNL     1      -9.297   2.783 -32.183  1.00  0.00     0.010 A 
HETATM   15  C   UNL     1     -10.580   2.615 -32.706  1.00  0.00     0.037 A 
HETATM   16  C   UNL     1     -10.762   2.064 -33.971  1.00  0.00     0.069 A 
HETATM   17  C   UNL     1      -9.659   1.605 -34.686  1.00  0.00     0.037 A 
HETATM   18  C   UNL     1      -8.372   1.767 -34.163  1.00  0.00     0.010 A 
BRANCH  16  19
HETATM   19  O   UNL     1     -12.054   1.995 -34.409  1.00  0.00    -0.348 OA
BRANCH  19  20
HETATM   20  C   UNL     1     -13.041   2.108 -33.380  1.00  0.00     0.202 C 
BRANCH  20  21
HETATM   21  C   UNL     1     -13.917   0.894 -33.468  1.00  0.00    -0.011 C 
HETATM   22  C   UNL     1     -13.469  -0.356 -33.644  1.00  0.00     0.009 C 
ENDBRANCH  20  21
ENDBRANCH  19  20
ENDBRANCH  16  19
ENDBRANCH   1  13
BRANCH   7  23
HETATM   23  C   UNL     1      -5.985  -0.639 -32.500  1.00  0.00    -0.005 A 
HETATM   24  C   UNL     1      -4.708  -1.057 -32.896  1.00  0.00     0.014 A 
HETATM   25  C   UNL     1      -4.548  -1.925 -33.978  1.00  0.00     0.001 A 
HETATM   26  C   UNL     1      -5.664  -2.379 -34.677  1.00  0.00     0.000 A 
HETATM   27  C   UNL     1      -6.939  -1.959 -34.302  1.00  0.00     0.001 A 
HETATM   28  C   UNL     1      -7.099  -1.087 -33.221  1.00  0.00     0.014 A 
ENDBRANCH   7  23
TORSDOF 5
ENDMDL
MODEL 5
REMARK VINA RESULT:      -7.7      6.820      9.953
REMARK  5 active torsions:
REMARK  status: ('A' for Active; 'I' for Inactive)
REMARK    1  A    between atoms: C_2  and  C_3 
REMARK    2  A    between atoms: C_3  and  O_4 
REMARK    3  A    between atoms: O_4  and  C_5 
REMARK    4  A    between atoms: C_8  and  C_9 
REMARK    5  A    between atoms: C_15  and  C_16 
ROOT
HETATM    1  C   UNL     1      -0.718   7.736 -29.156  1.00  0.00     0.066 C 
HETATM    2  C   UNL     1      -0.126   6.406 -29.459  1.00  0.00     0.028 A 
HETATM    3  C   UNL     1       0.718   5.756 -28.595  1.00  0.00     0.133 A 
HETATM    4  N   UNL     1       1.023   4.559 -29.157  1.00  0.00    -0.261 N 
HETATM    5  H   UNL     1       1.608   3.811 -28.798  1.00  0.00     0.191 HD
HETATM    6  N   UNL     1       0.452   4.392 -30.358  1.00  0.00    -0.172 NA
HETATM    7  C   UNL     1      -0.254   5.518 -30.570  1.00  0.00     0.098 A 
HETATM    8  N   UNL     1       1.090   6.286 -27.385  1.00  0.00    -0.312 N 
HETATM    9  C   UNL     1       0.701   7.619 -27.044  1.00  0.00     0.224 C 
HETATM   10  O   UNL     1       1.001   7.989 -25.920  1.00  0.00    -0.273 OA
HETATM   11  C   UNL     1       0.097   8.501 -28.108  1.00  0.00     0.117 C 
HETATM   12  H   UNL     1       1.619   5.762 -26.698  1.00  0.00     0.170 HD
ENDROOT
BRANCH   1  13
HETATM   13  C   UNL     1      -2.158   7.504 -28.722  1.00  0.00    -0.049 A 
HETATM   14  C   UNL     1      -2.522   7.150 -27.412  1.00  0.00     0.010 A 
HETATM   15  C   UNL     1      -3.866   7.051 -27.046  1.00  0.00     0.037 A 
HETATM   16  C   UNL     1      -4.871   7.325 -27.969  1.00  0.00     0.069 A 
HETATM   17  C   UNL     1      -4.534   7.622 -29.286  1.00  0.00     0.037 A 
HETATM   18  C   UNL     1      -3.188   7.716 -29.657  1.00  0.00     0.010 A 
BRANCH  16  19
HETATM   19  O   UNL     1      -6.150   7.252 -27.493  1.00  0.00    -0.348 OA
BRANCH  19  20
HETATM   20  C   UNL     1      -7.124   6.840 -28.454  1.00  0.00     0.202 C 
BRANCH  20  21
HETATM   21  C   UNL     1      -7.243   5.349 -28.357  1.00  0.00    -0.011 C 
HETATM   22  C   UNL     1      -6.960   4.498 -29.352  1.00  0.00     0.009 C 
ENDBRANCH  20  21
ENDBRANCH  19  20
ENDBRANCH  16  19
ENDBRANCH   1  13
BRANCH   7  23
HETATM   23  C   UNL     1      -1.031   5.684 -31.797  1.00  0.00    -0.005 A 
HETATM   24  C   UNL     1      -0.896   6.857 -32.552  1.00  0.00     0.014 A 
HETATM   25  C   UNL     1      -1.631   7.035 -33.726  1.00  0.00     0.001 A 
HETATM   26  C   UNL     1      -2.510   6.042 -34.154  1.00  0.00     0.000 A 
HETATM   27  C   UNL     1      -2.663   4.877 -33.404  1.00  0.00     0.001 A 
HETATM   28  C   UNL     1      -1.931   4.701 -32.226  1.00  0.00     0.014 A 
ENDBRANCH   7  23
TORSDOF 5
ENDMDL
MODEL 6
REMARK VINA RESULT:      -7.5      6.445      9.559
REMARK  5 active torsions:
REMARK  status: ('A' for Active; 'I' for Inactive)
REMARK    1  A    between atoms: C_2  and  C_3 
REMARK    2  A    between atoms: C_3  and  O_4 
REMARK    3  A    between atoms: O_4  and  C_5 
REMARK    4  A    between atoms: C_8  and  C_9 
REMARK    5  A    between atoms: C_15  and  C_16 
ROOT
HETATM    1  C   UNL     1      -1.167   7.781 -29.339  1.00  0.00     0.066 C 
HETATM    2  C   UNL     1      -0.419   6.512 -29.536  1.00  0.00     0.028 A 
HETATM    3  C   UNL     1       0.383   5.965 -28.567  1.00  0.00     0.133 A 
HETATM    4  N   UNL     1       0.864   4.794 -29.057  1.00  0.00    -0.261 N 
HETATM    5  H   UNL     1       1.474   4.115 -28.614  1.00  0.00     0.191 HD
HETATM    6  N   UNL     1       0.449   4.549 -30.308  1.00  0.00    -0.172 NA
HETATM    7  C   UNL     1      -0.334   5.596 -30.629  1.00  0.00     0.098 A 
HETATM    8  N   UNL     1       0.564   6.551 -27.340  1.00  0.00    -0.312 N 
HETATM    9  C   UNL     1       0.011   7.845 -27.082  1.00  0.00     0.224 C 
HETATM   10  O   UNL     1       0.147   8.264 -25.944  1.00  0.00    -0.273 OA
HETATM   11  C   UNL     1      -0.553   8.643 -28.231  1.00  0.00     0.117 C 
HETATM   12  H   UNL     1       1.061   6.095 -26.583  1.00  0.00     0.170 HD
ENDROOT
BRANCH   1  13
HETATM   13  C   UNL     1      -2.617   7.414 -29.059  1.00  0.00    -0.049 A 
HETATM   14  C   UNL     1      -3.560   7.169 -30.070  1.00  0.00     0.010 A 
HETATM   15  C   UNL     1      -4.849   6.735 -29.754  1.00  0.00     0.037 A 
HETATM   16  C   UNL     1      -5.216   6.515 -28.429  1.00  0.00     0.069 A 
HETATM   17  C   UNL     1      -4.316   6.806 -27.409  1.00  0.00     0.037 A 
HETATM   18  C   UNL     1      -3.025   7.246 -27.722  1.00  0.00     0.010 A 
BRANCH  16  19
HETATM   19  O   UNL     1      -6.482   6.039 -28.236  1.00  0.00    -0.348 OA
BRANCH  19  20
HETATM   20  C   UNL     1      -7.331   6.112 -29.383  1.00  0.00     0.202 C 
BRANCH  20  21
HETATM   21  C   UNL     1      -7.997   4.777 -29.530  1.00  0.00    -0.011 C 
HETATM   22  C   UNL     1      -7.350   3.621 -29.725  1.00  0.00     0.009 C 
ENDBRANCH  20  21
ENDBRANCH  19  20
ENDBRANCH  16  19
ENDBRANCH   1  13
BRANCH   7  23
HETATM   23  C   UNL     1      -0.982   5.661 -31.937  1.00  0.00    -0.005 A 
HETATM   24  C   UNL     1      -1.760   4.583 -32.382  1.00  0.00     0.014 A 
HETATM   25  C   UNL     1      -2.385   4.626 -33.630  1.00  0.00     0.001 A 
HETATM   26  C   UNL     1      -2.236   5.745 -34.446  1.00  0.00     0.000 A 
HETATM   27  C   UNL     1      -1.454   6.818 -34.020  1.00  0.00     0.001 A 
HETATM   28  C   UNL     1      -0.824   6.773 -32.773  1.00  0.00     0.014 A 
ENDBRANCH   7  23
TORSDOF 5
ENDMDL
MODEL 7
REMARK VINA RESULT:      -7.5      3.327      4.590
REMARK  5 active torsions:
REMARK  status: ('A' for Active; 'I' for Inactive)
REMARK    1  A    between atoms: C_2  and  C_3 
REMARK    2  A    between atoms: C_3  and  O_4 
REMARK    3  A    between atoms: O_4  and  C_5 
REMARK    4  A    between atoms: C_8  and  C_9 
REMARK    5  A    between atoms: C_15  and  C_16 
ROOT
HETATM    1  C   UNL     1     -10.051   3.468 -33.787  1.00  0.00     0.066 C 
HETATM    2  C   UNL     1     -11.012   3.588 -32.660  1.00  0.00     0.028 A 
HETATM    3  C   UNL     1     -12.348   3.309 -32.792  1.00  0.00     0.133 A 
HETATM    4  N   UNL     1     -12.915   3.469 -31.569  1.00  0.00    -0.261 N 
HETATM    5  H   UNL     1     -13.879   3.336 -31.285  1.00  0.00     0.191 HD
HETATM    6  N   UNL     1     -12.034   3.868 -30.640  1.00  0.00    -0.172 NA
HETATM    7  C   UNL     1     -10.857   3.956 -31.289  1.00  0.00     0.098 A 
HETATM    8  N   UNL     1     -12.906   2.904 -33.978  1.00  0.00    -0.312 N 
HETATM    9  C   UNL     1     -12.111   2.888 -35.167  1.00  0.00     0.224 C 
HETATM   10  O   UNL     1     -12.655   2.440 -36.164  1.00  0.00    -0.273 OA
HETATM   11  C   UNL     1     -10.751   3.539 -35.148  1.00  0.00     0.117 C 
HETATM   12  H   UNL     1     -13.866   2.588 -34.052  1.00  0.00     0.170 HD
ENDROOT
BRANCH   1  13
HETATM   13  C   UNL     1      -9.283   2.169 -33.592  1.00  0.00    -0.049 A 
HETATM   14  C   UNL     1      -9.843   1.021 -33.006  1.00  0.00     0.010 A 
HETATM   15  C   UNL     1      -9.123  -0.174 -32.948  1.00  0.00     0.037 A 
HETATM   16  C   UNL     1      -7.844  -0.256 -33.491  1.00  0.00     0.069 A 
HETATM   17  C   UNL     1      -7.249   0.883 -34.025  1.00  0.00     0.037 A 
HETATM   18  C   UNL     1      -7.965   2.083 -34.080  1.00  0.00     0.010 A 
BRANCH  16  19
HETATM   19  O   UNL     1      -7.251  -1.486 -33.429  1.00  0.00    -0.348 OA
BRANCH  19  20
HETATM   20  C   UNL     1      -6.738  -1.966 -34.673  1.00  0.00     0.202 C 
BRANCH  20  21
HETATM   21  C   UNL     1      -6.888  -3.458 -34.672  1.00  0.00    -0.011 C 
HETATM   22  C   UNL     1      -6.127  -4.300 -35.383  1.00  0.00     0.009 C 
ENDBRANCH  20  21
ENDBRANCH  19  20
ENDBRANCH  16  19
ENDBRANCH   1  13
BRANCH   7  23
HETATM   23  C   UNL     1      -9.647   4.357 -30.574  1.00  0.00    -0.005 A 
HETATM   24  C   UNL     1      -9.487   5.690 -30.171  1.00  0.00     0.014 A 
HETATM   25  C   UNL     1      -8.338   6.093 -29.488  1.00  0.00     0.001 A 
HETATM   26  C   UNL     1      -7.336   5.167 -29.205  1.00  0.00     0.000 A 
HETATM   27  C   UNL     1      -7.477   3.842 -29.613  1.00  0.00     0.001 A 
HETATM   28  C   UNL     1      -8.626   3.439 -30.300  1.00  0.00     0.014 A 
ENDBRANCH   7  23
TORSDOF 5
ENDMDL
MODEL 8
REMARK VINA RESULT:      -7.3      3.139      6.846
REMARK  5 active torsions:
REMARK  status: ('A' for Active; 'I' for Inactive)
REMARK    1  A    between atoms: C_2  and  C_3 
REMARK    2  A    between atoms: C_3  and  O_4 
REMARK    3  A    between atoms: O_4  and  C_5 
REMARK    4  A    between atoms: C_8  and  C_9 
REMARK    5  A    between atoms: C_15  and  C_16 
ROOT
HETATM    1  C   UNL     1      -5.987   2.992 -32.171  1.00  0.00     0.066 C 
HETATM    2  C   UNL     1      -5.960   1.886 -31.179  1.00  0.00     0.028 A 
HETATM    3  C   UNL     1      -5.815   2.102 -29.832  1.00  0.00     0.133 A 
HETATM    4  N   UNL     1      -5.887   0.891 -29.221  1.00  0.00    -0.261 N 
HETATM    5  H   UNL     1      -5.835   0.665 -28.234  1.00  0.00     0.191 HD
HETATM    6  N   UNL     1      -6.042  -0.117 -30.091  1.00  0.00    -0.172 NA
HETATM    7  C   UNL     1      -6.082   0.468 -31.303  1.00  0.00     0.098 A 
HETATM    8  N   UNL     1      -5.674   3.355 -29.294  1.00  0.00    -0.312 N 
HETATM    9  C   UNL     1      -5.541   4.487 -30.158  1.00  0.00     0.224 C 
HETATM   10  O   UNL     1      -5.500   5.576 -29.606  1.00  0.00    -0.273 OA
HETATM   11  C   UNL     1      -5.319   4.261 -31.633  1.00  0.00     0.117 C 
HETATM   12  H   UNL     1      -5.681   3.527 -28.295  1.00  0.00     0.170 HD
ENDROOT
BRANCH   1  13
HETATM   13  C   UNL     1      -7.440   3.217 -32.562  1.00  0.00    -0.049 A 
HETATM   14  C   UNL     1      -7.840   3.625 -33.845  1.00  0.00     0.010 A 
HETATM   15  C   UNL     1      -9.193   3.714 -34.176  1.00  0.00     0.037 A 
HETATM   16  C   UNL     1     -10.173   3.378 -33.246  1.00  0.00     0.069 A 
HETATM   17  C   UNL     1      -9.800   3.026 -31.952  1.00  0.00     0.037 A 
HETATM   18  C   UNL     1      -8.445   2.940 -31.616  1.00  0.00     0.010 A 
BRANCH  16  19
HETATM   19  O   UNL     1     -11.463   3.448 -33.691  1.00  0.00    -0.348 OA
BRANCH  19  20
HETATM   20  C   UNL     1     -11.602   3.793 -35.071  1.00  0.00     0.202 C 
BRANCH  20  21
HETATM   21  C   UNL     1     -12.736   4.768 -35.175  1.00  0.00    -0.011 C 
HETATM   22  C   UNL     1     -12.613   6.036 -35.588  1.00  0.00     0.009 C 
ENDBRANCH  20  21
ENDBRANCH  19  20
ENDBRANCH  16  19
ENDBRANCH   1  13
BRANCH   7  23
HETATM   23  C   UNL     1      -6.259  -0.338 -32.508  1.00  0.00    -0.005 A 
HETATM   24  C   UNL     1      -7.484  -0.312 -33.188  1.00  0.00     0.014 A 
HETATM   25  C   UNL     1      -7.674  -1.077 -34.341  1.00  0.00     0.001 A 
HETATM   26  C   UNL     1      -6.641  -1.878 -34.823  1.00  0.00     0.000 A 
HETATM   27  C   UNL     1      -5.422  -1.923 -34.148  1.00  0.00     0.001 A 
HETATM   28  C   UNL     1      -5.234  -1.161 -32.991  1.00  0.00     0.014 A 
ENDBRANCH   7  23
TORSDOF 5
ENDMDL
MODEL 9
REMARK VINA RESULT:      -7.2      3.029      5.895
REMARK  5 active torsions:
REMARK  status: ('A' for Active; 'I' for Inactive)
REMARK    1  A    between atoms: C_2  and  C_3 
REMARK    2  A    between atoms: C_3  and  O_4 
REMARK    3  A    between atoms: O_4  and  C_5 
REMARK    4  A    between atoms: C_8  and  C_9 
REMARK    5  A    between atoms: C_15  and  C_16 
ROOT
HETATM    1  C   UNL     1      -6.576   1.642 -33.715  1.00  0.00     0.066 C 
HETATM    2  C   UNL     1      -7.661   1.707 -32.702  1.00  0.00     0.028 A 
HETATM    3  C   UNL     1      -7.691   0.898 -31.594  1.00  0.00     0.133 A 
HETATM    4  N   UNL     1      -8.778   1.258 -30.864  1.00  0.00    -0.261 N 
HETATM    5  H   UNL     1      -9.107   0.888 -29.978  1.00  0.00     0.191 HD
HETATM    6  N   UNL     1      -9.486   2.239 -31.441  1.00  0.00    -0.172 NA
HETATM    7  C   UNL     1      -8.824   2.527 -32.577  1.00  0.00     0.098 A 
HETATM    8  N   UNL     1      -6.725  -0.041 -31.338  1.00  0.00    -0.312 N 
HETATM    9  C   UNL     1      -5.708  -0.297 -32.310  1.00  0.00     0.224 C 
HETATM   10  O   UNL     1      -4.840  -1.088 -31.976  1.00  0.00    -0.273 OA
HETATM   11  C   UNL     1      -5.849   0.293 -33.691  1.00  0.00     0.117 C 
HETATM   12  H   UNL     1      -6.682  -0.559 -30.467  1.00  0.00     0.170 HD
ENDROOT
BRANCH   1  13
HETATM   13  C   UNL     1      -5.642   2.814 -33.457  1.00  0.00    -0.049 A 
HETATM   14  C   UNL     1      -4.662   2.813 -32.450  1.00  0.00     0.010 A 
HETATM   15  C   UNL     1      -3.765   3.876 -32.327  1.00  0.00     0.037 A 
HETATM   16  C   UNL     1      -3.810   4.947 -33.215  1.00  0.00     0.069 A 
HETATM   17  C   UNL     1      -4.808   4.995 -34.183  1.00  0.00     0.037 A 
HETATM   18  C   UNL     1      -5.713   3.934 -34.306  1.00  0.00     0.010 A 
BRANCH  16  19
HETATM   19  O   UNL     1      -2.853   5.905 -33.038  1.00  0.00    -0.348 OA
BRANCH  19  20
HETATM   20  C   UNL     1      -1.881   5.603 -32.034  1.00  0.00     0.202 C 
BRANCH  20  21
HETATM   21  C   UNL     1      -0.858   6.699 -32.058  1.00  0.00    -0.011 C 
HETATM   22  C   UNL     1       0.257   6.714 -31.318  1.00  0.00     0.009 C 
ENDBRANCH  20  21
ENDBRANCH  19  20
ENDBRANCH  16  19
ENDBRANCH   1  13
BRANCH   7  23
HETATM   23  C   UNL     1      -9.310   3.578 -33.469  1.00  0.00    -0.005 A 
HETATM   24  C   UNL     1      -8.961   4.913 -33.226  1.00  0.00     0.014 A 
HETATM   25  C   UNL     1      -9.416   5.931 -34.065  1.00  0.00     0.001 A 
HETATM   26  C   UNL     1     -10.227   5.623 -35.156  1.00  0.00     0.000 A 
HETATM   27  C   UNL     1     -10.592   4.301 -35.401  1.00  0.00     0.001 A 
HETATM   28  C   UNL     1     -10.140   3.282 -34.558  1.00  0.00     0.014 A 
ENDBRANCH   7  23
TORSDOF 5
ENDMDL
MODEL 10
REMARK VINA RESULT:      -7.1      3.055      6.158
REMARK  5 active torsions:
REMARK  status: ('A' for Active; 'I' for Inactive)
REMARK    1  A    between atoms: C_2  and  C_3 
REMARK    2  A    between atoms: C_3  and  O_4 
REMARK    3  A    between atoms: O_4  and  C_5 
REMARK    4  A    between atoms: C_8  and  C_9 
REMARK    5  A    between atoms: C_15  and  C_16 
ROOT
HETATM    1  C   UNL     1      -7.202   3.197 -31.315  1.00  0.00     0.066 C 
HETATM    2  C   UNL     1      -8.139   3.115 -32.465  1.00  0.00     0.028 A 
HETATM    3  C   UNL     1      -9.056   4.096 -32.746  1.00  0.00     0.133 A 
HETATM    4  N   UNL     1      -9.703   3.728 -33.882  1.00  0.00    -0.261 N 
HETATM    5  H   UNL     1     -10.433   4.214 -34.391  1.00  0.00     0.191 HD
HETATM    6  N   UNL     1      -9.285   2.544 -34.353  1.00  0.00    -0.172 NA
HETATM    7  C   UNL     1      -8.329   2.143 -33.494  1.00  0.00     0.098 A 
HETATM    8  N   UNL     1      -9.188   5.227 -31.981  1.00  0.00    -0.312 N 
HETATM    9  C   UNL     1      -8.442   5.353 -30.767  1.00  0.00     0.224 C 
HETATM   10  O   UNL     1      -8.551   6.421 -30.185  1.00  0.00    -0.273 OA
HETATM   11  C   UNL     1      -7.710   4.150 -30.228  1.00  0.00     0.117 C 
HETATM   12  H   UNL     1      -9.782   6.003 -32.249  1.00  0.00     0.170 HD
ENDROOT
BRANCH   1  13
HETATM   13  C   UNL     1      -5.844   3.608 -31.864  1.00  0.00    -0.049 A 
HETATM   14  C   UNL     1      -4.633   3.360 -31.194  1.00  0.00     0.010 A 
HETATM   15  C   UNL     1      -3.410   3.667 -31.794  1.00  0.00     0.037 A 
HETATM   16  C   UNL     1      -3.367   4.202 -33.078  1.00  0.00     0.069 A 
HETATM   17  C   UNL     1      -4.554   4.507 -33.736  1.00  0.00     0.037 A 
HETATM   18  C   UNL     1      -5.782   4.207 -33.136  1.00  0.00     0.010 A 
BRANCH  16  19
HETATM   19  O   UNL     1      -2.118   4.413 -33.591  1.00  0.00    -0.348 OA
BRANCH  19  20
HETATM   20  C   UNL     1      -2.065   5.349 -34.670  1.00  0.00     0.202 C 
BRANCH  20  21
HETATM   21  C   UNL     1      -1.738   6.689 -34.083  1.00  0.00    -0.011 C 
HETATM   22  C   UNL     1      -0.915   6.884 -33.044  1.00  0.00     0.009 C 
ENDBRANCH  20  21
ENDBRANCH  19  20
ENDBRANCH  16  19
ENDBRANCH   1  13
BRANCH   7  23
HETATM   23  C   UNL     1      -7.629   0.878 -33.706  1.00  0.00    -0.005 A 
HETATM   24  C   UNL     1      -6.992   0.247 -32.629  1.00  0.00     0.014 A 
HETATM   25  C   UNL     1      -6.316  -0.961 -32.811  1.00  0.00     0.001 A 
HETATM   26  C   UNL     1      -6.269  -1.549 -34.074  1.00  0.00     0.000 A 
HETATM   27  C   UNL     1      -6.887  -0.924 -35.156  1.00  0.00     0.001 A 
HETATM   28  C   UNL     1      -7.560   0.288 -34.974  1.00  0.00     0.014 A 
ENDBRANCH   7  23
TORSDOF 5
ENDMDL
