MODEL 1
REMARK VINA RESULT:      -9.8      0.000      0.000
REMARK  2 active torsions:
REMARK  status: ('A' for Active; 'I' for Inactive)
REMARK    1  A    between atoms: C_2  and  N_3 
REMARK       I    between atoms: N_3  and  C_4 
REMARK    2  A    between atoms: C_4  and  C_5 
ROOT
HETATM    1  C   UNL     1      -8.212   1.617 -31.865  1.00  0.00     0.032 A 
HETATM    2  C   UNL     1      -8.827   0.643 -32.642  1.00  0.00     0.036 A 
HETATM    3  C   UNL     1      -8.027  -0.319 -33.264  1.00  0.00     0.049 A 
HETATM    4  C   UNL     1      -6.632  -0.363 -33.062  1.00  0.00     0.061 A 
HETATM    5  C   UNL     1      -6.026   0.590 -32.234  1.00  0.00     0.050 A 
HETATM    6  N   UNL     1      -4.667   0.656 -31.889  1.00  0.00    -0.324 N 
HETATM    7  C   UNL     1      -3.763  -0.365 -31.769  1.00  0.00     0.245 C 
HETATM    8  O   UNL     1      -2.661  -0.107 -31.281  1.00  0.00    -0.271 OA
HETATM    9  C   UNL     1      -4.240  -1.789 -32.036  1.00  0.00     0.180 C 
HETATM   10  N   UNL     1      -4.747  -1.926 -33.393  1.00  0.00    -0.334 N 
HETATM   11  C   UNL     1      -5.905  -1.373 -33.877  1.00  0.00     0.256 C 
HETATM   12  O   UNL     1      -6.379  -1.698 -34.965  1.00  0.00    -0.267 OA
HETATM   13  C   UNL     1      -3.099  -2.811 -31.949  1.00  0.00     0.037 C 
HETATM   14  C   UNL     1      -3.474  -3.850 -32.995  1.00  0.00     0.022 C 
HETATM   15  C   UNL     1      -4.077  -3.003 -34.102  1.00  0.00     0.127 C 
HETATM   16  C   UNL     1      -6.826   1.601 -31.679  1.00  0.00     0.033 A 
HETATM   17  H   UNL     1      -4.317   1.515 -31.480  1.00  0.00     0.169 HD
ENDROOT
BRANCH   2  18
HETATM   18  N   UNL     1     -10.212   0.558 -32.838  1.00  0.00    -0.322 N 
HETATM   19  C   UNL     1     -10.991   1.231 -33.761  1.00  0.00     0.277 C 
HETATM   20  O   UNL     1     -10.592   2.002 -34.628  1.00  0.00    -0.266 OA
HETATM   21  H   UNL     1     -10.763  -0.002 -32.189  1.00  0.00     0.169 HD
BRANCH  19  22
HETATM   22  C   UNL     1     -12.424   0.956 -33.566  1.00  0.00     0.153 A 
HETATM   23  N   UNL     1     -12.943  -0.297 -33.699  1.00  0.00    -0.169 NA
HETATM   24  N   UNL     1     -14.269  -0.153 -33.430  1.00  0.00    -0.281 N 
HETATM   25  H   UNL     1     -14.870  -0.971 -33.475  1.00  0.00     0.189 HD
HETATM   26  C   UNL     1     -14.575   1.120 -33.118  1.00  0.00     0.036 A 
HETATM   27  C   UNL     1     -13.433   1.854 -33.197  1.00  0.00     0.002 A 
HETATM   28  C   UNL     1     -15.773   1.864 -32.713  1.00  0.00     0.059 C 
HETATM   29  C   UNL     1     -13.662   3.265 -32.850  1.00  0.00     0.043 C 
HETATM   30  C   UNL     1     -15.109   3.206 -32.235  1.00  0.00     0.011 C 
ENDBRANCH  19  22
ENDBRANCH   2  18
TORSDOF 2
ENDMDL
MODEL 2
REMARK VINA RESULT:      -9.6      5.639      8.282
REMARK  2 active torsions:
REMARK  status: ('A' for Active; 'I' for Inactive)
REMARK    1  A    between atoms: C_2  and  N_3 
REMARK       I    between atoms: N_3  and  C_4 
REMARK    2  A    between atoms: C_4  and  C_5 
ROOT
HETATM    1  C   UNL     1      -5.138   2.258 -31.042  1.00  0.00     0.032 A 
HETATM    2  C   UNL     1      -4.193   1.800 -31.952  1.00  0.00     0.036 A 
HETATM    3  C   UNL     1      -3.215   2.690 -32.405  1.00  0.00     0.049 A 
HETATM    4  C   UNL     1      -3.128   4.008 -31.910  1.00  0.00     0.061 A 
HETATM    5  C   UNL     1      -4.053   4.445 -30.952  1.00  0.00     0.050 A 
HETATM    6  N   UNL     1      -4.075   5.700 -30.322  1.00  0.00    -0.324 N 
HETATM    7  C   UNL     1      -3.026   6.530 -30.030  1.00  0.00     0.245 C 
HETATM    8  O   UNL     1      -3.245   7.508 -29.312  1.00  0.00    -0.271 OA
HETATM    9  C   UNL     1      -1.621   6.085 -30.421  1.00  0.00     0.180 C 
HETATM   10  N   UNL     1      -1.516   5.880 -31.858  1.00  0.00    -0.334 N 
HETATM   11  C   UNL     1      -2.109   4.867 -32.568  1.00  0.00     0.256 C 
HETATM   12  O   UNL     1      -1.812   4.630 -33.738  1.00  0.00    -0.267 OA
HETATM   13  C   UNL     1      -0.565   7.155 -30.110  1.00  0.00     0.037 C 
HETATM   14  C   UNL     1       0.450   6.988 -31.232  1.00  0.00     0.022 C 
HETATM   15  C   UNL     1      -0.429   6.659 -32.426  1.00  0.00     0.127 C 
HETATM   16  C   UNL     1      -5.079   3.571 -30.563  1.00  0.00     0.033 A 
HETATM   17  H   UNL     1      -4.918   5.975 -29.832  1.00  0.00     0.169 HD
ENDROOT
BRANCH   2  18
HETATM   18  N   UNL     1      -4.149   0.488 -32.443  1.00  0.00    -0.322 N 
HETATM   19  C   UNL     1      -5.005  -0.119 -33.343  1.00  0.00     0.277 C 
HETATM   20  O   UNL     1      -5.944   0.410 -33.928  1.00  0.00    -0.266 OA
HETATM   21  H   UNL     1      -3.462  -0.157 -32.053  1.00  0.00     0.169 HD
BRANCH  19  22
HETATM   22  C   UNL     1      -4.693  -1.548 -33.510  1.00  0.00     0.153 A 
HETATM   23  N   UNL     1      -3.609  -2.125 -32.919  1.00  0.00    -0.169 NA
HETATM   24  N   UNL     1      -3.667  -3.433 -33.287  1.00  0.00    -0.281 N 
HETATM   25  H   UNL     1      -2.944  -4.067 -32.962  1.00  0.00     0.189 HD
HETATM   26  C   UNL     1      -4.746  -3.683 -34.053  1.00  0.00     0.036 A 
HETATM   27  C   UNL     1      -5.419  -2.513 -34.220  1.00  0.00     0.002 A 
HETATM   28  C   UNL     1      -5.353  -4.854 -34.698  1.00  0.00     0.059 C 
HETATM   29  C   UNL     1      -6.633  -2.688 -35.030  1.00  0.00     0.043 C 
HETATM   30  C   UNL     1      -6.757  -4.256 -35.076  1.00  0.00     0.011 C 
ENDBRANCH  19  22
ENDBRANCH   2  18
TORSDOF 2
ENDMDL
MODEL 3
REMARK VINA RESULT:      -9.4      1.403      1.745
REMARK  2 active torsions:
REMARK  status: ('A' for Active; 'I' for Inactive)
REMARK    1  A    between atoms: C_2  and  N_3 
REMARK       I    between atoms: N_3  and  C_4 
REMARK    2  A    between atoms: C_4  and  C_5 
ROOT
HETATM    1  C   UNL     1      -6.859   2.183 -31.802  1.00  0.00     0.032 A 
HETATM    2  C   UNL     1      -7.782   1.374 -32.452  1.00  0.00     0.036 A 
HETATM    3  C   UNL     1      -7.323   0.230 -33.111  1.00  0.00     0.049 A 
HETATM    4  C   UNL     1      -5.965  -0.152 -33.069  1.00  0.00     0.061 A 
HETATM    5  C   UNL     1      -5.049   0.641 -32.366  1.00  0.00     0.050 A 
HETATM    6  N   UNL     1      -3.682   0.378 -32.183  1.00  0.00    -0.324 N 
HETATM    7  C   UNL     1      -3.045  -0.832 -32.115  1.00  0.00     0.245 C 
HETATM    8  O   UNL     1      -1.861  -0.843 -31.771  1.00  0.00    -0.271 OA
HETATM    9  C   UNL     1      -3.882  -2.100 -32.252  1.00  0.00     0.180 C 
HETATM   10  N   UNL     1      -4.570  -2.138 -33.533  1.00  0.00    -0.334 N 
HETATM   11  C   UNL     1      -5.611  -1.327 -33.908  1.00  0.00     0.256 C 
HETATM   12  O   UNL     1      -6.281  -1.549 -34.916  1.00  0.00    -0.267 OA
HETATM   13  C   UNL     1      -3.020  -3.369 -32.243  1.00  0.00     0.037 C 
HETATM   14  C   UNL     1      -3.761  -4.307 -33.184  1.00  0.00     0.022 C 
HETATM   15  C   UNL     1      -4.274  -3.362 -34.257  1.00  0.00     0.127 C 
HETATM   16  C   UNL     1      -5.505   1.830 -31.776  1.00  0.00     0.033 A 
HETATM   17  H   UNL     1      -3.088   1.133 -31.862  1.00  0.00     0.169 HD
ENDROOT
BRANCH   2  18
HETATM   18  N   UNL     1      -9.161   1.628 -32.483  1.00  0.00    -0.322 N 
HETATM   19  C   UNL     1      -9.895   2.255 -33.473  1.00  0.00     0.277 C 
HETATM   20  O   UNL     1      -9.470   2.662 -34.549  1.00  0.00    -0.266 OA
HETATM   21  H   UNL     1      -9.716   1.408 -31.658  1.00  0.00     0.169 HD
BRANCH  19  22
HETATM   22  C   UNL     1     -11.300   2.436 -33.074  1.00  0.00     0.153 A 
HETATM   23  N   UNL     1     -11.695   3.455 -32.260  1.00  0.00    -0.169 NA
HETATM   24  N   UNL     1     -13.041   3.300 -32.138  1.00  0.00    -0.281 N 
HETATM   25  H   UNL     1     -13.560   3.955 -31.561  1.00  0.00     0.189 HD
HETATM   26  C   UNL     1     -13.485   2.252 -32.857  1.00  0.00     0.036 A 
HETATM   27  C   UNL     1     -12.412   1.676 -33.461  1.00  0.00     0.002 A 
HETATM   28  C   UNL     1     -14.780   1.626 -33.149  1.00  0.00     0.059 C 
HETATM   29  C   UNL     1     -12.800   0.527 -34.293  1.00  0.00     0.043 C 
HETATM   30  C   UNL     1     -14.364   0.687 -34.340  1.00  0.00     0.011 C 
ENDBRANCH  19  22
ENDBRANCH   2  18
TORSDOF 2
ENDMDL
MODEL 4
REMARK VINA RESULT:      -9.3      4.729      9.077
REMARK  2 active torsions:
REMARK  status: ('A' for Active; 'I' for Inactive)
REMARK    1  A    between atoms: C_2  and  N_3 
REMARK       I    between atoms: N_3  and  C_4 
REMARK    2  A    between atoms: C_4  and  C_5 
ROOT
HETATM    1  C   UNL     1      -5.187   3.230 -31.229  1.00  0.00     0.032 A 
HETATM    2  C   UNL     1      -3.848   2.860 -31.243  1.00  0.00     0.036 A 
HETATM    3  C   UNL     1      -3.522   1.542 -31.571  1.00  0.00     0.049 A 
HETATM    4  C   UNL     1      -4.509   0.609 -31.953  1.00  0.00     0.061 A 
HETATM    5  C   UNL     1      -5.852   1.005 -31.988  1.00  0.00     0.050 A 
HETATM    6  N   UNL     1      -6.945   0.221 -32.393  1.00  0.00    -0.324 N 
HETATM    7  C   UNL     1      -6.977  -0.795 -33.308  1.00  0.00     0.245 C 
HETATM    8  O   UNL     1      -8.079  -1.234 -33.646  1.00  0.00    -0.271 OA
HETATM    9  C   UNL     1      -5.680  -1.175 -34.014  1.00  0.00     0.180 C 
HETATM   10  N   UNL     1      -4.666  -1.595 -33.059  1.00  0.00    -0.334 N 
HETATM   11  C   UNL     1      -4.022  -0.780 -32.163  1.00  0.00     0.256 C 
HETATM   12  O   UNL     1      -3.033  -1.155 -31.533  1.00  0.00    -0.267 OA
HETATM   13  C   UNL     1      -5.855  -2.385 -34.942  1.00  0.00     0.037 C 
HETATM   14  C   UNL     1      -4.518  -3.104 -34.843  1.00  0.00     0.022 C 
HETATM   15  C   UNL     1      -4.146  -2.913 -33.383  1.00  0.00     0.127 C 
HETATM   16  C   UNL     1      -6.179   2.307 -31.579  1.00  0.00     0.033 A 
HETATM   17  H   UNL     1      -7.877   0.540 -32.153  1.00  0.00     0.169 HD
ENDROOT
BRANCH   2  18
HETATM   18  N   UNL     1      -2.791   3.735 -30.955  1.00  0.00    -0.322 N 
HETATM   19  C   UNL     1      -2.061   4.515 -31.833  1.00  0.00     0.277 C 
HETATM   20  O   UNL     1      -2.247   4.624 -33.040  1.00  0.00    -0.266 OA
HETATM   21  H   UNL     1      -2.434   3.772 -30.001  1.00  0.00     0.169 HD
BRANCH  19  22
HETATM   22  C   UNL     1      -0.953   5.206 -31.152  1.00  0.00     0.153 A 
HETATM   23  N   UNL     1       0.350   4.877 -31.376  1.00  0.00    -0.169 NA
HETATM   24  N   UNL     1       1.063   5.732 -30.594  1.00  0.00    -0.281 N 
HETATM   25  H   UNL     1       2.076   5.667 -30.594  1.00  0.00     0.189 HD
HETATM   26  C   UNL     1       0.258   6.577 -29.924  1.00  0.00     0.036 A 
HETATM   27  C   UNL     1      -1.028   6.273 -30.248  1.00  0.00     0.002 A 
HETATM   28  C   UNL     1       0.422   7.703 -28.996  1.00  0.00     0.059 C 
HETATM   29  C   UNL     1      -1.988   7.163 -29.579  1.00  0.00     0.043 C 
HETATM   30  C   UNL     1      -1.039   8.284 -29.016  1.00  0.00     0.011 C 
ENDBRANCH  19  22
ENDBRANCH   2  18
TORSDOF 2
ENDMDL
MODEL 5
REMARK VINA RESULT:      -9.1      2.065      8.518
REMARK  2 active torsions:
REMARK  status: ('A' for Active; 'I' for Inactive)
REMARK    1  A    between atoms: C_2  and  N_3 
REMARK       I    between atoms: N_3  and  C_4 
REMARK    2  A    between atoms: C_4  and  C_5 
ROOT
HETATM    1  C   UNL     1      -7.063   1.804 -30.875  1.00  0.00     0.032 A 
HETATM    2  C   UNL     1      -7.171   0.640 -31.625  1.00  0.00     0.036 A 
HETATM    3  C   UNL     1      -8.369   0.387 -32.298  1.00  0.00     0.049 A 
HETATM    4  C   UNL     1      -9.433   1.313 -32.288  1.00  0.00     0.061 A 
HETATM    5  C   UNL     1      -9.296   2.510 -31.574  1.00  0.00     0.050 A 
HETATM    6  N   UNL     1     -10.231   3.555 -31.504  1.00  0.00    -0.324 N 
HETATM    7  C   UNL     1     -11.148   3.947 -32.441  1.00  0.00     0.245 C 
HETATM    8  O   UNL     1     -11.755   5.003 -32.251  1.00  0.00    -0.271 OA
HETATM    9  C   UNL     1     -11.211   3.179 -33.758  1.00  0.00     0.180 C 
HETATM   10  N   UNL     1     -11.517   1.775 -33.532  1.00  0.00    -0.334 N 
HETATM   11  C   UNL     1     -10.680   0.854 -32.955  1.00  0.00     0.256 C 
HETATM   12  O   UNL     1     -10.917  -0.353 -32.985  1.00  0.00    -0.267 OA
HETATM   13  C   UNL     1     -12.343   3.676 -34.667  1.00  0.00     0.037 C 
HETATM   14  C   UNL     1     -12.802   2.414 -35.383  1.00  0.00     0.022 C 
HETATM   15  C   UNL     1     -12.678   1.356 -34.300  1.00  0.00     0.127 C 
HETATM   16  C   UNL     1      -8.121   2.719 -30.835  1.00  0.00     0.033 A 
HETATM   17  H   UNL     1     -10.118   4.252 -30.777  1.00  0.00     0.169 HD
ENDROOT
BRANCH   2  18
HETATM   18  N   UNL     1      -6.143  -0.303 -31.759  1.00  0.00    -0.322 N 
HETATM   19  C   UNL     1      -5.059  -0.273 -32.617  1.00  0.00     0.277 C 
HETATM   20  O   UNL     1      -4.768   0.630 -33.394  1.00  0.00    -0.266 OA
HETATM   21  H   UNL     1      -6.205  -1.172 -31.230  1.00  0.00     0.169 HD
BRANCH  19  22
HETATM   22  C   UNL     1      -4.269  -1.513 -32.536  1.00  0.00     0.153 A 
HETATM   23  N   UNL     1      -3.314  -1.701 -31.582  1.00  0.00    -0.169 NA
HETATM   24  N   UNL     1      -2.827  -2.948 -31.820  1.00  0.00    -0.281 N 
HETATM   25  H   UNL     1      -2.087  -3.307 -31.224  1.00  0.00     0.189 HD
HETATM   26  C   UNL     1      -3.455  -3.535 -32.856  1.00  0.00     0.036 A 
HETATM   27  C   UNL     1      -4.373  -2.656 -33.338  1.00  0.00     0.002 A 
HETATM   28  C   UNL     1      -3.409  -4.833 -33.539  1.00  0.00     0.059 C 
HETATM   29  C   UNL     1      -5.132  -3.218 -34.466  1.00  0.00     0.043 C 
HETATM   30  C   UNL     1      -4.725  -4.736 -34.394  1.00  0.00     0.011 C 
ENDBRANCH  19  22
ENDBRANCH   2  18
TORSDOF 2
ENDMDL
MODEL 6
REMARK VINA RESULT:      -8.8      4.691      8.610
REMARK  2 active torsions:
REMARK  status: ('A' for Active; 'I' for Inactive)
REMARK    1  A    between atoms: C_2  and  N_3 
REMARK       I    between atoms: N_3  and  C_4 
REMARK    2  A    between atoms: C_4  and  C_5 
ROOT
HETATM    1  C   UNL     1      -5.598   2.572 -33.198  1.00  0.00     0.032 A 
HETATM    2  C   UNL     1      -4.286   2.474 -32.753  1.00  0.00     0.036 A 
HETATM    3  C   UNL     1      -3.766   1.206 -32.478  1.00  0.00     0.049 A 
HETATM    4  C   UNL     1      -4.516   0.033 -32.708  1.00  0.00     0.061 A 
HETATM    5  C   UNL     1      -5.820   0.139 -33.208  1.00  0.00     0.050 A 
HETATM    6  N   UNL     1      -6.678  -0.923 -33.539  1.00  0.00    -0.324 N 
HETATM    7  C   UNL     1      -6.356  -2.175 -33.989  1.00  0.00     0.245 C 
HETATM    8  O   UNL     1      -7.270  -2.897 -34.392  1.00  0.00    -0.271 OA
HETATM    9  C   UNL     1      -4.882  -2.522 -34.171  1.00  0.00     0.180 C 
HETATM   10  N   UNL     1      -4.156  -2.402 -32.916  1.00  0.00    -0.334 N 
HETATM   11  C   UNL     1      -3.871  -1.229 -32.262  1.00  0.00     0.256 C 
HETATM   12  O   UNL     1      -3.079  -1.182 -31.322  1.00  0.00    -0.267 OA
HETATM   13  C   UNL     1      -4.676  -3.983 -34.593  1.00  0.00     0.037 C 
HETATM   14  C   UNL     1      -3.368  -4.366 -33.918  1.00  0.00     0.022 C 
HETATM   15  C   UNL     1      -3.453  -3.632 -32.591  1.00  0.00     0.127 C 
HETATM   16  C   UNL     1      -6.362   1.419 -33.404  1.00  0.00     0.033 A 
HETATM   17  H   UNL     1      -7.663  -0.721 -33.666  1.00  0.00     0.169 HD
ENDROOT
BRANCH   2  18
HETATM   18  N   UNL     1      -3.437   3.574 -32.568  1.00  0.00    -0.322 N 
HETATM   19  C   UNL     1      -3.603   4.651 -31.718  1.00  0.00     0.277 C 
HETATM   20  O   UNL     1      -4.516   4.813 -30.915  1.00  0.00    -0.266 OA
HETATM   21  H   UNL     1      -2.623   3.669 -33.174  1.00  0.00     0.169 HD
BRANCH  19  22
HETATM   22  C   UNL     1      -2.547   5.659 -31.907  1.00  0.00     0.153 A 
HETATM   23  N   UNL     1      -2.723   6.750 -32.704  1.00  0.00    -0.169 NA
HETATM   24  N   UNL     1      -1.555   7.441 -32.611  1.00  0.00    -0.281 N 
HETATM   25  H   UNL     1      -1.453   8.304 -33.136  1.00  0.00     0.189 HD
HETATM   26  C   UNL     1      -0.688   6.835 -31.778  1.00  0.00     0.036 A 
HETATM   27  C   UNL     1      -1.278   5.701 -31.315  1.00  0.00     0.002 A 
HETATM   28  C   UNL     1       0.659   7.099 -31.259  1.00  0.00     0.059 C 
HETATM   29  C   UNL     1      -0.411   4.976 -30.374  1.00  0.00     0.043 C 
HETATM   30  C   UNL     1       0.714   6.041 -30.098  1.00  0.00     0.011 C 
ENDBRANCH  19  22
ENDBRANCH   2  18
TORSDOF 2
ENDMDL
MODEL 7
REMARK VINA RESULT:      -8.7      4.943      9.027
REMARK  2 active torsions:
REMARK  status: ('A' for Active; 'I' for Inactive)
REMARK    1  A    between atoms: C_2  and  N_3 
REMARK       I    between atoms: N_3  and  C_4 
REMARK    2  A    between atoms: C_4  and  C_5 
ROOT
HETATM    1  C   UNL     1      -6.981   4.194 -29.702  1.00  0.00     0.032 A 
HETATM    2  C   UNL     1      -5.635   3.989 -29.979  1.00  0.00     0.036 A 
HETATM    3  C   UNL     1      -5.256   2.801 -30.610  1.00  0.00     0.049 A 
HETATM    4  C   UNL     1      -6.209   1.850 -31.030  1.00  0.00     0.061 A 
HETATM    5  C   UNL     1      -7.569   2.089 -30.794  1.00  0.00     0.050 A 
HETATM    6  N   UNL     1      -8.643   1.275 -31.191  1.00  0.00    -0.324 N 
HETATM    7  C   UNL     1      -8.736   0.451 -32.279  1.00  0.00     0.245 C 
HETATM    8  O   UNL     1      -9.836  -0.040 -32.541  1.00  0.00    -0.271 OA
HETATM    9  C   UNL     1      -7.541   0.361 -33.223  1.00  0.00     0.180 C 
HETATM   10  N   UNL     1      -6.356  -0.111 -32.526  1.00  0.00    -0.334 N 
HETATM   11  C   UNL     1      -5.647   0.590 -31.583  1.00  0.00     0.256 C 
HETATM   12  O   UNL     1      -4.542   0.220 -31.189  1.00  0.00    -0.267 OA
HETATM   13  C   UNL     1      -7.761  -0.666 -34.343  1.00  0.00     0.037 C 
HETATM   14  C   UNL     1      -6.369  -1.232 -34.581  1.00  0.00     0.022 C 
HETATM   15  C   UNL     1      -5.785  -1.277 -33.180  1.00  0.00     0.127 C 
HETATM   16  C   UNL     1      -7.934   3.246 -30.088  1.00  0.00     0.033 A 
HETATM   17  H   UNL     1      -9.548   1.434 -30.763  1.00  0.00     0.169 HD
ENDROOT
BRANCH   2  18
HETATM   18  N   UNL     1      -4.624   4.910 -29.672  1.00  0.00    -0.322 N 
HETATM   19  C   UNL     1      -4.195   5.992 -30.417  1.00  0.00     0.277 C 
HETATM   20  O   UNL     1      -4.671   6.382 -31.479  1.00  0.00    -0.266 OA
HETATM   21  H   UNL     1      -4.055   4.751 -28.841  1.00  0.00     0.169 HD
BRANCH  19  22
HETATM   22  C   UNL     1      -3.025   6.643 -29.805  1.00  0.00     0.153 A 
HETATM   23  N   UNL     1      -3.092   7.257 -28.591  1.00  0.00    -0.169 NA
HETATM   24  N   UNL     1      -1.831   7.713 -28.362  1.00  0.00    -0.281 N 
HETATM   25  H   UNL     1      -1.640   8.218 -27.502  1.00  0.00     0.189 HD
HETATM   26  C   UNL     1      -0.997   7.386 -29.367  1.00  0.00     0.036 A 
HETATM   27  C   UNL     1      -1.717   6.710 -30.302  1.00  0.00     0.002 A 
HETATM   28  C   UNL     1       0.429   7.551 -29.672  1.00  0.00     0.059 C 
HETATM   29  C   UNL     1      -0.883   6.288 -31.438  1.00  0.00     0.043 C 
HETATM   30  C   UNL     1       0.564   6.558 -30.883  1.00  0.00     0.011 C 
ENDBRANCH  19  22
ENDBRANCH   2  18
TORSDOF 2
ENDMDL
MODEL 8
REMARK VINA RESULT:      -8.5      5.309      9.562
REMARK  2 active torsions:
REMARK  status: ('A' for Active; 'I' for Inactive)
REMARK    1  A    between atoms: C_2  and  N_3 
REMARK       I    between atoms: N_3  and  C_4 
REMARK    2  A    between atoms: C_4  and  C_5 
ROOT
HETATM    1  C   UNL     1      -3.323   2.473 -31.515  1.00  0.00     0.032 A 
HETATM    2  C   UNL     1      -4.043   3.659 -31.451  1.00  0.00     0.036 A 
HETATM    3  C   UNL     1      -5.296   3.716 -32.069  1.00  0.00     0.049 A 
HETATM    4  C   UNL     1      -5.866   2.584 -32.688  1.00  0.00     0.061 A 
HETATM    5  C   UNL     1      -5.157   1.376 -32.701  1.00  0.00     0.050 A 
HETATM    6  N   UNL     1      -5.600   0.151 -33.225  1.00  0.00    -0.324 N 
HETATM    7  C   UNL     1      -6.878  -0.328 -33.317  1.00  0.00     0.245 C 
HETATM    8  O   UNL     1      -7.031  -1.506 -33.649  1.00  0.00    -0.271 OA
HETATM    9  C   UNL     1      -8.017   0.543 -32.799  1.00  0.00     0.180 C 
HETATM   10  N   UNL     1      -8.068   1.814 -33.505  1.00  0.00    -0.334 N 
HETATM   11  C   UNL     1      -7.150   2.829 -33.396  1.00  0.00     0.256 C 
HETATM   12  O   UNL     1      -7.360   3.951 -33.855  1.00  0.00    -0.267 OA
HETATM   13  C   UNL     1      -9.393  -0.088 -33.051  1.00  0.00     0.037 C 
HETATM   14  C   UNL     1     -10.293   1.112 -33.306  1.00  0.00     0.022 C 
HETATM   15  C   UNL     1      -9.381   2.050 -34.079  1.00  0.00     0.127 C 
HETATM   16  C   UNL     1      -3.866   1.351 -32.150  1.00  0.00     0.033 A 
HETATM   17  H   UNL     1      -4.914  -0.578 -33.384  1.00  0.00     0.169 HD
ENDROOT
BRANCH   2  18
HETATM   18  N   UNL     1      -3.595   4.813 -30.792  1.00  0.00    -0.322 N 
HETATM   19  C   UNL     1      -2.581   5.674 -31.167  1.00  0.00     0.277 C 
HETATM   20  O   UNL     1      -1.914   5.613 -32.195  1.00  0.00    -0.266 OA
HETATM   21  H   UNL     1      -3.987   5.036 -29.878  1.00  0.00     0.169 HD
BRANCH  19  22
HETATM   22  C   UNL     1      -2.336   6.703 -30.143  1.00  0.00     0.153 A 
HETATM   23  N   UNL     1      -3.354   7.299 -29.459  1.00  0.00    -0.169 NA
HETATM   24  N   UNL     1      -2.740   8.162 -28.606  1.00  0.00    -0.281 N 
HETATM   25  H   UNL     1      -3.311   8.731 -27.989  1.00  0.00     0.189 HD
HETATM   26  C   UNL     1      -1.400   8.102 -28.721  1.00  0.00     0.036 A 
HETATM   27  C   UNL     1      -1.105   7.191 -29.687  1.00  0.00     0.002 A 
HETATM   28  C   UNL     1      -0.241   8.730 -28.076  1.00  0.00     0.059 C 
HETATM   29  C   UNL     1       0.346   7.038 -29.873  1.00  0.00     0.043 C 
HETATM   30  C   UNL     1       0.906   7.800 -28.617  1.00  0.00     0.011 C 
ENDBRANCH  19  22
ENDBRANCH   2  18
TORSDOF 2
ENDMDL
MODEL 9
REMARK VINA RESULT:      -8.3      4.721      6.349
REMARK  2 active torsions:
REMARK  status: ('A' for Active; 'I' for Inactive)
REMARK    1  A    between atoms: C_2  and  N_3 
REMARK       I    between atoms: N_3  and  C_4 
REMARK    2  A    between atoms: C_4  and  C_5 
ROOT
HETATM    1  C   UNL     1      -5.464   4.404 -34.675  1.00  0.00     0.032 A 
HETATM    2  C   UNL     1      -5.620   3.597 -33.555  1.00  0.00     0.036 A 
HETATM    3  C   UNL     1      -4.588   3.552 -32.614  1.00  0.00     0.049 A 
HETATM    4  C   UNL     1      -3.435   4.355 -32.743  1.00  0.00     0.061 A 
HETATM    5  C   UNL     1      -3.309   5.206 -33.848  1.00  0.00     0.050 A 
HETATM    6  N   UNL     1      -2.258   6.102 -34.098  1.00  0.00    -0.324 N 
HETATM    7  C   UNL     1      -1.467   6.767 -33.201  1.00  0.00     0.245 C 
HETATM    8  O   UNL     1      -0.717   7.646 -33.631  1.00  0.00    -0.271 OA
HETATM    9  C   UNL     1      -1.714   6.541 -31.713  1.00  0.00     0.180 C 
HETATM   10  N   UNL     1      -1.544   5.140 -31.360  1.00  0.00    -0.334 N 
HETATM   11  C   UNL     1      -2.378   4.114 -31.725  1.00  0.00     0.256 C 
HETATM   12  O   UNL     1      -2.294   2.994 -31.222  1.00  0.00    -0.267 OA
HETATM   13  C   UNL     1      -0.696   7.283 -30.835  1.00  0.00     0.037 C 
HETATM   14  C   UNL     1      -0.514   6.355 -29.643  1.00  0.00     0.022 C 
HETATM   15  C   UNL     1      -0.583   4.979 -30.282  1.00  0.00     0.127 C 
HETATM   16  C   UNL     1      -4.313   5.185 -34.829  1.00  0.00     0.033 A 
HETATM   17  H   UNL     1      -2.166   6.484 -35.033  1.00  0.00     0.169 HD
ENDROOT
BRANCH   2  18
HETATM   18  N   UNL     1      -6.761   2.824 -33.300  1.00  0.00    -0.322 N 
HETATM   19  C   UNL     1      -6.971   1.487 -33.581  1.00  0.00     0.277 C 
HETATM   20  O   UNL     1      -6.158   0.707 -34.066  1.00  0.00    -0.266 OA
HETATM   21  H   UNL     1      -7.592   3.287 -32.933  1.00  0.00     0.169 HD
BRANCH  19  22
HETATM   22  C   UNL     1      -8.350   1.076 -33.267  1.00  0.00     0.153 A 
HETATM   23  N   UNL     1      -8.622   0.093 -32.364  1.00  0.00    -0.169 NA
HETATM   24  N   UNL     1      -9.980   0.015 -32.335  1.00  0.00    -0.281 N 
HETATM   25  H   UNL     1     -10.419  -0.667 -31.724  1.00  0.00     0.189 HD
HETATM   26  C   UNL     1     -10.545   0.918 -33.158  1.00  0.00     0.036 A 
HETATM   27  C   UNL     1      -9.544   1.608 -33.769  1.00  0.00     0.002 A 
HETATM   28  C   UNL     1     -11.905   1.334 -33.519  1.00  0.00     0.059 C 
HETATM   29  C   UNL     1     -10.064   2.640 -34.678  1.00  0.00     0.043 C 
HETATM   30  C   UNL     1     -11.586   2.673 -34.279  1.00  0.00     0.011 C 
ENDBRANCH  19  22
ENDBRANCH   2  18
TORSDOF 2
ENDMDL
MODEL 10
REMARK VINA RESULT:      -8.3     14.676     16.987
REMARK  2 active torsions:
REMARK  status: ('A' for Active; 'I' for Inactive)
REMARK    1  A    between atoms: C_2  and  N_3 
REMARK       I    between atoms: N_3  and  C_4 
REMARK    2  A    between atoms: C_4  and  C_5 
ROOT
HETATM    1  C   UNL     1      -9.156 -12.876 -39.229  1.00  0.00     0.032 A 
HETATM    2  C   UNL     1      -9.018 -13.641 -40.380  1.00  0.00     0.036 A 
HETATM    3  C   UNL     1      -7.734 -13.864 -40.885  1.00  0.00     0.049 A 
HETATM    4  C   UNL     1      -6.584 -13.392 -40.217  1.00  0.00     0.061 A 
HETATM    5  C   UNL     1      -6.730 -12.667 -39.028  1.00  0.00     0.050 A 
HETATM    6  N   UNL     1      -5.695 -12.174 -38.217  1.00  0.00    -0.324 N 
HETATM    7  C   UNL     1      -4.439 -12.683 -38.028  1.00  0.00     0.245 C 
HETATM    8  O   UNL     1      -3.745 -12.194 -37.134  1.00  0.00    -0.271 OA
HETATM    9  C   UNL     1      -4.053 -13.955 -38.776  1.00  0.00     0.180 C 
HETATM   10  N   UNL     1      -4.142 -13.765 -40.215  1.00  0.00    -0.334 N 
HETATM   11  C   UNL     1      -5.301 -13.610 -40.934  1.00  0.00     0.256 C 
HETATM   12  O   UNL     1      -5.318 -13.663 -42.163  1.00  0.00    -0.267 OA
HETATM   13  C   UNL     1      -2.591 -14.353 -38.532  1.00  0.00     0.037 C 
HETATM   14  C   UNL     1      -2.167 -14.970 -39.856  1.00  0.00     0.022 C 
HETATM   15  C   UNL     1      -2.891 -14.103 -40.872  1.00  0.00     0.127 C 
HETATM   16  C   UNL     1      -8.026 -12.379 -38.572  1.00  0.00     0.033 A 
HETATM   17  H   UNL     1      -5.924 -11.474 -37.520  1.00  0.00     0.169 HD
ENDROOT
BRANCH   2  18
HETATM   18  N   UNL     1     -10.093 -14.218 -41.071  1.00  0.00    -0.322 N 
HETATM   19  C   UNL     1     -10.641 -15.476 -40.906  1.00  0.00     0.277 C 
HETATM   20  O   UNL     1     -10.313 -16.312 -40.070  1.00  0.00    -0.266 OA
HETATM   21  H   UNL     1     -10.500 -13.708 -41.854  1.00  0.00     0.169 HD
BRANCH  19  22
HETATM   22  C   UNL     1     -11.684 -15.750 -41.909  1.00  0.00     0.153 A 
HETATM   23  N   UNL     1     -12.992 -15.433 -41.696  1.00  0.00    -0.169 NA
HETATM   24  N   UNL     1     -13.631 -15.815 -42.834  1.00  0.00    -0.281 N 
HETATM   25  H   UNL     1     -14.635 -15.679 -42.902  1.00  0.00     0.189 HD
HETATM   26  C   UNL     1     -12.772 -16.328 -43.735  1.00  0.00     0.036 A 
HETATM   27  C   UNL     1     -11.529 -16.307 -43.184  1.00  0.00     0.002 A 
HETATM   28  C   UNL     1     -12.844 -16.854 -45.103  1.00  0.00     0.059 C 
HETATM   29  C   UNL     1     -10.510 -16.830 -44.107  1.00  0.00     0.043 C 
HETATM   30  C   UNL     1     -11.313 -16.892 -45.459  1.00  0.00     0.011 C 
ENDBRANCH  19  22
ENDBRANCH   2  18
TORSDOF 2
ENDMDL
