MODEL 1
REMARK VINA RESULT:      -8.2      0.000      0.000
REMARK  1 active torsions:
REMARK  status: ('A' for Active; 'I' for Inactive)
REMARK    1  A    between atoms: C_8  and  C_9 
ROOT
HETATM    1  C   UNL     1      -9.237   1.575 -34.631  1.00  0.00     0.073 C 
HETATM    2  C   UNL     1      -8.922   1.116 -33.253  1.00  0.00     0.062 C 
HETATM    3  N   UNL     1      -9.921   0.866 -32.399  1.00  0.00    -0.178 NA
HETATM    4  N   UNL     1      -9.300   0.450 -31.290  1.00  0.00    -0.262 N 
HETATM    5  H   UNL     1      -9.870   0.190 -30.492  1.00  0.00     0.191 HD
HETATM    6  C   UNL     1      -7.939   0.555 -31.357  1.00  0.00     0.134 C 
HETATM    7  C   UNL     1      -7.639   0.866 -32.668  1.00  0.00     0.032 C 
HETATM    8  C   UNL     1      -6.324   0.866 -33.374  1.00  0.00     0.119 C 
HETATM    9  S   UNL     1      -4.905   1.695 -32.613  1.00  0.00    -0.141 SA
HETATM   10  C   UNL     1      -5.422   2.052 -30.910  1.00  0.00     0.136 C 
HETATM   11  C   UNL     1      -6.322   3.278 -30.786  1.00  0.00     0.031 C 
HETATM   12  C   UNL     1      -5.887   0.840 -30.103  1.00  0.00     0.236 C 
HETATM   13  O   UNL     1      -5.180   0.360 -29.211  1.00  0.00    -0.272 OA
HETATM   14  N   UNL     1      -7.143   0.327 -30.267  1.00  0.00    -0.311 N 
HETATM   15  H   UNL     1      -7.460  -0.271 -29.513  1.00  0.00     0.170 HD
ENDROOT
BRANCH   8  16
HETATM   16  C   UNL     1      -6.053  -0.600 -33.725  1.00  0.00    -0.040 A 
HETATM   17  C   UNL     1      -4.788  -1.156 -33.454  1.00  0.00     0.010 A 
HETATM   18  C   UNL     1      -4.489  -2.479 -33.793  1.00  0.00     0.024 A 
HETATM   19  C   UNL     1      -5.457  -3.274 -34.402  1.00  0.00     0.034 A 
HETATM   20 CL   UNL     1      -5.090  -4.900 -34.823  1.00  0.00    -0.084 Cl
HETATM   21  C   UNL     1      -6.719  -2.755 -34.672  1.00  0.00     0.024 A 
HETATM   22  C   UNL     1      -7.013  -1.429 -34.338  1.00  0.00     0.010 A 
ENDBRANCH   8  16
TORSDOF 1
ENDMDL
MODEL 2
REMARK VINA RESULT:      -7.5      1.273      1.406
REMARK  1 active torsions:
REMARK  status: ('A' for Active; 'I' for Inactive)
REMARK    1  A    between atoms: C_8  and  C_9 
ROOT
HETATM    1  C   UNL     1      -8.960   3.536 -34.020  1.00  0.00     0.073 C 
HETATM    2  C   UNL     1      -8.716   2.821 -32.741  1.00  0.00     0.062 C 
HETATM    3  N   UNL     1      -9.718   2.682 -31.864  1.00  0.00    -0.178 NA
HETATM    4  N   UNL     1      -9.175   1.978 -30.864  1.00  0.00    -0.262 N 
HETATM    5  H   UNL     1      -9.764   1.740 -30.074  1.00  0.00     0.191 HD
HETATM    6  C   UNL     1      -7.831   1.781 -31.006  1.00  0.00     0.134 C 
HETATM    7  C   UNL     1      -7.509   2.204 -32.279  1.00  0.00     0.032 C 
HETATM    8  C   UNL     1      -6.254   2.009 -33.063  1.00  0.00     0.119 C 
HETATM    9  S   UNL     1      -4.657   2.375 -32.292  1.00  0.00    -0.141 SA
HETATM   10  C   UNL     1      -5.021   2.586 -30.526  1.00  0.00     0.136 C 
HETATM   11  C   UNL     1      -5.605   3.953 -30.179  1.00  0.00     0.031 C 
HETATM   12  C   UNL     1      -5.729   1.407 -29.862  1.00  0.00     0.236 C 
HETATM   13  O   UNL     1      -5.126   0.654 -29.091  1.00  0.00    -0.272 OA
HETATM   14  N   UNL     1      -7.075   1.221 -30.011  1.00  0.00    -0.311 N 
HETATM   15  H   UNL     1      -7.499   0.607 -29.326  1.00  0.00     0.170 HD
ENDROOT
BRANCH   8  16
HETATM   16  C   UNL     1      -6.345   0.588 -33.625  1.00  0.00    -0.040 A 
HETATM   17  C   UNL     1      -5.528  -0.425 -33.086  1.00  0.00     0.010 A 
HETATM   18  C   UNL     1      -5.554  -1.727 -33.597  1.00  0.00     0.024 A 
HETATM   19  C   UNL     1      -6.407  -2.040 -34.652  1.00  0.00     0.034 A 
HETATM   20 CL   UNL     1      -6.437  -3.639 -35.283  1.00  0.00    -0.084 Cl
HETATM   21  C   UNL     1      -7.233  -1.063 -35.197  1.00  0.00     0.024 A 
HETATM   22  C   UNL     1      -7.200   0.240 -34.690  1.00  0.00     0.010 A 
ENDBRANCH   8  16
TORSDOF 1
ENDMDL
MODEL 3
REMARK VINA RESULT:      -7.2      2.882      3.948
REMARK  1 active torsions:
REMARK  status: ('A' for Active; 'I' for Inactive)
REMARK    1  A    between atoms: C_8  and  C_9 
ROOT
HETATM    1  C   UNL     1      -3.959   2.639 -31.531  1.00  0.00     0.073 C 
HETATM    2  C   UNL     1      -5.022   2.866 -32.544  1.00  0.00     0.062 C 
HETATM    3  N   UNL     1      -4.847   3.803 -33.482  1.00  0.00    -0.178 NA
HETATM    4  N   UNL     1      -5.954   3.720 -34.230  1.00  0.00    -0.262 N 
HETATM    5  H   UNL     1      -6.040   4.344 -35.025  1.00  0.00     0.191 HD
HETATM    6  C   UNL     1      -6.888   2.862 -33.724  1.00  0.00     0.134 C 
HETATM    7  C   UNL     1      -6.274   2.184 -32.691  1.00  0.00     0.032 C 
HETATM    8  C   UNL     1      -6.721   0.974 -31.941  1.00  0.00     0.119 C 
HETATM    9  S   UNL     1      -8.407   0.906 -31.285  1.00  0.00    -0.141 SA
HETATM   10  C   UNL     1      -9.272   2.303 -32.057  1.00  0.00     0.136 C 
HETATM   11  C   UNL     1      -8.973   3.648 -31.402  1.00  0.00     0.031 C 
HETATM   12  C   UNL     1      -9.245   2.321 -33.585  1.00  0.00     0.236 C 
HETATM   13  O   UNL     1     -10.251   2.037 -34.243  1.00  0.00    -0.272 OA
HETATM   14  N   UNL     1      -8.143   2.763 -34.262  1.00  0.00    -0.311 N 
HETATM   15  H   UNL     1      -8.309   3.008 -35.231  1.00  0.00     0.170 HD
ENDROOT
BRANCH   8  16
HETATM   16  C   UNL     1      -6.373  -0.213 -32.844  1.00  0.00    -0.040 A 
HETATM   17  C   UNL     1      -7.386  -0.818 -33.614  1.00  0.00     0.010 A 
HETATM   18  C   UNL     1      -7.117  -1.928 -34.422  1.00  0.00     0.024 A 
HETATM   19  C   UNL     1      -5.826  -2.445 -34.481  1.00  0.00     0.034 A 
HETATM   20 CL   UNL     1      -5.495  -3.811 -35.472  1.00  0.00    -0.084 Cl
HETATM   21  C   UNL     1      -4.804  -1.862 -33.740  1.00  0.00     0.024 A 
HETATM   22  C   UNL     1      -5.077  -0.757 -32.927  1.00  0.00     0.010 A 
ENDBRANCH   8  16
TORSDOF 1
ENDMDL
MODEL 4
REMARK VINA RESULT:      -7.1     14.257     15.314
REMARK  1 active torsions:
REMARK  status: ('A' for Active; 'I' for Inactive)
REMARK    1  A    between atoms: C_8  and  C_9 
ROOT
HETATM    1  C   UNL     1      -3.740 -14.507 -39.703  1.00  0.00     0.073 C 
HETATM    2  C   UNL     1      -4.189 -13.853 -38.447  1.00  0.00     0.062 C 
HETATM    3  N   UNL     1      -3.436 -12.892 -37.900  1.00  0.00    -0.178 NA
HETATM    4  N   UNL     1      -4.134 -12.508 -36.825  1.00  0.00    -0.262 N 
HETATM    5  H   UNL     1      -3.753 -11.766 -36.249  1.00  0.00     0.191 HD
HETATM    6  C   UNL     1      -5.236 -13.280 -36.589  1.00  0.00     0.134 C 
HETATM    7  C   UNL     1      -5.384 -14.094 -37.694  1.00  0.00     0.032 C 
HETATM    8  C   UNL     1      -6.530 -14.959 -38.098  1.00  0.00     0.119 C 
HETATM    9  S   UNL     1      -7.264 -16.088 -36.887  1.00  0.00    -0.141 SA
HETATM   10  C   UNL     1      -6.563 -15.587 -35.289  1.00  0.00     0.136 C 
HETATM   11  C   UNL     1      -5.147 -16.106 -35.051  1.00  0.00     0.031 C 
HETATM   12  C   UNL     1      -6.773 -14.121 -34.916  1.00  0.00     0.236 C 
HETATM   13  O   UNL     1      -7.586 -13.795 -34.046  1.00  0.00    -0.272 OA
HETATM   14  N   UNL     1      -5.984 -13.140 -35.451  1.00  0.00    -0.311 N 
HETATM   15  H   UNL     1      -5.998 -12.261 -34.948  1.00  0.00     0.170 HD
ENDROOT
BRANCH   8  16
HETATM   16  C   UNL     1      -7.549 -14.010 -38.737  1.00  0.00    -0.040 A 
HETATM   17  C   UNL     1      -8.858 -13.948 -38.221  1.00  0.00     0.010 A 
HETATM   18  C   UNL     1      -9.827 -13.122 -38.800  1.00  0.00     0.024 A 
HETATM   19  C   UNL     1      -9.499 -12.336 -39.901  1.00  0.00     0.034 A 
HETATM   20 CL   UNL     1     -10.691 -11.323 -40.615  1.00  0.00    -0.084 Cl
HETATM   21  C   UNL     1      -8.212 -12.369 -40.425  1.00  0.00     0.024 A 
HETATM   22  C   UNL     1      -7.246 -13.201 -39.850  1.00  0.00     0.010 A 
ENDBRANCH   8  16
TORSDOF 1
ENDMDL
MODEL 5
REMARK VINA RESULT:      -7.0      2.284      3.132
REMARK  1 active torsions:
REMARK  status: ('A' for Active; 'I' for Inactive)
REMARK    1  A    between atoms: C_8  and  C_9 
ROOT
HETATM    1  C   UNL     1      -9.422   3.532 -31.979  1.00  0.00     0.073 C 
HETATM    2  C   UNL     1      -8.158   3.208 -31.269  1.00  0.00     0.062 C 
HETATM    3  N   UNL     1      -8.186   2.967 -29.953  1.00  0.00    -0.178 NA
HETATM    4  N   UNL     1      -6.914   2.683 -29.650  1.00  0.00    -0.262 N 
HETATM    5  H   UNL     1      -6.693   2.454 -28.687  1.00  0.00     0.191 HD
HETATM    6  C   UNL     1      -6.053   2.867 -30.694  1.00  0.00     0.134 C 
HETATM    7  C   UNL     1      -6.836   3.088 -31.809  1.00  0.00     0.032 C 
HETATM    8  C   UNL     1      -6.461   3.111 -33.252  1.00  0.00     0.119 C 
HETATM    9  S   UNL     1      -5.031   4.087 -33.784  1.00  0.00    -0.141 SA
HETATM   10  C   UNL     1      -4.176   4.549 -32.251  1.00  0.00     0.136 C 
HETATM   11  C   UNL     1      -4.821   5.723 -31.519  1.00  0.00     0.031 C 
HETATM   12  C   UNL     1      -3.779   3.381 -31.349  1.00  0.00     0.236 C 
HETATM   13  O   UNL     1      -2.601   3.021 -31.256  1.00  0.00    -0.272 OA
HETATM   14  N   UNL     1      -4.696   2.779 -30.534  1.00  0.00    -0.311 N 
HETATM   15  H   UNL     1      -4.300   2.226 -29.783  1.00  0.00     0.170 HD
ENDROOT
BRANCH   8  16
HETATM   16  C   UNL     1      -6.383   1.641 -33.675  1.00  0.00    -0.040 A 
HETATM   17  C   UNL     1      -7.371   1.111 -34.527  1.00  0.00     0.010 A 
HETATM   18  C   UNL     1      -7.356  -0.236 -34.905  1.00  0.00     0.024 A 
HETATM   19  C   UNL     1      -6.344  -1.073 -34.444  1.00  0.00     0.034 A 
HETATM   20 CL   UNL     1      -6.327  -2.730 -34.906  1.00  0.00    -0.084 Cl
HETATM   21  C   UNL     1      -5.349  -0.575 -33.611  1.00  0.00     0.024 A 
HETATM   22  C   UNL     1      -5.370   0.770 -33.227  1.00  0.00     0.010 A 
ENDBRANCH   8  16
TORSDOF 1
ENDMDL
MODEL 6
REMARK VINA RESULT:      -7.0      2.849      3.802
REMARK  1 active torsions:
REMARK  status: ('A' for Active; 'I' for Inactive)
REMARK    1  A    between atoms: C_8  and  C_9 
ROOT
HETATM    1  C   UNL     1      -2.975   3.544 -32.716  1.00  0.00     0.073 C 
HETATM    2  C   UNL     1      -4.420   3.611 -33.055  1.00  0.00     0.062 C 
HETATM    3  N   UNL     1      -4.835   4.463 -33.999  1.00  0.00    -0.178 NA
HETATM    4  N   UNL     1      -6.153   4.245 -34.074  1.00  0.00    -0.262 N 
HETATM    5  H   UNL     1      -6.690   4.784 -34.744  1.00  0.00     0.191 HD
HETATM    6  C   UNL     1      -6.616   3.384 -33.119  1.00  0.00     0.134 C 
HETATM    7  C   UNL     1      -5.501   2.845 -32.510  1.00  0.00     0.032 C 
HETATM    8  C   UNL     1      -5.387   1.687 -31.576  1.00  0.00     0.119 C 
HETATM    9  S   UNL     1      -6.497   1.581 -30.149  1.00  0.00    -0.141 SA
HETATM   10  C   UNL     1      -7.768   2.844 -30.444  1.00  0.00     0.136 C 
HETATM   11  C   UNL     1      -7.315   4.261 -30.102  1.00  0.00     0.031 C 
HETATM   12  C   UNL     1      -8.515   2.719 -31.771  1.00  0.00     0.236 C 
HETATM   13  O   UNL     1      -9.681   2.315 -31.809  1.00  0.00    -0.272 OA
HETATM   14  N   UNL     1      -7.954   3.160 -32.937  1.00  0.00    -0.311 N 
HETATM   15  H   UNL     1      -8.609   3.301 -33.697  1.00  0.00     0.170 HD
ENDROOT
BRANCH   8  16
HETATM   16  C   UNL     1      -5.425   0.442 -32.468  1.00  0.00    -0.040 A 
HETATM   17  C   UNL     1      -6.665  -0.148 -32.782  1.00  0.00     0.010 A 
HETATM   18  C   UNL     1      -6.739  -1.306 -33.562  1.00  0.00     0.024 A 
HETATM   19  C   UNL     1      -5.573  -1.890 -34.050  1.00  0.00     0.034 A 
HETATM   20 CL   UNL     1      -5.664  -3.316 -35.006  1.00  0.00    -0.084 Cl
HETATM   21  C   UNL     1      -4.336  -1.323 -33.764  1.00  0.00     0.024 A 
HETATM   22  C   UNL     1      -4.263  -0.169 -32.978  1.00  0.00     0.010 A 
ENDBRANCH   8  16
TORSDOF 1
ENDMDL
MODEL 7
REMARK VINA RESULT:      -6.8      4.296      5.689
REMARK  1 active torsions:
REMARK  status: ('A' for Active; 'I' for Inactive)
REMARK    1  A    between atoms: C_8  and  C_9 
ROOT
HETATM    1  C   UNL     1      -1.299   4.607 -31.301  1.00  0.00     0.073 C 
HETATM    2  C   UNL     1      -2.246   4.800 -32.429  1.00  0.00     0.062 C 
HETATM    3  N   UNL     1      -1.800   5.309 -33.584  1.00  0.00    -0.178 NA
HETATM    4  N   UNL     1      -2.881   5.315 -34.372  1.00  0.00    -0.262 N 
HETATM    5  H   UNL     1      -2.777   5.659 -35.321  1.00  0.00     0.191 HD
HETATM    6  C   UNL     1      -4.029   4.959 -33.723  1.00  0.00     0.134 C 
HETATM    7  C   UNL     1      -3.644   4.490 -32.483  1.00  0.00     0.032 C 
HETATM    8  C   UNL     1      -4.431   3.752 -31.453  1.00  0.00     0.119 C 
HETATM    9  S   UNL     1      -6.061   4.373 -30.965  1.00  0.00    -0.141 SA
HETATM   10  C   UNL     1      -6.471   5.645 -32.193  1.00  0.00     0.136 C 
HETATM   11  C   UNL     1      -5.784   6.985 -31.942  1.00  0.00     0.031 C 
HETATM   12  C   UNL     1      -6.439   5.179 -33.648  1.00  0.00     0.236 C 
HETATM   13  O   UNL     1      -7.484   5.003 -34.283  1.00  0.00    -0.272 OA
HETATM   14  N   UNL     1      -5.256   5.058 -34.321  1.00  0.00    -0.311 N 
HETATM   15  H   UNL     1      -5.342   5.026 -35.330  1.00  0.00     0.170 HD
ENDROOT
BRANCH   8  16
HETATM   16  C   UNL     1      -4.454   2.296 -31.927  1.00  0.00    -0.040 A 
HETATM   17  C   UNL     1      -3.388   1.440 -31.589  1.00  0.00     0.010 A 
HETATM   18  C   UNL     1      -3.354   0.115 -32.034  1.00  0.00     0.024 A 
HETATM   19  C   UNL     1      -4.392  -0.380 -32.818  1.00  0.00     0.034 A 
HETATM   20 CL   UNL     1      -4.349  -2.009 -33.369  1.00  0.00    -0.084 Cl
HETATM   21  C   UNL     1      -5.463   0.439 -33.158  1.00  0.00     0.024 A 
HETATM   22  C   UNL     1      -5.492   1.766 -32.719  1.00  0.00     0.010 A 
ENDBRANCH   8  16
TORSDOF 1
ENDMDL
MODEL 8
REMARK VINA RESULT:      -6.8      3.816      5.565
REMARK  1 active torsions:
REMARK  status: ('A' for Active; 'I' for Inactive)
REMARK    1  A    between atoms: C_8  and  C_9 
ROOT
HETATM    1  C   UNL     1      -4.384  -0.572 -31.485  1.00  0.00     0.073 C 
HETATM    2  C   UNL     1      -5.367   0.380 -30.906  1.00  0.00     0.062 C 
HETATM    3  N   UNL     1      -5.515   0.446 -29.578  1.00  0.00    -0.178 NA
HETATM    4  N   UNL     1      -6.432   1.405 -29.403  1.00  0.00    -0.262 N 
HETATM    5  H   UNL     1      -6.702   1.639 -28.454  1.00  0.00     0.191 HD
HETATM    6  C   UNL     1      -6.974   1.858 -30.572  1.00  0.00     0.134 C 
HETATM    7  C   UNL     1      -6.219   1.308 -31.589  1.00  0.00     0.032 C 
HETATM    8  C   UNL     1      -6.194   1.633 -33.044  1.00  0.00     0.119 C 
HETATM    9  S   UNL     1      -7.753   1.749 -33.958  1.00  0.00    -0.141 SA
HETATM   10  C   UNL     1      -9.048   1.760 -32.686  1.00  0.00     0.136 C 
HETATM   11  C   UNL     1      -9.371   0.377 -32.128  1.00  0.00     0.031 C 
HETATM   12  C   UNL     1      -8.912   2.855 -31.628  1.00  0.00     0.236 C 
HETATM   13  O   UNL     1      -9.663   3.836 -31.628  1.00  0.00    -0.272 OA
HETATM   14  N   UNL     1      -8.036   2.722 -30.588  1.00  0.00    -0.311 N 
HETATM   15  H   UNL     1      -8.212   3.337 -29.802  1.00  0.00     0.170 HD
ENDROOT
BRANCH   8  16
HETATM   16  C   UNL     1      -5.327   2.890 -33.163  1.00  0.00    -0.040 A 
HETATM   17  C   UNL     1      -5.809   4.000 -33.885  1.00  0.00     0.010 A 
HETATM   18  C   UNL     1      -5.032   5.151 -34.048  1.00  0.00     0.024 A 
HETATM   19  C   UNL     1      -3.762   5.216 -33.483  1.00  0.00     0.034 A 
HETATM   20 CL   UNL     1      -2.805   6.630 -33.686  1.00  0.00    -0.084 Cl
HETATM   21  C   UNL     1      -3.264   4.140 -32.756  1.00  0.00     0.024 A 
HETATM   22  C   UNL     1      -4.039   2.986 -32.601  1.00  0.00     0.010 A 
ENDBRANCH   8  16
TORSDOF 1
ENDMDL
MODEL 9
REMARK VINA RESULT:      -6.5     14.467     16.318
REMARK  1 active torsions:
REMARK  status: ('A' for Active; 'I' for Inactive)
REMARK    1  A    between atoms: C_8  and  C_9 
ROOT
HETATM    1  C   UNL     1      -5.561 -16.564 -42.214  1.00  0.00     0.073 C 
HETATM    2  C   UNL     1      -4.946 -15.317 -41.690  1.00  0.00     0.062 C 
HETATM    3  N   UNL     1      -4.125 -14.610 -42.475  1.00  0.00    -0.178 NA
HETATM    4  N   UNL     1      -3.785 -13.558 -41.720  1.00  0.00    -0.262 N 
HETATM    5  H   UNL     1      -3.162 -12.866 -42.120  1.00  0.00     0.191 HD
HETATM    6  C   UNL     1      -4.249 -13.638 -40.437  1.00  0.00     0.134 C 
HETATM    7  C   UNL     1      -5.119 -14.708 -40.405  1.00  0.00     0.032 C 
HETATM    8  C   UNL     1      -6.092 -15.119 -39.351  1.00  0.00     0.119 C 
HETATM    9  S   UNL     1      -5.546 -15.219 -37.627  1.00  0.00    -0.141 SA
HETATM   10  C   UNL     1      -3.919 -14.415 -37.598  1.00  0.00     0.136 C 
HETATM   11  C   UNL     1      -2.786 -15.304 -38.104  1.00  0.00     0.031 C 
HETATM   12  C   UNL     1      -3.890 -12.984 -38.133  1.00  0.00     0.236 C 
HETATM   13  O   UNL     1      -3.776 -12.020 -37.369  1.00  0.00    -0.272 OA
HETATM   14  N   UNL     1      -3.873 -12.737 -39.477  1.00  0.00    -0.311 N 
HETATM   15  H   UNL     1      -3.570 -11.805 -39.735  1.00  0.00     0.170 HD
ENDROOT
BRANCH   8  16
HETATM   16  C   UNL     1      -7.310 -14.213 -39.549  1.00  0.00    -0.040 A 
HETATM   17  C   UNL     1      -8.353 -14.629 -40.400  1.00  0.00     0.010 A 
HETATM   18  C   UNL     1      -9.465 -13.815 -40.636  1.00  0.00     0.024 A 
HETATM   19  C   UNL     1      -9.557 -12.571 -40.017  1.00  0.00     0.034 A 
HETATM   20 CL   UNL     1     -10.922 -11.568 -40.310  1.00  0.00    -0.084 Cl
HETATM   21  C   UNL     1      -8.548 -12.139 -39.164  1.00  0.00     0.024 A 
HETATM   22  C   UNL     1      -7.433 -12.951 -38.935  1.00  0.00     0.010 A 
ENDBRANCH   8  16
TORSDOF 1
ENDMDL
MODEL 10
REMARK VINA RESULT:      -6.5      4.021      5.896
REMARK  1 active torsions:
REMARK  status: ('A' for Active; 'I' for Inactive)
REMARK    1  A    between atoms: C_8  and  C_9 
ROOT
HETATM    1  C   UNL     1      -4.330  -0.312 -32.016  1.00  0.00     0.073 C 
HETATM    2  C   UNL     1      -5.123   0.455 -31.020  1.00  0.00     0.062 C 
HETATM    3  N   UNL     1      -5.234  -0.009 -29.770  1.00  0.00    -0.178 NA
HETATM    4  N   UNL     1      -5.968   0.920 -29.146  1.00  0.00    -0.262 N 
HETATM    5  H   UNL     1      -6.178   0.781 -28.163  1.00  0.00     0.191 HD
HETATM    6  C   UNL     1      -6.445   1.889 -29.983  1.00  0.00     0.134 C 
HETATM    7  C   UNL     1      -5.814   1.698 -31.196  1.00  0.00     0.032 C 
HETATM    8  C   UNL     1      -5.758   2.584 -32.394  1.00  0.00     0.119 C 
HETATM    9  S   UNL     1      -7.289   3.298 -33.046  1.00  0.00    -0.141 SA
HETATM   10  C   UNL     1      -8.540   2.980 -31.769  1.00  0.00     0.136 C 
HETATM   11  C   UNL     1      -9.088   1.556 -31.788  1.00  0.00     0.031 C 
HETATM   12  C   UNL     1      -8.199   3.511 -30.377  1.00  0.00     0.236 C 
HETATM   13  O   UNL     1      -8.769   4.506 -29.918  1.00  0.00    -0.272 OA
HETATM   14  N   UNL     1      -7.341   2.832 -29.558  1.00  0.00    -0.311 N 
HETATM   15  H   UNL     1      -7.394   3.089 -28.580  1.00  0.00     0.170 HD
ENDROOT
BRANCH   8  16
HETATM   16  C   UNL     1      -4.689   3.632 -32.074  1.00  0.00    -0.040 A 
HETATM   17  C   UNL     1      -3.332   3.334 -32.307  1.00  0.00     0.010 A 
HETATM   18  C   UNL     1      -2.324   4.250 -31.992  1.00  0.00     0.024 A 
HETATM   19  C   UNL     1      -2.656   5.486 -31.447  1.00  0.00     0.034 A 
HETATM   20 CL   UNL     1      -1.416   6.612 -31.056  1.00  0.00    -0.084 Cl
HETATM   21  C   UNL     1      -3.988   5.813 -31.216  1.00  0.00     0.024 A 
HETATM   22  C   UNL     1      -4.995   4.893 -31.524  1.00  0.00     0.010 A 
ENDBRANCH   8  16
TORSDOF 1
ENDMDL
