MODEL 1
REMARK VINA RESULT:      -9.5      0.000      0.000
REMARK  4 active torsions:
REMARK  status: ('A' for Active; 'I' for Inactive)
REMARK    1  A    between atoms: O_2  and  C_3 
REMARK    2  A    between atoms: C_4  and  C_5 
REMARK    3  A    between atoms: C_9  and  C_10 
REMARK       I    between atoms: C_10  and  N_11 
REMARK    4  A    between atoms: N_11  and  N_12 
ROOT
HETATM    1  C   UNL     1      -9.670   1.549 -33.178  1.00  0.00     0.289 C 
HETATM    2  N   UNL     1     -10.756   1.875 -33.976  1.00  0.00    -0.241 N 
HETATM    3  O   UNL     1      -9.488   1.998 -32.048  1.00  0.00    -0.264 OA
HETATM    4  H   UNL     1     -10.867   1.456 -34.898  1.00  0.00     0.192 HD
ENDROOT
BRANCH   1   5
HETATM    5  C   UNL     1      -8.749   0.606 -33.759  1.00  0.00     0.121 A 
HETATM    6  N   UNL     1      -8.326   0.741 -35.053  1.00  0.00    -0.272 N 
HETATM    7  N   UNL     1      -7.433  -0.180 -35.443  1.00  0.00    -0.174 NA
HETATM    8  H   UNL     1      -8.604   1.466 -35.707  1.00  0.00     0.189 HD
HETATM    9  C   UNL     1      -7.308  -0.993 -34.382  1.00  0.00     0.092 A 
HETATM   10  C   UNL     1      -8.109  -0.528 -33.299  1.00  0.00     0.071 A 
BRANCH   9  11
HETATM   11  C   UNL     1      -6.402  -2.140 -34.384  1.00  0.00     0.028 A 
HETATM   12  C   UNL     1      -5.062  -2.045 -33.971  1.00  0.00     0.080 A 
HETATM   13  C   UNL     1      -4.230  -3.171 -33.993  1.00  0.00     0.037 A 
HETATM   14  C   UNL     1      -4.734  -4.406 -34.397  1.00  0.00     0.003 A 
HETATM   15  C   UNL     1      -6.063  -4.517 -34.798  1.00  0.00     0.001 A 
HETATM   16  C   UNL     1      -6.891  -3.391 -34.796  1.00  0.00     0.017 A 
BRANCH  12  17
HETATM   17  O   UNL     1      -4.520  -0.827 -33.641  1.00  0.00    -0.355 OA
HETATM   18  C   UNL     1      -4.268  -0.749 -32.238  1.00  0.00     0.210 C 
ENDBRANCH  12  17
ENDBRANCH   9  11
ENDBRANCH   1   5
BRANCH   2  19
HETATM   19  N   UNL     1     -11.726   2.722 -33.510  1.00  0.00    -0.165 NA
HETATM   20  C   UNL     1     -12.894   2.207 -33.295  1.00  0.00     0.157 A 
HETATM   21  C   UNL     1     -13.348   0.757 -33.490  1.00  0.00     0.277 A 
HETATM   22  C   UNL     1     -14.060   2.925 -32.793  1.00  0.00     0.027 A 
HETATM   23  O   UNL     1     -12.638  -0.140 -33.893  1.00  0.00    -0.266 OA
HETATM   24  N   UNL     1     -14.673   0.728 -33.111  1.00  0.00    -0.321 N 
HETATM   25  C   UNL     1     -15.093   1.993 -32.702  1.00  0.00     0.048 A 
HETATM   26  H   UNL     1     -15.241  -0.105 -33.132  1.00  0.00     0.169 HD
HETATM   27  C   UNL     1     -16.344   2.356 -32.248  1.00  0.00     0.030 A 
HETATM   28  C   UNL     1     -16.531   3.696 -31.884  1.00  0.00     0.002 A 
HETATM   29  C   UNL     1     -15.481   4.632 -31.980  1.00  0.00     0.001 A 
HETATM   30  C   UNL     1     -14.219   4.249 -32.441  1.00  0.00     0.016 A 
ENDBRANCH   2  19
TORSDOF 4
ENDMDL
MODEL 2
REMARK VINA RESULT:      -8.9      5.937      9.799
REMARK  4 active torsions:
REMARK  status: ('A' for Active; 'I' for Inactive)
REMARK    1  A    between atoms: O_2  and  C_3 
REMARK    2  A    between atoms: C_4  and  C_5 
REMARK    3  A    between atoms: C_9  and  C_10 
REMARK       I    between atoms: C_10  and  N_11 
REMARK    4  A    between atoms: N_11  and  N_12 
ROOT
HETATM    1  C   UNL     1      -3.348   1.168 -31.653  1.00  0.00     0.289 C 
HETATM    2  N   UNL     1      -4.008   0.656 -32.759  1.00  0.00    -0.241 N 
HETATM    3  O   UNL     1      -2.682   0.490 -30.874  1.00  0.00    -0.264 OA
HETATM    4  H   UNL     1      -4.529   1.270 -33.384  1.00  0.00     0.192 HD
ENDROOT
BRANCH   1   5
HETATM    5  C   UNL     1      -3.472   2.593 -31.477  1.00  0.00     0.121 A 
HETATM    6  N   UNL     1      -4.644   3.149 -31.040  1.00  0.00    -0.272 N 
HETATM    7  N   UNL     1      -4.598   4.479 -30.874  1.00  0.00    -0.174 NA
HETATM    8  H   UNL     1      -5.501   2.653 -30.817  1.00  0.00     0.189 HD
HETATM    9  C   UNL     1      -3.365   4.822 -31.278  1.00  0.00     0.092 A 
HETATM   10  C   UNL     1      -2.621   3.666 -31.653  1.00  0.00     0.071 A 
BRANCH   9  11
HETATM   11  C   UNL     1      -2.892   6.205 -31.244  1.00  0.00     0.028 A 
HETATM   12  C   UNL     1      -2.602   6.933 -32.409  1.00  0.00     0.080 A 
HETATM   13  C   UNL     1      -2.149   8.256 -32.328  1.00  0.00     0.037 A 
HETATM   14  C   UNL     1      -2.011   8.873 -31.085  1.00  0.00     0.003 A 
HETATM   15  C   UNL     1      -2.306   8.166 -29.922  1.00  0.00     0.001 A 
HETATM   16  C   UNL     1      -2.740   6.841 -29.999  1.00  0.00     0.017 A 
BRANCH  12  17
HETATM   17  O   UNL     1      -2.658   6.327 -33.640  1.00  0.00    -0.355 OA
HETATM   18  C   UNL     1      -1.355   6.230 -34.217  1.00  0.00     0.210 C 
ENDBRANCH  12  17
ENDBRANCH   9  11
ENDBRANCH   1   5
BRANCH   2  19
HETATM   19  N   UNL     1      -3.920  -0.678 -33.060  1.00  0.00    -0.165 NA
HETATM   20  C   UNL     1      -4.938  -1.208 -33.657  1.00  0.00     0.157 A 
HETATM   21  C   UNL     1      -6.248  -0.540 -34.084  1.00  0.00     0.277 A 
HETATM   22  C   UNL     1      -5.047  -2.601 -34.074  1.00  0.00     0.027 A 
HETATM   23  O   UNL     1      -6.516   0.630 -33.906  1.00  0.00    -0.266 OA
HETATM   24  N   UNL     1      -6.992  -1.532 -34.685  1.00  0.00    -0.321 N 
HETATM   25  C   UNL     1      -6.293  -2.738 -34.683  1.00  0.00     0.048 A 
HETATM   26  H   UNL     1      -7.912  -1.383 -35.072  1.00  0.00     0.169 HD
HETATM   27  C   UNL     1      -6.707  -3.949 -35.199  1.00  0.00     0.030 A 
HETATM   28  C   UNL     1      -5.824  -5.030 -35.084  1.00  0.00     0.002 A 
HETATM   29  C   UNL     1      -4.565  -4.883 -34.466  1.00  0.00     0.001 A 
HETATM   30  C   UNL     1      -4.160  -3.650 -33.949  1.00  0.00     0.016 A 
ENDBRANCH   2  19
TORSDOF 4
ENDMDL
MODEL 3
REMARK VINA RESULT:      -8.5      7.124     10.326
REMARK  4 active torsions:
REMARK  status: ('A' for Active; 'I' for Inactive)
REMARK    1  A    between atoms: O_2  and  C_3 
REMARK    2  A    between atoms: C_4  and  C_5 
REMARK    3  A    between atoms: C_9  and  C_10 
REMARK       I    between atoms: C_10  and  N_11 
REMARK    4  A    between atoms: N_11  and  N_12 
ROOT
HETATM    1  C   UNL     1      -3.853   5.347 -33.505  1.00  0.00     0.289 C 
HETATM    2  N   UNL     1      -4.400   4.281 -32.810  1.00  0.00    -0.241 N 
HETATM    3  O   UNL     1      -4.089   5.592 -34.686  1.00  0.00    -0.264 OA
HETATM    4  H   UNL     1      -4.184   4.138 -31.824  1.00  0.00     0.192 HD
ENDROOT
BRANCH   1   5
HETATM    5  C   UNL     1      -2.981   6.195 -32.732  1.00  0.00     0.121 A 
HETATM    6  N   UNL     1      -2.373   7.282 -33.297  1.00  0.00    -0.272 N 
HETATM    7  N   UNL     1      -1.631   8.006 -32.447  1.00  0.00    -0.174 NA
HETATM    8  H   UNL     1      -2.455   7.586 -34.262  1.00  0.00     0.189 HD
HETATM    9  C   UNL     1      -1.702   7.334 -31.287  1.00  0.00     0.092 A 
HETATM   10  C   UNL     1      -2.550   6.196 -31.420  1.00  0.00     0.071 A 
BRANCH   9  11
HETATM   11  C   UNL     1      -1.032   7.801 -30.075  1.00  0.00     0.028 A 
HETATM   12  C   UNL     1       0.201   7.282 -29.646  1.00  0.00     0.080 A 
HETATM   13  C   UNL     1       0.803   7.759 -28.475  1.00  0.00     0.037 A 
HETATM   14  C   UNL     1       0.198   8.778 -27.740  1.00  0.00     0.003 A 
HETATM   15  C   UNL     1      -1.019   9.309 -28.161  1.00  0.00     0.001 A 
HETATM   16  C   UNL     1      -1.632   8.822 -29.317  1.00  0.00     0.017 A 
BRANCH  12  17
HETATM   17  O   UNL     1       0.781   6.229 -30.307  1.00  0.00    -0.355 OA
HETATM   18  C   UNL     1       0.707   5.036 -29.526  1.00  0.00     0.210 C 
ENDBRANCH  12  17
ENDBRANCH   9  11
ENDBRANCH   1   5
BRANCH   2  19
HETATM   19  N   UNL     1      -5.285   3.436 -33.425  1.00  0.00    -0.165 NA
HETATM   20  C   UNL     1      -5.113   2.168 -33.228  1.00  0.00     0.157 A 
HETATM   21  C   UNL     1      -4.040   1.471 -32.387  1.00  0.00     0.277 A 
HETATM   22  C   UNL     1      -5.943   1.103 -33.778  1.00  0.00     0.027 A 
HETATM   23  O   UNL     1      -3.168   2.043 -31.768  1.00  0.00    -0.266 OA
HETATM   24  N   UNL     1      -4.300   0.122 -32.497  1.00  0.00    -0.321 N 
HETATM   25  C   UNL     1      -5.412  -0.098 -33.308  1.00  0.00     0.048 A 
HETATM   26  H   UNL     1      -3.751  -0.591 -32.042  1.00  0.00     0.169 HD
HETATM   27  C   UNL     1      -5.979  -1.310 -33.645  1.00  0.00     0.030 A 
HETATM   28  C   UNL     1      -7.106  -1.281 -34.477  1.00  0.00     0.002 A 
HETATM   29  C   UNL     1      -7.636  -0.062 -34.948  1.00  0.00     0.001 A 
HETATM   30  C   UNL     1      -7.051   1.157 -34.597  1.00  0.00     0.016 A 
ENDBRANCH   2  19
TORSDOF 4
ENDMDL
MODEL 4
REMARK VINA RESULT:      -8.5      5.287      7.804
REMARK  4 active torsions:
REMARK  status: ('A' for Active; 'I' for Inactive)
REMARK    1  A    between atoms: O_2  and  C_3 
REMARK    2  A    between atoms: C_4  and  C_5 
REMARK    3  A    between atoms: C_9  and  C_10 
REMARK       I    between atoms: C_10  and  N_11 
REMARK    4  A    between atoms: N_11  and  N_12 
ROOT
HETATM    1  C   UNL     1      -6.468   2.631 -32.819  1.00  0.00     0.289 C 
HETATM    2  N   UNL     1      -5.260   3.309 -32.782  1.00  0.00    -0.241 N 
HETATM    3  O   UNL     1      -7.522   3.078 -32.372  1.00  0.00    -0.264 OA
HETATM    4  H   UNL     1      -4.420   2.897 -33.187  1.00  0.00     0.192 HD
ENDROOT
BRANCH   1   5
HETATM    5  C   UNL     1      -6.421   1.337 -33.452  1.00  0.00     0.121 A 
HETATM    6  N   UNL     1      -6.923   1.150 -34.711  1.00  0.00    -0.272 N 
HETATM    7  N   UNL     1      -6.764  -0.091 -35.192  1.00  0.00    -0.174 NA
HETATM    8  H   UNL     1      -7.366   1.853 -35.295  1.00  0.00     0.189 HD
HETATM    9  C   UNL     1      -6.189  -0.767 -34.186  1.00  0.00     0.092 A 
HETATM   10  C   UNL     1      -5.945   0.096 -33.079  1.00  0.00     0.071 A 
BRANCH   9  11
HETATM   11  C   UNL     1      -5.826  -2.178 -34.305  1.00  0.00     0.028 A 
HETATM   12  C   UNL     1      -4.585  -2.678 -33.875  1.00  0.00     0.080 A 
HETATM   13  C   UNL     1      -4.280  -4.037 -34.012  1.00  0.00     0.037 A 
HETATM   14  C   UNL     1      -5.220  -4.915 -34.551  1.00  0.00     0.003 A 
HETATM   15  C   UNL     1      -6.458  -4.435 -34.972  1.00  0.00     0.001 A 
HETATM   16  C   UNL     1      -6.758  -3.076 -34.854  1.00  0.00     0.017 A 
BRANCH  12  17
HETATM   17  O   UNL     1      -3.614  -1.825 -33.411  1.00  0.00    -0.355 OA
HETATM   18  C   UNL     1      -3.217  -2.181 -32.086  1.00  0.00     0.210 C 
ENDBRANCH  12  17
ENDBRANCH   9  11
ENDBRANCH   1   5
BRANCH   2  19
HETATM   19  N   UNL     1      -5.192   4.570 -32.252  1.00  0.00    -0.165 NA
HETATM   20  C   UNL     1      -4.071   4.909 -31.700  1.00  0.00     0.157 A 
HETATM   21  C   UNL     1      -2.789   4.084 -31.559  1.00  0.00     0.277 A 
HETATM   22  C   UNL     1      -3.782   6.200 -31.087  1.00  0.00     0.027 A 
HETATM   23  O   UNL     1      -2.651   2.948 -31.963  1.00  0.00    -0.266 OA
HETATM   24  N   UNL     1      -1.890   4.901 -30.909  1.00  0.00    -0.321 N 
HETATM   25  C   UNL     1      -2.466   6.140 -30.632  1.00  0.00     0.048 A 
HETATM   26  H   UNL     1      -0.948   4.623 -30.678  1.00  0.00     0.169 HD
HETATM   27  C   UNL     1      -1.878   7.217 -30.002  1.00  0.00     0.030 A 
HETATM   28  C   UNL     1      -2.659   8.370 -29.839  1.00  0.00     0.002 A 
HETATM   29  C   UNL     1      -3.990   8.422 -30.302  1.00  0.00     0.001 A 
HETATM   30  C   UNL     1      -4.571   7.323 -30.939  1.00  0.00     0.016 A 
ENDBRANCH   2  19
TORSDOF 4
ENDMDL
MODEL 5
REMARK VINA RESULT:      -8.4      6.173      9.753
REMARK  4 active torsions:
REMARK  status: ('A' for Active; 'I' for Inactive)
REMARK    1  A    between atoms: O_2  and  C_3 
REMARK    2  A    between atoms: C_4  and  C_5 
REMARK    3  A    between atoms: C_9  and  C_10 
REMARK       I    between atoms: C_10  and  N_11 
REMARK    4  A    between atoms: N_11  and  N_12 
ROOT
HETATM    1  C   UNL     1      -5.284   2.358 -33.125  1.00  0.00     0.289 C 
HETATM    2  N   UNL     1      -4.820   1.058 -33.009  1.00  0.00    -0.241 N 
HETATM    3  O   UNL     1      -6.304   2.672 -33.734  1.00  0.00    -0.264 OA
HETATM    4  H   UNL     1      -3.977   0.852 -32.473  1.00  0.00     0.192 HD
ENDROOT
BRANCH   1   5
HETATM    5  C   UNL     1      -4.489   3.350 -32.447  1.00  0.00     0.121 A 
HETATM    6  N   UNL     1      -5.021   4.118 -31.448  1.00  0.00    -0.272 N 
HETATM    7  N   UNL     1      -4.151   4.962 -30.875  1.00  0.00    -0.174 NA
HETATM    8  H   UNL     1      -5.975   4.084 -31.103  1.00  0.00     0.189 HD
HETATM    9  C   UNL     1      -3.014   4.789 -31.566  1.00  0.00     0.092 A 
HETATM   10  C   UNL     1      -3.180   3.777 -32.555  1.00  0.00     0.071 A 
BRANCH   9  11
HETATM   11  C   UNL     1      -1.791   5.523 -31.247  1.00  0.00     0.028 A 
HETATM   12  C   UNL     1      -1.542   6.820 -31.726  1.00  0.00     0.080 A 
HETATM   13  C   UNL     1      -0.353   7.483 -31.397  1.00  0.00     0.037 A 
HETATM   14  C   UNL     1       0.582   6.872 -30.563  1.00  0.00     0.003 A 
HETATM   15  C   UNL     1       0.343   5.590 -30.073  1.00  0.00     0.001 A 
HETATM   16  C   UNL     1      -0.833   4.919 -30.415  1.00  0.00     0.017 A 
BRANCH  12  17
HETATM   17  O   UNL     1      -2.410   7.415 -32.608  1.00  0.00    -0.355 OA
HETATM   18  C   UNL     1      -1.994   7.195 -33.956  1.00  0.00     0.210 C 
ENDBRANCH  12  17
ENDBRANCH   9  11
ENDBRANCH   1   5
BRANCH   2  19
HETATM   19  N   UNL     1      -5.521   0.021 -33.567  1.00  0.00    -0.165 NA
HETATM   20  C   UNL     1      -4.944  -1.138 -33.569  1.00  0.00     0.157 A 
HETATM   21  C   UNL     1      -3.564  -1.517 -33.023  1.00  0.00     0.277 A 
HETATM   22  C   UNL     1      -5.514  -2.370 -34.100  1.00  0.00     0.027 A 
HETATM   23  O   UNL     1      -2.794  -0.743 -32.495  1.00  0.00    -0.266 OA
HETATM   24  N   UNL     1      -3.429  -2.868 -33.261  1.00  0.00    -0.321 N 
HETATM   25  C   UNL     1      -4.568  -3.371 -33.889  1.00  0.00     0.048 A 
HETATM   26  H   UNL     1      -2.612  -3.401 -33.004  1.00  0.00     0.169 HD
HETATM   27  C   UNL     1      -4.806  -4.673 -34.277  1.00  0.00     0.030 A 
HETATM   28  C   UNL     1      -6.036  -4.944 -34.891  1.00  0.00     0.002 A 
HETATM   29  C   UNL     1      -6.988  -3.925 -35.102  1.00  0.00     0.001 A 
HETATM   30  C   UNL     1      -6.732  -2.612 -34.702  1.00  0.00     0.016 A 
ENDBRANCH   2  19
TORSDOF 4
ENDMDL
MODEL 6
REMARK VINA RESULT:      -8.3      3.166      4.104
REMARK  4 active torsions:
REMARK  status: ('A' for Active; 'I' for Inactive)
REMARK    1  A    between atoms: O_2  and  C_3 
REMARK    2  A    between atoms: C_4  and  C_5 
REMARK    3  A    between atoms: C_9  and  C_10 
REMARK       I    between atoms: C_10  and  N_11 
REMARK    4  A    between atoms: N_11  and  N_12 
ROOT
HETATM    1  C   UNL     1     -10.552   2.109 -33.884  1.00  0.00     0.289 C 
HETATM    2  N   UNL     1     -10.391   2.949 -34.974  1.00  0.00    -0.241 N 
HETATM    3  O   UNL     1     -11.557   2.084 -33.177  1.00  0.00    -0.264 OA
HETATM    4  H   UNL     1      -9.543   2.913 -35.538  1.00  0.00     0.192 HD
ENDROOT
BRANCH   1   5
HETATM    5  C   UNL     1      -9.445   1.221 -33.633  1.00  0.00     0.121 A 
HETATM    6  N   UNL     1      -9.041   0.943 -32.355  1.00  0.00    -0.272 N 
HETATM    7  N   UNL     1      -8.034   0.063 -32.272  1.00  0.00    -0.174 NA
HETATM    8  H   UNL     1      -9.442   1.317 -31.500  1.00  0.00     0.189 HD
HETATM    9  C   UNL     1      -7.719  -0.205 -33.549  1.00  0.00     0.092 A 
HETATM   10  C   UNL     1      -8.590   0.493 -34.436  1.00  0.00     0.071 A 
BRANCH   9  11
HETATM   11  C   UNL     1      -6.661  -1.148 -33.908  1.00  0.00     0.028 A 
HETATM   12  C   UNL     1      -5.303  -0.888 -33.666  1.00  0.00     0.080 A 
HETATM   13  C   UNL     1      -4.324  -1.820 -34.030  1.00  0.00     0.037 A 
HETATM   14  C   UNL     1      -4.693  -3.033 -34.611  1.00  0.00     0.003 A 
HETATM   15  C   UNL     1      -6.038  -3.309 -34.847  1.00  0.00     0.001 A 
HETATM   16  C   UNL     1      -7.015  -2.372 -34.502  1.00  0.00     0.017 A 
BRANCH  12  17
HETATM   17  O   UNL     1      -4.906   0.328 -33.165  1.00  0.00    -0.355 OA
HETATM   18  C   UNL     1      -4.096   0.157 -32.002  1.00  0.00     0.210 C 
ENDBRANCH  12  17
ENDBRANCH   9  11
ENDBRANCH   1   5
BRANCH   2  19
HETATM   19  N   UNL     1     -11.398   3.802 -35.343  1.00  0.00    -0.165 NA
HETATM   20  C   UNL     1     -11.131   5.068 -35.305  1.00  0.00     0.157 A 
HETATM   21  C   UNL     1      -9.824   5.756 -34.901  1.00  0.00     0.277 A 
HETATM   22  C   UNL     1     -12.051   6.141 -35.665  1.00  0.00     0.027 A 
HETATM   23  O   UNL     1      -8.820   5.176 -34.544  1.00  0.00    -0.266 OA
HETATM   24  N   UNL     1     -10.056   7.107 -35.043  1.00  0.00    -0.321 N 
HETATM   25  C   UNL     1     -11.356   7.337 -35.490  1.00  0.00     0.048 A 
HETATM   26  H   UNL     1      -9.365   7.815 -34.847  1.00  0.00     0.169 HD
HETATM   27  C   UNL     1     -11.950   8.553 -35.754  1.00  0.00     0.030 A 
HETATM   28  C   UNL     1     -13.277   8.535 -36.204  1.00  0.00     0.002 A 
HETATM   29  C   UNL     1     -13.973   7.321 -36.377  1.00  0.00     0.001 A 
HETATM   30  C   UNL     1     -13.357   6.097 -36.107  1.00  0.00     0.016 A 
ENDBRANCH   2  19
TORSDOF 4
ENDMDL
MODEL 7
REMARK VINA RESULT:      -8.3      7.702     10.914
REMARK  4 active torsions:
REMARK  status: ('A' for Active; 'I' for Inactive)
REMARK    1  A    between atoms: O_2  and  C_3 
REMARK    2  A    between atoms: C_4  and  C_5 
REMARK    3  A    between atoms: C_9  and  C_10 
REMARK       I    between atoms: C_10  and  N_11 
REMARK    4  A    between atoms: N_11  and  N_12 
ROOT
HETATM    1  C   UNL     1      -2.071   4.646 -31.521  1.00  0.00     0.289 C 
HETATM    2  N   UNL     1      -2.187   5.391 -30.359  1.00  0.00    -0.241 N 
HETATM    3  O   UNL     1      -1.043   4.573 -32.191  1.00  0.00    -0.264 OA
HETATM    4  H   UNL     1      -3.059   5.399 -29.831  1.00  0.00     0.192 HD
ENDROOT
BRANCH   1   5
HETATM    5  C   UNL     1      -3.257   3.919 -31.899  1.00  0.00     0.121 A 
HETATM    6  N   UNL     1      -4.501   4.453 -31.706  1.00  0.00    -0.272 N 
HETATM    7  N   UNL     1      -5.508   3.687 -32.151  1.00  0.00    -0.174 NA
HETATM    8  H   UNL     1      -4.714   5.356 -31.292  1.00  0.00     0.189 HD
HETATM    9  C   UNL     1      -4.906   2.574 -32.599  1.00  0.00     0.092 A 
HETATM   10  C   UNL     1      -3.491   2.684 -32.470  1.00  0.00     0.071 A 
BRANCH   9  11
HETATM   11  C   UNL     1      -5.658   1.469 -33.191  1.00  0.00     0.028 A 
HETATM   12  C   UNL     1      -5.634   0.169 -32.659  1.00  0.00     0.080 A 
HETATM   13  C   UNL     1      -6.368  -0.860 -33.262  1.00  0.00     0.037 A 
HETATM   14  C   UNL     1      -7.156  -0.594 -34.382  1.00  0.00     0.003 A 
HETATM   15  C   UNL     1      -7.196   0.692 -34.914  1.00  0.00     0.001 A 
HETATM   16  C   UNL     1      -6.450   1.716 -34.325  1.00  0.00     0.017 A 
BRANCH  12  17
HETATM   17  O   UNL     1      -4.811  -0.136 -31.604  1.00  0.00    -0.355 OA
HETATM   18  C   UNL     1      -3.904  -1.182 -31.954  1.00  0.00     0.210 C 
ENDBRANCH  12  17
ENDBRANCH   9  11
ENDBRANCH   1   5
BRANCH   2  19
HETATM   19  N   UNL     1      -1.110   6.084 -29.871  1.00  0.00    -0.165 NA
HETATM   20  C   UNL     1      -1.364   7.048 -29.045  1.00  0.00     0.157 A 
HETATM   21  C   UNL     1      -2.723   7.527 -28.527  1.00  0.00     0.277 A 
HETATM   22  C   UNL     1      -0.370   7.900 -28.404  1.00  0.00     0.027 A 
HETATM   23  O   UNL     1      -3.791   7.045 -28.841  1.00  0.00    -0.266 OA
HETATM   24  N   UNL     1      -2.446   8.569 -27.669  1.00  0.00    -0.321 N 
HETATM   25  C   UNL     1      -1.071   8.790 -27.593  1.00  0.00     0.048 A 
HETATM   26  H   UNL     1      -3.155   9.085 -27.171  1.00  0.00     0.169 HD
HETATM   27  C   UNL     1      -0.414   9.737 -26.835  1.00  0.00     0.030 A 
HETATM   28  C   UNL     1       0.985   9.766 -26.917  1.00  0.00     0.002 A 
HETATM   29  C   UNL     1       1.687   8.862 -27.742  1.00  0.00     0.001 A 
HETATM   30  C   UNL     1       1.006   7.908 -28.502  1.00  0.00     0.016 A 
ENDBRANCH   2  19
TORSDOF 4
ENDMDL
MODEL 8
REMARK VINA RESULT:      -8.3      7.296     10.487
REMARK  4 active torsions:
REMARK  status: ('A' for Active; 'I' for Inactive)
REMARK    1  A    between atoms: O_2  and  C_3 
REMARK    2  A    between atoms: C_4  and  C_5 
REMARK    3  A    between atoms: C_9  and  C_10 
REMARK       I    between atoms: C_10  and  N_11 
REMARK    4  A    between atoms: N_11  and  N_12 
ROOT
HETATM    1  C   UNL     1      -3.802   5.365 -33.513  1.00  0.00     0.289 C 
HETATM    2  N   UNL     1      -4.367   4.314 -32.808  1.00  0.00    -0.241 N 
HETATM    3  O   UNL     1      -4.026   5.596 -34.699  1.00  0.00    -0.264 OA
HETATM    4  H   UNL     1      -4.161   4.181 -31.818  1.00  0.00     0.192 HD
ENDROOT
BRANCH   1   5
HETATM    5  C   UNL     1      -2.926   6.212 -32.744  1.00  0.00     0.121 A 
HETATM    6  N   UNL     1      -2.267   7.259 -33.328  1.00  0.00    -0.272 N 
HETATM    7  N   UNL     1      -1.528   7.990 -32.481  1.00  0.00    -0.174 NA
HETATM    8  H   UNL     1      -2.311   7.531 -34.305  1.00  0.00     0.189 HD
HETATM    9  C   UNL     1      -1.654   7.362 -31.302  1.00  0.00     0.092 A 
HETATM   10  C   UNL     1      -2.533   6.247 -31.420  1.00  0.00     0.071 A 
BRANCH   9  11
HETATM   11  C   UNL     1      -1.005   7.852 -30.087  1.00  0.00     0.028 A 
HETATM   12  C   UNL     1      -1.609   8.789 -29.233  1.00  0.00     0.080 A 
HETATM   13  C   UNL     1      -0.947   9.232 -28.081  1.00  0.00     0.037 A 
HETATM   14  C   UNL     1       0.309   8.721 -27.755  1.00  0.00     0.003 A 
HETATM   15  C   UNL     1       0.914   7.783 -28.587  1.00  0.00     0.001 A 
HETATM   16  C   UNL     1       0.265   7.354 -29.747  1.00  0.00     0.017 A 
BRANCH  12  17
HETATM   17  O   UNL     1      -2.810   9.364 -29.569  1.00  0.00    -0.355 OA
HETATM   18  C   UNL     1      -3.829   8.988 -28.642  1.00  0.00     0.210 C 
ENDBRANCH  12  17
ENDBRANCH   9  11
ENDBRANCH   1   5
BRANCH   2  19
HETATM   19  N   UNL     1      -5.258   3.472 -33.419  1.00  0.00    -0.165 NA
HETATM   20  C   UNL     1      -5.091   2.204 -33.218  1.00  0.00     0.157 A 
HETATM   21  C   UNL     1      -4.021   1.504 -32.375  1.00  0.00     0.277 A 
HETATM   22  C   UNL     1      -5.927   1.141 -33.763  1.00  0.00     0.027 A 
HETATM   23  O   UNL     1      -3.145   2.074 -31.759  1.00  0.00    -0.266 OA
HETATM   24  N   UNL     1      -4.288   0.156 -32.481  1.00  0.00    -0.321 N 
HETATM   25  C   UNL     1      -5.403  -0.061 -33.290  1.00  0.00     0.048 A 
HETATM   26  H   UNL     1      -3.742  -0.559 -32.024  1.00  0.00     0.169 HD
HETATM   27  C   UNL     1      -5.976  -1.271 -33.621  1.00  0.00     0.030 A 
HETATM   28  C   UNL     1      -7.105  -1.240 -34.452  1.00  0.00     0.002 A 
HETATM   29  C   UNL     1      -7.628  -0.019 -34.927  1.00  0.00     0.001 A 
HETATM   30  C   UNL     1      -7.037   1.198 -34.581  1.00  0.00     0.016 A 
ENDBRANCH   2  19
TORSDOF 4
ENDMDL
MODEL 9
REMARK VINA RESULT:      -8.2      2.910      3.307
REMARK  4 active torsions:
REMARK  status: ('A' for Active; 'I' for Inactive)
REMARK    1  A    between atoms: O_2  and  C_3 
REMARK    2  A    between atoms: C_4  and  C_5 
REMARK    3  A    between atoms: C_9  and  C_10 
REMARK       I    between atoms: C_10  and  N_11 
REMARK    4  A    between atoms: N_11  and  N_12 
ROOT
HETATM    1  C   UNL     1      -7.429   2.777 -33.864  1.00  0.00     0.289 C 
HETATM    2  N   UNL     1      -8.767   2.950 -34.180  1.00  0.00    -0.241 N 
HETATM    3  O   UNL     1      -6.624   3.699 -33.755  1.00  0.00    -0.264 OA
HETATM    4  H   UNL     1      -9.396   2.150 -34.237  1.00  0.00     0.192 HD
ENDROOT
BRANCH   1   5
HETATM    5  C   UNL     1      -7.029   1.411 -33.640  1.00  0.00     0.121 A 
HETATM    6  N   UNL     1      -6.974   0.892 -32.375  1.00  0.00    -0.272 N 
HETATM    7  N   UNL     1      -6.636  -0.404 -32.323  1.00  0.00    -0.174 NA
HETATM    8  H   UNL     1      -7.185   1.382 -31.511  1.00  0.00     0.189 HD
HETATM    9  C   UNL     1      -6.397  -0.738 -33.601  1.00  0.00     0.092 A 
HETATM   10  C   UNL     1      -6.644   0.371 -34.461  1.00  0.00     0.071 A 
BRANCH   9  11
HETATM   11  C   UNL     1      -6.007  -2.092 -33.991  1.00  0.00     0.028 A 
HETATM   12  C   UNL     1      -4.704  -2.584 -33.811  1.00  0.00     0.080 A 
HETATM   13  C   UNL     1      -4.375  -3.887 -34.203  1.00  0.00     0.037 A 
HETATM   14  C   UNL     1      -5.351  -4.721 -34.750  1.00  0.00     0.003 A 
HETATM   15  C   UNL     1      -6.649  -4.249 -34.924  1.00  0.00     0.001 A 
HETATM   16  C   UNL     1      -6.975  -2.943 -34.551  1.00  0.00     0.017 A 
BRANCH  12  17
HETATM   17  O   UNL     1      -3.707  -1.762 -33.345  1.00  0.00    -0.355 OA
HETATM   18  C   UNL     1      -3.243  -2.201 -32.069  1.00  0.00     0.210 C 
ENDBRANCH  12  17
ENDBRANCH   9  11
ENDBRANCH   1   5
BRANCH   2  19
HETATM   19  N   UNL     1      -9.277   4.208 -34.364  1.00  0.00    -0.165 NA
HETATM   20  C   UNL     1     -10.510   4.286 -34.750  1.00  0.00     0.157 A 
HETATM   21  C   UNL     1     -11.495   3.148 -35.031  1.00  0.00     0.277 A 
HETATM   22  C   UNL     1     -11.247   5.520 -34.994  1.00  0.00     0.027 A 
HETATM   23  O   UNL     1     -11.235   1.968 -34.926  1.00  0.00    -0.266 OA
HETATM   24  N   UNL     1     -12.674   3.760 -35.401  1.00  0.00    -0.321 N 
HETATM   25  C   UNL     1     -12.533   5.147 -35.380  1.00  0.00     0.048 A 
HETATM   26  H   UNL     1     -13.512   3.254 -35.646  1.00  0.00     0.169 HD
HETATM   27  C   UNL     1     -13.492   6.091 -35.680  1.00  0.00     0.030 A 
HETATM   28  C   UNL     1     -13.119   7.438 -35.582  1.00  0.00     0.002 A 
HETATM   29  C   UNL     1     -11.815   7.808 -35.192  1.00  0.00     0.001 A 
HETATM   30  C   UNL     1     -10.855   6.839 -34.890  1.00  0.00     0.016 A 
ENDBRANCH   2  19
TORSDOF 4
ENDMDL
MODEL 10
REMARK VINA RESULT:      -8.1      4.693      9.448
REMARK  4 active torsions:
REMARK  status: ('A' for Active; 'I' for Inactive)
REMARK    1  A    between atoms: O_2  and  C_3 
REMARK    2  A    between atoms: C_4  and  C_5 
REMARK    3  A    between atoms: C_9  and  C_10 
REMARK       I    between atoms: C_10  and  N_11 
REMARK    4  A    between atoms: N_11  and  N_12 
ROOT
HETATM    1  C   UNL     1      -6.385   2.326 -32.164  1.00  0.00     0.289 C 
HETATM    2  N   UNL     1      -5.388   2.899 -32.938  1.00  0.00    -0.241 N 
HETATM    3  O   UNL     1      -6.305   2.166 -30.948  1.00  0.00    -0.264 OA
HETATM    4  H   UNL     1      -5.516   3.025 -33.941  1.00  0.00     0.192 HD
ENDROOT
BRANCH   1   5
HETATM    5  C   UNL     1      -7.568   1.936 -32.888  1.00  0.00     0.121 A 
HETATM    6  N   UNL     1      -7.482   1.161 -34.012  1.00  0.00    -0.272 N 
HETATM    7  N   UNL     1      -8.666   0.835 -34.551  1.00  0.00    -0.174 NA
HETATM    8  H   UNL     1      -6.631   0.807 -34.439  1.00  0.00     0.189 HD
HETATM    9  C   UNL     1      -9.567   1.472 -33.788  1.00  0.00     0.092 A 
HETATM   10  C   UNL     1      -8.920   2.166 -32.724  1.00  0.00     0.071 A 
BRANCH   9  11
HETATM   11  C   UNL     1     -11.004   1.367 -34.030  1.00  0.00     0.028 A 
HETATM   12  C   UNL     1     -11.708   2.297 -34.814  1.00  0.00     0.080 A 
HETATM   13  C   UNL     1     -13.086   2.158 -35.016  1.00  0.00     0.037 A 
HETATM   14  C   UNL     1     -13.769   1.074 -34.465  1.00  0.00     0.003 A 
HETATM   15  C   UNL     1     -13.082   0.139 -33.695  1.00  0.00     0.001 A 
HETATM   16  C   UNL     1     -11.710   0.286 -33.476  1.00  0.00     0.017 A 
BRANCH  12  17
HETATM   17  O   UNL     1     -11.076   3.412 -35.305  1.00  0.00    -0.355 OA
HETATM   18  C   UNL     1     -11.961   4.533 -35.318  1.00  0.00     0.210 C 
ENDBRANCH  12  17
ENDBRANCH   9  11
ENDBRANCH   1   5
BRANCH   2  19
HETATM   19  N   UNL     1      -4.237   3.357 -32.353  1.00  0.00    -0.165 NA
HETATM   20  C   UNL     1      -3.654   4.362 -32.925  1.00  0.00     0.157 A 
HETATM   21  C   UNL     1      -4.081   5.123 -34.182  1.00  0.00     0.277 A 
HETATM   22  C   UNL     1      -2.430   5.007 -32.464  1.00  0.00     0.027 A 
HETATM   23  O   UNL     1      -5.068   4.870 -34.841  1.00  0.00    -0.266 OA
HETATM   24  N   UNL     1      -3.132   6.106 -34.362  1.00  0.00    -0.321 N 
HETATM   25  C   UNL     1      -2.165   6.043 -33.359  1.00  0.00     0.048 A 
HETATM   26  H   UNL     1      -3.154   6.771 -35.120  1.00  0.00     0.169 HD
HETATM   27  C   UNL     1      -1.067   6.861 -33.200  1.00  0.00     0.030 A 
HETATM   28  C   UNL     1      -0.232   6.608 -32.104  1.00  0.00     0.002 A 
HETATM   29  C   UNL     1      -0.506   5.558 -31.203  1.00  0.00     0.001 A 
HETATM   30  C   UNL     1      -1.624   4.739 -31.378  1.00  0.00     0.016 A 
ENDBRANCH   2  19
TORSDOF 4
ENDMDL
