MODEL 1
REMARK VINA RESULT:      -9.7      0.000      0.000
REMARK  6 active torsions:
REMARK  status: ('A' for Active; 'I' for Inactive)
REMARK    1  A    between atoms: C_6  and  O_7 
REMARK    2  A    between atoms: O_7  and  C_8 
REMARK    3  A    between atoms: C_8  and  C_9 
REMARK       I    between atoms: C_9  and  N_10 
REMARK    4  A    between atoms: N_10  and  N_11 
REMARK       I    between atoms: N_11  and  C_12 
REMARK    5  A    between atoms: C_12  and  C_13 
REMARK    6  A    between atoms: C_17  and  C_18 
ROOT
HETATM    1  N   UNL     1      -2.604   3.727 -31.209  1.00  0.00    -0.262 N 
HETATM    2  C   UNL     1      -1.728   4.667 -31.721  1.00  0.00     0.288 C 
HETATM    3  O   UNL     1      -1.567   4.834 -32.928  1.00  0.00    -0.264 OA
HETATM    4  H   UNL     1      -2.979   3.850 -30.273  1.00  0.00     0.190 HD
ENDROOT
BRANCH   1   5
HETATM    5  N   UNL     1      -3.420   3.025 -32.104  1.00  0.00    -0.265 N 
HETATM    6  C   UNL     1      -3.597   1.666 -31.918  1.00  0.00     0.260 C 
HETATM    7  O   UNL     1      -2.943   1.006 -31.112  1.00  0.00    -0.269 OA
HETATM    8  H   UNL     1      -4.132   3.558 -32.599  1.00  0.00     0.190 HD
BRANCH   6   9
HETATM    9  C   UNL     1      -4.709   1.071 -32.777  1.00  0.00     0.280 C 
BRANCH   9  10
HETATM   10  O   UNL     1      -5.236  -0.080 -32.109  1.00  0.00    -0.341 OA
BRANCH  10  11
HETATM   11  C   UNL     1      -5.470  -1.102 -32.992  1.00  0.00     0.081 A 
HETATM   12  C   UNL     1      -4.505  -2.112 -33.124  1.00  0.00    -0.028 A 
HETATM   13  C   UNL     1      -4.758  -3.181 -33.997  1.00  0.00     0.016 A 
HETATM   14  C   UNL     1      -3.208  -2.060 -32.367  1.00  0.00     0.051 C 
HETATM   15  C   UNL     1      -5.964  -3.262 -34.701  1.00  0.00    -0.061 A 
HETATM   16  C   UNL     1      -6.242  -4.413 -35.624  1.00  0.00     0.048 C 
HETATM   17  C   UNL     1      -6.928  -2.262 -34.527  1.00  0.00     0.016 A 
HETATM   18  C   UNL     1      -6.705  -1.187 -33.654  1.00  0.00    -0.028 A 
HETATM   19  C   UNL     1      -7.778  -0.149 -33.484  1.00  0.00     0.051 C 
ENDBRANCH  10  11
ENDBRANCH   9  10
ENDBRANCH   6   9
ENDBRANCH   1   5
BRANCH   2  20
HETATM   20  C   UNL     1      -1.007   5.420 -30.731  1.00  0.00     0.121 A 
HETATM   21  N   UNL     1      -0.141   4.830 -29.856  1.00  0.00    -0.272 N 
HETATM   22  H   UNL     1       0.113   3.847 -29.817  1.00  0.00     0.189 HD
HETATM   23  N   UNL     1       0.390   5.672 -28.960  1.00  0.00    -0.174 NA
HETATM   24  C   UNL     1      -0.157   6.865 -29.240  1.00  0.00     0.089 A 
HETATM   25  C   UNL     1      -1.018   6.752 -30.370  1.00  0.00     0.071 A 
BRANCH  24  26
HETATM   26  C   UNL     1       0.116   8.055 -28.421  1.00  0.00    -0.006 A 
HETATM   27  C   UNL     1      -0.878   9.015 -28.175  1.00  0.00     0.014 A 
HETATM   28  C   UNL     1      -0.616  10.123 -27.361  1.00  0.00     0.001 A 
HETATM   29  C   UNL     1       0.641  10.286 -26.784  1.00  0.00     0.000 A 
HETATM   30  C   UNL     1       1.641   9.347 -27.025  1.00  0.00     0.001 A 
HETATM   31  C   UNL     1       1.379   8.240 -27.838  1.00  0.00     0.014 A 
ENDBRANCH  24  26
ENDBRANCH   2  20
TORSDOF 6
ENDMDL
MODEL 2
REMARK VINA RESULT:      -9.6      1.185      2.209
REMARK  6 active torsions:
REMARK  status: ('A' for Active; 'I' for Inactive)
REMARK    1  A    between atoms: C_6  and  O_7 
REMARK    2  A    between atoms: O_7  and  C_8 
REMARK    3  A    between atoms: C_8  and  C_9 
REMARK       I    between atoms: C_9  and  N_10 
REMARK    4  A    between atoms: N_10  and  N_11 
REMARK       I    between atoms: N_11  and  C_12 
REMARK    5  A    between atoms: C_12  and  C_13 
REMARK    6  A    between atoms: C_17  and  C_18 
ROOT
HETATM    1  N   UNL     1      -2.882   3.412 -31.227  1.00  0.00    -0.262 N 
HETATM    2  C   UNL     1      -2.213   4.296 -32.054  1.00  0.00     0.288 C 
HETATM    3  O   UNL     1      -2.289   4.243 -33.279  1.00  0.00    -0.264 OA
HETATM    4  H   UNL     1      -3.095   3.683 -30.271  1.00  0.00     0.190 HD
ENDROOT
BRANCH   1   5
HETATM    5  N   UNL     1      -3.769   2.499 -31.812  1.00  0.00    -0.265 N 
HETATM    6  C   UNL     1      -4.959   2.221 -31.165  1.00  0.00     0.260 C 
HETATM    7  O   UNL     1      -5.208   2.597 -30.022  1.00  0.00    -0.269 OA
HETATM    8  H   UNL     1      -3.706   2.373 -32.820  1.00  0.00     0.190 HD
BRANCH   6   9
HETATM    9  C   UNL     1      -5.949   1.436 -32.021  1.00  0.00     0.280 C 
BRANCH   9  10
HETATM   10  O   UNL     1      -5.341   1.162 -33.287  1.00  0.00    -0.341 OA
BRANCH  10  11
HETATM   11  C   UNL     1      -5.597  -0.123 -33.693  1.00  0.00     0.081 A 
HETATM   12  C   UNL     1      -6.736  -0.367 -34.476  1.00  0.00    -0.028 A 
HETATM   13  C   UNL     1      -6.980  -1.672 -34.927  1.00  0.00     0.016 A 
HETATM   14  C   UNL     1      -7.700   0.733 -34.821  1.00  0.00     0.051 C 
HETATM   15  C   UNL     1      -6.091  -2.711 -34.634  1.00  0.00    -0.061 A 
HETATM   16  C   UNL     1      -6.343  -4.106 -35.128  1.00  0.00     0.048 C 
HETATM   17  C   UNL     1      -4.941  -2.438 -33.881  1.00  0.00     0.016 A 
HETATM   18  C   UNL     1      -4.668  -1.140 -33.425  1.00  0.00    -0.028 A 
HETATM   19  C   UNL     1      -3.411  -0.892 -32.640  1.00  0.00     0.051 C 
ENDBRANCH  10  11
ENDBRANCH   9  10
ENDBRANCH   6   9
ENDBRANCH   1   5
BRANCH   2  20
HETATM   20  C   UNL     1      -1.408   5.270 -31.368  1.00  0.00     0.121 A 
HETATM   21  N   UNL     1      -0.057   5.352 -31.545  1.00  0.00    -0.272 N 
HETATM   22  H   UNL     1       0.513   4.790 -32.171  1.00  0.00     0.189 HD
HETATM   23  N   UNL     1       0.541   6.271 -30.776  1.00  0.00    -0.174 NA
HETATM   24  C   UNL     1      -0.450   6.809 -30.047  1.00  0.00     0.089 A 
HETATM   25  C   UNL     1      -1.696   6.226 -30.416  1.00  0.00     0.071 A 
BRANCH  24  26
HETATM   26  C   UNL     1      -0.189   7.819 -29.011  1.00  0.00    -0.006 A 
HETATM   27  C   UNL     1       1.064   7.917 -28.385  1.00  0.00     0.014 A 
HETATM   28  C   UNL     1       1.310   8.908 -27.429  1.00  0.00     0.001 A 
HETATM   29  C   UNL     1       0.309   9.814 -27.086  1.00  0.00     0.000 A 
HETATM   30  C   UNL     1      -0.942   9.726 -27.691  1.00  0.00     0.001 A 
HETATM   31  C   UNL     1      -1.188   8.735 -28.646  1.00  0.00     0.014 A 
ENDBRANCH  24  26
ENDBRANCH   2  20
TORSDOF 6
ENDMDL
MODEL 3
REMARK VINA RESULT:      -9.3      1.650     11.200
REMARK  6 active torsions:
REMARK  status: ('A' for Active; 'I' for Inactive)
REMARK    1  A    between atoms: C_6  and  O_7 
REMARK    2  A    between atoms: O_7  and  C_8 
REMARK    3  A    between atoms: C_8  and  C_9 
REMARK       I    between atoms: C_9  and  N_10 
REMARK    4  A    between atoms: N_10  and  N_11 
REMARK       I    between atoms: N_11  and  C_12 
REMARK    5  A    between atoms: C_12  and  C_13 
REMARK    6  A    between atoms: C_17  and  C_18 
ROOT
HETATM    1  N   UNL     1      -3.094   2.986 -32.574  1.00  0.00    -0.262 N 
HETATM    2  C   UNL     1      -4.101   2.285 -31.935  1.00  0.00     0.288 C 
HETATM    3  O   UNL     1      -4.478   2.558 -30.799  1.00  0.00    -0.264 OA
HETATM    4  H   UNL     1      -3.052   2.989 -33.589  1.00  0.00     0.190 HD
ENDROOT
BRANCH   1   5
HETATM    5  N   UNL     1      -2.570   4.119 -31.940  1.00  0.00    -0.265 N 
HETATM    6  C   UNL     1      -1.944   5.082 -32.709  1.00  0.00     0.260 C 
HETATM    7  O   UNL     1      -1.670   4.922 -33.896  1.00  0.00    -0.269 OA
HETATM    8  H   UNL     1      -2.981   4.382 -31.046  1.00  0.00     0.190 HD
BRANCH   6   9
HETATM    9  C   UNL     1      -1.664   6.379 -31.955  1.00  0.00     0.280 C 
BRANCH   9  10
HETATM   10  O   UNL     1      -1.978   6.179 -30.573  1.00  0.00    -0.341 OA
BRANCH  10  11
HETATM   11  C   UNL     1      -1.137   6.900 -29.764  1.00  0.00     0.081 A 
HETATM   12  C   UNL     1      -1.571   8.143 -29.279  1.00  0.00    -0.028 A 
HETATM   13  C   UNL     1      -0.731   8.866 -28.420  1.00  0.00     0.016 A 
HETATM   14  C   UNL     1      -2.902   8.718 -29.676  1.00  0.00     0.051 C 
HETATM   15  C   UNL     1       0.505   8.347 -28.020  1.00  0.00    -0.061 A 
HETATM   16  C   UNL     1       1.399   9.112 -27.089  1.00  0.00     0.048 C 
HETATM   17  C   UNL     1       0.903   7.088 -28.488  1.00  0.00     0.016 A 
HETATM   18  C   UNL     1       0.078   6.340 -29.341  1.00  0.00    -0.028 A 
HETATM   19  C   UNL     1       0.539   4.985 -29.799  1.00  0.00     0.051 C 
ENDBRANCH  10  11
ENDBRANCH   9  10
ENDBRANCH   6   9
ENDBRANCH   1   5
BRANCH   2  20
HETATM   20  C   UNL     1      -4.659   1.203 -32.700  1.00  0.00     0.121 A 
HETATM   21  N   UNL     1      -5.836   1.323 -33.379  1.00  0.00    -0.272 N 
HETATM   22  H   UNL     1      -6.418   2.153 -33.453  1.00  0.00     0.189 HD
HETATM   23  N   UNL     1      -6.240   0.195 -33.981  1.00  0.00    -0.174 NA
HETATM   24  C   UNL     1      -5.300  -0.714 -33.674  1.00  0.00     0.089 A 
HETATM   25  C   UNL     1      -4.272  -0.108 -32.896  1.00  0.00     0.071 A 
BRANCH  24  26
HETATM   26  C   UNL     1      -5.418  -2.119 -34.089  1.00  0.00    -0.006 A 
HETATM   27  C   UNL     1      -4.348  -3.016 -33.941  1.00  0.00     0.014 A 
HETATM   28  C   UNL     1      -4.486  -4.360 -34.303  1.00  0.00     0.001 A 
HETATM   29  C   UNL     1      -5.693  -4.825 -34.819  1.00  0.00     0.000 A 
HETATM   30  C   UNL     1      -6.762  -3.947 -34.980  1.00  0.00     0.001 A 
HETATM   31  C   UNL     1      -6.624  -2.604 -34.619  1.00  0.00     0.014 A 
ENDBRANCH  24  26
ENDBRANCH   2  20
TORSDOF 6
ENDMDL
MODEL 4
REMARK VINA RESULT:      -9.3      1.773     11.196
REMARK  6 active torsions:
REMARK  status: ('A' for Active; 'I' for Inactive)
REMARK    1  A    between atoms: C_6  and  O_7 
REMARK    2  A    between atoms: O_7  and  C_8 
REMARK    3  A    between atoms: C_8  and  C_9 
REMARK       I    between atoms: C_9  and  N_10 
REMARK    4  A    between atoms: N_10  and  N_11 
REMARK       I    between atoms: N_11  and  C_12 
REMARK    5  A    between atoms: C_12  and  C_13 
REMARK    6  A    between atoms: C_17  and  C_18 
ROOT
HETATM    1  N   UNL     1      -3.524   2.831 -31.954  1.00  0.00    -0.262 N 
HETATM    2  C   UNL     1      -4.713   2.185 -31.667  1.00  0.00     0.288 C 
HETATM    3  O   UNL     1      -5.417   2.489 -30.707  1.00  0.00    -0.264 OA
HETATM    4  H   UNL     1      -3.163   2.819 -32.904  1.00  0.00     0.190 HD
ENDROOT
BRANCH   1   5
HETATM    5  N   UNL     1      -3.176   3.949 -31.186  1.00  0.00    -0.265 N 
HETATM    6  C   UNL     1      -3.431   5.210 -31.693  1.00  0.00     0.260 C 
HETATM    7  O   UNL     1      -3.789   5.410 -32.851  1.00  0.00    -0.269 OA
HETATM    8  H   UNL     1      -3.115   3.818 -30.178  1.00  0.00     0.190 HD
BRANCH   6   9
HETATM    9  C   UNL     1      -3.265   6.326 -30.665  1.00  0.00     0.280 C 
BRANCH   9  10
HETATM   10  O   UNL     1      -2.297   7.259 -31.157  1.00  0.00    -0.341 OA
BRANCH  10  11
HETATM   11  C   UNL     1      -1.378   7.577 -30.190  1.00  0.00     0.081 A 
HETATM   12  C   UNL     1      -0.138   6.920 -30.198  1.00  0.00    -0.028 A 
HETATM   13  C   UNL     1       0.820   7.269 -29.235  1.00  0.00     0.016 A 
HETATM   14  C   UNL     1       0.173   5.843 -31.200  1.00  0.00     0.051 C 
HETATM   15  C   UNL     1       0.563   8.279 -28.301  1.00  0.00    -0.061 A 
HETATM   16  C   UNL     1       1.593   8.665 -27.279  1.00  0.00     0.048 C 
HETATM   17  C   UNL     1      -0.668   8.946 -28.334  1.00  0.00     0.016 A 
HETATM   18  C   UNL     1      -1.640   8.622 -29.292  1.00  0.00    -0.028 A 
HETATM   19  C   UNL     1      -2.937   9.382 -29.302  1.00  0.00     0.051 C 
ENDBRANCH  10  11
ENDBRANCH   9  10
ENDBRANCH   6   9
ENDBRANCH   1   5
BRANCH   2  20
HETATM   20  C   UNL     1      -5.050   1.117 -32.569  1.00  0.00     0.121 A 
HETATM   21  N   UNL     1      -5.927   1.286 -33.600  1.00  0.00    -0.272 N 
HETATM   22  H   UNL     1      -6.401   2.145 -33.866  1.00  0.00     0.189 HD
HETATM   23  N   UNL     1      -6.175   0.169 -34.297  1.00  0.00    -0.174 NA
HETATM   24  C   UNL     1      -5.446  -0.784 -33.694  1.00  0.00     0.089 A 
HETATM   25  C   UNL     1      -4.699  -0.217 -32.621  1.00  0.00     0.071 A 
BRANCH  24  26
HETATM   26  C   UNL     1      -5.503  -2.189 -34.119  1.00  0.00    -0.006 A 
HETATM   27  C   UNL     1      -4.391  -3.037 -33.990  1.00  0.00     0.014 A 
HETATM   28  C   UNL     1      -4.471  -4.383 -34.362  1.00  0.00     0.001 A 
HETATM   29  C   UNL     1      -5.661  -4.900 -34.869  1.00  0.00     0.000 A 
HETATM   30  C   UNL     1      -6.771  -4.071 -35.011  1.00  0.00     0.001 A 
HETATM   31  C   UNL     1      -6.691  -2.726 -34.640  1.00  0.00     0.014 A 
ENDBRANCH  24  26
ENDBRANCH   2  20
TORSDOF 6
ENDMDL
MODEL 5
REMARK VINA RESULT:      -8.2      8.609     12.208
REMARK  6 active torsions:
REMARK  status: ('A' for Active; 'I' for Inactive)
REMARK    1  A    between atoms: C_6  and  O_7 
REMARK    2  A    between atoms: O_7  and  C_8 
REMARK    3  A    between atoms: C_8  and  C_9 
REMARK       I    between atoms: C_9  and  N_10 
REMARK    4  A    between atoms: N_10  and  N_11 
REMARK       I    between atoms: N_11  and  C_12 
REMARK    5  A    between atoms: C_12  and  C_13 
REMARK    6  A    between atoms: C_17  and  C_18 
ROOT
HETATM    1  N   UNL     1     -10.655   1.594 -34.189  1.00  0.00    -0.262 N 
HETATM    2  C   UNL     1      -9.631   1.303 -33.305  1.00  0.00     0.288 C 
HETATM    3  O   UNL     1      -9.603   1.743 -32.158  1.00  0.00    -0.264 OA
HETATM    4  H   UNL     1     -10.844   0.961 -34.962  1.00  0.00     0.190 HD
ENDROOT
BRANCH   1   5
HETATM    5  N   UNL     1     -11.753   2.321 -33.715  1.00  0.00    -0.265 N 
HETATM    6  C   UNL     1     -11.838   3.668 -34.014  1.00  0.00     0.260 C 
HETATM    7  O   UNL     1     -10.919   4.303 -34.527  1.00  0.00    -0.269 OA
HETATM    8  H   UNL     1     -12.604   1.798 -33.516  1.00  0.00     0.190 HD
BRANCH   6   9
HETATM    9  C   UNL     1     -13.196   4.283 -33.684  1.00  0.00     0.280 C 
BRANCH   9  10
HETATM   10  O   UNL     1     -13.539   3.934 -32.339  1.00  0.00    -0.341 OA
BRANCH  10  11
HETATM   11  C   UNL     1     -14.885   4.079 -32.118  1.00  0.00     0.081 A 
HETATM   12  C   UNL     1     -15.719   2.964 -32.289  1.00  0.00    -0.028 A 
HETATM   13  C   UNL     1     -17.090   3.097 -32.026  1.00  0.00     0.016 A 
HETATM   14  C   UNL     1     -15.177   1.645 -32.765  1.00  0.00     0.051 C 
HETATM   15  C   UNL     1     -17.618   4.308 -31.566  1.00  0.00    -0.061 A 
HETATM   16  C   UNL     1     -19.083   4.449 -31.269  1.00  0.00     0.048 C 
HETATM   17  C   UNL     1     -16.761   5.398 -31.367  1.00  0.00     0.016 A 
HETATM   18  C   UNL     1     -15.385   5.290 -31.615  1.00  0.00    -0.028 A 
HETATM   19  C   UNL     1     -14.502   6.480 -31.366  1.00  0.00     0.051 C 
ENDBRANCH  10  11
ENDBRANCH   9  10
ENDBRANCH   6   9
ENDBRANCH   1   5
BRANCH   2  20
HETATM   20  C   UNL     1      -8.595   0.462 -33.839  1.00  0.00     0.121 A 
HETATM   21  N   UNL     1      -8.060   0.664 -35.078  1.00  0.00    -0.272 N 
HETATM   22  H   UNL     1      -8.289   1.410 -35.729  1.00  0.00     0.189 HD
HETATM   23  N   UNL     1      -7.155  -0.255 -35.441  1.00  0.00    -0.174 NA
HETATM   24  C   UNL     1      -7.099  -1.111 -34.408  1.00  0.00     0.089 A 
HETATM   25  C   UNL     1      -7.969  -0.674 -33.367  1.00  0.00     0.071 A 
BRANCH  24  26
HETATM   26  C   UNL     1      -6.265  -2.320 -34.448  1.00  0.00    -0.006 A 
HETATM   27  C   UNL     1      -4.917  -2.291 -34.056  1.00  0.00     0.014 A 
HETATM   28  C   UNL     1      -4.145  -3.457 -34.062  1.00  0.00     0.001 A 
HETATM   29  C   UNL     1      -4.708  -4.668 -34.459  1.00  0.00     0.000 A 
HETATM   30  C   UNL     1      -6.041  -4.713 -34.859  1.00  0.00     0.001 A 
HETATM   31  C   UNL     1      -6.813  -3.548 -34.854  1.00  0.00     0.014 A 
ENDBRANCH  24  26
ENDBRANCH   2  20
TORSDOF 6
ENDMDL
MODEL 6
REMARK VINA RESULT:      -8.0      2.137      3.160
REMARK  6 active torsions:
REMARK  status: ('A' for Active; 'I' for Inactive)
REMARK    1  A    between atoms: C_6  and  O_7 
REMARK    2  A    between atoms: O_7  and  C_8 
REMARK    3  A    between atoms: C_8  and  C_9 
REMARK       I    between atoms: C_9  and  N_10 
REMARK    4  A    between atoms: N_10  and  N_11 
REMARK       I    between atoms: N_11  and  C_12 
REMARK    5  A    between atoms: C_12  and  C_13 
REMARK    6  A    between atoms: C_17  and  C_18 
ROOT
HETATM    1  N   UNL     1      -4.988   5.704 -32.043  1.00  0.00    -0.262 N 
HETATM    2  C   UNL     1      -4.105   5.216 -31.096  1.00  0.00     0.288 C 
HETATM    3  O   UNL     1      -4.226   4.103 -30.591  1.00  0.00    -0.264 OA
HETATM    4  H   UNL     1      -4.682   6.430 -32.685  1.00  0.00     0.190 HD
ENDROOT
BRANCH   1   5
HETATM    5  N   UNL     1      -5.986   4.847 -32.523  1.00  0.00    -0.265 N 
HETATM    6  C   UNL     1      -5.912   4.408 -33.832  1.00  0.00     0.260 C 
HETATM    7  O   UNL     1      -5.115   4.861 -34.650  1.00  0.00    -0.269 OA
HETATM    8  H   UNL     1      -6.487   4.288 -31.835  1.00  0.00     0.190 HD
BRANCH   6   9
HETATM    9  C   UNL     1      -6.887   3.278 -34.152  1.00  0.00     0.280 C 
BRANCH   9  10
HETATM   10  O   UNL     1      -6.918   2.374 -33.042  1.00  0.00    -0.341 OA
BRANCH  10  11
HETATM   11  C   UNL     1      -6.626   1.094 -33.437  1.00  0.00     0.081 A 
HETATM   12  C   UNL     1      -7.592   0.376 -34.161  1.00  0.00    -0.028 A 
HETATM   13  C   UNL     1      -7.284  -0.919 -34.601  1.00  0.00     0.016 A 
HETATM   14  C   UNL     1      -8.946   0.960 -34.453  1.00  0.00     0.051 C 
HETATM   15  C   UNL     1      -6.025  -1.480 -34.358  1.00  0.00    -0.061 A 
HETATM   16  C   UNL     1      -5.688  -2.860 -34.841  1.00  0.00     0.048 C 
HETATM   17  C   UNL     1      -5.065  -0.732 -33.665  1.00  0.00     0.016 A 
HETATM   18  C   UNL     1      -5.343   0.569 -33.221  1.00  0.00    -0.028 A 
HETATM   19  C   UNL     1      -4.272   1.340 -32.502  1.00  0.00     0.051 C 
ENDBRANCH  10  11
ENDBRANCH   9  10
ENDBRANCH   6   9
ENDBRANCH   1   5
BRANCH   2  20
HETATM   20  C   UNL     1      -3.047   6.120 -30.738  1.00  0.00     0.121 A 
HETATM   21  N   UNL     1      -2.099   6.523 -31.634  1.00  0.00    -0.272 N 
HETATM   22  H   UNL     1      -2.043   6.275 -32.618  1.00  0.00     0.189 HD
HETATM   23  N   UNL     1      -1.151   7.312 -31.111  1.00  0.00    -0.174 NA
HETATM   24  C   UNL     1      -1.472   7.424 -29.812  1.00  0.00     0.089 A 
HETATM   25  C   UNL     1      -2.678   6.713 -29.547  1.00  0.00     0.071 A 
BRANCH  24  26
HETATM   26  C   UNL     1      -0.622   8.158 -28.864  1.00  0.00    -0.006 A 
HETATM   27  C   UNL     1       0.721   7.804 -28.661  1.00  0.00     0.014 A 
HETATM   28  C   UNL     1       1.529   8.535 -27.785  1.00  0.00     0.001 A 
HETATM   29  C   UNL     1       1.007   9.630 -27.100  1.00  0.00     0.000 A 
HETATM   30  C   UNL     1      -0.326   9.990 -27.283  1.00  0.00     0.001 A 
HETATM   31  C   UNL     1      -1.134   9.259 -28.158  1.00  0.00     0.014 A 
ENDBRANCH  24  26
ENDBRANCH   2  20
TORSDOF 6
ENDMDL
MODEL 7
REMARK VINA RESULT:      -8.0      8.411     12.075
REMARK  6 active torsions:
REMARK  status: ('A' for Active; 'I' for Inactive)
REMARK    1  A    between atoms: C_6  and  O_7 
REMARK    2  A    between atoms: O_7  and  C_8 
REMARK    3  A    between atoms: C_8  and  C_9 
REMARK       I    between atoms: C_9  and  N_10 
REMARK    4  A    between atoms: N_10  and  N_11 
REMARK       I    between atoms: N_11  and  C_12 
REMARK    5  A    between atoms: C_12  and  C_13 
REMARK    6  A    between atoms: C_17  and  C_18 
ROOT
HETATM    1  N   UNL     1     -10.192   2.087 -34.570  1.00  0.00    -0.262 N 
HETATM    2  C   UNL     1      -9.459   1.479 -33.568  1.00  0.00     0.288 C 
HETATM    3  O   UNL     1      -9.645   1.713 -32.377  1.00  0.00    -0.264 OA
HETATM    4  H   UNL     1     -10.276   1.634 -35.476  1.00  0.00     0.190 HD
ENDROOT
BRANCH   1   5
HETATM    5  N   UNL     1     -11.262   2.912 -34.201  1.00  0.00    -0.265 N 
HETATM    6  C   UNL     1     -12.542   2.548 -34.575  1.00  0.00     0.260 C 
HETATM    7  O   UNL     1     -12.779   1.632 -35.360  1.00  0.00    -0.269 OA
HETATM    8  H   UNL     1     -11.129   3.505 -33.384  1.00  0.00     0.190 HD
BRANCH   6   9
HETATM    9  C   UNL     1     -13.634   3.364 -33.890  1.00  0.00     0.280 C 
BRANCH   9  10
HETATM   10  O   UNL     1     -13.666   3.010 -32.503  1.00  0.00    -0.341 OA
BRANCH  10  11
HETATM   11  C   UNL     1     -13.979   4.093 -31.722  1.00  0.00     0.081 A 
HETATM   12  C   UNL     1     -15.331   4.432 -31.552  1.00  0.00    -0.028 A 
HETATM   13  C   UNL     1     -15.658   5.514 -30.722  1.00  0.00     0.016 A 
HETATM   14  C   UNL     1     -16.423   3.674 -32.253  1.00  0.00     0.051 C 
HETATM   15  C   UNL     1     -14.663   6.226 -30.045  1.00  0.00    -0.061 A 
HETATM   16  C   UNL     1     -15.012   7.375 -29.144  1.00  0.00     0.048 C 
HETATM   17  C   UNL     1     -13.323   5.847 -30.201  1.00  0.00     0.016 A 
HETATM   18  C   UNL     1     -12.968   4.764 -31.018  1.00  0.00    -0.028 A 
HETATM   19  C   UNL     1     -11.520   4.382 -31.136  1.00  0.00     0.051 C 
ENDBRANCH  10  11
ENDBRANCH   9  10
ENDBRANCH   6   9
ENDBRANCH   1   5
BRANCH   2  20
HETATM   20  C   UNL     1      -8.450   0.564 -34.031  1.00  0.00     0.121 A 
HETATM   21  N   UNL     1      -7.868   0.684 -35.259  1.00  0.00    -0.272 N 
HETATM   22  H   UNL     1      -8.040   1.410 -35.949  1.00  0.00     0.189 HD
HETATM   23  N   UNL     1      -7.000  -0.293 -35.552  1.00  0.00    -0.174 NA
HETATM   24  C   UNL     1      -7.018  -1.104 -34.482  1.00  0.00     0.089 A 
HETATM   25  C   UNL     1      -7.896  -0.578 -33.490  1.00  0.00     0.071 A 
BRANCH  24  26
HETATM   26  C   UNL     1      -6.245  -2.353 -34.442  1.00  0.00    -0.006 A 
HETATM   27  C   UNL     1      -6.811  -3.575 -34.836  1.00  0.00     0.014 A 
HETATM   28  C   UNL     1      -6.052  -4.750 -34.830  1.00  0.00     0.001 A 
HETATM   29  C   UNL     1      -4.718  -4.720 -34.431  1.00  0.00     0.000 A 
HETATM   30  C   UNL     1      -4.143  -3.517 -34.029  1.00  0.00     0.001 A 
HETATM   31  C   UNL     1      -4.901  -2.343 -34.034  1.00  0.00     0.014 A 
ENDBRANCH  24  26
ENDBRANCH   2  20
TORSDOF 6
ENDMDL
MODEL 8
REMARK VINA RESULT:      -7.9      8.439     12.329
REMARK  6 active torsions:
REMARK  status: ('A' for Active; 'I' for Inactive)
REMARK    1  A    between atoms: C_6  and  O_7 
REMARK    2  A    between atoms: O_7  and  C_8 
REMARK    3  A    between atoms: C_8  and  C_9 
REMARK       I    between atoms: C_9  and  N_10 
REMARK    4  A    between atoms: N_10  and  N_11 
REMARK       I    between atoms: N_11  and  C_12 
REMARK    5  A    between atoms: C_12  and  C_13 
REMARK    6  A    between atoms: C_17  and  C_18 
ROOT
HETATM    1  N   UNL     1     -10.942   1.240 -33.316  1.00  0.00    -0.262 N 
HETATM    2  C   UNL     1      -9.618   1.608 -33.158  1.00  0.00     0.288 C 
HETATM    3  O   UNL     1      -9.282   2.631 -32.567  1.00  0.00    -0.264 OA
HETATM    4  H   UNL     1     -11.176   0.263 -33.470  1.00  0.00     0.190 HD
ENDROOT
BRANCH   1   5
HETATM    5  N   UNL     1     -11.924   2.006 -32.676  1.00  0.00    -0.265 N 
HETATM    6  C   UNL     1     -13.065   2.346 -33.378  1.00  0.00     0.260 C 
HETATM    7  O   UNL     1     -13.192   2.160 -34.586  1.00  0.00    -0.269 OA
HETATM    8  H   UNL     1     -11.957   1.961 -31.659  1.00  0.00     0.190 HD
BRANCH   6   9
HETATM    9  C   UNL     1     -14.167   2.937 -32.503  1.00  0.00     0.280 C 
BRANCH   9  10
HETATM   10  O   UNL     1     -14.206   4.353 -32.712  1.00  0.00    -0.341 OA
BRANCH  10  11
HETATM   11  C   UNL     1     -14.565   5.013 -31.565  1.00  0.00     0.081 A 
HETATM   12  C   UNL     1     -13.552   5.473 -30.709  1.00  0.00    -0.028 A 
HETATM   13  C   UNL     1     -13.912   6.184 -29.555  1.00  0.00     0.016 A 
HETATM   14  C   UNL     1     -12.101   5.202 -30.993  1.00  0.00     0.051 C 
HETATM   15  C   UNL     1     -15.254   6.464 -29.274  1.00  0.00    -0.061 A 
HETATM   16  C   UNL     1     -15.641   7.239 -28.048  1.00  0.00     0.048 C 
HETATM   17  C   UNL     1     -16.245   6.028 -30.162  1.00  0.00     0.016 A 
HETATM   18  C   UNL     1     -15.912   5.322 -31.328  1.00  0.00    -0.028 A 
HETATM   19  C   UNL     1     -17.010   4.894 -32.260  1.00  0.00     0.051 C 
ENDBRANCH  10  11
ENDBRANCH   9  10
ENDBRANCH   6   9
ENDBRANCH   1   5
BRANCH   2  20
HETATM   20  C   UNL     1      -8.669   0.708 -33.754  1.00  0.00     0.121 A 
HETATM   21  N   UNL     1      -8.335   0.774 -35.076  1.00  0.00    -0.272 N 
HETATM   22  H   UNL     1      -8.671   1.447 -35.759  1.00  0.00     0.189 HD
HETATM   23  N   UNL     1      -7.487  -0.184 -35.476  1.00  0.00    -0.174 NA
HETATM   24  C   UNL     1      -7.262  -0.925 -34.379  1.00  0.00     0.089 A 
HETATM   25  C   UNL     1      -7.964  -0.374 -33.268  1.00  0.00     0.071 A 
BRANCH  24  26
HETATM   26  C   UNL     1      -6.430  -2.136 -34.420  1.00  0.00    -0.006 A 
HETATM   27  C   UNL     1      -5.071  -2.100 -34.072  1.00  0.00     0.014 A 
HETATM   28  C   UNL     1      -4.300  -3.268 -34.078  1.00  0.00     0.001 A 
HETATM   29  C   UNL     1      -4.877  -4.486 -34.430  1.00  0.00     0.000 A 
HETATM   30  C   UNL     1      -6.223  -4.537 -34.785  1.00  0.00     0.001 A 
HETATM   31  C   UNL     1      -6.992  -3.371 -34.780  1.00  0.00     0.014 A 
ENDBRANCH  24  26
ENDBRANCH   2  20
TORSDOF 6
ENDMDL
MODEL 9
REMARK VINA RESULT:      -7.9      3.126      9.946
REMARK  6 active torsions:
REMARK  status: ('A' for Active; 'I' for Inactive)
REMARK    1  A    between atoms: C_6  and  O_7 
REMARK    2  A    between atoms: O_7  and  C_8 
REMARK    3  A    between atoms: C_8  and  C_9 
REMARK       I    between atoms: C_9  and  N_10 
REMARK    4  A    between atoms: N_10  and  N_11 
REMARK       I    between atoms: N_11  and  C_12 
REMARK    5  A    between atoms: C_12  and  C_13 
REMARK    6  A    between atoms: C_17  and  C_18 
ROOT
HETATM    1  N   UNL     1      -3.227   2.589 -31.249  1.00  0.00    -0.262 N 
HETATM    2  C   UNL     1      -4.407   2.043 -31.723  1.00  0.00     0.288 C 
HETATM    3  O   UNL     1      -5.468   2.661 -31.725  1.00  0.00    -0.264 OA
HETATM    4  H   UNL     1      -2.338   2.224 -31.579  1.00  0.00     0.190 HD
ENDROOT
BRANCH   1   5
HETATM    5  N   UNL     1      -3.228   3.936 -30.867  1.00  0.00    -0.265 N 
HETATM    6  C   UNL     1      -2.354   4.806 -31.492  1.00  0.00     0.260 C 
HETATM    7  O   UNL     1      -1.456   4.433 -32.245  1.00  0.00    -0.269 OA
HETATM    8  H   UNL     1      -4.083   4.300 -30.451  1.00  0.00     0.190 HD
BRANCH   6   9
HETATM    9  C   UNL     1      -2.634   6.276 -31.192  1.00  0.00     0.280 C 
BRANCH   9  10
HETATM   10  O   UNL     1      -3.231   6.872 -32.348  1.00  0.00    -0.341 OA
BRANCH  10  11
HETATM   11  C   UNL     1      -4.595   6.742 -32.325  1.00  0.00     0.081 A 
HETATM   12  C   UNL     1      -5.204   5.865 -33.236  1.00  0.00    -0.028 A 
HETATM   13  C   UNL     1      -6.595   5.698 -33.191  1.00  0.00     0.016 A 
HETATM   14  C   UNL     1      -4.398   5.121 -34.265  1.00  0.00     0.051 C 
HETATM   15  C   UNL     1      -7.367   6.365 -32.233  1.00  0.00    -0.061 A 
HETATM   16  C   UNL     1      -8.855   6.177 -32.172  1.00  0.00     0.048 C 
HETATM   17  C   UNL     1      -6.735   7.208 -31.310  1.00  0.00     0.016 A 
HETATM   18  C   UNL     1      -5.343   7.386 -31.328  1.00  0.00    -0.028 A 
HETATM   19  C   UNL     1      -4.709   8.283 -30.303  1.00  0.00     0.051 C 
ENDBRANCH  10  11
ENDBRANCH   9  10
ENDBRANCH   6   9
ENDBRANCH   1   5
BRANCH   2  20
HETATM   20  C   UNL     1      -4.295   0.691 -32.197  1.00  0.00     0.121 A 
HETATM   21  N   UNL     1      -3.102   0.029 -32.237  1.00  0.00    -0.272 N 
HETATM   22  H   UNL     1      -2.200   0.377 -31.925  1.00  0.00     0.189 HD
HETATM   23  N   UNL     1      -3.173  -1.198 -32.770  1.00  0.00    -0.174 NA
HETATM   24  C   UNL     1      -4.462  -1.351 -33.114  1.00  0.00     0.089 A 
HETATM   25  C   UNL     1      -5.206  -0.195 -32.738  1.00  0.00     0.071 A 
BRANCH  24  26
HETATM   26  C   UNL     1      -4.941  -2.553 -33.810  1.00  0.00    -0.006 A 
HETATM   27  C   UNL     1      -4.189  -3.739 -33.822  1.00  0.00     0.014 A 
HETATM   28  C   UNL     1      -4.674  -4.888 -34.454  1.00  0.00     0.001 A 
HETATM   29  C   UNL     1      -5.916  -4.868 -35.084  1.00  0.00     0.000 A 
HETATM   30  C   UNL     1      -6.672  -3.699 -35.088  1.00  0.00     0.001 A 
HETATM   31  C   UNL     1      -6.187  -2.551 -34.456  1.00  0.00     0.014 A 
ENDBRANCH  24  26
ENDBRANCH   2  20
TORSDOF 6
ENDMDL
MODEL 10
REMARK VINA RESULT:      -7.8      2.607     10.605
REMARK  6 active torsions:
REMARK  status: ('A' for Active; 'I' for Inactive)
REMARK    1  A    between atoms: C_6  and  O_7 
REMARK    2  A    between atoms: O_7  and  C_8 
REMARK    3  A    between atoms: C_8  and  C_9 
REMARK       I    between atoms: C_9  and  N_10 
REMARK    4  A    between atoms: N_10  and  N_11 
REMARK       I    between atoms: N_11  and  C_12 
REMARK    5  A    between atoms: C_12  and  C_13 
REMARK    6  A    between atoms: C_17  and  C_18 
ROOT
HETATM    1  N   UNL     1      -3.118   2.800 -31.905  1.00  0.00    -0.262 N 
HETATM    2  C   UNL     1      -4.465   2.519 -31.765  1.00  0.00     0.288 C 
HETATM    3  O   UNL     1      -5.195   3.143 -30.999  1.00  0.00    -0.264 OA
HETATM    4  H   UNL     1      -2.638   2.540 -32.762  1.00  0.00     0.190 HD
ENDROOT
BRANCH   1   5
HETATM    5  N   UNL     1      -2.599   3.913 -31.231  1.00  0.00    -0.265 N 
HETATM    6  C   UNL     1      -1.886   4.853 -31.951  1.00  0.00     0.260 C 
HETATM    7  O   UNL     1      -1.534   4.684 -33.116  1.00  0.00    -0.269 OA
HETATM    8  H   UNL     1      -3.064   4.190 -30.368  1.00  0.00     0.190 HD
BRANCH   6   9
HETATM    9  C   UNL     1      -1.613   6.139 -31.174  1.00  0.00     0.280 C 
BRANCH   9  10
HETATM   10  O   UNL     1      -2.384   7.195 -31.756  1.00  0.00    -0.341 OA
BRANCH  10  11
HETATM   11  C   UNL     1      -3.388   7.598 -30.914  1.00  0.00     0.081 A 
HETATM   12  C   UNL     1      -4.704   7.200 -31.196  1.00  0.00    -0.028 A 
HETATM   13  C   UNL     1      -5.729   7.576 -30.316  1.00  0.00     0.016 A 
HETATM   14  C   UNL     1      -5.034   6.400 -32.425  1.00  0.00     0.051 C 
HETATM   15  C   UNL     1      -5.448   8.306 -29.157  1.00  0.00    -0.061 A 
HETATM   16  C   UNL     1      -6.541   8.696 -28.205  1.00  0.00     0.048 C 
HETATM   17  C   UNL     1      -4.122   8.661 -28.876  1.00  0.00     0.016 A 
HETATM   18  C   UNL     1      -3.077   8.291 -29.734  1.00  0.00    -0.028 A 
HETATM   19  C   UNL     1      -1.669   8.677 -29.378  1.00  0.00     0.051 C 
ENDBRANCH  10  11
ENDBRANCH   9  10
ENDBRANCH   6   9
ENDBRANCH   1   5
BRANCH   2  20
HETATM   20  C   UNL     1      -4.939   1.429 -32.574  1.00  0.00     0.121 A 
HETATM   21  N   UNL     1      -6.031   1.545 -33.384  1.00  0.00    -0.272 N 
HETATM   22  H   UNL     1      -6.596   2.377 -33.534  1.00  0.00     0.189 HD
HETATM   23  N   UNL     1      -6.371   0.412 -34.012  1.00  0.00    -0.174 NA
HETATM   24  C   UNL     1      -5.478  -0.498 -33.590  1.00  0.00     0.089 A 
HETATM   25  C   UNL     1      -4.541   0.115 -32.708  1.00  0.00     0.071 A 
BRANCH  24  26
HETATM   26  C   UNL     1      -5.556  -1.908 -33.997  1.00  0.00    -0.006 A 
HETATM   27  C   UNL     1      -6.750  -2.461 -34.486  1.00  0.00     0.014 A 
HETATM   28  C   UNL     1      -6.801  -3.794 -34.907  1.00  0.00     0.001 A 
HETATM   29  C   UNL     1      -5.661  -4.592 -34.844  1.00  0.00     0.000 A 
HETATM   30  C   UNL     1      -4.470  -4.061 -34.355  1.00  0.00     0.001 A 
HETATM   31  C   UNL     1      -4.419  -2.729 -33.934  1.00  0.00     0.014 A 
ENDBRANCH  24  26
ENDBRANCH   2  20
TORSDOF 6
ENDMDL
