MODEL 1
REMARK VINA RESULT:      -9.0      0.000      0.000
REMARK  2 active torsions:
REMARK  status: ('A' for Active; 'I' for Inactive)
REMARK    1  A    between atoms: C_4  and  N_5 
REMARK    2  A    between atoms: C_12  and  C_13 
ROOT
HETATM    1  N   UNL     1      -3.209   3.854 -31.767  1.00  0.00    -0.236 N 
HETATM    2  N   UNL     1      -2.786   2.759 -32.553  1.00  0.00    -0.179 NA
HETATM    3  C   UNL     1      -3.650   1.721 -32.261  1.00  0.00     0.119 A 
HETATM    4  C   UNL     1      -4.613   2.090 -31.399  1.00  0.00     0.123 A 
HETATM    5  C   UNL     1      -4.358   3.494 -31.045  1.00  0.00     0.280 A 
HETATM    6  O   UNL     1      -5.027   4.152 -30.267  1.00  0.00    -0.265 OA
HETATM    7  N   UNL     1      -3.570   0.433 -32.716  1.00  0.00    -0.344 N 
HETATM    8  C   UNL     1      -4.452  -0.545 -32.304  1.00  0.00     0.049 A 
HETATM    9  C   UNL     1      -5.452  -0.276 -31.442  1.00  0.00     0.086 A 
HETATM   10  C   UNL     1      -5.603   1.118 -30.928  1.00  0.00     0.193 A 
HETATM   11  O   UNL     1      -6.513   1.388 -30.156  1.00  0.00    -0.287 OA
HETATM   12  H   UNL     1      -1.824   2.488 -32.349  1.00  0.00     0.155 HD
HETATM   13  H   UNL     1      -2.842   0.196 -33.379  1.00  0.00     0.167 HD
ENDROOT
BRANCH   8  14
HETATM   14  C   UNL     1      -4.272  -1.914 -32.833  1.00  0.00     0.012 A 
HETATM   15  C   UNL     1      -4.972  -2.408 -33.950  1.00  0.00     0.046 A 
HETATM   16 CL   UNL     1      -6.107  -1.441 -34.830  1.00  0.00    -0.083 Cl
HETATM   17  C   UNL     1      -4.762  -3.715 -34.401  1.00  0.00     0.025 A 
HETATM   18  C   UNL     1      -3.854  -4.548 -33.749  1.00  0.00     0.002 A 
HETATM   19  C   UNL     1      -3.155  -4.075 -32.642  1.00  0.00     0.001 A 
HETATM   20  C   UNL     1      -3.364  -2.772 -32.185  1.00  0.00     0.015 A 
ENDBRANCH   8  14
BRANCH   1  21
HETATM   21  C   UNL     1      -2.515   5.083 -31.810  1.00  0.00     0.055 A 
HETATM   22  C   UNL     1      -1.214   5.202 -31.305  1.00  0.00     0.031 A 
HETATM   23  C   UNL     1      -0.525   6.418 -31.366  1.00  0.00     0.002 A 
HETATM   24  C   UNL     1      -1.128   7.537 -31.931  1.00  0.00     0.000 A 
HETATM   25  C   UNL     1      -2.423   7.442 -32.431  1.00  0.00     0.002 A 
HETATM   26  C   UNL     1      -3.111   6.225 -32.369  1.00  0.00     0.031 A 
ENDBRANCH   1  21
TORSDOF 2
ENDMDL
MODEL 2
REMARK VINA RESULT:      -8.8      1.852      7.660
REMARK  2 active torsions:
REMARK  status: ('A' for Active; 'I' for Inactive)
REMARK    1  A    between atoms: C_4  and  N_5 
REMARK    2  A    between atoms: C_12  and  C_13 
ROOT
HETATM    1  N   UNL     1      -4.946  -0.508 -32.896  1.00  0.00    -0.236 N 
HETATM    2  N   UNL     1      -3.838   0.281 -33.275  1.00  0.00    -0.179 NA
HETATM    3  C   UNL     1      -3.891   1.419 -32.492  1.00  0.00     0.119 A 
HETATM    4  C   UNL     1      -4.909   1.383 -31.615  1.00  0.00     0.123 A 
HETATM    5  C   UNL     1      -5.635   0.126 -31.849  1.00  0.00     0.280 A 
HETATM    6  O   UNL     1      -6.630  -0.231 -31.243  1.00  0.00    -0.265 OA
HETATM    7  N   UNL     1      -3.073   2.512 -32.575  1.00  0.00    -0.344 N 
HETATM    8  C   UNL     1      -3.259   3.628 -31.785  1.00  0.00     0.049 A 
HETATM    9  C   UNL     1      -4.251   3.691 -30.876  1.00  0.00     0.086 A 
HETATM   10  C   UNL     1      -5.164   2.518 -30.724  1.00  0.00     0.193 A 
HETATM   11  O   UNL     1      -6.063   2.548 -29.894  1.00  0.00    -0.287 OA
HETATM   12  H   UNL     1      -3.863   0.530 -34.264  1.00  0.00     0.155 HD
HETATM   13  H   UNL     1      -2.305   2.495 -33.235  1.00  0.00     0.167 HD
ENDROOT
BRANCH   8  14
HETATM   14  C   UNL     1      -2.337   4.770 -31.963  1.00  0.00     0.012 A 
HETATM   15  C   UNL     1      -2.458   5.704 -33.008  1.00  0.00     0.046 A 
HETATM   16 CL   UNL     1      -3.725   5.612 -34.187  1.00  0.00    -0.083 Cl
HETATM   17  C   UNL     1      -1.552   6.763 -33.127  1.00  0.00     0.025 A 
HETATM   18  C   UNL     1      -0.514   6.907 -32.207  1.00  0.00     0.002 A 
HETATM   19  C   UNL     1      -0.379   5.990 -31.168  1.00  0.00     0.001 A 
HETATM   20  C   UNL     1      -1.280   4.930 -31.048  1.00  0.00     0.015 A 
ENDBRANCH   8  14
BRANCH   1  21
HETATM   21  C   UNL     1      -5.202  -1.744 -33.530  1.00  0.00     0.055 A 
HETATM   22  C   UNL     1      -6.437  -2.010 -34.135  1.00  0.00     0.031 A 
HETATM   23  C   UNL     1      -6.677  -3.230 -34.776  1.00  0.00     0.002 A 
HETATM   24  C   UNL     1      -5.687  -4.205 -34.820  1.00  0.00     0.000 A 
HETATM   25  C   UNL     1      -4.456  -3.964 -34.218  1.00  0.00     0.002 A 
HETATM   26  C   UNL     1      -4.216  -2.744 -33.577  1.00  0.00     0.031 A 
ENDBRANCH   1  21
TORSDOF 2
ENDMDL
MODEL 3
REMARK VINA RESULT:      -8.7      5.004      8.617
REMARK  2 active torsions:
REMARK  status: ('A' for Active; 'I' for Inactive)
REMARK    1  A    between atoms: C_4  and  N_5 
REMARK    2  A    between atoms: C_12  and  C_13 
ROOT
HETATM    1  N   UNL     1      -6.832  -1.156 -33.858  1.00  0.00    -0.236 N 
HETATM    2  N   UNL     1      -7.641  -0.489 -34.804  1.00  0.00    -0.179 NA
HETATM    3  C   UNL     1      -8.138   0.630 -34.163  1.00  0.00     0.119 A 
HETATM    4  C   UNL     1      -7.664   0.748 -32.911  1.00  0.00     0.123 A 
HETATM    5  C   UNL     1      -6.797  -0.414 -32.667  1.00  0.00     0.280 A 
HETATM    6  O   UNL     1      -6.210  -0.643 -31.624  1.00  0.00    -0.265 OA
HETATM    7  N   UNL     1      -9.044   1.526 -34.658  1.00  0.00    -0.344 N 
HETATM    8  C   UNL     1      -9.527   2.575 -33.903  1.00  0.00     0.049 A 
HETATM    9  C   UNL     1      -9.114   2.780 -32.636  1.00  0.00     0.086 A 
HETATM   10  C   UNL     1      -8.108   1.846 -32.047  1.00  0.00     0.193 A 
HETATM   11  O   UNL     1      -7.708   2.022 -30.904  1.00  0.00    -0.287 OA
HETATM   12  H   UNL     1      -8.406  -1.075 -35.139  1.00  0.00     0.155 HD
HETATM   13  H   UNL     1      -9.366   1.416 -35.613  1.00  0.00     0.167 HD
ENDROOT
BRANCH   8  14
HETATM   14  C   UNL     1     -10.522   3.479 -34.518  1.00  0.00     0.012 A 
HETATM   15  C   UNL     1     -11.806   3.060 -34.912  1.00  0.00     0.046 A 
HETATM   16 CL   UNL     1     -12.353   1.431 -34.693  1.00  0.00    -0.083 Cl
HETATM   17  C   UNL     1     -12.703   3.962 -35.493  1.00  0.00     0.025 A 
HETATM   18  C   UNL     1     -12.336   5.293 -35.688  1.00  0.00     0.002 A 
HETATM   19  C   UNL     1     -11.068   5.723 -35.306  1.00  0.00     0.001 A 
HETATM   20  C   UNL     1     -10.168   4.825 -34.729  1.00  0.00     0.015 A 
ENDBRANCH   8  14
BRANCH   1  21
HETATM   21  C   UNL     1      -6.185  -2.367 -34.189  1.00  0.00     0.055 A 
HETATM   22  C   UNL     1      -4.809  -2.535 -33.993  1.00  0.00     0.031 A 
HETATM   23  C   UNL     1      -4.178  -3.743 -34.308  1.00  0.00     0.002 A 
HETATM   24  C   UNL     1      -4.914  -4.804 -34.826  1.00  0.00     0.000 A 
HETATM   25  C   UNL     1      -6.281  -4.655 -35.036  1.00  0.00     0.002 A 
HETATM   26  C   UNL     1      -6.912  -3.446 -34.722  1.00  0.00     0.031 A 
ENDBRANCH   1  21
TORSDOF 2
ENDMDL
MODEL 4
REMARK VINA RESULT:      -8.5      3.858      9.021
REMARK  2 active torsions:
REMARK  status: ('A' for Active; 'I' for Inactive)
REMARK    1  A    between atoms: C_4  and  N_5 
REMARK    2  A    between atoms: C_12  and  C_13 
ROOT
HETATM    1  N   UNL     1      -3.241   3.650 -32.298  1.00  0.00    -0.236 N 
HETATM    2  N   UNL     1      -3.057   4.161 -30.994  1.00  0.00    -0.179 NA
HETATM    3  C   UNL     1      -2.277   5.293 -31.132  1.00  0.00     0.119 A 
HETATM    4  C   UNL     1      -2.004   5.565 -32.420  1.00  0.00     0.123 A 
HETATM    5  C   UNL     1      -2.621   4.502 -33.225  1.00  0.00     0.280 A 
HETATM    6  O   UNL     1      -2.559   4.419 -34.440  1.00  0.00    -0.265 OA
HETATM    7  N   UNL     1      -1.766   6.066 -30.127  1.00  0.00    -0.344 N 
HETATM    8  C   UNL     1      -0.939   7.141 -30.377  1.00  0.00     0.049 A 
HETATM    9  C   UNL     1      -0.604   7.496 -31.633  1.00  0.00     0.086 A 
HETATM   10  C   UNL     1      -1.150   6.702 -32.775  1.00  0.00     0.193 A 
HETATM   11  O   UNL     1      -0.871   7.016 -33.924  1.00  0.00    -0.287 OA
HETATM   12  H   UNL     1      -2.600   3.488 -30.378  1.00  0.00     0.155 HD
HETATM   13  H   UNL     1      -2.009   5.841 -29.169  1.00  0.00     0.167 HD
ENDROOT
BRANCH   8  14
HETATM   14  C   UNL     1      -0.416   7.904 -29.223  1.00  0.00     0.012 A 
HETATM   15  C   UNL     1      -1.155   8.902 -28.560  1.00  0.00     0.046 A 
HETATM   16 CL   UNL     1      -2.770   9.320 -29.026  1.00  0.00    -0.083 Cl
HETATM   17  C   UNL     1      -0.604   9.593 -27.475  1.00  0.00     0.025 A 
HETATM   18  C   UNL     1       0.686   9.301 -27.036  1.00  0.00     0.002 A 
HETATM   19  C   UNL     1       1.431   8.318 -27.683  1.00  0.00     0.001 A 
HETATM   20  C   UNL     1       0.886   7.629 -28.768  1.00  0.00     0.015 A 
ENDBRANCH   8  14
BRANCH   1  21
HETATM   21  C   UNL     1      -3.982   2.466 -32.511  1.00  0.00     0.055 A 
HETATM   22  C   UNL     1      -5.284   2.505 -33.026  1.00  0.00     0.031 A 
HETATM   23  C   UNL     1      -6.006   1.328 -33.250  1.00  0.00     0.002 A 
HETATM   24  C   UNL     1      -5.437   0.091 -32.960  1.00  0.00     0.000 A 
HETATM   25  C   UNL     1      -4.148   0.031 -32.440  1.00  0.00     0.002 A 
HETATM   26  C   UNL     1      -3.427   1.209 -32.216  1.00  0.00     0.031 A 
ENDBRANCH   1  21
TORSDOF 2
ENDMDL
MODEL 5
REMARK VINA RESULT:      -8.4      6.131      8.820
REMARK  2 active torsions:
REMARK  status: ('A' for Active; 'I' for Inactive)
REMARK    1  A    between atoms: C_4  and  N_5 
REMARK    2  A    between atoms: C_12  and  C_13 
ROOT
HETATM    1  N   UNL     1      -7.584   0.311 -33.817  1.00  0.00    -0.236 N 
HETATM    2  N   UNL     1      -8.914  -0.061 -33.515  1.00  0.00    -0.179 NA
HETATM    3  C   UNL     1      -9.657   1.103 -33.560  1.00  0.00     0.119 A 
HETATM    4  C   UNL     1      -8.915   2.165 -33.918  1.00  0.00     0.123 A 
HETATM    5  C   UNL     1      -7.536   1.686 -34.096  1.00  0.00     0.280 A 
HETATM    6  O   UNL     1      -6.587   2.385 -34.405  1.00  0.00    -0.265 OA
HETATM    7  N   UNL     1     -10.980   1.246 -33.243  1.00  0.00    -0.344 N 
HETATM    8  C   UNL     1     -11.608   2.473 -33.256  1.00  0.00     0.049 A 
HETATM    9  C   UNL     1     -10.952   3.598 -33.601  1.00  0.00     0.086 A 
HETATM   10  C   UNL     1      -9.509   3.502 -33.979  1.00  0.00     0.193 A 
HETATM   11  O   UNL     1      -8.898   4.509 -34.310  1.00  0.00    -0.287 OA
HETATM   12  H   UNL     1      -8.992  -0.497 -32.596  1.00  0.00     0.155 HD
HETATM   13  H   UNL     1     -11.512   0.420 -32.995  1.00  0.00     0.167 HD
ENDROOT
BRANCH   8  14
HETATM   14  C   UNL     1     -13.036   2.531 -32.876  1.00  0.00     0.012 A 
HETATM   15  C   UNL     1     -13.995   1.610 -33.336  1.00  0.00     0.046 A 
HETATM   16 CL   UNL     1     -13.584   0.296 -34.387  1.00  0.00    -0.083 Cl
HETATM   17  C   UNL     1     -15.334   1.719 -32.944  1.00  0.00     0.025 A 
HETATM   18  C   UNL     1     -15.736   2.744 -32.090  1.00  0.00     0.002 A 
HETATM   19  C   UNL     1     -14.800   3.666 -31.627  1.00  0.00     0.001 A 
HETATM   20  C   UNL     1     -13.463   3.563 -32.019  1.00  0.00     0.015 A 
ENDBRANCH   8  14
BRANCH   1  21
HETATM   21  C   UNL     1      -6.552  -0.653 -33.831  1.00  0.00     0.055 A 
HETATM   22  C   UNL     1      -6.609  -1.768 -34.676  1.00  0.00     0.031 A 
HETATM   23  C   UNL     1      -5.574  -2.709 -34.697  1.00  0.00     0.002 A 
HETATM   24  C   UNL     1      -4.466  -2.552 -33.871  1.00  0.00     0.000 A 
HETATM   25  C   UNL     1      -4.395  -1.455 -33.018  1.00  0.00     0.002 A 
HETATM   26  C   UNL     1      -5.430  -0.514 -32.997  1.00  0.00     0.031 A 
ENDBRANCH   1  21
TORSDOF 2
ENDMDL
MODEL 6
REMARK VINA RESULT:      -8.3      3.782      8.757
REMARK  2 active torsions:
REMARK  status: ('A' for Active; 'I' for Inactive)
REMARK    1  A    between atoms: C_4  and  N_5 
REMARK    2  A    between atoms: C_12  and  C_13 
ROOT
HETATM    1  N   UNL     1      -3.978   4.053 -32.640  1.00  0.00    -0.236 N 
HETATM    2  N   UNL     1      -3.602   4.272 -31.296  1.00  0.00    -0.179 NA
HETATM    3  C   UNL     1      -2.755   5.364 -31.308  1.00  0.00     0.119 A 
HETATM    4  C   UNL     1      -2.612   5.880 -32.540  1.00  0.00     0.123 A 
HETATM    5  C   UNL     1      -3.403   5.042 -33.453  1.00  0.00     0.280 A 
HETATM    6  O   UNL     1      -3.490   5.208 -34.657  1.00  0.00    -0.265 OA
HETATM    7  N   UNL     1      -2.069   5.882 -30.245  1.00  0.00    -0.344 N 
HETATM    8  C   UNL     1      -1.192   6.938 -30.383  1.00  0.00     0.049 A 
HETATM    9  C   UNL     1      -0.978   7.525 -31.577  1.00  0.00     0.086 A 
HETATM   10  C   UNL     1      -1.716   7.016 -32.772  1.00  0.00     0.193 A 
HETATM   11  O   UNL     1      -1.548   7.544 -33.863  1.00  0.00    -0.287 OA
HETATM   12  H   UNL     1      -3.133   3.463 -30.890  1.00  0.00     0.155 HD
HETATM   13  H   UNL     1      -2.216   5.479 -29.327  1.00  0.00     0.167 HD
ENDROOT
BRANCH   8  14
HETATM   14  C   UNL     1      -0.478   7.416 -29.179  1.00  0.00     0.012 A 
HETATM   15  C   UNL     1       0.508   6.662 -28.516  1.00  0.00     0.046 A 
HETATM   16 CL   UNL     1       0.997   5.094 -29.067  1.00  0.00    -0.083 Cl
HETATM   17  C   UNL     1       1.145   7.166 -27.378  1.00  0.00     0.025 A 
HETATM   18  C   UNL     1       0.812   8.426 -26.885  1.00  0.00     0.002 A 
HETATM   19  C   UNL     1      -0.163   9.185 -27.528  1.00  0.00     0.001 A 
HETATM   20  C   UNL     1      -0.805   8.683 -28.662  1.00  0.00     0.015 A 
ENDBRANCH   8  14
BRANCH   1  21
HETATM   21  C   UNL     1      -4.832   2.982 -32.984  1.00  0.00     0.055 A 
HETATM   22  C   UNL     1      -5.989   3.190 -33.746  1.00  0.00     0.031 A 
HETATM   23  C   UNL     1      -6.821   2.122 -34.098  1.00  0.00     0.002 A 
HETATM   24  C   UNL     1      -6.511   0.828 -33.691  1.00  0.00     0.000 A 
HETATM   25  C   UNL     1      -5.371   0.602 -32.926  1.00  0.00     0.002 A 
HETATM   26  C   UNL     1      -4.540   1.670 -32.574  1.00  0.00     0.031 A 
ENDBRANCH   1  21
TORSDOF 2
ENDMDL
MODEL 7
REMARK VINA RESULT:      -8.3      3.097      4.954
REMARK  2 active torsions:
REMARK  status: ('A' for Active; 'I' for Inactive)
REMARK    1  A    between atoms: C_4  and  N_5 
REMARK    2  A    between atoms: C_12  and  C_13 
ROOT
HETATM    1  N   UNL     1      -1.304   7.034 -30.276  1.00  0.00    -0.236 N 
HETATM    2  N   UNL     1      -1.710   5.716 -29.968  1.00  0.00    -0.179 NA
HETATM    3  C   UNL     1      -2.317   5.225 -31.108  1.00  0.00     0.119 A 
HETATM    4  C   UNL     1      -2.278   6.106 -32.122  1.00  0.00     0.123 A 
HETATM    5  C   UNL     1      -1.618   7.318 -31.614  1.00  0.00     0.280 A 
HETATM    6  O   UNL     1      -1.426   8.333 -32.260  1.00  0.00    -0.265 OA
HETATM    7  N   UNL     1      -2.948   4.019 -31.248  1.00  0.00    -0.344 N 
HETATM    8  C   UNL     1      -3.584   3.657 -32.418  1.00  0.00     0.049 A 
HETATM    9  C   UNL     1      -3.602   4.470 -33.492  1.00  0.00     0.086 A 
HETATM   10  C   UNL     1      -2.910   5.792 -33.406  1.00  0.00     0.193 A 
HETATM   11  O   UNL     1      -2.901   6.540 -34.374  1.00  0.00    -0.287 OA
HETATM   12  H   UNL     1      -2.357   5.686 -29.180  1.00  0.00     0.155 HD
HETATM   13  H   UNL     1      -2.941   3.373 -30.468  1.00  0.00     0.167 HD
ENDROOT
BRANCH   8  14
HETATM   14  C   UNL     1      -4.258   2.342 -32.467  1.00  0.00     0.012 A 
HETATM   15  C   UNL     1      -5.653   2.194 -32.581  1.00  0.00     0.046 A 
HETATM   16 CL   UNL     1      -6.720   3.554 -32.694  1.00  0.00    -0.083 Cl
HETATM   17  C   UNL     1      -6.234   0.922 -32.619  1.00  0.00     0.025 A 
HETATM   18  C   UNL     1      -5.436  -0.219 -32.545  1.00  0.00     0.002 A 
HETATM   19  C   UNL     1      -4.054  -0.090 -32.431  1.00  0.00     0.001 A 
HETATM   20  C   UNL     1      -3.471   1.178 -32.389  1.00  0.00     0.015 A 
ENDBRANCH   8  14
BRANCH   1  21
HETATM   21  C   UNL     1      -0.665   7.836 -29.306  1.00  0.00     0.055 A 
HETATM   22  C   UNL     1      -1.340   8.884 -28.668  1.00  0.00     0.031 A 
HETATM   23  C   UNL     1      -0.705   9.665 -27.695  1.00  0.00     0.002 A 
HETATM   24  C   UNL     1       0.617   9.410 -27.347  1.00  0.00     0.000 A 
HETATM   25  C   UNL     1       1.308   8.378 -27.974  1.00  0.00     0.002 A 
HETATM   26  C   UNL     1       0.673   7.599 -28.947  1.00  0.00     0.031 A 
ENDBRANCH   1  21
TORSDOF 2
ENDMDL
MODEL 8
REMARK VINA RESULT:      -8.2      2.743      7.935
REMARK  2 active torsions:
REMARK  status: ('A' for Active; 'I' for Inactive)
REMARK    1  A    between atoms: C_4  and  N_5 
REMARK    2  A    between atoms: C_12  and  C_13 
ROOT
HETATM    1  N   UNL     1      -5.798  -0.693 -33.816  1.00  0.00    -0.236 N 
HETATM    2  N   UNL     1      -4.847  -0.048 -32.994  1.00  0.00    -0.179 NA
HETATM    3  C   UNL     1      -5.250   1.270 -32.902  1.00  0.00     0.119 A 
HETATM    4  C   UNL     1      -6.405   1.493 -33.552  1.00  0.00     0.123 A 
HETATM    5  C   UNL     1      -6.802   0.221 -34.173  1.00  0.00     0.280 A 
HETATM    6  O   UNL     1      -7.796   0.057 -34.859  1.00  0.00    -0.265 OA
HETATM    7  N   UNL     1      -4.583   2.292 -32.285  1.00  0.00    -0.344 N 
HETATM    8  C   UNL     1      -5.045   3.592 -32.312  1.00  0.00     0.049 A 
HETATM    9  C   UNL     1      -6.193   3.919 -32.938  1.00  0.00     0.086 A 
HETATM   10  C   UNL     1      -6.977   2.840 -33.612  1.00  0.00     0.193 A 
HETATM   11  O   UNL     1      -8.030   3.113 -34.174  1.00  0.00    -0.287 OA
HETATM   12  H   UNL     1      -3.904  -0.105 -33.380  1.00  0.00     0.155 HD
HETATM   13  H   UNL     1      -3.725   2.083 -31.789  1.00  0.00     0.167 HD
ENDROOT
BRANCH   8  14
HETATM   14  C   UNL     1      -4.243   4.633 -31.635  1.00  0.00     0.012 A 
HETATM   15  C   UNL     1      -2.964   5.026 -32.070  1.00  0.00     0.046 A 
HETATM   16 CL   UNL     1      -2.209   4.331 -33.467  1.00  0.00    -0.083 Cl
HETATM   17  C   UNL     1      -2.251   6.015 -31.385  1.00  0.00     0.025 A 
HETATM   18  C   UNL     1      -2.800   6.627 -30.260  1.00  0.00     0.002 A 
HETATM   19  C   UNL     1      -4.064   6.249 -29.815  1.00  0.00     0.001 A 
HETATM   20  C   UNL     1      -4.778   5.259 -30.494  1.00  0.00     0.015 A 
ENDBRANCH   8  14
BRANCH   1  21
HETATM   21  C   UNL     1      -5.665  -2.062 -34.135  1.00  0.00     0.055 A 
HETATM   22  C   UNL     1      -4.446  -2.732 -33.971  1.00  0.00     0.031 A 
HETATM   23  C   UNL     1      -4.326  -4.093 -34.273  1.00  0.00     0.002 A 
HETATM   24  C   UNL     1      -5.423  -4.805 -34.747  1.00  0.00     0.000 A 
HETATM   25  C   UNL     1      -6.641  -4.156 -34.924  1.00  0.00     0.002 A 
HETATM   26  C   UNL     1      -6.760  -2.795 -34.622  1.00  0.00     0.031 A 
ENDBRANCH   1  21
TORSDOF 2
ENDMDL
MODEL 9
REMARK VINA RESULT:      -8.0      3.410      4.447
REMARK  2 active torsions:
REMARK  status: ('A' for Active; 'I' for Inactive)
REMARK    1  A    between atoms: C_4  and  N_5 
REMARK    2  A    between atoms: C_12  and  C_13 
ROOT
HETATM    1  N   UNL     1      -2.404   5.351 -31.445  1.00  0.00    -0.236 N 
HETATM    2  N   UNL     1      -3.221   4.297 -30.978  1.00  0.00    -0.179 NA
HETATM    3  C   UNL     1      -4.080   3.988 -32.016  1.00  0.00     0.119 A 
HETATM    4  C   UNL     1      -3.833   4.724 -33.113  1.00  0.00     0.123 A 
HETATM    5  C   UNL     1      -2.733   5.640 -32.779  1.00  0.00     0.280 A 
HETATM    6  O   UNL     1      -2.258   6.469 -33.536  1.00  0.00    -0.265 OA
HETATM    7  N   UNL     1      -5.112   3.092 -31.988  1.00  0.00    -0.344 N 
HETATM    8  C   UNL     1      -5.954   2.911 -33.066  1.00  0.00     0.049 A 
HETATM    9  C   UNL     1      -5.792   3.600 -34.212  1.00  0.00     0.086 A 
HETATM   10  C   UNL     1      -4.667   4.579 -34.309  1.00  0.00     0.193 A 
HETATM   11  O   UNL     1      -4.491   5.205 -35.346  1.00  0.00    -0.287 OA
HETATM   12  H   UNL     1      -3.749   4.559 -30.146  1.00  0.00     0.155 HD
HETATM   13  H   UNL     1      -5.256   2.541 -31.150  1.00  0.00     0.167 HD
ENDROOT
BRANCH   8  14
HETATM   14  C   UNL     1      -7.057   1.935 -32.934  1.00  0.00     0.012 A 
HETATM   15  C   UNL     1      -6.918   0.568 -33.236  1.00  0.00     0.046 A 
HETATM   16 CL   UNL     1      -5.418  -0.111 -33.777  1.00  0.00    -0.083 Cl
HETATM   17  C   UNL     1      -8.000  -0.308 -33.096  1.00  0.00     0.025 A 
HETATM   18  C   UNL     1      -9.234   0.165 -32.653  1.00  0.00     0.002 A 
HETATM   19  C   UNL     1      -9.390   1.516 -32.352  1.00  0.00     0.001 A 
HETATM   20  C   UNL     1      -8.313   2.393 -32.495  1.00  0.00     0.015 A 
ENDBRANCH   8  14
BRANCH   1  21
HETATM   21  C   UNL     1      -1.421   5.925 -30.610  1.00  0.00     0.055 A 
HETATM   22  C   UNL     1      -1.566   7.221 -30.100  1.00  0.00     0.031 A 
HETATM   23  C   UNL     1      -0.597   7.778 -29.259  1.00  0.00     0.002 A 
HETATM   24  C   UNL     1       0.536   7.047 -28.916  1.00  0.00     0.000 A 
HETATM   25  C   UNL     1       0.704   5.761 -29.419  1.00  0.00     0.002 A 
HETATM   26  C   UNL     1      -0.266   5.205 -30.260  1.00  0.00     0.031 A 
ENDBRANCH   1  21
TORSDOF 2
ENDMDL
MODEL 10
REMARK VINA RESULT:      -8.0      2.832      7.926
REMARK  2 active torsions:
REMARK  status: ('A' for Active; 'I' for Inactive)
REMARK    1  A    between atoms: C_4  and  N_5 
REMARK    2  A    between atoms: C_12  and  C_13 
ROOT
HETATM    1  N   UNL     1      -5.068   1.159 -33.242  1.00  0.00    -0.236 N 
HETATM    2  N   UNL     1      -3.913   1.460 -32.486  1.00  0.00    -0.179 NA
HETATM    3  C   UNL     1      -3.899   2.834 -32.338  1.00  0.00     0.119 A 
HETATM    4  C   UNL     1      -4.978   3.414 -32.891  1.00  0.00     0.123 A 
HETATM    5  C   UNL     1      -5.777   2.342 -33.503  1.00  0.00     0.280 A 
HETATM    6  O   UNL     1      -6.821   2.507 -34.111  1.00  0.00    -0.265 OA
HETATM    7  N   UNL     1      -2.917   3.587 -31.756  1.00  0.00    -0.344 N 
HETATM    8  C   UNL     1      -2.974   4.966 -31.723  1.00  0.00     0.049 A 
HETATM    9  C   UNL     1      -4.013   5.642 -32.251  1.00  0.00     0.086 A 
HETATM   10  C   UNL     1      -5.127   4.872 -32.881  1.00  0.00     0.193 A 
HETATM   11  O   UNL     1      -6.088   5.465 -33.353  1.00  0.00    -0.287 OA
HETATM   12  H   UNL     1      -3.059   1.144 -32.946  1.00  0.00     0.155 HD
HETATM   13  H   UNL     1      -2.128   3.114 -31.333  1.00  0.00     0.167 HD
ENDROOT
BRANCH   8  14
HETATM   14  C   UNL     1      -1.853   5.695 -31.092  1.00  0.00     0.012 A 
HETATM   15  C   UNL     1      -2.024   6.601 -30.029  1.00  0.00     0.046 A 
HETATM   16 CL   UNL     1      -3.577   6.934 -29.339  1.00  0.00    -0.083 Cl
HETATM   17  C   UNL     1      -0.924   7.265 -29.475  1.00  0.00     0.025 A 
HETATM   18  C   UNL     1       0.359   7.037 -29.971  1.00  0.00     0.002 A 
HETATM   19  C   UNL     1       0.545   6.146 -31.024  1.00  0.00     0.001 A 
HETATM   20  C   UNL     1      -0.551   5.484 -31.582  1.00  0.00     0.015 A 
ENDBRANCH   8  14
BRANCH   1  21
HETATM   21  C   UNL     1      -5.370  -0.174 -33.597  1.00  0.00     0.055 A 
HETATM   22  C   UNL     1      -6.687  -0.580 -33.848  1.00  0.00     0.031 A 
HETATM   23  C   UNL     1      -6.977  -1.899 -34.215  1.00  0.00     0.002 A 
HETATM   24  C   UNL     1      -5.954  -2.834 -34.335  1.00  0.00     0.000 A 
HETATM   25  C   UNL     1      -4.640  -2.453 -34.082  1.00  0.00     0.002 A 
HETATM   26  C   UNL     1      -4.351  -1.134 -33.714  1.00  0.00     0.031 A 
ENDBRANCH   1  21
TORSDOF 2
ENDMDL
