MODEL 1
REMARK VINA RESULT:      -8.5      0.000      0.000
REMARK  5 active torsions:
REMARK  status: ('A' for Active; 'I' for Inactive)
REMARK    1  A    between atoms: C_8  and  C_9 
REMARK    2  A    between atoms: C_13  and  C_14 
REMARK    3  A    between atoms: C_14  and  O_15 
REMARK    4  A    between atoms: O_15  and  C_16 
REMARK    5  A    between atoms: C_27  and  N_28 
ROOT
HETATM    1  C   UNL     1      -6.053   5.062 -29.006  1.00  0.00     0.073 C 
HETATM    2  C   UNL     1      -4.935   5.957 -29.393  1.00  0.00     0.062 A 
HETATM    3  N   UNL     1      -4.333   6.728 -28.472  1.00  0.00    -0.177 NA
HETATM    4  N   UNL     1      -3.386   7.396 -29.163  1.00  0.00    -0.256 N 
HETATM    5  H   UNL     1      -2.797   8.059 -28.672  1.00  0.00     0.191 HD
HETATM    6  C   UNL     1      -3.362   7.059 -30.477  1.00  0.00     0.175 A 
HETATM    7  C   UNL     1      -4.348   6.128 -30.668  1.00  0.00     0.035 A 
HETATM    8  C   UNL     1      -4.597   5.549 -32.022  1.00  0.00     0.111 A 
HETATM    9  C   UNL     1      -3.594   6.155 -33.020  1.00  0.00     0.067 A 
HETATM   10  C   UNL     1      -3.679   5.626 -34.441  1.00  0.00     0.020 C 
HETATM   11  N   UNL     1      -3.750   5.187 -35.621  1.00  0.00    -0.096 N 
HETATM   12  C   UNL     1      -2.654   7.080 -32.689  1.00  0.00     0.139 A 
HETATM   13  O   UNL     1      -2.523   7.564 -31.374  1.00  0.00    -0.279 OA
ENDROOT
BRANCH   8  14
HETATM   14  C   UNL     1      -4.582   4.030 -31.991  1.00  0.00    -0.003 A 
HETATM   15  S   UNL     1      -3.179   3.208 -31.456  1.00  0.00    -0.098 SA
HETATM   16  C   UNL     1      -3.918   1.677 -31.611  1.00  0.00    -0.013 A 
HETATM   17  C   UNL     1      -3.166   0.452 -31.207  1.00  0.00     0.057 C 
HETATM   18  C   UNL     1      -5.200   1.765 -32.134  1.00  0.00    -0.020 A 
HETATM   19  C   UNL     1      -5.582   3.135 -32.326  1.00  0.00     0.026 A 
BRANCH  18  20
HETATM   20  C   UNL     1      -6.091   0.591 -32.445  1.00  0.00     0.215 C 
BRANCH  20  21
HETATM   21  O   UNL     1      -5.953   0.209 -33.812  1.00  0.00    -0.347 OA
BRANCH  21  22
HETATM   22  C   UNL     1      -5.713  -1.112 -34.071  1.00  0.00     0.069 A 
HETATM   23  C   UNL     1      -4.480  -1.763 -33.959  1.00  0.00     0.040 A 
HETATM   24  C   UNL     1      -4.381  -3.127 -34.252  1.00  0.00     0.045 A 
HETATM   25  C   UNL     1      -5.509  -3.831 -34.656  1.00  0.00     0.116 A 
HETATM   26  F   UNL     1      -5.407  -5.137 -34.935  1.00  0.00    -0.206 F 
HETATM   27  C   UNL     1      -6.738  -3.198 -34.773  1.00  0.00     0.045 A 
HETATM   28  C   UNL     1      -6.838  -1.837 -34.480  1.00  0.00     0.040 A 
ENDBRANCH  21  22
ENDBRANCH  20  21
ENDBRANCH  18  20
ENDBRANCH   8  14
BRANCH  12  29
HETATM   29  N   UNL     1      -1.738   7.633 -33.554  1.00  0.00    -0.282 NA
HETATM   30  H   UNL     1      -1.896   7.446 -34.542  1.00  0.00     0.126 HD
HETATM   31  H   UNL     1      -0.781   7.455 -33.264  1.00  0.00     0.126 HD
ENDBRANCH  12  29
TORSDOF 5
ENDMDL
MODEL 2
REMARK VINA RESULT:      -8.4      4.688      6.497
REMARK  5 active torsions:
REMARK  status: ('A' for Active; 'I' for Inactive)
REMARK    1  A    between atoms: C_8  and  C_9 
REMARK    2  A    between atoms: C_13  and  C_14 
REMARK    3  A    between atoms: C_14  and  O_15 
REMARK    4  A    between atoms: O_15  and  C_16 
REMARK    5  A    between atoms: C_27  and  N_28 
ROOT
HETATM    1  C   UNL     1      -7.892   5.078 -32.576  1.00  0.00     0.073 C 
HETATM    2  C   UNL     1      -8.928   5.059 -33.636  1.00  0.00     0.062 A 
HETATM    3  N   UNL     1      -9.030   6.081 -34.503  1.00  0.00    -0.177 NA
HETATM    4  N   UNL     1     -10.057   5.735 -35.308  1.00  0.00    -0.256 N 
HETATM    5  H   UNL     1     -10.333   6.369 -36.050  1.00  0.00     0.191 HD
HETATM    6  C   UNL     1     -10.590   4.529 -34.987  1.00  0.00     0.175 A 
HETATM    7  C   UNL     1      -9.887   4.056 -33.911  1.00  0.00     0.035 A 
HETATM    8  C   UNL     1     -10.229   2.738 -33.298  1.00  0.00     0.111 A 
HETATM    9  C   UNL     1     -11.397   2.109 -34.078  1.00  0.00     0.067 A 
HETATM   10  C   UNL     1     -11.834   0.731 -33.610  1.00  0.00     0.020 C 
HETATM   11  N   UNL     1     -12.196  -0.413 -33.222  1.00  0.00    -0.096 N 
HETATM   12  C   UNL     1     -12.007   2.696 -35.141  1.00  0.00     0.139 A 
HETATM   13  O   UNL     1     -11.604   3.955 -35.623  1.00  0.00    -0.279 OA
ENDROOT
BRANCH   8  14
HETATM   14  C   UNL     1      -9.011   1.836 -33.196  1.00  0.00    -0.003 A 
HETATM   15  S   UNL     1      -8.407   1.399 -31.654  1.00  0.00    -0.098 SA
HETATM   16  C   UNL     1      -7.201   0.391 -32.323  1.00  0.00    -0.013 A 
HETATM   17  C   UNL     1      -6.306  -0.387 -31.415  1.00  0.00     0.057 C 
HETATM   18  C   UNL     1      -7.196   0.430 -33.709  1.00  0.00    -0.020 A 
HETATM   19  C   UNL     1      -8.265   1.250 -34.203  1.00  0.00     0.026 A 
BRANCH  18  20
HETATM   20  C   UNL     1      -6.219  -0.302 -34.592  1.00  0.00     0.215 C 
BRANCH  20  21
HETATM   21  O   UNL     1      -6.722  -1.594 -34.927  1.00  0.00    -0.347 OA
BRANCH  21  22
HETATM   22  C   UNL     1      -5.928  -2.669 -34.638  1.00  0.00     0.069 A 
HETATM   23  C   UNL     1      -6.203  -4.005 -34.947  1.00  0.00     0.040 A 
HETATM   24  C   UNL     1      -5.292  -5.006 -34.596  1.00  0.00     0.045 A 
HETATM   25  C   UNL     1      -4.116  -4.669 -33.936  1.00  0.00     0.116 A 
HETATM   26  F   UNL     1      -3.248  -5.632 -33.601  1.00  0.00    -0.206 F 
HETATM   27  C   UNL     1      -3.830  -3.348 -33.621  1.00  0.00     0.045 A 
HETATM   28  C   UNL     1      -4.738  -2.349 -33.973  1.00  0.00     0.040 A 
ENDBRANCH  21  22
ENDBRANCH  20  21
ENDBRANCH  18  20
ENDBRANCH   8  14
BRANCH  12  29
HETATM   29  N   UNL     1     -13.046   2.157 -35.864  1.00  0.00    -0.282 NA
HETATM   30  H   UNL     1     -12.981   2.259 -36.874  1.00  0.00     0.126 HD
HETATM   31  H   UNL     1     -13.953   2.431 -35.495  1.00  0.00     0.126 HD
ENDBRANCH  12  29
TORSDOF 5
ENDMDL
MODEL 3
REMARK VINA RESULT:      -8.4      4.342      7.852
REMARK  5 active torsions:
REMARK  status: ('A' for Active; 'I' for Inactive)
REMARK    1  A    between atoms: C_8  and  C_9 
REMARK    2  A    between atoms: C_13  and  C_14 
REMARK    3  A    between atoms: C_14  and  O_15 
REMARK    4  A    between atoms: O_15  and  C_16 
REMARK    5  A    between atoms: C_27  and  N_28 
ROOT
HETATM    1  C   UNL     1      -9.397   2.604 -31.011  1.00  0.00     0.073 C 
HETATM    2  C   UNL     1      -9.034   1.468 -31.893  1.00  0.00     0.062 A 
HETATM    3  N   UNL     1      -9.949   0.929 -32.716  1.00  0.00    -0.177 NA
HETATM    4  N   UNL     1      -9.285  -0.059 -33.353  1.00  0.00    -0.256 N 
HETATM    5  H   UNL     1      -9.781  -0.625 -34.031  1.00  0.00     0.191 HD
HETATM    6  C   UNL     1      -7.986  -0.147 -32.970  1.00  0.00     0.175 A 
HETATM    7  C   UNL     1      -7.781   0.826 -32.028  1.00  0.00     0.035 A 
HETATM    8  C   UNL     1      -6.442   0.997 -31.389  1.00  0.00     0.111 A 
HETATM    9  C   UNL     1      -5.467  -0.035 -31.983  1.00  0.00     0.067 A 
HETATM   10  C   UNL     1      -4.038   0.043 -31.473  1.00  0.00     0.020 C 
HETATM   11  N   UNL     1      -2.851   0.107 -31.051  1.00  0.00    -0.096 N 
HETATM   12  C   UNL     1      -5.808  -0.951 -32.926  1.00  0.00     0.139 A 
HETATM   13  O   UNL     1      -7.113  -1.027 -33.446  1.00  0.00    -0.279 OA
ENDROOT
BRANCH   8  14
HETATM   14  C   UNL     1      -5.951   2.431 -31.497  1.00  0.00    -0.003 A 
HETATM   15  S   UNL     1      -5.594   3.313 -30.073  1.00  0.00    -0.098 SA
HETATM   16  C   UNL     1      -5.062   4.675 -30.954  1.00  0.00    -0.013 A 
HETATM   17  C   UNL     1      -4.523   5.860 -30.222  1.00  0.00     0.057 C 
HETATM   18  C   UNL     1      -5.215   4.507 -32.322  1.00  0.00    -0.020 A 
HETATM   19  C   UNL     1      -5.706   3.192 -32.624  1.00  0.00     0.026 A 
BRANCH  18  20
HETATM   20  C   UNL     1      -4.892   5.546 -33.364  1.00  0.00     0.215 C 
BRANCH  20  21
HETATM   21  O   UNL     1      -3.628   5.270 -33.967  1.00  0.00    -0.347 OA
BRANCH  21  22
HETATM   22  C   UNL     1      -2.510   5.636 -33.271  1.00  0.00     0.069 A 
HETATM   23  C   UNL     1      -1.659   4.778 -32.568  1.00  0.00     0.040 A 
HETATM   24  C   UNL     1      -0.541   5.293 -31.903  1.00  0.00     0.045 A 
HETATM   25  C   UNL     1      -0.282   6.657 -31.942  1.00  0.00     0.116 A 
HETATM   26  F   UNL     1       0.790   7.144 -31.303  1.00  0.00    -0.206 F 
HETATM   27  C   UNL     1      -1.118   7.521 -32.634  1.00  0.00     0.045 A 
HETATM   28  C   UNL     1      -2.233   7.008 -33.299  1.00  0.00     0.040 A 
ENDBRANCH  21  22
ENDBRANCH  20  21
ENDBRANCH  18  20
ENDBRANCH   8  14
BRANCH  12  29
HETATM   29  N   UNL     1      -4.959  -1.880 -33.483  1.00  0.00    -0.282 NA
HETATM   30  H   UNL     1      -4.343  -1.532 -34.214  1.00  0.00     0.126 HD
HETATM   31  H   UNL     1      -5.443  -2.734 -33.745  1.00  0.00     0.126 HD
ENDBRANCH  12  29
TORSDOF 5
ENDMDL
MODEL 4
REMARK VINA RESULT:      -8.4      3.264      4.573
REMARK  5 active torsions:
REMARK  status: ('A' for Active; 'I' for Inactive)
REMARK    1  A    between atoms: C_8  and  C_9 
REMARK    2  A    between atoms: C_13  and  C_14 
REMARK    3  A    between atoms: C_14  and  O_15 
REMARK    4  A    between atoms: O_15  and  C_16 
REMARK    5  A    between atoms: C_27  and  N_28 
ROOT
HETATM    1  C   UNL     1      -8.926   0.775 -34.543  1.00  0.00     0.073 C 
HETATM    2  C   UNL     1      -9.314   2.162 -34.191  1.00  0.00     0.062 A 
HETATM    3  N   UNL     1     -10.611   2.513 -34.144  1.00  0.00    -0.177 NA
HETATM    4  N   UNL     1     -10.592   3.818 -33.802  1.00  0.00    -0.256 N 
HETATM    5  H   UNL     1     -11.471   4.315 -33.711  1.00  0.00     0.191 HD
HETATM    6  C   UNL     1      -9.333   4.292 -33.618  1.00  0.00     0.175 A 
HETATM    7  C   UNL     1      -8.476   3.251 -33.858  1.00  0.00     0.035 A 
HETATM    8  C   UNL     1      -6.999   3.441 -33.749  1.00  0.00     0.111 A 
HETATM    9  C   UNL     1      -6.708   4.894 -33.333  1.00  0.00     0.067 A 
HETATM   10  C   UNL     1      -5.243   5.238 -33.125  1.00  0.00     0.020 C 
HETATM   11  N   UNL     1      -4.027   5.523 -32.952  1.00  0.00    -0.096 N 
HETATM   12  C   UNL     1      -7.668   5.833 -33.123  1.00  0.00     0.139 A 
HETATM   13  O   UNL     1      -9.036   5.539 -33.271  1.00  0.00    -0.279 OA
ENDROOT
BRANCH   8  14
HETATM   14  C   UNL     1      -6.369   2.408 -32.829  1.00  0.00    -0.003 A 
HETATM   15  S   UNL     1      -6.724   2.438 -31.154  1.00  0.00    -0.098 SA
HETATM   16  C   UNL     1      -5.797   1.037 -30.851  1.00  0.00    -0.013 A 
HETATM   17  C   UNL     1      -5.750   0.470 -29.469  1.00  0.00     0.057 C 
HETATM   18  C   UNL     1      -5.156   0.576 -31.991  1.00  0.00    -0.020 A 
HETATM   19  C   UNL     1      -5.516   1.364 -33.135  1.00  0.00     0.026 A 
BRANCH  18  20
HETATM   20  C   UNL     1      -4.221  -0.604 -32.041  1.00  0.00     0.215 C 
BRANCH  20  21
HETATM   21  O   UNL     1      -3.948  -0.966 -33.394  1.00  0.00    -0.347 OA
BRANCH  21  22
HETATM   22  C   UNL     1      -4.577  -2.077 -33.882  1.00  0.00     0.069 A 
HETATM   23  C   UNL     1      -4.067  -3.379 -33.886  1.00  0.00     0.040 A 
HETATM   24  C   UNL     1      -4.827  -4.427 -34.415  1.00  0.00     0.045 A 
HETATM   25  C   UNL     1      -6.088  -4.169 -34.940  1.00  0.00     0.116 A 
HETATM   26  F   UNL     1      -6.811  -5.176 -35.446  1.00  0.00    -0.206 F 
HETATM   27  C   UNL     1      -6.607  -2.882 -34.945  1.00  0.00     0.045 A 
HETATM   28  C   UNL     1      -5.849  -1.837 -34.415  1.00  0.00     0.040 A 
ENDBRANCH  21  22
ENDBRANCH  20  21
ENDBRANCH  18  20
ENDBRANCH   8  14
BRANCH  12  29
HETATM   29  N   UNL     1      -7.441   7.136 -32.743  1.00  0.00    -0.282 NA
HETATM   30  H   UNL     1      -7.734   7.847 -33.408  1.00  0.00     0.126 HD
HETATM   31  H   UNL     1      -6.494   7.276 -32.402  1.00  0.00     0.126 HD
ENDBRANCH  12  29
TORSDOF 5
ENDMDL
MODEL 5
REMARK VINA RESULT:      -8.3      5.806      7.634
REMARK  5 active torsions:
REMARK  status: ('A' for Active; 'I' for Inactive)
REMARK    1  A    between atoms: C_8  and  C_9 
REMARK    2  A    between atoms: C_13  and  C_14 
REMARK    3  A    between atoms: C_14  and  O_15 
REMARK    4  A    between atoms: O_15  and  C_16 
REMARK    5  A    between atoms: C_27  and  N_28 
ROOT
HETATM    1  C   UNL     1     -12.221   1.897 -35.915  1.00  0.00     0.073 C 
HETATM    2  C   UNL     1     -13.039   2.087 -34.692  1.00  0.00     0.062 A 
HETATM    3  N   UNL     1     -14.231   1.480 -34.573  1.00  0.00    -0.177 NA
HETATM    4  N   UNL     1     -14.686   1.870 -33.363  1.00  0.00    -0.256 N 
HETATM    5  H   UNL     1     -15.591   1.540 -33.050  1.00  0.00     0.191 HD
HETATM    6  C   UNL     1     -13.815   2.684 -32.715  1.00  0.00     0.175 A 
HETATM    7  C   UNL     1     -12.733   2.848 -33.540  1.00  0.00     0.035 A 
HETATM    8  C   UNL     1     -11.582   3.705 -33.126  1.00  0.00     0.111 A 
HETATM    9  C   UNL     1     -11.857   4.269 -31.720  1.00  0.00     0.067 A 
HETATM   10  C   UNL     1     -10.750   5.123 -31.127  1.00  0.00     0.020 C 
HETATM   11  N   UNL     1      -9.831   5.833 -30.634  1.00  0.00    -0.096 N 
HETATM   12  C   UNL     1     -12.986   4.018 -31.006  1.00  0.00     0.139 A 
HETATM   13  O   UNL     1     -14.015   3.202 -31.509  1.00  0.00    -0.279 OA
ENDROOT
BRANCH   8  14
HETATM   14  C   UNL     1     -10.263   2.959 -33.235  1.00  0.00    -0.003 A 
HETATM   15  S   UNL     1      -8.890   3.757 -33.875  1.00  0.00    -0.098 SA
HETATM   16  C   UNL     1      -7.879   2.408 -33.602  1.00  0.00    -0.013 A 
HETATM   17  C   UNL     1      -6.423   2.503 -33.923  1.00  0.00     0.057 C 
HETATM   18  C   UNL     1      -8.579   1.324 -33.096  1.00  0.00    -0.020 A 
HETATM   19  C   UNL     1      -9.954   1.664 -32.863  1.00  0.00     0.026 A 
BRANCH  18  20
HETATM   20  C   UNL     1      -7.984  -0.029 -32.803  1.00  0.00     0.215 C 
BRANCH  20  21
HETATM   21  O   UNL     1      -7.908  -0.808 -33.996  1.00  0.00    -0.347 OA
BRANCH  21  22
HETATM   22  C   UNL     1      -6.856  -1.674 -34.111  1.00  0.00     0.069 A 
HETATM   23  C   UNL     1      -6.904  -2.963 -34.652  1.00  0.00     0.040 A 
HETATM   24  C   UNL     1      -5.743  -3.740 -34.712  1.00  0.00     0.045 A 
HETATM   25  C   UNL     1      -4.544  -3.229 -34.230  1.00  0.00     0.116 A 
HETATM   26  F   UNL     1      -3.436  -3.979 -34.290  1.00  0.00    -0.206 F 
HETATM   27  C   UNL     1      -4.481  -1.953 -33.688  1.00  0.00     0.045 A 
HETATM   28  C   UNL     1      -5.639  -1.177 -33.630  1.00  0.00     0.040 A 
ENDBRANCH  21  22
ENDBRANCH  20  21
ENDBRANCH  18  20
ENDBRANCH   8  14
BRANCH  12  29
HETATM   29  N   UNL     1     -13.256   4.499 -29.745  1.00  0.00    -0.282 NA
HETATM   30  H   UNL     1     -13.383   5.506 -29.675  1.00  0.00     0.126 HD
HETATM   31  H   UNL     1     -12.615   4.131 -29.048  1.00  0.00     0.126 HD
ENDBRANCH  12  29
TORSDOF 5
ENDMDL
MODEL 6
REMARK VINA RESULT:      -8.2      4.673      8.126
REMARK  5 active torsions:
REMARK  status: ('A' for Active; 'I' for Inactive)
REMARK    1  A    between atoms: C_8  and  C_9 
REMARK    2  A    between atoms: C_13  and  C_14 
REMARK    3  A    between atoms: C_14  and  O_15 
REMARK    4  A    between atoms: O_15  and  C_16 
REMARK    5  A    between atoms: C_27  and  N_28 
ROOT
HETATM    1  C   UNL     1      -6.842   3.897 -29.654  1.00  0.00     0.073 C 
HETATM    2  C   UNL     1      -7.659   2.895 -30.382  1.00  0.00     0.062 A 
HETATM    3  N   UNL     1      -9.000   2.949 -30.333  1.00  0.00    -0.177 NA
HETATM    4  N   UNL     1      -9.404   1.907 -31.090  1.00  0.00    -0.256 N 
HETATM    5  H   UNL     1     -10.397   1.734 -31.197  1.00  0.00     0.191 HD
HETATM    6  C   UNL     1      -8.366   1.215 -31.623  1.00  0.00     0.175 A 
HETATM    7  C   UNL     1      -7.217   1.823 -31.191  1.00  0.00     0.035 A 
HETATM    8  C   UNL     1      -5.879   1.298 -31.596  1.00  0.00     0.111 A 
HETATM    9  C   UNL     1      -6.075   0.078 -32.515  1.00  0.00     0.067 A 
HETATM   10  C   UNL     1      -4.801  -0.545 -33.061  1.00  0.00     0.020 C 
HETATM   11  N   UNL     1      -3.744  -1.062 -33.514  1.00  0.00    -0.096 N 
HETATM   12  C   UNL     1      -7.288  -0.422 -32.868  1.00  0.00     0.139 A 
HETATM   13  O   UNL     1      -8.488   0.152 -32.410  1.00  0.00    -0.279 OA
ENDROOT
BRANCH   8  14
HETATM   14  C   UNL     1      -5.013   2.386 -32.207  1.00  0.00    -0.003 A 
HETATM   15  S   UNL     1      -5.617   3.316 -33.512  1.00  0.00    -0.098 SA
HETATM   16  C   UNL     1      -4.219   4.296 -33.565  1.00  0.00    -0.013 A 
HETATM   17  C   UNL     1      -4.152   5.429 -34.537  1.00  0.00     0.057 C 
HETATM   18  C   UNL     1      -3.259   3.888 -32.652  1.00  0.00    -0.020 A 
HETATM   19  C   UNL     1      -3.741   2.798 -31.853  1.00  0.00     0.026 A 
BRANCH  18  20
HETATM   20  C   UNL     1      -1.896   4.511 -32.493  1.00  0.00     0.215 C 
BRANCH  20  21
HETATM   21  O   UNL     1      -1.345   4.184 -31.218  1.00  0.00    -0.347 OA
BRANCH  21  22
HETATM   22  C   UNL     1      -0.774   5.201 -30.505  1.00  0.00     0.069 A 
HETATM   23  C   UNL     1       0.322   5.089 -29.643  1.00  0.00     0.040 A 
HETATM   24  C   UNL     1       0.808   6.221 -28.979  1.00  0.00     0.045 A 
HETATM   25  C   UNL     1       0.198   7.453 -29.178  1.00  0.00     0.116 A 
HETATM   26  F   UNL     1       0.668   8.533 -28.540  1.00  0.00    -0.206 F 
HETATM   27  C   UNL     1      -0.891   7.580 -30.029  1.00  0.00     0.045 A 
HETATM   28  C   UNL     1      -1.375   6.451 -30.692  1.00  0.00     0.040 A 
ENDBRANCH  21  22
ENDBRANCH  20  21
ENDBRANCH  18  20
ENDBRANCH   8  14
BRANCH  12  29
HETATM   29  N   UNL     1      -7.496  -1.504 -33.693  1.00  0.00    -0.282 NA
HETATM   30  H   UNL     1      -7.890  -1.292 -34.607  1.00  0.00     0.126 HD
HETATM   31  H   UNL     1      -7.980  -2.261 -33.218  1.00  0.00     0.126 HD
ENDBRANCH  12  29
TORSDOF 5
ENDMDL
MODEL 7
REMARK VINA RESULT:      -8.2      2.814      4.037
REMARK  5 active torsions:
REMARK  status: ('A' for Active; 'I' for Inactive)
REMARK    1  A    between atoms: C_8  and  C_9 
REMARK    2  A    between atoms: C_13  and  C_14 
REMARK    3  A    between atoms: C_14  and  O_15 
REMARK    4  A    between atoms: O_15  and  C_16 
REMARK    5  A    between atoms: C_27  and  N_28 
ROOT
HETATM    1  C   UNL     1      -4.571   0.561 -30.516  1.00  0.00     0.073 C 
HETATM    2  C   UNL     1      -4.219   1.899 -31.051  1.00  0.00     0.062 A 
HETATM    3  N   UNL     1      -2.936   2.218 -31.291  1.00  0.00    -0.177 NA
HETATM    4  N   UNL     1      -2.987   3.483 -31.758  1.00  0.00    -0.256 N 
HETATM    5  H   UNL     1      -2.122   3.950 -32.004  1.00  0.00     0.191 HD
HETATM    6  C   UNL     1      -4.255   3.961 -31.836  1.00  0.00     0.175 A 
HETATM    7  C   UNL     1      -5.084   2.966 -31.389  1.00  0.00     0.035 A 
HETATM    8  C   UNL     1      -6.562   3.172 -31.337  1.00  0.00     0.111 A 
HETATM    9  C   UNL     1      -6.891   4.582 -31.859  1.00  0.00     0.067 A 
HETATM   10  C   UNL     1      -8.368   4.932 -31.922  1.00  0.00     0.020 C 
HETATM   11  N   UNL     1      -9.594   5.222 -31.975  1.00  0.00    -0.096 N 
HETATM   12  C   UNL     1      -5.957   5.477 -32.279  1.00  0.00     0.139 A 
HETATM   13  O   UNL     1      -4.584   5.172 -32.268  1.00  0.00    -0.279 OA
ENDROOT
BRANCH   8  14
HETATM   14  C   UNL     1      -7.307   2.066 -32.064  1.00  0.00    -0.003 A 
HETATM   15  S   UNL     1      -8.803   1.505 -31.447  1.00  0.00    -0.098 SA
HETATM   16  C   UNL     1      -9.029   0.429 -32.754  1.00  0.00    -0.013 A 
HETATM   17  C   UNL     1     -10.284  -0.378 -32.834  1.00  0.00     0.057 C 
HETATM   18  C   UNL     1      -7.951   0.429 -33.626  1.00  0.00    -0.020 A 
HETATM   19  C   UNL     1      -6.972   1.401 -33.229  1.00  0.00     0.026 A 
BRANCH  18  20
HETATM   20  C   UNL     1      -7.821  -0.450 -34.842  1.00  0.00     0.215 C 
BRANCH  20  21
HETATM   21  O   UNL     1      -6.451  -0.765 -35.084  1.00  0.00    -0.347 OA
BRANCH  21  22
HETATM   22  C   UNL     1      -6.051  -2.049 -34.836  1.00  0.00     0.069 A 
HETATM   23  C   UNL     1      -6.806  -3.205 -35.059  1.00  0.00     0.040 A 
HETATM   24  C   UNL     1      -6.266  -4.461 -34.764  1.00  0.00     0.045 A 
HETATM   25  C   UNL     1      -4.980  -4.555 -34.246  1.00  0.00     0.116 A 
HETATM   26  F   UNL     1      -4.468  -5.760 -33.965  1.00  0.00    -0.206 F 
HETATM   27  C   UNL     1      -4.219  -3.417 -34.018  1.00  0.00     0.045 A 
HETATM   28  C   UNL     1      -4.757  -2.164 -34.315  1.00  0.00     0.040 A 
ENDBRANCH  21  22
ENDBRANCH  20  21
ENDBRANCH  18  20
ENDBRANCH   8  14
BRANCH  12  29
HETATM   29  N   UNL     1      -6.219   6.739 -32.759  1.00  0.00    -0.282 NA
HETATM   30  H   UNL     1      -5.405   7.322 -32.935  1.00  0.00     0.126 HD
HETATM   31  H   UNL     1      -6.938   7.213 -32.218  1.00  0.00     0.126 HD
ENDBRANCH  12  29
TORSDOF 5
ENDMDL
MODEL 8
REMARK VINA RESULT:      -8.1      5.013      6.477
REMARK  5 active torsions:
REMARK  status: ('A' for Active; 'I' for Inactive)
REMARK    1  A    between atoms: C_8  and  C_9 
REMARK    2  A    between atoms: C_13  and  C_14 
REMARK    3  A    between atoms: C_14  and  O_15 
REMARK    4  A    between atoms: O_15  and  C_16 
REMARK    5  A    between atoms: C_27  and  N_28 
ROOT
HETATM    1  C   UNL     1     -11.985   1.291 -34.752  1.00  0.00     0.073 C 
HETATM    2  C   UNL     1     -12.414   2.136 -33.611  1.00  0.00     0.062 A 
HETATM    3  N   UNL     1     -13.642   1.991 -33.084  1.00  0.00    -0.177 NA
HETATM    4  N   UNL     1     -13.688   2.902 -32.089  1.00  0.00    -0.256 N 
HETATM    5  H   UNL     1     -14.537   2.988 -31.542  1.00  0.00     0.191 HD
HETATM    6  C   UNL     1     -12.530   3.597 -31.962  1.00  0.00     0.175 A 
HETATM    7  C   UNL     1     -11.677   3.130 -32.927  1.00  0.00     0.035 A 
HETATM    8  C   UNL     1     -10.303   3.698 -33.069  1.00  0.00     0.111 A 
HETATM    9  C   UNL     1     -10.093   4.779 -31.994  1.00  0.00     0.067 A 
HETATM   10  C   UNL     1      -8.716   5.421 -31.967  1.00  0.00     0.020 C 
HETATM   11  N   UNL     1      -7.574   5.954 -31.945  1.00  0.00    -0.096 N 
HETATM   12  C   UNL     1     -11.036   5.144 -31.086  1.00  0.00     0.139 A 
HETATM   13  O   UNL     1     -12.309   4.545 -31.059  1.00  0.00    -0.279 OA
ENDROOT
BRANCH   8  14
HETATM   14  C   UNL     1      -9.244   2.609 -33.050  1.00  0.00    -0.003 A 
HETATM   15  S   UNL     1      -8.715   1.967 -31.553  1.00  0.00    -0.098 SA
HETATM   16  C   UNL     1      -7.687   0.833 -32.310  1.00  0.00    -0.013 A 
HETATM   17  C   UNL     1      -6.926  -0.143 -31.474  1.00  0.00     0.057 C 
HETATM   18  C   UNL     1      -7.677   0.975 -33.690  1.00  0.00    -0.020 A 
HETATM   19  C   UNL     1      -8.603   1.989 -34.107  1.00  0.00     0.026 A 
BRANCH  18  20
HETATM   20  C   UNL     1      -6.831   0.165 -34.637  1.00  0.00     0.215 C 
BRANCH  20  21
HETATM   21  O   UNL     1      -7.364  -1.151 -34.780  1.00  0.00    -0.347 OA
BRANCH  21  22
HETATM   22  C   UNL     1      -6.495  -2.197 -34.634  1.00  0.00     0.069 A 
HETATM   23  C   UNL     1      -6.768  -3.540 -34.911  1.00  0.00     0.040 A 
HETATM   24  C   UNL     1      -5.777  -4.508 -34.721  1.00  0.00     0.045 A 
HETATM   25  C   UNL     1      -4.523  -4.132 -34.255  1.00  0.00     0.116 A 
HETATM   26  F   UNL     1      -3.579  -5.064 -34.075  1.00  0.00    -0.206 F 
HETATM   27  C   UNL     1      -4.238  -2.803 -33.974  1.00  0.00     0.045 A 
HETATM   28  C   UNL     1      -5.227  -1.836 -34.165  1.00  0.00     0.040 A 
ENDBRANCH  21  22
ENDBRANCH  20  21
ENDBRANCH  18  20
ENDBRANCH   8  14
BRANCH  12  29
HETATM   29  N   UNL     1     -10.877   6.099 -30.108  1.00  0.00    -0.282 NA
HETATM   30  H   UNL     1     -11.340   5.907 -29.223  1.00  0.00     0.126 HD
HETATM   31  H   UNL     1     -11.058   7.037 -30.455  1.00  0.00     0.126 HD
ENDBRANCH  12  29
TORSDOF 5
ENDMDL
MODEL 9
REMARK VINA RESULT:      -7.7      1.566      2.215
REMARK  5 active torsions:
REMARK  status: ('A' for Active; 'I' for Inactive)
REMARK    1  A    between atoms: C_8  and  C_9 
REMARK    2  A    between atoms: C_13  and  C_14 
REMARK    3  A    between atoms: C_14  and  O_15 
REMARK    4  A    between atoms: O_15  and  C_16 
REMARK    5  A    between atoms: C_27  and  N_28 
ROOT
HETATM    1  C   UNL     1      -6.993   6.400 -29.406  1.00  0.00     0.073 C 
HETATM    2  C   UNL     1      -5.512   6.439 -29.477  1.00  0.00     0.062 A 
HETATM    3  N   UNL     1      -4.786   6.676 -28.372  1.00  0.00    -0.177 NA
HETATM    4  N   UNL     1      -3.506   6.642 -28.799  1.00  0.00    -0.256 N 
HETATM    5  H   UNL     1      -2.762   6.806 -28.131  1.00  0.00     0.191 HD
HETATM    6  C   UNL     1      -3.405   6.376 -30.126  1.00  0.00     0.175 A 
HETATM    7  C   UNL     1      -4.681   6.236 -30.603  1.00  0.00     0.035 A 
HETATM    8  C   UNL     1      -4.927   5.943 -32.047  1.00  0.00     0.111 A 
HETATM    9  C   UNL     1      -3.574   5.830 -32.773  1.00  0.00     0.067 A 
HETATM   10  C   UNL     1      -3.648   5.479 -34.249  1.00  0.00     0.020 C 
HETATM   11  N   UNL     1      -3.710   5.187 -35.475  1.00  0.00    -0.096 N 
HETATM   12  C   UNL     1      -2.368   5.992 -32.168  1.00  0.00     0.139 A 
HETATM   13  O   UNL     1      -2.262   6.281 -30.795  1.00  0.00    -0.279 OA
ENDROOT
BRANCH   8  14
HETATM   14  C   UNL     1      -5.817   4.725 -32.227  1.00  0.00    -0.003 A 
HETATM   15  S   UNL     1      -7.207   4.832 -33.222  1.00  0.00    -0.098 SA
HETATM   16  C   UNL     1      -7.586   3.181 -33.007  1.00  0.00    -0.013 A 
HETATM   17  C   UNL     1      -8.756   2.595 -33.727  1.00  0.00     0.057 C 
HETATM   18  C   UNL     1      -6.714   2.554 -32.130  1.00  0.00    -0.020 A 
HETATM   19  C   UNL     1      -5.679   3.452 -31.705  1.00  0.00     0.026 A 
BRANCH  18  20
HETATM   20  C   UNL     1      -6.815   1.116 -31.690  1.00  0.00     0.215 C 
BRANCH  20  21
HETATM   21  O   UNL     1      -5.634   0.401 -32.051  1.00  0.00    -0.347 OA
BRANCH  21  22
HETATM   22  C   UNL     1      -5.772  -0.618 -32.951  1.00  0.00     0.069 A 
HETATM   23  C   UNL     1      -6.933  -0.940 -33.661  1.00  0.00     0.040 A 
HETATM   24  C   UNL     1      -6.929  -2.012 -34.560  1.00  0.00     0.045 A 
HETATM   25  C   UNL     1      -5.770  -2.756 -34.742  1.00  0.00     0.116 A 
HETATM   26  F   UNL     1      -5.772  -3.781 -35.604  1.00  0.00    -0.206 F 
HETATM   27  C   UNL     1      -4.610  -2.450 -34.043  1.00  0.00     0.045 A 
HETATM   28  C   UNL     1      -4.614  -1.380 -33.148  1.00  0.00     0.040 A 
ENDBRANCH  21  22
ENDBRANCH  20  21
ENDBRANCH  18  20
ENDBRANCH   8  14
BRANCH  12  29
HETATM   29  N   UNL     1      -1.143   5.888 -32.786  1.00  0.00    -0.282 NA
HETATM   30  H   UNL     1      -0.485   5.242 -32.357  1.00  0.00     0.126 HD
HETATM   31  H   UNL     1      -0.735   6.798 -32.984  1.00  0.00     0.126 HD
ENDBRANCH  12  29
TORSDOF 5
ENDMDL
MODEL 10
REMARK VINA RESULT:      -7.7      3.256      4.433
REMARK  5 active torsions:
REMARK  status: ('A' for Active; 'I' for Inactive)
REMARK    1  A    between atoms: C_8  and  C_9 
REMARK    2  A    between atoms: C_13  and  C_14 
REMARK    3  A    between atoms: C_14  and  O_15 
REMARK    4  A    between atoms: O_15  and  C_16 
REMARK    5  A    between atoms: C_27  and  N_28 
ROOT
HETATM    1  C   UNL     1      -6.196   0.273 -29.836  1.00  0.00     0.073 C 
HETATM    2  C   UNL     1      -4.958   0.817 -30.445  1.00  0.00     0.062 A 
HETATM    3  N   UNL     1      -3.969  -0.009 -30.824  1.00  0.00    -0.177 NA
HETATM    4  N   UNL     1      -3.021   0.812 -31.323  1.00  0.00    -0.256 N 
HETATM    5  H   UNL     1      -2.157   0.410 -31.670  1.00  0.00     0.191 HD
HETATM    6  C   UNL     1      -3.388   2.117 -31.287  1.00  0.00     0.175 A 
HETATM    7  C   UNL     1      -4.637   2.165 -30.728  1.00  0.00     0.035 A 
HETATM    8  C   UNL     1      -5.335   3.471 -30.533  1.00  0.00     0.111 A 
HETATM    9  C   UNL     1      -4.438   4.604 -31.064  1.00  0.00     0.067 A 
HETATM   10  C   UNL     1      -5.030   6.001 -30.988  1.00  0.00     0.020 C 
HETATM   11  N   UNL     1      -5.521   7.161 -30.925  1.00  0.00    -0.096 N 
HETATM   12  C   UNL     1      -3.206   4.411 -31.603  1.00  0.00     0.139 A 
HETATM   13  O   UNL     1      -2.643   3.127 -31.722  1.00  0.00    -0.279 OA
ENDROOT
BRANCH   8  14
HETATM   14  C   UNL     1      -6.725   3.458 -31.146  1.00  0.00    -0.003 A 
HETATM   15  S   UNL     1      -8.089   3.769 -30.158  1.00  0.00    -0.098 SA
HETATM   16  C   UNL     1      -9.167   3.678 -31.479  1.00  0.00    -0.013 A 
HETATM   17  C   UNL     1     -10.622   3.938 -31.261  1.00  0.00     0.057 C 
HETATM   18  C   UNL     1      -8.522   3.343 -32.660  1.00  0.00    -0.020 A 
HETATM   19  C   UNL     1      -7.104   3.244 -32.458  1.00  0.00     0.026 A 
BRANCH  18  20
HETATM   20  C   UNL     1      -9.201   3.130 -33.987  1.00  0.00     0.215 C 
BRANCH  20  21
HETATM   21  O   UNL     1      -9.651   1.780 -34.105  1.00  0.00    -0.347 OA
BRANCH  21  22
HETATM   22  C   UNL     1      -8.700   0.799 -34.065  1.00  0.00     0.069 A 
HETATM   23  C   UNL     1      -8.511  -0.124 -33.031  1.00  0.00     0.040 A 
HETATM   24  C   UNL     1      -7.497  -1.083 -33.126  1.00  0.00     0.045 A 
HETATM   25  C   UNL     1      -6.678  -1.113 -34.248  1.00  0.00     0.116 A 
HETATM   26  F   UNL     1      -5.709  -2.033 -34.333  1.00  0.00    -0.206 F 
HETATM   27  C   UNL     1      -6.852  -0.202 -35.281  1.00  0.00     0.045 A 
HETATM   28  C   UNL     1      -7.865   0.753 -35.187  1.00  0.00     0.040 A 
ENDBRANCH  21  22
ENDBRANCH  20  21
ENDBRANCH  18  20
ENDBRANCH   8  14
BRANCH  12  29
HETATM   29  N   UNL     1      -2.385   5.400 -32.094  1.00  0.00    -0.282 NA
HETATM   30  H   UNL     1      -1.494   5.087 -32.472  1.00  0.00     0.126 HD
HETATM   31  H   UNL     1      -2.289   6.176 -31.444  1.00  0.00     0.126 HD
ENDBRANCH  12  29
TORSDOF 5
ENDMDL
