MODEL 1
REMARK VINA RESULT:      -8.6      0.000      0.000
REMARK  4 active torsions:
REMARK  status: ('A' for Active; 'I' for Inactive)
REMARK    1  A    between atoms: S_2  and  C_3 
REMARK    2  A    between atoms: C_5  and  C_6 
REMARK    3  A    between atoms: C_6  and  N_7 
REMARK       I    between atoms: N_7  and  C_8 
REMARK    4  A    between atoms: C_8  and  C_9 
ROOT
HETATM    1  N   UNL     1      -3.349   2.002 -32.618  1.00  0.00    -0.353 N 
HETATM    2  C   UNL     1      -3.592   3.147 -31.900  1.00  0.00     0.254 C 
HETATM    3  O   UNL     1      -4.231   3.169 -30.853  1.00  0.00    -0.268 OA
HETATM    4  H   UNL     1      -2.687   2.025 -33.382  1.00  0.00     0.163 HD
ENDROOT
BRANCH   2   5
HETATM    5  C   UNL     1      -2.940   4.378 -32.432  1.00  0.00     0.058 A 
HETATM    6  C   UNL     1      -1.758   5.068 -31.873  1.00  0.00    -0.003 A 
HETATM    7  C   UNL     1      -1.321   6.266 -32.473  1.00  0.00     0.043 A 
HETATM    8  C   UNL     1      -1.014   4.567 -30.795  1.00  0.00     0.013 A 
HETATM    9  C   UNL     1      -0.207   6.962 -31.985  1.00  0.00     0.018 A 
HETATM   10  C   UNL     1      -2.030   6.791 -33.671  1.00  0.00     0.256 A 
HETATM   11  C   UNL     1       0.499   6.459 -30.896  1.00  0.00     0.001 A 
HETATM   12  C   UNL     1       0.099   5.262 -30.306  1.00  0.00     0.001 A 
HETATM   13  O   UNL     1      -1.693   7.831 -34.225  1.00  0.00    -0.267 OA
HETATM   14  N   UNL     1      -3.084   6.035 -34.129  1.00  0.00    -0.332 N 
HETATM   15  C   UNL     1      -3.523   4.881 -33.533  1.00  0.00     0.109 A 
HETATM   16  H   UNL     1      -3.551   6.388 -34.957  1.00  0.00     0.168 HD
ENDBRANCH   2   5
BRANCH   1  17
HETATM   17  C   UNL     1      -3.738   0.706 -32.106  1.00  0.00     0.161 C 
BRANCH  17  18
HETATM   18  C   UNL     1      -4.652  -0.038 -33.047  1.00  0.00    -0.039 A 
HETATM   19  C   UNL     1      -4.379  -1.374 -33.385  1.00  0.00     0.027 A 
HETATM   20  C   UNL     1      -5.258  -2.117 -34.187  1.00  0.00     0.000 A 
HETATM   21  C   UNL     1      -6.432  -1.513 -34.640  1.00  0.00     0.018 A 
HETATM   22  C   UNL     1      -6.720  -0.187 -34.309  1.00  0.00     0.002 A 
HETATM   23  C   UNL     1      -5.839   0.543 -33.511  1.00  0.00     0.009 A 
BRANCH  20  24
HETATM   24  S   UNL     1      -4.847  -3.828 -34.504  1.00  0.00    -0.134 SA
HETATM   25  C   UNL     1      -6.435  -4.493 -35.071  1.00  0.00     0.095 C 
ENDBRANCH  20  24
ENDBRANCH  17  18
ENDBRANCH   1  17
TORSDOF 4
ENDMDL
MODEL 2
REMARK VINA RESULT:      -8.4      3.273      8.280
REMARK  4 active torsions:
REMARK  status: ('A' for Active; 'I' for Inactive)
REMARK    1  A    between atoms: S_2  and  C_3 
REMARK    2  A    between atoms: C_5  and  C_6 
REMARK    3  A    between atoms: C_6  and  N_7 
REMARK       I    between atoms: N_7  and  C_8 
REMARK    4  A    between atoms: C_8  and  C_9 
ROOT
HETATM    1  N   UNL     1      -3.810   2.504 -32.404  1.00  0.00    -0.353 N 
HETATM    2  C   UNL     1      -4.531   1.559 -31.717  1.00  0.00     0.254 C 
HETATM    3  O   UNL     1      -5.420   1.832 -30.916  1.00  0.00    -0.268 OA
HETATM    4  H   UNL     1      -3.206   2.215 -33.162  1.00  0.00     0.163 HD
ENDROOT
BRANCH   2   5
HETATM    5  C   UNL     1      -4.226   0.144 -32.078  1.00  0.00     0.058 A 
HETATM    6  C   UNL     1      -4.921  -0.683 -33.086  1.00  0.00    -0.003 A 
HETATM    7  C   UNL     1      -4.538  -2.031 -33.244  1.00  0.00     0.043 A 
HETATM    8  C   UNL     1      -5.920  -0.183 -33.935  1.00  0.00     0.013 A 
HETATM    9  C   UNL     1      -5.163  -2.860 -34.185  1.00  0.00     0.018 A 
HETATM   10  C   UNL     1      -3.427  -2.581 -32.423  1.00  0.00     0.256 A 
HETATM   11  C   UNL     1      -6.172  -2.349 -34.996  1.00  0.00     0.001 A 
HETATM   12  C   UNL     1      -6.545  -1.012 -34.875  1.00  0.00     0.001 A 
HETATM   13  O   UNL     1      -3.061  -3.747 -32.518  1.00  0.00    -0.267 OA
HETATM   14  N   UNL     1      -2.824  -1.701 -31.555  1.00  0.00    -0.332 N 
HETATM   15  C   UNL     1      -3.209  -0.397 -31.386  1.00  0.00     0.109 A 
HETATM   16  H   UNL     1      -2.054  -2.077 -31.013  1.00  0.00     0.168 HD
ENDBRANCH   2   5
BRANCH   1  17
HETATM   17  C   UNL     1      -4.147   3.908 -32.312  1.00  0.00     0.161 C 
BRANCH  17  18
HETATM   18  C   UNL     1      -3.040   4.802 -32.811  1.00  0.00    -0.039 A 
HETATM   19  C   UNL     1      -2.095   5.323 -31.911  1.00  0.00     0.027 A 
HETATM   20  C   UNL     1      -1.005   6.085 -32.358  1.00  0.00     0.000 A 
HETATM   21  C   UNL     1      -0.856   6.310 -33.728  1.00  0.00     0.018 A 
HETATM   22  C   UNL     1      -1.784   5.795 -34.636  1.00  0.00     0.002 A 
HETATM   23  C   UNL     1      -2.864   5.039 -34.180  1.00  0.00     0.009 A 
BRANCH  20  24
HETATM   24  S   UNL     1       0.173   6.646 -31.136  1.00  0.00    -0.134 SA
HETATM   25  C   UNL     1       0.625   5.093 -30.315  1.00  0.00     0.095 C 
ENDBRANCH  20  24
ENDBRANCH  17  18
ENDBRANCH   1  17
TORSDOF 4
ENDMDL
MODEL 3
REMARK VINA RESULT:      -8.2      3.550      8.289
REMARK  4 active torsions:
REMARK  status: ('A' for Active; 'I' for Inactive)
REMARK    1  A    between atoms: S_2  and  C_3 
REMARK    2  A    between atoms: C_5  and  C_6 
REMARK    3  A    between atoms: C_6  and  N_7 
REMARK       I    between atoms: N_7  and  C_8 
REMARK    4  A    between atoms: C_8  and  C_9 
ROOT
HETATM    1  N   UNL     1      -3.382   0.994 -31.747  1.00  0.00    -0.353 N 
HETATM    2  C   UNL     1      -4.257   0.010 -31.359  1.00  0.00     0.254 C 
HETATM    3  O   UNL     1      -5.119   0.166 -30.501  1.00  0.00    -0.268 OA
HETATM    4  H   UNL     1      -2.805   0.854 -32.565  1.00  0.00     0.163 HD
ENDROOT
BRANCH   2   5
HETATM    5  C   UNL     1      -4.156  -1.265 -32.127  1.00  0.00     0.058 A 
HETATM    6  C   UNL     1      -5.033  -1.708 -33.231  1.00  0.00    -0.003 A 
HETATM    7  C   UNL     1      -4.827  -2.983 -33.795  1.00  0.00     0.043 A 
HETATM    8  C   UNL     1      -6.040  -0.902 -33.783  1.00  0.00     0.013 A 
HETATM    9  C   UNL     1      -5.629  -3.454 -34.844  1.00  0.00     0.018 A 
HETATM   10  C   UNL     1      -3.717  -3.839 -33.297  1.00  0.00     0.256 A 
HETATM   11  C   UNL     1      -6.641  -2.647 -35.356  1.00  0.00     0.001 A 
HETATM   12  C   UNL     1      -6.841  -1.373 -34.830  1.00  0.00     0.001 A 
HETATM   13  O   UNL     1      -3.502  -4.957 -33.750  1.00  0.00    -0.267 OA
HETATM   14  N   UNL     1      -2.938  -3.298 -32.302  1.00  0.00    -0.332 N 
HETATM   15  C   UNL     1      -3.150  -2.067 -31.738  1.00  0.00     0.109 A 
HETATM   16  H   UNL     1      -2.171  -3.878 -31.980  1.00  0.00     0.168 HD
ENDBRANCH   2   5
BRANCH   1  17
HETATM   17  C   UNL     1      -3.509   2.344 -31.240  1.00  0.00     0.161 C 
BRANCH  17  18
HETATM   18  C   UNL     1      -3.747   3.353 -32.334  1.00  0.00    -0.039 A 
HETATM   19  C   UNL     1      -2.685   4.145 -32.805  1.00  0.00     0.027 A 
HETATM   20  C   UNL     1      -2.858   5.029 -33.880  1.00  0.00     0.000 A 
HETATM   21  C   UNL     1      -4.107   5.104 -34.499  1.00  0.00     0.018 A 
HETATM   22  C   UNL     1      -5.170   4.320 -34.045  1.00  0.00     0.002 A 
HETATM   23  C   UNL     1      -4.988   3.445 -32.975  1.00  0.00     0.009 A 
BRANCH  20  24
HETATM   24  S   UNL     1      -1.427   5.942 -34.441  1.00  0.00    -0.134 SA
HETATM   25  C   UNL     1      -1.519   7.440 -33.424  1.00  0.00     0.095 C 
ENDBRANCH  20  24
ENDBRANCH  17  18
ENDBRANCH   1  17
TORSDOF 4
ENDMDL
MODEL 4
REMARK VINA RESULT:      -8.1      5.989      8.370
REMARK  4 active torsions:
REMARK  status: ('A' for Active; 'I' for Inactive)
REMARK    1  A    between atoms: S_2  and  C_3 
REMARK    2  A    between atoms: C_5  and  C_6 
REMARK    3  A    between atoms: C_6  and  N_7 
REMARK       I    between atoms: N_7  and  C_8 
REMARK    4  A    between atoms: C_8  and  C_9 
ROOT
HETATM    1  N   UNL     1      -7.520   0.435 -34.170  1.00  0.00    -0.353 N 
HETATM    2  C   UNL     1      -8.554   0.692 -33.305  1.00  0.00     0.254 C 
HETATM    3  O   UNL     1      -8.542   0.379 -32.119  1.00  0.00    -0.268 OA
HETATM    4  H   UNL     1      -7.523   0.857 -35.089  1.00  0.00     0.163 HD
ENDROOT
BRANCH   2   5
HETATM    5  C   UNL     1      -9.683   1.477 -33.884  1.00  0.00     0.058 A 
HETATM    6  C   UNL     1     -11.101   1.067 -33.960  1.00  0.00    -0.003 A 
HETATM    7  C   UNL     1     -12.022   1.916 -34.608  1.00  0.00     0.043 A 
HETATM    8  C   UNL     1     -11.593  -0.110 -33.377  1.00  0.00     0.013 A 
HETATM    9  C   UNL     1     -13.377   1.577 -34.709  1.00  0.00     0.018 A 
HETATM   10  C   UNL     1     -11.559   3.214 -35.167  1.00  0.00     0.256 A 
HETATM   11  C   UNL     1     -13.838   0.389 -34.148  1.00  0.00     0.001 A 
HETATM   12  C   UNL     1     -12.948  -0.449 -33.479  1.00  0.00     0.001 A 
HETATM   13  O   UNL     1     -12.319   3.983 -35.745  1.00  0.00    -0.267 OA
HETATM   14  N   UNL     1     -10.227   3.508 -34.990  1.00  0.00    -0.332 N 
HETATM   15  C   UNL     1      -9.327   2.674 -34.379  1.00  0.00     0.109 A 
HETATM   16  H   UNL     1      -9.922   4.403 -35.357  1.00  0.00     0.168 HD
ENDBRANCH   2   5
BRANCH   1  17
HETATM   17  C   UNL     1      -6.274  -0.127 -33.694  1.00  0.00     0.161 C 
BRANCH  17  18
HETATM   18  C   UNL     1      -6.087  -1.561 -34.117  1.00  0.00    -0.039 A 
HETATM   19  C   UNL     1      -4.938  -2.269 -33.722  1.00  0.00     0.027 A 
HETATM   20  C   UNL     1      -4.780  -3.628 -34.028  1.00  0.00     0.000 A 
HETATM   21  C   UNL     1      -5.795  -4.287 -34.723  1.00  0.00     0.018 A 
HETATM   22  C   UNL     1      -6.945  -3.599 -35.118  1.00  0.00     0.002 A 
HETATM   23  C   UNL     1      -7.092  -2.247 -34.810  1.00  0.00     0.009 A 
BRANCH  20  24
HETATM   24  S   UNL     1      -3.310  -4.448 -33.423  1.00  0.00    -0.134 SA
HETATM   25  C   UNL     1      -2.985  -3.544 -31.886  1.00  0.00     0.095 C 
ENDBRANCH  20  24
ENDBRANCH  17  18
ENDBRANCH   1  17
TORSDOF 4
ENDMDL
MODEL 5
REMARK VINA RESULT:      -8.1      3.471      8.246
REMARK  4 active torsions:
REMARK  status: ('A' for Active; 'I' for Inactive)
REMARK    1  A    between atoms: S_2  and  C_3 
REMARK    2  A    between atoms: C_5  and  C_6 
REMARK    3  A    between atoms: C_6  and  N_7 
REMARK       I    between atoms: N_7  and  C_8 
REMARK    4  A    between atoms: C_8  and  C_9 
ROOT
HETATM    1  N   UNL     1      -3.685   1.747 -32.139  1.00  0.00    -0.353 N 
HETATM    2  C   UNL     1      -4.249   0.610 -31.614  1.00  0.00     0.254 C 
HETATM    3  O   UNL     1      -4.460   0.447 -30.417  1.00  0.00    -0.268 OA
HETATM    4  H   UNL     1      -3.684   1.886 -33.140  1.00  0.00     0.163 HD
ENDROOT
BRANCH   2   5
HETATM    5  C   UNL     1      -4.686  -0.401 -32.619  1.00  0.00     0.058 A 
HETATM    6  C   UNL     1      -4.192  -1.787 -32.756  1.00  0.00    -0.003 A 
HETATM    7  C   UNL     1      -4.674  -2.582 -33.816  1.00  0.00     0.043 A 
HETATM    8  C   UNL     1      -3.294  -2.376 -31.853  1.00  0.00     0.013 A 
HETATM    9  C   UNL     1      -4.241  -3.902 -33.993  1.00  0.00     0.018 A 
HETATM   10  C   UNL     1      -5.691  -2.026 -34.749  1.00  0.00     0.256 A 
HETATM   11  C   UNL     1      -3.327  -4.455 -33.100  1.00  0.00     0.001 A 
HETATM   12  C   UNL     1      -2.860  -3.695 -32.030  1.00  0.00     0.001 A 
HETATM   13  O   UNL     1      -6.137  -2.674 -35.689  1.00  0.00    -0.267 OA
HETATM   14  N   UNL     1      -6.111  -0.742 -34.490  1.00  0.00    -0.332 N 
HETATM   15  C   UNL     1      -5.627   0.038 -33.472  1.00  0.00     0.109 A 
HETATM   16  H   UNL     1      -6.818  -0.376 -35.118  1.00  0.00     0.168 HD
ENDBRANCH   2   5
BRANCH   1  17
HETATM   17  C   UNL     1      -3.411   2.896 -31.302  1.00  0.00     0.161 C 
BRANCH  17  18
HETATM   18  C   UNL     1      -2.659   3.978 -32.034  1.00  0.00    -0.039 A 
HETATM   19  C   UNL     1      -1.693   4.744 -31.359  1.00  0.00     0.027 A 
HETATM   20  C   UNL     1      -0.917   5.697 -32.035  1.00  0.00     0.000 A 
HETATM   21  C   UNL     1      -1.103   5.868 -33.408  1.00  0.00     0.018 A 
HETATM   22  C   UNL     1      -2.056   5.111 -34.094  1.00  0.00     0.002 A 
HETATM   23  C   UNL     1      -2.822   4.166 -33.412  1.00  0.00     0.009 A 
BRANCH  20  24
HETATM   24  S   UNL     1       0.327   6.572 -31.096  1.00  0.00    -0.134 SA
HETATM   25  C   UNL     1      -0.048   6.046 -29.402  1.00  0.00     0.095 C 
ENDBRANCH  20  24
ENDBRANCH  17  18
ENDBRANCH   1  17
TORSDOF 4
ENDMDL
MODEL 6
REMARK VINA RESULT:      -8.0      5.473      8.032
REMARK  4 active torsions:
REMARK  status: ('A' for Active; 'I' for Inactive)
REMARK    1  A    between atoms: S_2  and  C_3 
REMARK    2  A    between atoms: C_5  and  C_6 
REMARK    3  A    between atoms: C_6  and  N_7 
REMARK       I    between atoms: N_7  and  C_8 
REMARK    4  A    between atoms: C_8  and  C_9 
ROOT
HETATM    1  N   UNL     1      -6.681   0.793 -31.935  1.00  0.00    -0.353 N 
HETATM    2  C   UNL     1      -5.900   0.441 -33.007  1.00  0.00     0.254 C 
HETATM    3  O   UNL     1      -5.892   1.051 -34.072  1.00  0.00    -0.268 OA
HETATM    4  H   UNL     1      -6.525   0.351 -31.039  1.00  0.00     0.163 HD
ENDROOT
BRANCH   2   5
HETATM    5  C   UNL     1      -4.969  -0.700 -32.766  1.00  0.00     0.058 A 
HETATM    6  C   UNL     1      -4.979  -2.012 -33.444  1.00  0.00    -0.003 A 
HETATM    7  C   UNL     1      -4.060  -2.999 -33.033  1.00  0.00     0.043 A 
HETATM    8  C   UNL     1      -5.831  -2.317 -34.516  1.00  0.00     0.013 A 
HETATM    9  C   UNL     1      -4.024  -4.260 -33.642  1.00  0.00     0.018 A 
HETATM   10  C   UNL     1      -3.081  -2.691 -31.957  1.00  0.00     0.256 A 
HETATM   11  C   UNL     1      -4.900  -4.550 -34.685  1.00  0.00     0.001 A 
HETATM   12  C   UNL     1      -5.797  -3.578 -35.124  1.00  0.00     0.001 A 
HETATM   13  O   UNL     1      -2.266  -3.516 -31.560  1.00  0.00    -0.267 OA
HETATM   14  N   UNL     1      -3.136  -1.419 -31.436  1.00  0.00    -0.332 N 
HETATM   15  C   UNL     1      -4.043  -0.466 -31.821  1.00  0.00     0.109 A 
HETATM   16  H   UNL     1      -2.453  -1.209 -30.716  1.00  0.00     0.168 HD
ENDBRANCH   2   5
BRANCH   1  17
HETATM   17  C   UNL     1      -7.471   2.006 -31.956  1.00  0.00     0.161 C 
BRANCH  17  18
HETATM   18  C   UNL     1      -8.844   1.791 -32.538  1.00  0.00    -0.039 A 
HETATM   19  C   UNL     1      -9.501   2.842 -33.200  1.00  0.00     0.027 A 
HETATM   20  C   UNL     1     -10.741   2.647 -33.827  1.00  0.00     0.000 A 
HETATM   21  C   UNL     1     -11.317   1.376 -33.803  1.00  0.00     0.018 A 
HETATM   22  C   UNL     1     -10.674   0.319 -33.154  1.00  0.00     0.002 A 
HETATM   23  C   UNL     1      -9.441   0.524 -32.533  1.00  0.00     0.009 A 
BRANCH  20  24
HETATM   24  S   UNL     1     -11.460   4.036 -34.694  1.00  0.00    -0.134 SA
HETATM   25  C   UNL     1     -12.432   3.207 -35.980  1.00  0.00     0.095 C 
ENDBRANCH  20  24
ENDBRANCH  17  18
ENDBRANCH   1  17
TORSDOF 4
ENDMDL
MODEL 7
REMARK VINA RESULT:      -7.9      5.514      8.239
REMARK  4 active torsions:
REMARK  status: ('A' for Active; 'I' for Inactive)
REMARK    1  A    between atoms: S_2  and  C_3 
REMARK    2  A    between atoms: C_5  and  C_6 
REMARK    3  A    between atoms: C_6  and  N_7 
REMARK       I    between atoms: N_7  and  C_8 
REMARK    4  A    between atoms: C_8  and  C_9 
ROOT
HETATM    1  N   UNL     1      -8.515  -0.110 -33.363  1.00  0.00    -0.353 N 
HETATM    2  C   UNL     1      -7.562  -0.280 -34.335  1.00  0.00     0.254 C 
HETATM    3  O   UNL     1      -7.711   0.069 -35.502  1.00  0.00    -0.268 OA
HETATM    4  H   UNL     1      -8.272  -0.271 -32.394  1.00  0.00     0.163 HD
ENDROOT
BRANCH   2   5
HETATM    5  C   UNL     1      -6.264  -0.841 -33.860  1.00  0.00     0.058 A 
HETATM    6  C   UNL     1      -5.765  -2.217 -34.063  1.00  0.00    -0.003 A 
HETATM    7  C   UNL     1      -4.538  -2.591 -33.478  1.00  0.00     0.043 A 
HETATM    8  C   UNL     1      -6.430  -3.167 -34.853  1.00  0.00     0.013 A 
HETATM    9  C   UNL     1      -4.018  -3.882 -33.639  1.00  0.00     0.018 A 
HETATM   10  C   UNL     1      -3.758  -1.591 -32.702  1.00  0.00     0.256 A 
HETATM   11  C   UNL     1      -4.711  -4.817 -34.404  1.00  0.00     0.001 A 
HETATM   12  C   UNL     1      -5.911  -4.458 -35.014  1.00  0.00     0.001 A 
HETATM   13  O   UNL     1      -2.690  -1.869 -32.169  1.00  0.00    -0.267 OA
HETATM   14  N   UNL     1      -4.300  -0.330 -32.624  1.00  0.00    -0.332 N 
HETATM   15  C   UNL     1      -5.503   0.029 -33.175  1.00  0.00     0.109 A 
HETATM   16  H   UNL     1      -3.754   0.352 -32.110  1.00  0.00     0.168 HD
ENDBRANCH   2   5
BRANCH   1  17
HETATM   17  C   UNL     1      -9.736   0.617 -33.636  1.00  0.00     0.161 C 
BRANCH  17  18
HETATM   18  C   UNL     1      -9.933   1.788 -32.708  1.00  0.00    -0.039 A 
HETATM   19  C   UNL     1      -8.954   2.099 -31.749  1.00  0.00     0.027 A 
HETATM   20  C   UNL     1      -9.069   3.233 -30.931  1.00  0.00     0.000 A 
HETATM   21  C   UNL     1     -10.172   4.073 -31.094  1.00  0.00     0.018 A 
HETATM   22  C   UNL     1     -11.151   3.780 -32.046  1.00  0.00     0.002 A 
HETATM   23  C   UNL     1     -11.027   2.649 -32.854  1.00  0.00     0.009 A 
BRANCH  20  24
HETATM   24  S   UNL     1      -7.737   3.570 -29.788  1.00  0.00    -0.134 SA
HETATM   25  C   UNL     1      -6.579   2.226 -30.159  1.00  0.00     0.095 C 
ENDBRANCH  20  24
ENDBRANCH  17  18
ENDBRANCH   1  17
TORSDOF 4
ENDMDL
MODEL 8
REMARK VINA RESULT:      -7.9      5.508      7.621
REMARK  4 active torsions:
REMARK  status: ('A' for Active; 'I' for Inactive)
REMARK    1  A    between atoms: S_2  and  C_3 
REMARK    2  A    between atoms: C_5  and  C_6 
REMARK    3  A    between atoms: C_6  and  N_7 
REMARK       I    between atoms: N_7  and  C_8 
REMARK    4  A    between atoms: C_8  and  C_9 
ROOT
HETATM    1  N   UNL     1      -8.108   1.872 -33.268  1.00  0.00    -0.353 N 
HETATM    2  C   UNL     1      -7.950   0.775 -32.458  1.00  0.00     0.254 C 
HETATM    3  O   UNL     1      -8.593   0.591 -31.430  1.00  0.00    -0.268 OA
HETATM    4  H   UNL     1      -7.666   1.888 -34.177  1.00  0.00     0.163 HD
ENDROOT
BRANCH   2   5
HETATM    5  C   UNL     1      -6.992  -0.251 -32.963  1.00  0.00     0.058 A 
HETATM    6  C   UNL     1      -5.606  -0.474 -32.501  1.00  0.00    -0.003 A 
HETATM    7  C   UNL     1      -4.821  -1.451 -33.147  1.00  0.00     0.043 A 
HETATM    8  C   UNL     1      -5.038   0.209 -31.415  1.00  0.00     0.013 A 
HETATM    9  C   UNL     1      -3.502  -1.705 -32.750  1.00  0.00     0.018 A 
HETATM   10  C   UNL     1      -5.410  -2.258 -34.249  1.00  0.00     0.256 A 
HETATM   11  C   UNL     1      -2.950  -0.993 -31.688  1.00  0.00     0.001 A 
HETATM   12  C   UNL     1      -3.719  -0.044 -31.019  1.00  0.00     0.001 A 
HETATM   13  O   UNL     1      -4.767  -3.114 -34.845  1.00  0.00    -0.267 OA
HETATM   14  N   UNL     1      -6.724  -1.993 -34.555  1.00  0.00    -0.332 N 
HETATM   15  C   UNL     1      -7.481  -1.029 -33.942  1.00  0.00     0.109 A 
HETATM   16  H   UNL     1      -7.125  -2.560 -35.295  1.00  0.00     0.168 HD
ENDBRANCH   2   5
BRANCH   1  17
HETATM   17  C   UNL     1      -9.154   2.840 -33.014  1.00  0.00     0.161 C 
BRANCH  17  18
HETATM   18  C   UNL     1     -10.371   2.616 -33.875  1.00  0.00    -0.039 A 
HETATM   19  C   UNL     1     -11.260   1.568 -33.580  1.00  0.00     0.027 A 
HETATM   20  C   UNL     1     -12.444   1.391 -34.310  1.00  0.00     0.000 A 
HETATM   21  C   UNL     1     -12.746   2.287 -35.337  1.00  0.00     0.018 A 
HETATM   22  C   UNL     1     -11.875   3.337 -35.639  1.00  0.00     0.002 A 
HETATM   23  C   UNL     1     -10.699   3.504 -34.906  1.00  0.00     0.009 A 
BRANCH  20  24
HETATM   24  S   UNL     1     -13.535   0.065 -33.812  1.00  0.00    -0.134 SA
HETATM   25  C   UNL     1     -15.157   0.716 -34.294  1.00  0.00     0.095 C 
ENDBRANCH  20  24
ENDBRANCH  17  18
ENDBRANCH   1  17
TORSDOF 4
ENDMDL
MODEL 9
REMARK VINA RESULT:      -7.9      3.600      8.383
REMARK  4 active torsions:
REMARK  status: ('A' for Active; 'I' for Inactive)
REMARK    1  A    between atoms: S_2  and  C_3 
REMARK    2  A    between atoms: C_5  and  C_6 
REMARK    3  A    between atoms: C_6  and  N_7 
REMARK       I    between atoms: N_7  and  C_8 
REMARK    4  A    between atoms: C_8  and  C_9 
ROOT
HETATM    1  N   UNL     1      -3.747   2.624 -32.258  1.00  0.00    -0.353 N 
HETATM    2  C   UNL     1      -3.936   1.318 -31.883  1.00  0.00     0.254 C 
HETATM    3  O   UNL     1      -3.159   0.698 -31.163  1.00  0.00    -0.268 OA
HETATM    4  H   UNL     1      -4.497   3.124 -32.717  1.00  0.00     0.163 HD
ENDROOT
BRANCH   2   5
HETATM    5  C   UNL     1      -5.221   0.708 -32.335  1.00  0.00     0.058 A 
HETATM    6  C   UNL     1      -5.383  -0.500 -33.171  1.00  0.00    -0.003 A 
HETATM    7  C   UNL     1      -6.681  -0.890 -33.559  1.00  0.00     0.043 A 
HETATM    8  C   UNL     1      -4.310  -1.312 -33.565  1.00  0.00     0.013 A 
HETATM    9  C   UNL     1      -6.893  -2.027 -34.351  1.00  0.00     0.018 A 
HETATM   10  C   UNL     1      -7.856  -0.106 -33.094  1.00  0.00     0.256 A 
HETATM   11  C   UNL     1      -5.809  -2.801 -34.754  1.00  0.00     0.001 A 
HETATM   12  C   UNL     1      -4.522  -2.447 -34.357  1.00  0.00     0.001 A 
HETATM   13  O   UNL     1      -9.003  -0.401 -33.410  1.00  0.00    -0.267 OA
HETATM   14  N   UNL     1      -7.581   0.968 -32.280  1.00  0.00    -0.332 N 
HETATM   15  C   UNL     1      -6.319   1.360 -31.919  1.00  0.00     0.109 A 
HETATM   16  H   UNL     1      -8.388   1.487 -31.951  1.00  0.00     0.168 HD
ENDBRANCH   2   5
BRANCH   1  17
HETATM   17  C   UNL     1      -2.655   3.404 -31.716  1.00  0.00     0.161 C 
BRANCH  17  18
HETATM   18  C   UNL     1      -2.430   4.688 -32.471  1.00  0.00    -0.039 A 
HETATM   19  C   UNL     1      -2.512   5.923 -31.804  1.00  0.00     0.027 A 
HETATM   20  C   UNL     1      -2.221   7.127 -32.461  1.00  0.00     0.000 A 
HETATM   21  C   UNL     1      -1.828   7.088 -33.800  1.00  0.00     0.018 A 
HETATM   22  C   UNL     1      -1.736   5.869 -34.476  1.00  0.00     0.002 A 
HETATM   23  C   UNL     1      -2.028   4.676 -33.813  1.00  0.00     0.009 A 
BRANCH  20  24
HETATM   24  S   UNL     1      -2.295   8.634 -31.502  1.00  0.00    -0.134 SA
HETATM   25  C   UNL     1      -1.592   8.102 -29.918  1.00  0.00     0.095 C 
ENDBRANCH  20  24
ENDBRANCH  17  18
ENDBRANCH   1  17
TORSDOF 4
ENDMDL
MODEL 10
REMARK VINA RESULT:      -7.6      3.553      7.860
REMARK  4 active torsions:
REMARK  status: ('A' for Active; 'I' for Inactive)
REMARK    1  A    between atoms: S_2  and  C_3 
REMARK    2  A    between atoms: C_5  and  C_6 
REMARK    3  A    between atoms: C_6  and  N_7 
REMARK       I    between atoms: N_7  and  C_8 
REMARK    4  A    between atoms: C_8  and  C_9 
ROOT
HETATM    1  N   UNL     1      -3.293   1.191 -32.099  1.00  0.00    -0.353 N 
HETATM    2  C   UNL     1      -3.950   0.176 -31.449  1.00  0.00     0.254 C 
HETATM    3  O   UNL     1      -4.544   0.322 -30.386  1.00  0.00    -0.268 OA
HETATM    4  H   UNL     1      -2.961   1.045 -33.043  1.00  0.00     0.163 HD
ENDROOT
BRANCH   2   5
HETATM    5  C   UNL     1      -3.978  -1.127 -32.175  1.00  0.00     0.058 A 
HETATM    6  C   UNL     1      -4.919  -1.528 -33.242  1.00  0.00    -0.003 A 
HETATM    7  C   UNL     1      -4.838  -2.833 -33.767  1.00  0.00     0.043 A 
HETATM    8  C   UNL     1      -5.868  -0.656 -33.797  1.00  0.00     0.013 A 
HETATM    9  C   UNL     1      -5.704  -3.266 -34.780  1.00  0.00     0.018 A 
HETATM   10  C   UNL     1      -3.792  -3.765 -33.267  1.00  0.00     0.256 A 
HETATM   11  C   UNL     1      -6.657  -2.392 -35.295  1.00  0.00     0.001 A 
HETATM   12  C   UNL     1      -6.734  -1.089 -34.809  1.00  0.00     0.001 A 
HETATM   13  O   UNL     1      -3.684  -4.911 -33.686  1.00  0.00    -0.267 OA
HETATM   14  N   UNL     1      -2.943  -3.261 -32.309  1.00  0.00    -0.332 N 
HETATM   15  C   UNL     1      -3.034  -1.999 -31.783  1.00  0.00     0.109 A 
HETATM   16  H   UNL     1      -2.220  -3.895 -31.986  1.00  0.00     0.168 HD
ENDBRANCH   2   5
BRANCH   1  17
HETATM   17  C   UNL     1      -3.368   2.554 -31.618  1.00  0.00     0.161 C 
BRANCH  17  18
HETATM   18  C   UNL     1      -4.250   3.423 -32.476  1.00  0.00    -0.039 A 
HETATM   19  C   UNL     1      -5.590   3.063 -32.702  1.00  0.00     0.027 A 
HETATM   20  C   UNL     1      -6.457   3.897 -33.423  1.00  0.00     0.000 A 
HETATM   21  C   UNL     1      -5.976   5.114 -33.908  1.00  0.00     0.018 A 
HETATM   22  C   UNL     1      -4.648   5.489 -33.688  1.00  0.00     0.002 A 
HETATM   23  C   UNL     1      -3.794   4.652 -32.970  1.00  0.00     0.009 A 
BRANCH  20  24
HETATM   24  S   UNL     1      -8.157   3.373 -33.597  1.00  0.00    -0.134 SA
HETATM   25  C   UNL     1      -8.966   4.906 -34.129  1.00  0.00     0.095 C 
ENDBRANCH  20  24
ENDBRANCH  17  18
ENDBRANCH   1  17
TORSDOF 4
ENDMDL
