MODEL 1
REMARK VINA RESULT:      -8.3      0.000      0.000
REMARK  6 active torsions:
REMARK  status: ('A' for Active; 'I' for Inactive)
REMARK    1  A    between atoms: O_2  and  C_3 
REMARK    2  A    between atoms: C_3  and  C_4 
REMARK    3  A    between atoms: C_7  and  C_8 
REMARK    4  A    between atoms: C_8  and  O_9 
REMARK    5  A    between atoms: O_9  and  C_10 
REMARK    6  A    between atoms: C_11  and  C_12 
ROOT
HETATM    1  C   UNL     1      -3.926   3.579 -32.017  1.00  0.00     0.079 A 
HETATM    2  C   UNL     1      -5.115   4.250 -32.363  1.00  0.00    -0.002 A 
HETATM    3  C   UNL     1      -5.112   5.185 -33.407  1.00  0.00     0.014 A 
HETATM    4  C   UNL     1      -3.934   5.466 -34.095  1.00  0.00     0.001 A 
HETATM    5  C   UNL     1      -2.752   4.820 -33.740  1.00  0.00     0.003 A 
HETATM    6  C   UNL     1      -2.745   3.884 -32.702  1.00  0.00     0.037 A 
ENDROOT
BRANCH   1   7
HETATM    7  O   UNL     1      -4.019   2.666 -30.996  1.00  0.00    -0.346 OA
BRANCH   7   8
HETATM    8  C   UNL     1      -3.250   1.463 -31.080  1.00  0.00     0.214 C 
BRANCH   8   9
HETATM    9  C   UNL     1      -3.930   0.363 -31.867  1.00  0.00    -0.034 A 
HETATM   10  C   UNL     1      -3.289  -0.215 -32.971  1.00  0.00     0.010 A 
HETATM   11  C   UNL     1      -3.927  -1.204 -33.722  1.00  0.00     0.018 A 
HETATM   12  C   UNL     1      -5.217  -1.633 -33.378  1.00  0.00     0.039 A 
HETATM   13  C   UNL     1      -5.845  -1.088 -32.253  1.00  0.00     0.018 A 
HETATM   14  C   UNL     1      -5.201  -0.105 -31.498  1.00  0.00     0.010 A 
BRANCH  12  15
HETATM   15  C   UNL     1      -5.872  -2.652 -34.241  1.00  0.00     0.292 C 
HETATM   16  O   UNL     1      -7.084  -2.770 -34.344  1.00  0.00    -0.259 OA
BRANCH  15  17
HETATM   17  O   UNL     1      -4.942  -3.434 -34.843  1.00  0.00    -0.323 OA
HETATM   18  C   UNL     1      -5.034  -4.817 -34.496  1.00  0.00     0.213 C 
ENDBRANCH  15  17
ENDBRANCH  12  15
ENDBRANCH   8   9
ENDBRANCH   7   8
ENDBRANCH   1   7
BRANCH   2  19
HETATM   19  C   UNL     1      -6.376   3.986 -31.665  1.00  0.00     0.032 C 
HETATM   20  C   UNL     1      -7.312   3.111 -32.060  1.00  0.00     0.045 A 
HETATM   21  C   UNL     1      -8.585   2.958 -31.270  1.00  0.00     0.257 A 
HETATM   22  C   UNL     1      -7.392   2.191 -33.196  1.00  0.00     0.006 A 
HETATM   23  O   UNL     1      -8.903   3.540 -30.250  1.00  0.00    -0.267 OA
HETATM   24  N   UNL     1      -9.319   2.004 -31.956  1.00  0.00    -0.322 N 
HETATM   25  C   UNL     1      -8.633   1.550 -33.080  1.00  0.00     0.046 A 
HETATM   26  H   UNL     1     -10.230   1.697 -31.656  1.00  0.00     0.169 HD
HETATM   27  C   UNL     1      -9.070   0.601 -33.982  1.00  0.00     0.030 A 
HETATM   28  C   UNL     1      -8.220   0.285 -35.043  1.00  0.00     0.002 A 
HETATM   29  C   UNL     1      -6.969   0.916 -35.174  1.00  0.00     0.001 A 
HETATM   30  C   UNL     1      -6.548   1.877 -34.246  1.00  0.00     0.015 A 
ENDBRANCH   2  19
TORSDOF 6
ENDMDL
MODEL 2
REMARK VINA RESULT:      -8.2      2.419      4.775
REMARK  6 active torsions:
REMARK  status: ('A' for Active; 'I' for Inactive)
REMARK    1  A    between atoms: O_2  and  C_3 
REMARK    2  A    between atoms: C_3  and  C_4 
REMARK    3  A    between atoms: C_7  and  C_8 
REMARK    4  A    between atoms: C_8  and  O_9 
REMARK    5  A    between atoms: O_9  and  C_10 
REMARK    6  A    between atoms: C_11  and  C_12 
ROOT
HETATM    1  C   UNL     1      -4.792   3.089 -31.085  1.00  0.00     0.079 A 
HETATM    2  C   UNL     1      -3.794   2.471 -31.864  1.00  0.00    -0.002 A 
HETATM    3  C   UNL     1      -2.929   3.253 -32.642  1.00  0.00     0.014 A 
HETATM    4  C   UNL     1      -3.061   4.639 -32.660  1.00  0.00     0.001 A 
HETATM    5  C   UNL     1      -4.060   5.251 -31.908  1.00  0.00     0.003 A 
HETATM    6  C   UNL     1      -4.926   4.481 -31.126  1.00  0.00     0.037 A 
ENDROOT
BRANCH   1   7
HETATM    7  O   UNL     1      -5.584   2.253 -30.339  1.00  0.00    -0.346 OA
BRANCH   7   8
HETATM    8  C   UNL     1      -6.906   2.682 -30.000  1.00  0.00     0.214 C 
BRANCH   8   9
HETATM    9  C   UNL     1      -7.965   2.207 -30.972  1.00  0.00    -0.034 A 
HETATM   10  C   UNL     1      -8.703   3.134 -31.720  1.00  0.00     0.010 A 
HETATM   11  C   UNL     1      -9.706   2.702 -32.591  1.00  0.00     0.018 A 
HETATM   12  C   UNL     1      -9.983   1.335 -32.729  1.00  0.00     0.039 A 
HETATM   13  C   UNL     1      -9.222   0.404 -32.014  1.00  0.00     0.018 A 
HETATM   14  C   UNL     1      -8.214   0.838 -31.151  1.00  0.00     0.010 A 
BRANCH  12  15
HETATM   15  C   UNL     1     -11.095   0.931 -33.630  1.00  0.00     0.292 C 
HETATM   16  O   UNL     1     -11.904   0.058 -33.354  1.00  0.00    -0.259 OA
BRANCH  15  17
HETATM   17  O   UNL     1     -11.045   1.632 -34.790  1.00  0.00    -0.323 OA
HETATM   18  C   UNL     1     -12.327   1.994 -35.306  1.00  0.00     0.213 C 
ENDBRANCH  15  17
ENDBRANCH  12  15
ENDBRANCH   8   9
ENDBRANCH   7   8
ENDBRANCH   1   7
BRANCH   2  19
HETATM   19  C   UNL     1      -3.621   1.016 -31.876  1.00  0.00     0.032 C 
HETATM   20  C   UNL     1      -4.360   0.153 -32.589  1.00  0.00     0.045 A 
HETATM   21  C   UNL     1      -4.102  -1.327 -32.485  1.00  0.00     0.257 A 
HETATM   22  C   UNL     1      -5.470   0.337 -33.526  1.00  0.00     0.006 A 
HETATM   23  O   UNL     1      -3.258  -1.891 -31.816  1.00  0.00    -0.267 OA
HETATM   24  N   UNL     1      -5.038  -1.912 -33.322  1.00  0.00    -0.322 N 
HETATM   25  C   UNL     1      -5.840  -0.951 -33.935  1.00  0.00     0.046 A 
HETATM   26  H   UNL     1      -5.106  -2.908 -33.454  1.00  0.00     0.169 HD
HETATM   27  C   UNL     1      -6.865  -1.185 -34.829  1.00  0.00     0.030 A 
HETATM   28  C   UNL     1      -7.543  -0.073 -35.332  1.00  0.00     0.002 A 
HETATM   29  C   UNL     1      -7.183   1.228 -34.934  1.00  0.00     0.001 A 
HETATM   30  C   UNL     1      -6.140   1.440 -34.025  1.00  0.00     0.015 A 
ENDBRANCH   2  19
TORSDOF 6
ENDMDL
MODEL 3
REMARK VINA RESULT:      -8.1      2.535      6.605
REMARK  6 active torsions:
REMARK  status: ('A' for Active; 'I' for Inactive)
REMARK    1  A    between atoms: O_2  and  C_3 
REMARK    2  A    between atoms: C_3  and  C_4 
REMARK    3  A    between atoms: C_7  and  C_8 
REMARK    4  A    between atoms: C_8  and  O_9 
REMARK    5  A    between atoms: O_9  and  C_10 
REMARK    6  A    between atoms: C_11  and  C_12 
ROOT
HETATM    1  C   UNL     1      -7.486   1.717 -33.739  1.00  0.00     0.079 A 
HETATM    2  C   UNL     1      -7.319   0.834 -32.654  1.00  0.00    -0.002 A 
HETATM    3  C   UNL     1      -8.431   0.179 -32.108  1.00  0.00     0.014 A 
HETATM    4  C   UNL     1      -9.705   0.408 -32.625  1.00  0.00     0.001 A 
HETATM    5  C   UNL     1      -9.874   1.297 -33.684  1.00  0.00     0.003 A 
HETATM    6  C   UNL     1      -8.771   1.954 -34.236  1.00  0.00     0.037 A 
ENDROOT
BRANCH   1   7
HETATM    7  O   UNL     1      -6.344   2.303 -34.225  1.00  0.00    -0.346 OA
BRANCH   7   8
HETATM    8  C   UNL     1      -6.197   3.721 -34.108  1.00  0.00     0.214 C 
BRANCH   8   9
HETATM    9  C   UNL     1      -4.839   4.149 -33.592  1.00  0.00    -0.034 A 
HETATM   10  C   UNL     1      -4.189   3.394 -32.607  1.00  0.00     0.010 A 
HETATM   11  C   UNL     1      -2.953   3.805 -32.102  1.00  0.00     0.018 A 
HETATM   12  C   UNL     1      -2.348   4.976 -32.578  1.00  0.00     0.039 A 
HETATM   13  C   UNL     1      -2.974   5.711 -33.590  1.00  0.00     0.018 A 
HETATM   14  C   UNL     1      -4.206   5.294 -34.099  1.00  0.00     0.010 A 
BRANCH  12  15
HETATM   15  C   UNL     1      -1.056   5.397 -31.970  1.00  0.00     0.292 C 
HETATM   16  O   UNL     1      -0.443   6.396 -32.314  1.00  0.00    -0.259 OA
BRANCH  15  17
HETATM   17  O   UNL     1      -0.657   4.500 -31.034  1.00  0.00    -0.323 OA
HETATM   18  C   UNL     1       0.301   5.016 -30.108  1.00  0.00     0.213 C 
ENDBRANCH  15  17
ENDBRANCH  12  15
ENDBRANCH   8   9
ENDBRANCH   7   8
ENDBRANCH   1   7
BRANCH   2  19
HETATM   19  C   UNL     1      -5.998   0.565 -32.079  1.00  0.00     0.032 C 
HETATM   20  C   UNL     1      -5.220  -0.485 -32.382  1.00  0.00     0.045 A 
HETATM   21  C   UNL     1      -3.894  -0.666 -31.692  1.00  0.00     0.257 A 
HETATM   22  C   UNL     1      -5.386  -1.606 -33.309  1.00  0.00     0.006 A 
HETATM   23  O   UNL     1      -3.384   0.056 -30.857  1.00  0.00    -0.267 OA
HETATM   24  N   UNL     1      -3.375  -1.837 -32.220  1.00  0.00    -0.322 N 
HETATM   25  C   UNL     1      -4.235  -2.393 -33.163  1.00  0.00     0.046 A 
HETATM   26  H   UNL     1      -2.483  -2.213 -31.939  1.00  0.00     0.169 HD
HETATM   27  C   UNL     1      -4.028  -3.551 -33.884  1.00  0.00     0.030 A 
HETATM   28  C   UNL     1      -5.021  -3.931 -34.788  1.00  0.00     0.002 A 
HETATM   29  C   UNL     1      -6.182  -3.152 -34.949  1.00  0.00     0.001 A 
HETATM   30  C   UNL     1      -6.370  -1.980 -34.207  1.00  0.00     0.015 A 
ENDBRANCH   2  19
TORSDOF 6
ENDMDL
MODEL 4
REMARK VINA RESULT:      -7.8      2.501      4.299
REMARK  6 active torsions:
REMARK  status: ('A' for Active; 'I' for Inactive)
REMARK    1  A    between atoms: O_2  and  C_3 
REMARK    2  A    between atoms: C_3  and  C_4 
REMARK    3  A    between atoms: C_7  and  C_8 
REMARK    4  A    between atoms: C_8  and  O_9 
REMARK    5  A    between atoms: O_9  and  C_10 
REMARK    6  A    between atoms: C_11  and  C_12 
ROOT
HETATM    1  C   UNL     1      -3.602   5.350 -33.085  1.00  0.00     0.079 A 
HETATM    2  C   UNL     1      -3.409   5.068 -31.718  1.00  0.00    -0.002 A 
HETATM    3  C   UNL     1      -2.111   4.987 -31.197  1.00  0.00     0.014 A 
HETATM    4  C   UNL     1      -1.007   5.169 -32.028  1.00  0.00     0.001 A 
HETATM    5  C   UNL     1      -1.195   5.426 -33.384  1.00  0.00     0.003 A 
HETATM    6  C   UNL     1      -2.486   5.512 -33.913  1.00  0.00     0.037 A 
ENDROOT
BRANCH   1   7
HETATM    7  O   UNL     1      -4.904   5.431 -33.510  1.00  0.00    -0.346 OA
BRANCH   7   8
HETATM    8  C   UNL     1      -5.353   4.524 -34.522  1.00  0.00     0.214 C 
BRANCH   8   9
HETATM    9  C   UNL     1      -6.396   3.541 -34.035  1.00  0.00    -0.034 A 
HETATM   10  C   UNL     1      -7.435   3.971 -33.199  1.00  0.00     0.010 A 
HETATM   11  C   UNL     1      -8.379   3.060 -32.718  1.00  0.00     0.018 A 
HETATM   12  C   UNL     1      -8.299   1.706 -33.070  1.00  0.00     0.039 A 
HETATM   13  C   UNL     1      -7.287   1.280 -33.937  1.00  0.00     0.018 A 
HETATM   14  C   UNL     1      -6.350   2.193 -34.423  1.00  0.00     0.010 A 
BRANCH  12  15
HETATM   15  C   UNL     1      -9.299   0.769 -32.490  1.00  0.00     0.292 C 
HETATM   16  O   UNL     1      -9.315   0.445 -31.312  1.00  0.00    -0.259 OA
BRANCH  15  17
HETATM   17  O   UNL     1     -10.136   0.311 -33.454  1.00  0.00    -0.323 OA
HETATM   18  C   UNL     1     -11.304   1.113 -33.637  1.00  0.00     0.213 C 
ENDBRANCH  15  17
ENDBRANCH  12  15
ENDBRANCH   8   9
ENDBRANCH   7   8
ENDBRANCH   1   7
BRANCH   2  19
HETATM   19  C   UNL     1      -4.541   4.869 -30.809  1.00  0.00     0.032 C 
HETATM   20  C   UNL     1      -5.129   3.692 -30.549  1.00  0.00     0.045 A 
HETATM   21  C   UNL     1      -6.311   3.627 -29.619  1.00  0.00     0.257 A 
HETATM   22  C   UNL     1      -4.867   2.329 -31.016  1.00  0.00     0.006 A 
HETATM   23  O   UNL     1      -6.836   4.544 -29.016  1.00  0.00    -0.267 OA
HETATM   24  N   UNL     1      -6.672   2.290 -29.594  1.00  0.00    -0.322 N 
HETATM   25  C   UNL     1      -5.837   1.524 -30.404  1.00  0.00     0.046 A 
HETATM   26  H   UNL     1      -7.445   1.943 -29.047  1.00  0.00     0.169 HD
HETATM   27  C   UNL     1      -5.911   0.161 -30.606  1.00  0.00     0.030 A 
HETATM   28  C   UNL     1      -4.968  -0.414 -31.459  1.00  0.00     0.002 A 
HETATM   29  C   UNL     1      -3.985   0.379 -32.081  1.00  0.00     0.001 A 
HETATM   30  C   UNL     1      -3.930   1.761 -31.861  1.00  0.00     0.015 A 
ENDBRANCH   2  19
TORSDOF 6
ENDMDL
MODEL 5
REMARK VINA RESULT:      -7.7      2.135      5.711
REMARK  6 active torsions:
REMARK  status: ('A' for Active; 'I' for Inactive)
REMARK    1  A    between atoms: O_2  and  C_3 
REMARK    2  A    between atoms: C_3  and  C_4 
REMARK    3  A    between atoms: C_7  and  C_8 
REMARK    4  A    between atoms: C_8  and  O_9 
REMARK    5  A    between atoms: O_9  and  C_10 
REMARK    6  A    between atoms: C_11  and  C_12 
ROOT
HETATM    1  C   UNL     1      -6.052  -0.787 -32.481  1.00  0.00     0.079 A 
HETATM    2  C   UNL     1      -7.023  -0.833 -33.501  1.00  0.00    -0.002 A 
HETATM    3  C   UNL     1      -6.759  -1.529 -34.688  1.00  0.00     0.014 A 
HETATM    4  C   UNL     1      -5.533  -2.165 -34.871  1.00  0.00     0.001 A 
HETATM    5  C   UNL     1      -4.563  -2.102 -33.873  1.00  0.00     0.003 A 
HETATM    6  C   UNL     1      -4.818  -1.412 -32.685  1.00  0.00     0.037 A 
ENDROOT
BRANCH   1   7
HETATM    7  O   UNL     1      -6.399  -0.100 -31.345  1.00  0.00    -0.346 OA
BRANCH   7   8
HETATM    8  C   UNL     1      -5.360   0.326 -30.458  1.00  0.00     0.214 C 
BRANCH   8   9
HETATM    9  C   UNL     1      -4.893   1.745 -30.709  1.00  0.00    -0.034 A 
HETATM   10  C   UNL     1      -3.677   1.982 -31.364  1.00  0.00     0.010 A 
HETATM   11  C   UNL     1      -3.224   3.287 -31.565  1.00  0.00     0.018 A 
HETATM   12  C   UNL     1      -3.985   4.377 -31.118  1.00  0.00     0.039 A 
HETATM   13  C   UNL     1      -5.219   4.146 -30.500  1.00  0.00     0.018 A 
HETATM   14  C   UNL     1      -5.673   2.840 -30.307  1.00  0.00     0.010 A 
BRANCH  12  15
HETATM   15  C   UNL     1      -3.434   5.745 -31.311  1.00  0.00     0.292 C 
HETATM   16  O   UNL     1      -2.871   6.377 -30.430  1.00  0.00    -0.259 OA
BRANCH  15  17
HETATM   17  O   UNL     1      -3.685   6.185 -32.569  1.00  0.00    -0.323 OA
HETATM   18  C   UNL     1      -2.523   6.626 -33.273  1.00  0.00     0.213 C 
ENDBRANCH  15  17
ENDBRANCH  12  15
ENDBRANCH   8   9
ENDBRANCH   7   8
ENDBRANCH   1   7
BRANCH   2  19
HETATM   19  C   UNL     1      -8.326  -0.178 -33.350  1.00  0.00     0.032 C 
HETATM   20  C   UNL     1      -8.542   1.144 -33.420  1.00  0.00     0.045 A 
HETATM   21  C   UNL     1      -9.928   1.695 -33.212  1.00  0.00     0.257 A 
HETATM   22  C   UNL     1      -7.654   2.281 -33.665  1.00  0.00     0.006 A 
HETATM   23  O   UNL     1     -10.951   1.075 -32.990  1.00  0.00    -0.267 OA
HETATM   24  N   UNL     1      -9.788   3.068 -33.332  1.00  0.00    -0.322 N 
HETATM   25  C   UNL     1      -8.467   3.420 -33.596  1.00  0.00     0.046 A 
HETATM   26  H   UNL     1     -10.562   3.705 -33.237  1.00  0.00     0.169 HD
HETATM   27  C   UNL     1      -7.978   4.698 -33.778  1.00  0.00     0.030 A 
HETATM   28  C   UNL     1      -6.613   4.832 -34.040  1.00  0.00     0.002 A 
HETATM   29  C   UNL     1      -5.782   3.699 -34.115  1.00  0.00     0.001 A 
HETATM   30  C   UNL     1      -6.301   2.412 -33.927  1.00  0.00     0.015 A 
ENDBRANCH   2  19
TORSDOF 6
ENDMDL
MODEL 6
REMARK VINA RESULT:      -7.6      2.492      6.524
REMARK  6 active torsions:
REMARK  status: ('A' for Active; 'I' for Inactive)
REMARK    1  A    between atoms: O_2  and  C_3 
REMARK    2  A    between atoms: C_3  and  C_4 
REMARK    3  A    between atoms: C_7  and  C_8 
REMARK    4  A    between atoms: C_8  and  O_9 
REMARK    5  A    between atoms: O_9  and  C_10 
REMARK    6  A    between atoms: C_11  and  C_12 
ROOT
HETATM    1  C   UNL     1      -7.143   1.172 -32.518  1.00  0.00     0.079 A 
HETATM    2  C   UNL     1      -6.346   0.366 -33.354  1.00  0.00    -0.002 A 
HETATM    3  C   UNL     1      -6.731   0.141 -34.683  1.00  0.00     0.014 A 
HETATM    4  C   UNL     1      -7.907   0.701 -35.177  1.00  0.00     0.001 A 
HETATM    5  C   UNL     1      -8.708   1.480 -34.345  1.00  0.00     0.003 A 
HETATM    6  C   UNL     1      -8.332   1.712 -33.019  1.00  0.00     0.037 A 
ENDROOT
BRANCH   1   7
HETATM    7  O   UNL     1      -6.685   1.355 -31.237  1.00  0.00    -0.346 OA
BRANCH   7   8
HETATM    8  C   UNL     1      -6.374   2.683 -30.804  1.00  0.00     0.214 C 
BRANCH   8   9
HETATM    9  C   UNL     1      -5.381   3.395 -31.698  1.00  0.00    -0.034 A 
HETATM   10  C   UNL     1      -5.799   4.454 -32.514  1.00  0.00     0.010 A 
HETATM   11  C   UNL     1      -4.895   5.090 -33.367  1.00  0.00     0.018 A 
HETATM   12  C   UNL     1      -3.556   4.677 -33.414  1.00  0.00     0.039 A 
HETATM   13  C   UNL     1      -3.125   3.646 -32.572  1.00  0.00     0.018 A 
HETATM   14  C   UNL     1      -4.029   3.018 -31.714  1.00  0.00     0.010 A 
BRANCH  12  15
HETATM   15  C   UNL     1      -2.645   5.353 -34.377  1.00  0.00     0.292 C 
HETATM   16  O   UNL     1      -1.846   4.756 -35.082  1.00  0.00    -0.259 OA
BRANCH  15  17
HETATM   17  O   UNL     1      -2.807   6.698 -34.320  1.00  0.00    -0.323 OA
HETATM   18  C   UNL     1      -1.806   7.371 -33.554  1.00  0.00     0.213 C 
ENDBRANCH  15  17
ENDBRANCH  12  15
ENDBRANCH   8   9
ENDBRANCH   7   8
ENDBRANCH   1   7
BRANCH   2  19
HETATM   19  C   UNL     1      -5.102  -0.243 -32.875  1.00  0.00     0.032 C 
HETATM   20  C   UNL     1      -4.714  -1.504 -33.112  1.00  0.00     0.045 A 
HETATM   21  C   UNL     1      -3.424  -2.020 -32.531  1.00  0.00     0.257 A 
HETATM   22  C   UNL     1      -5.320  -2.601 -33.870  1.00  0.00     0.006 A 
HETATM   23  O   UNL     1      -2.622  -1.416 -31.845  1.00  0.00    -0.267 OA
HETATM   24  N   UNL     1      -3.345  -3.338 -32.951  1.00  0.00    -0.322 N 
HETATM   25  C   UNL     1      -4.444  -3.687 -33.732  1.00  0.00     0.046 A 
HETATM   26  H   UNL     1      -2.577  -3.942 -32.708  1.00  0.00     0.169 HD
HETATM   27  C   UNL     1      -4.681  -4.915 -34.315  1.00  0.00     0.030 A 
HETATM   28  C   UNL     1      -5.849  -5.053 -35.068  1.00  0.00     0.002 A 
HETATM   29  C   UNL     1      -6.738  -3.973 -35.219  1.00  0.00     0.001 A 
HETATM   30  C   UNL     1      -6.476  -2.736 -34.617  1.00  0.00     0.015 A 
ENDBRANCH   2  19
TORSDOF 6
ENDMDL
MODEL 7
REMARK VINA RESULT:      -7.5      2.365      6.070
REMARK  6 active torsions:
REMARK  status: ('A' for Active; 'I' for Inactive)
REMARK    1  A    between atoms: O_2  and  C_3 
REMARK    2  A    between atoms: C_3  and  C_4 
REMARK    3  A    between atoms: C_7  and  C_8 
REMARK    4  A    between atoms: C_8  and  O_9 
REMARK    5  A    between atoms: O_9  and  C_10 
REMARK    6  A    between atoms: C_11  and  C_12 
ROOT
HETATM    1  C   UNL     1      -5.952  -0.690 -31.988  1.00  0.00     0.079 A 
HETATM    2  C   UNL     1      -6.712  -0.749 -33.173  1.00  0.00    -0.002 A 
HETATM    3  C   UNL     1      -6.166  -1.325 -34.327  1.00  0.00     0.014 A 
HETATM    4  C   UNL     1      -4.866  -1.827 -34.314  1.00  0.00     0.001 A 
HETATM    5  C   UNL     1      -4.105  -1.750 -33.150  1.00  0.00     0.003 A 
HETATM    6  C   UNL     1      -4.642  -1.180 -31.992  1.00  0.00     0.037 A 
ENDROOT
BRANCH   1   7
HETATM    7  O   UNL     1      -6.569  -0.127 -30.899  1.00  0.00    -0.346 OA
BRANCH   7   8
HETATM    8  C   UNL     1      -5.805   0.730 -30.045  1.00  0.00     0.214 C 
BRANCH   8   9
HETATM    9  C   UNL     1      -6.223   2.183 -30.115  1.00  0.00    -0.034 A 
HETATM   10  C   UNL     1      -5.256   3.192 -30.217  1.00  0.00     0.010 A 
HETATM   11  C   UNL     1      -5.636   4.536 -30.244  1.00  0.00     0.018 A 
HETATM   12  C   UNL     1      -6.990   4.890 -30.174  1.00  0.00     0.039 A 
HETATM   13  C   UNL     1      -7.961   3.885 -30.112  1.00  0.00     0.018 A 
HETATM   14  C   UNL     1      -7.580   2.542 -30.094  1.00  0.00     0.010 A 
BRANCH  12  15
HETATM   15  C   UNL     1      -7.338   6.337 -30.155  1.00  0.00     0.292 C 
HETATM   16  O   UNL     1      -8.443   6.761 -29.854  1.00  0.00    -0.259 OA
BRANCH  15  17
HETATM   17  O   UNL     1      -6.279   7.085 -30.555  1.00  0.00    -0.323 OA
HETATM   18  C   UNL     1      -6.527   7.859 -31.730  1.00  0.00     0.213 C 
ENDBRANCH  15  17
ENDBRANCH  12  15
ENDBRANCH   8   9
ENDBRANCH   7   8
ENDBRANCH   1   7
BRANCH   2  19
HETATM   19  C   UNL     1      -8.083  -0.232 -33.231  1.00  0.00     0.032 C 
HETATM   20  C   UNL     1      -8.420   1.055 -33.400  1.00  0.00     0.045 A 
HETATM   21  C   UNL     1      -9.869   1.462 -33.407  1.00  0.00     0.257 A 
HETATM   22  C   UNL     1      -7.625   2.271 -33.586  1.00  0.00     0.006 A 
HETATM   23  O   UNL     1     -10.845   0.745 -33.289  1.00  0.00    -0.267 OA
HETATM   24  N   UNL     1      -9.853   2.836 -33.581  1.00  0.00    -0.322 N 
HETATM   25  C   UNL     1      -8.551   3.318 -33.687  1.00  0.00     0.046 A 
HETATM   26  H   UNL     1     -10.693   3.391 -33.623  1.00  0.00     0.169 HD
HETATM   27  C   UNL     1      -8.173   4.633 -33.870  1.00  0.00     0.030 A 
HETATM   28  C   UNL     1      -6.805   4.902 -33.956  1.00  0.00     0.002 A 
HETATM   29  C   UNL     1      -5.862   3.862 -33.859  1.00  0.00     0.001 A 
HETATM   30  C   UNL     1      -6.270   2.535 -33.673  1.00  0.00     0.015 A 
ENDBRANCH   2  19
TORSDOF 6
ENDMDL
MODEL 8
REMARK VINA RESULT:      -7.5      2.900      5.760
REMARK  6 active torsions:
REMARK  status: ('A' for Active; 'I' for Inactive)
REMARK    1  A    between atoms: O_2  and  C_3 
REMARK    2  A    between atoms: C_3  and  C_4 
REMARK    3  A    between atoms: C_7  and  C_8 
REMARK    4  A    between atoms: C_8  and  O_9 
REMARK    5  A    between atoms: O_9  and  C_10 
REMARK    6  A    between atoms: C_11  and  C_12 
ROOT
HETATM    1  C   UNL     1      -6.376   2.784 -31.375  1.00  0.00     0.079 A 
HETATM    2  C   UNL     1      -5.907   2.681 -32.699  1.00  0.00    -0.002 A 
HETATM    3  C   UNL     1      -4.818   3.457 -33.118  1.00  0.00     0.014 A 
HETATM    4  C   UNL     1      -4.206   4.343 -32.235  1.00  0.00     0.001 A 
HETATM    5  C   UNL     1      -4.683   4.464 -30.931  1.00  0.00     0.003 A 
HETATM    6  C   UNL     1      -5.766   3.692 -30.503  1.00  0.00     0.037 A 
ENDROOT
BRANCH   1   7
HETATM    7  O   UNL     1      -7.434   1.976 -31.041  1.00  0.00    -0.346 OA
BRANCH   7   8
HETATM    8  C   UNL     1      -8.724   2.569 -30.870  1.00  0.00     0.214 C 
BRANCH   8   9
HETATM    9  C   UNL     1      -9.671   2.302 -32.022  1.00  0.00    -0.034 A 
HETATM   10  C   UNL     1     -10.344   3.363 -32.642  1.00  0.00     0.010 A 
HETATM   11  C   UNL     1     -11.246   3.118 -33.680  1.00  0.00     0.018 A 
HETATM   12  C   UNL     1     -11.484   1.808 -34.116  1.00  0.00     0.039 A 
HETATM   13  C   UNL     1     -10.784   0.749 -33.527  1.00  0.00     0.018 A 
HETATM   14  C   UNL     1      -9.876   0.997 -32.495  1.00  0.00     0.010 A 
BRANCH  12  15
HETATM   15  C   UNL     1     -12.492   1.596 -35.190  1.00  0.00     0.292 C 
HETATM   16  O   UNL     1     -12.568   2.293 -36.190  1.00  0.00    -0.259 OA
BRANCH  15  17
HETATM   17  O   UNL     1     -13.316   0.567 -34.873  1.00  0.00    -0.323 OA
HETATM   18  C   UNL     1     -14.528   0.969 -34.234  1.00  0.00     0.213 C 
ENDBRANCH  15  17
ENDBRANCH  12  15
ENDBRANCH   8   9
ENDBRANCH   7   8
ENDBRANCH   1   7
BRANCH   2  19
HETATM   19  C   UNL     1      -6.522   1.762 -33.661  1.00  0.00     0.032 C 
HETATM   20  C   UNL     1      -6.154   0.488 -33.861  1.00  0.00     0.045 A 
HETATM   21  C   UNL     1      -6.845  -0.343 -34.909  1.00  0.00     0.257 A 
HETATM   22  C   UNL     1      -5.130  -0.357 -33.242  1.00  0.00     0.006 A 
HETATM   23  O   UNL     1      -7.760  -0.011 -35.639  1.00  0.00    -0.267 OA
HETATM   24  N   UNL     1      -6.215  -1.576 -34.860  1.00  0.00    -0.322 N 
HETATM   25  C   UNL     1      -5.214  -1.595 -33.892  1.00  0.00     0.046 A 
HETATM   26  H   UNL     1      -6.471  -2.344 -35.460  1.00  0.00     0.169 HD
HETATM   27  C   UNL     1      -4.396  -2.660 -33.576  1.00  0.00     0.030 A 
HETATM   28  C   UNL     1      -3.455  -2.469 -32.563  1.00  0.00     0.002 A 
HETATM   29  C   UNL     1      -3.358  -1.232 -31.897  1.00  0.00     0.001 A 
HETATM   30  C   UNL     1      -4.199  -0.165 -32.236  1.00  0.00     0.015 A 
ENDBRANCH   2  19
TORSDOF 6
ENDMDL
MODEL 9
REMARK VINA RESULT:      -7.5      4.034      6.558
REMARK  6 active torsions:
REMARK  status: ('A' for Active; 'I' for Inactive)
REMARK    1  A    between atoms: O_2  and  C_3 
REMARK    2  A    between atoms: C_3  and  C_4 
REMARK    3  A    between atoms: C_7  and  C_8 
REMARK    4  A    between atoms: C_8  and  O_9 
REMARK    5  A    between atoms: O_9  and  C_10 
REMARK    6  A    between atoms: C_11  and  C_12 
ROOT
HETATM    1  C   UNL     1      -2.476   4.299 -32.472  1.00  0.00     0.079 A 
HETATM    2  C   UNL     1      -1.356   5.136 -32.297  1.00  0.00    -0.002 A 
HETATM    3  C   UNL     1      -1.085   6.147 -33.229  1.00  0.00     0.014 A 
HETATM    4  C   UNL     1      -1.911   6.318 -34.338  1.00  0.00     0.001 A 
HETATM    5  C   UNL     1      -3.005   5.478 -34.525  1.00  0.00     0.003 A 
HETATM    6  C   UNL     1      -3.286   4.468 -33.600  1.00  0.00     0.037 A 
ENDROOT
BRANCH   1   7
HETATM    7  O   UNL     1      -2.680   3.347 -31.504  1.00  0.00    -0.346 OA
BRANCH   7   8
HETATM    8  C   UNL     1      -3.987   2.784 -31.360  1.00  0.00     0.214 C 
BRANCH   8   9
HETATM    9  C   UNL     1      -4.117   1.396 -31.950  1.00  0.00    -0.034 A 
HETATM   10  C   UNL     1      -3.233   0.379 -31.564  1.00  0.00     0.010 A 
HETATM   11  C   UNL     1      -3.326  -0.893 -32.133  1.00  0.00     0.018 A 
HETATM   12  C   UNL     1      -4.308  -1.168 -33.094  1.00  0.00     0.039 A 
HETATM   13  C   UNL     1      -5.218  -0.168 -33.453  1.00  0.00     0.018 A 
HETATM   14  C   UNL     1      -5.128   1.101 -32.877  1.00  0.00     0.010 A 
BRANCH  12  15
HETATM   15  C   UNL     1      -4.332  -2.524 -33.706  1.00  0.00     0.292 C 
HETATM   16  O   UNL     1      -4.987  -2.805 -34.698  1.00  0.00    -0.259 OA
BRANCH  15  17
HETATM   17  O   UNL     1      -3.570  -3.384 -32.986  1.00  0.00    -0.323 OA
HETATM   18  C   UNL     1      -3.459  -4.686 -33.564  1.00  0.00     0.213 C 
ENDBRANCH  15  17
ENDBRANCH  12  15
ENDBRANCH   8   9
ENDBRANCH   7   8
ENDBRANCH   1   7
BRANCH   2  19
HETATM   19  C   UNL     1      -0.462   4.989 -31.145  1.00  0.00     0.032 C 
HETATM   20  C   UNL     1      -0.315   5.886 -30.158  1.00  0.00     0.045 A 
HETATM   21  C   UNL     1       0.667   5.631 -29.045  1.00  0.00     0.257 A 
HETATM   22  C   UNL     1      -0.943   7.183 -29.896  1.00  0.00     0.006 A 
HETATM   23  O   UNL     1       1.383   4.660 -28.892  1.00  0.00    -0.267 OA
HETATM   24  N   UNL     1       0.576   6.745 -28.227  1.00  0.00    -0.322 N 
HETATM   25  C   UNL     1      -0.359   7.656 -28.714  1.00  0.00     0.046 A 
HETATM   26  H   UNL     1       1.128   6.854 -27.392  1.00  0.00     0.169 HD
HETATM   27  C   UNL     1      -0.701   8.865 -28.144  1.00  0.00     0.030 A 
HETATM   28  C   UNL     1      -1.673   9.628 -28.794  1.00  0.00     0.002 A 
HETATM   29  C   UNL     1      -2.271   9.168 -29.982  1.00  0.00     0.001 A 
HETATM   30  C   UNL     1      -1.907   7.937 -30.541  1.00  0.00     0.015 A 
ENDBRANCH   2  19
TORSDOF 6
ENDMDL
MODEL 10
REMARK VINA RESULT:      -7.4     14.788     16.649
REMARK  6 active torsions:
REMARK  status: ('A' for Active; 'I' for Inactive)
REMARK    1  A    between atoms: O_2  and  C_3 
REMARK    2  A    between atoms: C_3  and  C_4 
REMARK    3  A    between atoms: C_7  and  C_8 
REMARK    4  A    between atoms: C_8  and  O_9 
REMARK    5  A    between atoms: O_9  and  C_10 
REMARK    6  A    between atoms: C_11  and  C_12 
ROOT
HETATM    1  C   UNL     1      -2.636 -12.913 -37.796  1.00  0.00     0.079 A 
HETATM    2  C   UNL     1      -2.640 -13.858 -36.751  1.00  0.00    -0.002 A 
HETATM    3  C   UNL     1      -1.568 -14.749 -36.609  1.00  0.00     0.014 A 
HETATM    4  C   UNL     1      -0.503 -14.714 -37.506  1.00  0.00     0.001 A 
HETATM    5  C   UNL     1      -0.507 -13.795 -38.553  1.00  0.00     0.003 A 
HETATM    6  C   UNL     1      -1.570 -12.900 -38.701  1.00  0.00     0.037 A 
ENDROOT
BRANCH   1   7
HETATM    7  O   UNL     1      -3.714 -12.065 -37.852  1.00  0.00    -0.346 OA
BRANCH   7   8
HETATM    8  C   UNL     1      -4.192 -11.648 -39.134  1.00  0.00     0.214 C 
BRANCH   8   9
HETATM    9  C   UNL     1      -5.625 -12.056 -39.409  1.00  0.00    -0.034 A 
HETATM   10  C   UNL     1      -6.571 -12.046 -38.376  1.00  0.00     0.010 A 
HETATM   11  C   UNL     1      -7.885 -12.456 -38.617  1.00  0.00     0.018 A 
HETATM   12  C   UNL     1      -8.271 -12.879 -39.896  1.00  0.00     0.039 A 
HETATM   13  C   UNL     1      -7.340 -12.852 -40.939  1.00  0.00     0.018 A 
HETATM   14  C   UNL     1      -6.029 -12.433 -40.698  1.00  0.00     0.010 A 
BRANCH  12  15
HETATM   15  C   UNL     1      -9.668 -13.354 -40.087  1.00  0.00     0.292 C 
HETATM   16  O   UNL     1     -10.625 -12.899 -39.479  1.00  0.00    -0.259 OA
BRANCH  15  17
HETATM   17  O   UNL     1      -9.705 -14.371 -40.983  1.00  0.00    -0.323 OA
HETATM   18  C   UNL     1     -10.491 -15.488 -40.563  1.00  0.00     0.213 C 
ENDBRANCH  15  17
ENDBRANCH  12  15
ENDBRANCH   8   9
ENDBRANCH   7   8
ENDBRANCH   1   7
BRANCH   2  19
HETATM   19  C   UNL     1      -3.741 -13.929 -35.786  1.00  0.00     0.032 C 
HETATM   20  C   UNL     1      -4.948 -14.462 -36.024  1.00  0.00     0.045 A 
HETATM   21  C   UNL     1      -6.008 -14.441 -34.955  1.00  0.00     0.257 A 
HETATM   22  C   UNL     1      -5.530 -15.111 -37.201  1.00  0.00     0.006 A 
HETATM   23  O   UNL     1      -5.919 -13.996 -33.826  1.00  0.00    -0.267 OA
HETATM   24  N   UNL     1      -7.112 -15.045 -35.534  1.00  0.00    -0.322 N 
HETATM   25  C   UNL     1      -6.844 -15.439 -36.843  1.00  0.00     0.046 A 
HETATM   26  H   UNL     1      -7.984 -15.170 -35.046  1.00  0.00     0.169 HD
HETATM   27  C   UNL     1      -7.716 -16.072 -37.705  1.00  0.00     0.030 A 
HETATM   28  C   UNL     1      -7.243 -16.387 -38.980  1.00  0.00     0.002 A 
HETATM   29  C   UNL     1      -5.925 -16.066 -39.356  1.00  0.00     0.001 A 
HETATM   30  C   UNL     1      -5.058 -15.423 -38.463  1.00  0.00     0.015 A 
ENDBRANCH   2  19
TORSDOF 6
ENDMDL
