MODEL 1
REMARK VINA RESULT:      -8.2      0.000      0.000
REMARK  10 active torsions:
REMARK  status: ('A' for Active; 'I' for Inactive)
REMARK    1  A    between atoms: C_3  and  C_4 
REMARK    2  A    between atoms: C_8  and  N_9 
REMARK    3  A    between atoms: N_9  and  C_10 
REMARK    4  A    between atoms: C_10  and  N_11 
REMARK    5  A    between atoms: N_11  and  N_12 
REMARK       I    between atoms: N_12  and  C_13 
REMARK    6  A    between atoms: C_13  and  C_14 
REMARK    7  A    between atoms: C_14  and  C_15 
REMARK    8  A    between atoms: C_15  and  C_16 
REMARK    9  A    between atoms: C_18  and  O_19 
REMARK   10  A    between atoms: C_20  and  O_21 
ROOT
HETATM    1  N   UNL     1      -9.065   0.768 -31.428  1.00  0.00    -0.274 N 
HETATM    2  H   UNL     1      -9.563   0.103 -30.835  1.00  0.00     0.189 HD
ENDROOT
BRANCH   1   3
HETATM    3  C   UNL     1      -8.718   1.988 -30.913  1.00  0.00     0.191 C 
HETATM    4  S   UNL     1      -9.721   3.333 -30.909  1.00  0.00    -0.039 SA
BRANCH   3   5
HETATM    5  N   UNL     1      -7.459   2.122 -30.395  1.00  0.00    -0.331 N 
HETATM    6  H   UNL     1      -7.470   2.558 -29.472  1.00  0.00     0.168 HD
BRANCH   5   7
HETATM    7  C   UNL     1      -6.203   1.664 -30.861  1.00  0.00     0.049 A 
HETATM    8  C   UNL     1      -5.520   2.395 -31.855  1.00  0.00     0.074 A 
HETATM    9  C   UNL     1      -4.259   1.946 -32.301  1.00  0.00     0.018 A 
HETATM   10  C   UNL     1      -3.665   0.813 -31.754  1.00  0.00     0.001 A 
HETATM   11  C   UNL     1      -4.320   0.114 -30.750  1.00  0.00     0.002 A 
HETATM   12  C   UNL     1      -5.574   0.541 -30.302  1.00  0.00     0.030 A 
BRANCH   8  13
HETATM   13  C   UNL     1      -6.114   3.610 -32.521  1.00  0.00     0.419 C 
HETATM   14  F   UNL     1      -5.234   4.266 -33.331  1.00  0.00    -0.166 F 
HETATM   15  F   UNL     1      -7.183   3.303 -33.306  1.00  0.00    -0.166 F 
HETATM   16  F   UNL     1      -6.561   4.549 -31.636  1.00  0.00    -0.166 F 
ENDBRANCH   8  13
ENDBRANCH   5   7
ENDBRANCH   3   5
ENDBRANCH   1   3
BRANCH   1  17
HETATM   17  N   UNL     1      -8.347   0.184 -32.477  1.00  0.00    -0.268 N 
HETATM   18  C   UNL     1      -8.772   0.413 -33.770  1.00  0.00     0.236 C 
HETATM   19  O   UNL     1      -9.817   1.005 -34.030  1.00  0.00    -0.272 OA
HETATM   20  H   UNL     1      -7.471  -0.280 -32.244  1.00  0.00     0.190 HD
BRANCH  18  21
HETATM   21  C   UNL     1      -7.800  -0.102 -34.810  1.00  0.00     0.109 C 
BRANCH  21  22
HETATM   22  C   UNL     1      -6.413  -0.340 -34.214  1.00  0.00     0.048 C 
BRANCH  22  23
HETATM   23  C   UNL     1      -5.886  -1.760 -34.261  1.00  0.00    -0.055 A 
HETATM   24  C   UNL     1      -6.724  -2.754 -34.805  1.00  0.00     0.046 A 
HETATM   25  C   UNL     1      -6.280  -4.069 -34.897  1.00  0.00     0.099 A 
HETATM   26  C   UNL     1      -5.008  -4.412 -34.452  1.00  0.00     0.098 A 
HETATM   27  C   UNL     1      -4.170  -3.457 -33.904  1.00  0.00     0.040 A 
HETATM   28  C   UNL     1      -4.609  -2.132 -33.806  1.00  0.00     0.010 A 
BRANCH  25  29
HETATM   29  O   UNL     1      -7.059  -5.060 -35.424  1.00  0.00    -0.358 OA
HETATM   30  H   UNL     1      -7.512  -4.702 -36.208  1.00  0.00     0.218 HD
ENDBRANCH  25  29
BRANCH  26  31
HETATM   31  O   UNL     1      -4.575  -5.703 -34.555  1.00  0.00    -0.358 OA
HETATM   32  H   UNL     1      -5.236  -6.137 -35.129  1.00  0.00     0.218 HD
ENDBRANCH  26  31
ENDBRANCH  22  23
ENDBRANCH  21  22
ENDBRANCH  18  21
ENDBRANCH   1  17
TORSDOF 10
ENDMDL
MODEL 2
REMARK VINA RESULT:      -8.2      2.920      4.903
REMARK  10 active torsions:
REMARK  status: ('A' for Active; 'I' for Inactive)
REMARK    1  A    between atoms: C_3  and  C_4 
REMARK    2  A    between atoms: C_8  and  N_9 
REMARK    3  A    between atoms: N_9  and  C_10 
REMARK    4  A    between atoms: C_10  and  N_11 
REMARK    5  A    between atoms: N_11  and  N_12 
REMARK       I    between atoms: N_12  and  C_13 
REMARK    6  A    between atoms: C_13  and  C_14 
REMARK    7  A    between atoms: C_14  and  C_15 
REMARK    8  A    between atoms: C_15  and  C_16 
REMARK    9  A    between atoms: C_18  and  O_19 
REMARK   10  A    between atoms: C_20  and  O_21 
ROOT
HETATM    1  N   UNL     1      -7.600   3.333 -33.753  1.00  0.00    -0.274 N 
HETATM    2  H   UNL     1      -7.029   4.105 -34.099  1.00  0.00     0.189 HD
ENDROOT
BRANCH   1   3
HETATM    3  C   UNL     1      -8.964   3.422 -33.842  1.00  0.00     0.191 C 
HETATM    4  S   UNL     1      -9.887   4.591 -33.070  1.00  0.00    -0.039 SA
BRANCH   3   5
HETATM    5  N   UNL     1      -9.613   2.478 -34.588  1.00  0.00    -0.331 N 
HETATM    6  H   UNL     1      -8.990   2.024 -35.257  1.00  0.00     0.168 HD
BRANCH   5   7
HETATM    7  C   UNL     1     -10.930   1.964 -34.504  1.00  0.00     0.049 A 
HETATM    8  C   UNL     1     -11.189   0.842 -33.690  1.00  0.00     0.074 A 
HETATM    9  C   UNL     1     -12.508   0.348 -33.592  1.00  0.00     0.018 A 
HETATM   10  C   UNL     1     -13.559   0.967 -34.262  1.00  0.00     0.001 A 
HETATM   11  C   UNL     1     -13.309   2.093 -35.034  1.00  0.00     0.002 A 
HETATM   12  C   UNL     1     -12.008   2.591 -35.148  1.00  0.00     0.030 A 
BRANCH   8  13
HETATM   13  C   UNL     1     -10.099   0.096 -32.964  1.00  0.00     0.419 C 
HETATM   14  F   UNL     1     -10.529  -1.064 -32.391  1.00  0.00    -0.166 F 
HETATM   15  F   UNL     1      -9.072  -0.254 -33.787  1.00  0.00    -0.166 F 
HETATM   16  F   UNL     1      -9.534   0.814 -31.950  1.00  0.00    -0.166 F 
ENDBRANCH   8  13
ENDBRANCH   5   7
ENDBRANCH   3   5
ENDBRANCH   1   3
BRANCH   1  17
HETATM   17  N   UNL     1      -6.947   2.095 -33.726  1.00  0.00    -0.268 N 
HETATM   18  C   UNL     1      -6.258   1.744 -32.583  1.00  0.00     0.236 C 
HETATM   19  O   UNL     1      -6.097   2.515 -31.640  1.00  0.00    -0.272 OA
HETATM   20  H   UNL     1      -7.114   1.461 -34.503  1.00  0.00     0.190 HD
BRANCH  18  21
HETATM   21  C   UNL     1      -5.773   0.310 -32.606  1.00  0.00     0.109 C 
BRANCH  21  22
HETATM   22  C   UNL     1      -6.004  -0.340 -33.969  1.00  0.00     0.048 C 
BRANCH  22  23
HETATM   23  C   UNL     1      -5.608  -1.797 -34.105  1.00  0.00    -0.055 A 
HETATM   24  C   UNL     1      -6.542  -2.680 -34.683  1.00  0.00     0.046 A 
HETATM   25  C   UNL     1      -6.221  -4.022 -34.856  1.00  0.00     0.099 A 
HETATM   26  C   UNL     1      -4.977  -4.502 -34.460  1.00  0.00     0.098 A 
HETATM   27  C   UNL     1      -4.046  -3.657 -33.881  1.00  0.00     0.040 A 
HETATM   28  C   UNL     1      -4.362  -2.306 -33.701  1.00  0.00     0.010 A 
BRANCH  25  29
HETATM   29  O   UNL     1      -7.096  -4.909 -35.418  1.00  0.00    -0.358 OA
HETATM   30  H   UNL     1      -7.997  -4.567 -35.285  1.00  0.00     0.218 HD
ENDBRANCH  25  29
BRANCH  26  31
HETATM   31  O   UNL     1      -4.664  -5.818 -34.643  1.00  0.00    -0.358 OA
HETATM   32  H   UNL     1      -4.297  -5.857 -35.548  1.00  0.00     0.218 HD
ENDBRANCH  26  31
ENDBRANCH  22  23
ENDBRANCH  21  22
ENDBRANCH  18  21
ENDBRANCH   1  17
TORSDOF 10
ENDMDL
MODEL 3
REMARK VINA RESULT:      -8.2      1.829      2.642
REMARK  10 active torsions:
REMARK  status: ('A' for Active; 'I' for Inactive)
REMARK    1  A    between atoms: C_3  and  C_4 
REMARK    2  A    between atoms: C_8  and  N_9 
REMARK    3  A    between atoms: N_9  and  C_10 
REMARK    4  A    between atoms: C_10  and  N_11 
REMARK    5  A    between atoms: N_11  and  N_12 
REMARK       I    between atoms: N_12  and  C_13 
REMARK    6  A    between atoms: C_13  and  C_14 
REMARK    7  A    between atoms: C_14  and  C_15 
REMARK    8  A    between atoms: C_15  and  C_16 
REMARK    9  A    between atoms: C_18  and  O_19 
REMARK   10  A    between atoms: C_20  and  O_21 
ROOT
HETATM    1  N   UNL     1      -9.438   0.930 -31.860  1.00  0.00    -0.274 N 
HETATM    2  H   UNL     1     -10.146   0.326 -31.440  1.00  0.00     0.189 HD
ENDROOT
BRANCH   1   3
HETATM    3  C   UNL     1      -8.979   2.009 -31.152  1.00  0.00     0.191 C 
HETATM    4  S   UNL     1      -9.894   3.371 -30.806  1.00  0.00    -0.039 SA
BRANCH   3   5
HETATM    5  N   UNL     1      -7.679   1.981 -30.726  1.00  0.00    -0.331 N 
HETATM    6  H   UNL     1      -7.581   1.498 -29.833  1.00  0.00     0.168 HD
BRANCH   5   7
HETATM    7  C   UNL     1      -6.480   2.392 -31.357  1.00  0.00     0.049 A 
HETATM    8  C   UNL     1      -5.337   1.571 -31.282  1.00  0.00     0.074 A 
HETATM    9  C   UNL     1      -4.150   1.975 -31.931  1.00  0.00     0.018 A 
HETATM   10  C   UNL     1      -4.100   3.154 -32.669  1.00  0.00     0.001 A 
HETATM   11  C   UNL     1      -5.237   3.944 -32.773  1.00  0.00     0.002 A 
HETATM   12  C   UNL     1      -6.418   3.562 -32.130  1.00  0.00     0.030 A 
BRANCH   8  13
HETATM   13  C   UNL     1      -5.301   0.300 -30.473  1.00  0.00     0.419 C 
HETATM   14  F   UNL     1      -6.165  -0.653 -30.926  1.00  0.00    -0.166 F 
HETATM   15  F   UNL     1      -4.070  -0.283 -30.474  1.00  0.00    -0.166 F 
HETATM   16  F   UNL     1      -5.623   0.485 -29.159  1.00  0.00    -0.166 F 
ENDBRANCH   8  13
ENDBRANCH   5   7
ENDBRANCH   3   5
ENDBRANCH   1   3
BRANCH   1  17
HETATM   17  N   UNL     1      -8.656   0.311 -32.842  1.00  0.00    -0.268 N 
HETATM   18  C   UNL     1      -8.582   0.899 -34.087  1.00  0.00     0.236 C 
HETATM   19  O   UNL     1      -9.263   1.871 -34.405  1.00  0.00    -0.272 OA
HETATM   20  H   UNL     1      -8.079  -0.476 -32.553  1.00  0.00     0.190 HD
BRANCH  18  21
HETATM   21  C   UNL     1      -7.553   0.248 -34.986  1.00  0.00     0.109 C 
BRANCH  21  22
HETATM   22  C   UNL     1      -6.349  -0.255 -34.190  1.00  0.00     0.048 C 
BRANCH  22  23
HETATM   23  C   UNL     1      -5.991  -1.719 -34.348  1.00  0.00    -0.055 A 
HETATM   24  C   UNL     1      -4.774  -2.161 -33.794  1.00  0.00     0.046 A 
HETATM   25  C   UNL     1      -4.409  -3.500 -33.887  1.00  0.00     0.099 A 
HETATM   26  C   UNL     1      -5.241  -4.411 -34.527  1.00  0.00     0.098 A 
HETATM   27  C   UNL     1      -6.438  -4.000 -35.089  1.00  0.00     0.040 A 
HETATM   28  C   UNL     1      -6.812  -2.655 -35.003  1.00  0.00     0.010 A 
BRANCH  25  29
HETATM   29  O   UNL     1      -3.240  -3.970 -33.356  1.00  0.00    -0.358 OA
HETATM   30  H   UNL     1      -2.768  -4.459 -34.053  1.00  0.00     0.218 HD
ENDBRANCH  25  29
BRANCH  26  31
HETATM   31  O   UNL     1      -4.882  -5.726 -34.605  1.00  0.00    -0.358 OA
HETATM   32  H   UNL     1      -3.921  -5.727 -34.429  1.00  0.00     0.218 HD
ENDBRANCH  26  31
ENDBRANCH  22  23
ENDBRANCH  21  22
ENDBRANCH  18  21
ENDBRANCH   1  17
TORSDOF 10
ENDMDL
MODEL 4
REMARK VINA RESULT:      -8.0      3.684      4.457
REMARK  10 active torsions:
REMARK  status: ('A' for Active; 'I' for Inactive)
REMARK    1  A    between atoms: C_3  and  C_4 
REMARK    2  A    between atoms: C_8  and  N_9 
REMARK    3  A    between atoms: N_9  and  C_10 
REMARK    4  A    between atoms: C_10  and  N_11 
REMARK    5  A    between atoms: N_11  and  N_12 
REMARK       I    between atoms: N_12  and  C_13 
REMARK    6  A    between atoms: C_13  and  C_14 
REMARK    7  A    between atoms: C_14  and  C_15 
REMARK    8  A    between atoms: C_15  and  C_16 
REMARK    9  A    between atoms: C_18  and  O_19 
REMARK   10  A    between atoms: C_20  and  O_21 
ROOT
HETATM    1  N   UNL     1      -3.930   1.755 -31.262  1.00  0.00    -0.274 N 
HETATM    2  H   UNL     1      -3.036   1.278 -31.136  1.00  0.00     0.189 HD
ENDROOT
BRANCH   1   3
HETATM    3  C   UNL     1      -4.004   3.102 -31.025  1.00  0.00     0.191 C 
HETATM    4  S   UNL     1      -5.416   3.914 -30.622  1.00  0.00    -0.039 SA
BRANCH   3   5
HETATM    5  N   UNL     1      -2.855   3.832 -31.154  1.00  0.00    -0.331 N 
HETATM    6  H   UNL     1      -2.245   3.731 -30.343  1.00  0.00     0.168 HD
BRANCH   5   7
HETATM    7  C   UNL     1      -2.342   4.582 -32.240  1.00  0.00     0.049 A 
HETATM    8  C   UNL     1      -1.261   5.462 -32.030  1.00  0.00     0.074 A 
HETATM    9  C   UNL     1      -0.739   6.191 -33.120  1.00  0.00     0.018 A 
HETATM   10  C   UNL     1      -1.253   6.032 -34.403  1.00  0.00     0.001 A 
HETATM   11  C   UNL     1      -2.294   5.138 -34.617  1.00  0.00     0.002 A 
HETATM   12  C   UNL     1      -2.828   4.414 -33.546  1.00  0.00     0.030 A 
BRANCH   8  13
HETATM   13  C   UNL     1      -0.674   5.716 -30.665  1.00  0.00     0.419 C 
HETATM   14  F   UNL     1      -0.148   4.599 -30.086  1.00  0.00    -0.166 F 
HETATM   15  F   UNL     1       0.336   6.629 -30.694  1.00  0.00    -0.166 F 
HETATM   16  F   UNL     1      -1.583   6.197 -29.766  1.00  0.00    -0.166 F 
ENDBRANCH   8  13
ENDBRANCH   5   7
ENDBRANCH   3   5
ENDBRANCH   1   3
BRANCH   1  17
HETATM   17  N   UNL     1      -4.808   1.116 -32.145  1.00  0.00    -0.268 N 
HETATM   18  C   UNL     1      -5.862   0.399 -31.616  1.00  0.00     0.236 C 
HETATM   19  O   UNL     1      -5.991   0.200 -30.410  1.00  0.00    -0.272 OA
HETATM   20  H   UNL     1      -4.700   1.314 -33.137  1.00  0.00     0.190 HD
BRANCH  18  21
HETATM   21  C   UNL     1      -6.843  -0.068 -32.669  1.00  0.00     0.109 C 
BRANCH  21  22
HETATM   22  C   UNL     1      -6.136  -0.445 -33.970  1.00  0.00     0.048 C 
BRANCH  22  23
HETATM   23  C   UNL     1      -5.681  -1.884 -34.106  1.00  0.00    -0.055 A 
HETATM   24  C   UNL     1      -6.586  -2.808 -34.664  1.00  0.00     0.046 A 
HETATM   25  C   UNL     1      -6.211  -4.137 -34.837  1.00  0.00     0.099 A 
HETATM   26  C   UNL     1      -4.942  -4.561 -34.460  1.00  0.00     0.098 A 
HETATM   27  C   UNL     1      -4.038  -3.675 -33.901  1.00  0.00     0.040 A 
HETATM   28  C   UNL     1      -4.407  -2.337 -33.721  1.00  0.00     0.010 A 
BRANCH  25  29
HETATM   29  O   UNL     1      -7.057  -5.062 -35.381  1.00  0.00    -0.358 OA
HETATM   30  H   UNL     1      -6.551  -5.591 -36.023  1.00  0.00     0.218 HD
ENDBRANCH  25  29
BRANCH  26  31
HETATM   31  O   UNL     1      -4.575  -5.864 -34.643  1.00  0.00    -0.358 OA
HETATM   32  H   UNL     1      -5.163  -6.367 -34.045  1.00  0.00     0.218 HD
ENDBRANCH  26  31
ENDBRANCH  22  23
ENDBRANCH  21  22
ENDBRANCH  18  21
ENDBRANCH   1  17
TORSDOF 10
ENDMDL
MODEL 5
REMARK VINA RESULT:      -7.9      2.696      4.695
REMARK  10 active torsions:
REMARK  status: ('A' for Active; 'I' for Inactive)
REMARK    1  A    between atoms: C_3  and  C_4 
REMARK    2  A    between atoms: C_8  and  N_9 
REMARK    3  A    between atoms: N_9  and  C_10 
REMARK    4  A    between atoms: C_10  and  N_11 
REMARK    5  A    between atoms: N_11  and  N_12 
REMARK       I    between atoms: N_12  and  C_13 
REMARK    6  A    between atoms: C_13  and  C_14 
REMARK    7  A    between atoms: C_14  and  C_15 
REMARK    8  A    between atoms: C_15  and  C_16 
REMARK    9  A    between atoms: C_18  and  O_19 
REMARK   10  A    between atoms: C_20  and  O_21 
ROOT
HETATM    1  N   UNL     1      -6.184   2.192 -31.418  1.00  0.00    -0.274 N 
HETATM    2  H   UNL     1      -5.480   2.924 -31.316  1.00  0.00     0.189 HD
ENDROOT
BRANCH   1   3
HETATM    3  C   UNL     1      -7.462   2.541 -31.763  1.00  0.00     0.191 C 
HETATM    4  S   UNL     1      -8.499   3.421 -30.781  1.00  0.00    -0.039 SA
BRANCH   3   5
HETATM    5  N   UNL     1      -7.929   2.119 -32.977  1.00  0.00    -0.331 N 
HETATM    6  H   UNL     1      -7.240   1.554 -33.475  1.00  0.00     0.168 HD
BRANCH   5   7
HETATM    7  C   UNL     1      -9.205   2.234 -33.579  1.00  0.00     0.049 A 
HETATM    8  C   UNL     1     -10.150   1.202 -33.411  1.00  0.00     0.074 A 
HETATM    9  C   UNL     1     -11.429   1.331 -33.995  1.00  0.00     0.018 A 
HETATM   10  C   UNL     1     -11.781   2.474 -34.707  1.00  0.00     0.001 A 
HETATM   11  C   UNL     1     -10.863   3.506 -34.842  1.00  0.00     0.002 A 
HETATM   12  C   UNL     1      -9.589   3.390 -34.276  1.00  0.00     0.030 A 
BRANCH   8  13
HETATM   13  C   UNL     1      -9.832  -0.081 -32.686  1.00  0.00     0.419 C 
HETATM   14  F   UNL     1      -9.510   0.106 -31.374  1.00  0.00    -0.166 F 
HETATM   15  F   UNL     1     -10.876  -0.955 -32.692  1.00  0.00    -0.166 F 
HETATM   16  F   UNL     1      -8.777  -0.760 -33.225  1.00  0.00    -0.166 F 
ENDBRANCH   8  13
ENDBRANCH   5   7
ENDBRANCH   3   5
ENDBRANCH   1   3
BRANCH   1  17
HETATM   17  N   UNL     1      -5.665   0.925 -31.712  1.00  0.00    -0.268 N 
HETATM   18  C   UNL     1      -4.319   0.705 -31.505  1.00  0.00     0.236 C 
HETATM   19  O   UNL     1      -3.540   1.601 -31.189  1.00  0.00    -0.272 OA
HETATM   20  H   UNL     1      -6.329   0.191 -31.946  1.00  0.00     0.190 HD
BRANCH  18  21
HETATM   21  C   UNL     1      -3.929  -0.749 -31.667  1.00  0.00     0.109 C 
BRANCH  21  22
HETATM   22  C   UNL     1      -3.654  -1.098 -33.129  1.00  0.00     0.048 C 
BRANCH  22  23
HETATM   23  C   UNL     1      -4.571  -2.120 -33.770  1.00  0.00    -0.055 A 
HETATM   24  C   UNL     1      -4.114  -3.449 -33.856  1.00  0.00     0.046 A 
HETATM   25  C   UNL     1      -4.927  -4.433 -34.411  1.00  0.00     0.099 A 
HETATM   26  C   UNL     1      -6.194  -4.111 -34.885  1.00  0.00     0.098 A 
HETATM   27  C   UNL     1      -6.662  -2.810 -34.820  1.00  0.00     0.040 A 
HETATM   28  C   UNL     1      -5.851  -1.814 -34.266  1.00  0.00     0.010 A 
BRANCH  25  29
HETATM   29  O   UNL     1      -4.523  -5.736 -34.507  1.00  0.00    -0.358 OA
HETATM   30  H   UNL     1      -4.202  -6.016 -33.632  1.00  0.00     0.218 HD
ENDBRANCH  25  29
BRANCH  26  31
HETATM   31  O   UNL     1      -6.991  -5.084 -35.418  1.00  0.00    -0.358 OA
HETATM   32  H   UNL     1      -7.116  -4.812 -36.348  1.00  0.00     0.218 HD
ENDBRANCH  26  31
ENDBRANCH  22  23
ENDBRANCH  21  22
ENDBRANCH  18  21
ENDBRANCH   1  17
TORSDOF 10
ENDMDL
MODEL 6
REMARK VINA RESULT:      -7.8      4.112      6.910
REMARK  10 active torsions:
REMARK  status: ('A' for Active; 'I' for Inactive)
REMARK    1  A    between atoms: C_3  and  C_4 
REMARK    2  A    between atoms: C_8  and  N_9 
REMARK    3  A    between atoms: N_9  and  C_10 
REMARK    4  A    between atoms: C_10  and  N_11 
REMARK    5  A    between atoms: N_11  and  N_12 
REMARK       I    between atoms: N_12  and  C_13 
REMARK    6  A    between atoms: C_13  and  C_14 
REMARK    7  A    between atoms: C_14  and  C_15 
REMARK    8  A    between atoms: C_15  and  C_16 
REMARK    9  A    between atoms: C_18  and  O_19 
REMARK   10  A    between atoms: C_20  and  O_21 
ROOT
HETATM    1  N   UNL     1      -7.742   1.184 -30.781  1.00  0.00    -0.274 N 
HETATM    2  H   UNL     1      -7.833   1.400 -29.787  1.00  0.00     0.189 HD
ENDROOT
BRANCH   1   3
HETATM    3  C   UNL     1      -6.492   1.006 -31.311  1.00  0.00     0.191 C 
HETATM    4  S   UNL     1      -5.477   2.255 -31.781  1.00  0.00    -0.039 SA
BRANCH   3   5
HETATM    5  N   UNL     1      -6.059  -0.279 -31.494  1.00  0.00    -0.331 N 
HETATM    6  H   UNL     1      -5.933  -0.769 -30.608  1.00  0.00     0.168 HD
BRANCH   5   7
HETATM    7  C   UNL     1      -5.880  -1.047 -32.670  1.00  0.00     0.049 A 
HETATM    8  C   UNL     1      -4.606  -1.569 -32.974  1.00  0.00     0.074 A 
HETATM    9  C   UNL     1      -4.438  -2.352 -34.136  1.00  0.00     0.018 A 
HETATM   10  C   UNL     1      -5.514  -2.641 -34.970  1.00  0.00     0.001 A 
HETATM   11  C   UNL     1      -6.775  -2.157 -34.652  1.00  0.00     0.002 A 
HETATM   12  C   UNL     1      -6.958  -1.373 -33.508  1.00  0.00     0.030 A 
BRANCH   8  13
HETATM   13  C   UNL     1      -3.386  -1.270 -32.141  1.00  0.00     0.419 C 
HETATM   14  F   UNL     1      -2.603  -2.364 -31.918  1.00  0.00    -0.166 F 
HETATM   15  F   UNL     1      -2.574  -0.344 -32.722  1.00  0.00    -0.166 F 
HETATM   16  F   UNL     1      -3.684  -0.778 -30.902  1.00  0.00    -0.166 F 
ENDBRANCH   8  13
ENDBRANCH   5   7
ENDBRANCH   3   5
ENDBRANCH   1   3
BRANCH   1  17
HETATM   17  N   UNL     1      -8.872   0.587 -31.351  1.00  0.00    -0.268 N 
HETATM   18  C   UNL     1      -9.452   1.193 -32.447  1.00  0.00     0.236 C 
HETATM   19  O   UNL     1      -9.091   2.289 -32.868  1.00  0.00    -0.272 OA
HETATM   20  H   UNL     1      -9.139  -0.333 -31.006  1.00  0.00     0.190 HD
BRANCH  18  21
HETATM   21  C   UNL     1     -10.532   0.346 -33.085  1.00  0.00     0.109 C 
BRANCH  21  22
HETATM   22  C   UNL     1     -11.320   1.133 -34.130  1.00  0.00     0.048 C 
BRANCH  22  23
HETATM   23  C   UNL     1     -12.778   1.407 -33.821  1.00  0.00    -0.055 A 
HETATM   24  C   UNL     1     -13.749   0.688 -34.544  1.00  0.00     0.046 A 
HETATM   25  C   UNL     1     -15.102   0.881 -34.282  1.00  0.00     0.099 A 
HETATM   26  C   UNL     1     -15.504   1.785 -33.305  1.00  0.00     0.098 A 
HETATM   27  C   UNL     1     -14.570   2.511 -32.587  1.00  0.00     0.040 A 
HETATM   28  C   UNL     1     -13.208   2.326 -32.846  1.00  0.00     0.010 A 
BRANCH  25  29
HETATM   29  O   UNL     1     -16.075   0.198 -34.957  1.00  0.00    -0.358 OA
HETATM   30  H   UNL     1     -16.734  -0.106 -34.309  1.00  0.00     0.218 HD
ENDBRANCH  25  29
BRANCH  26  31
HETATM   31  O   UNL     1     -16.833   1.962 -33.044  1.00  0.00    -0.358 OA
HETATM   32  H   UNL     1     -17.263   1.900 -33.920  1.00  0.00     0.218 HD
ENDBRANCH  26  31
ENDBRANCH  22  23
ENDBRANCH  21  22
ENDBRANCH  18  21
ENDBRANCH   1  17
TORSDOF 10
ENDMDL
MODEL 7
REMARK VINA RESULT:      -7.7      3.907      4.886
REMARK  10 active torsions:
REMARK  status: ('A' for Active; 'I' for Inactive)
REMARK    1  A    between atoms: C_3  and  C_4 
REMARK    2  A    between atoms: C_8  and  N_9 
REMARK    3  A    between atoms: N_9  and  C_10 
REMARK    4  A    between atoms: C_10  and  N_11 
REMARK    5  A    between atoms: N_11  and  N_12 
REMARK       I    between atoms: N_12  and  C_13 
REMARK    6  A    between atoms: C_13  and  C_14 
REMARK    7  A    between atoms: C_14  and  C_15 
REMARK    8  A    between atoms: C_15  and  C_16 
REMARK    9  A    between atoms: C_18  and  O_19 
REMARK   10  A    between atoms: C_20  and  O_21 
ROOT
HETATM    1  N   UNL     1      -3.957   3.484 -30.868  1.00  0.00    -0.274 N 
HETATM    2  H   UNL     1      -3.017   3.244 -30.548  1.00  0.00     0.189 HD
ENDROOT
BRANCH   1   3
HETATM    3  C   UNL     1      -4.380   4.783 -30.775  1.00  0.00     0.191 C 
HETATM    4  S   UNL     1      -5.774   5.269 -29.979  1.00  0.00    -0.039 SA
BRANCH   3   5
HETATM    5  N   UNL     1      -3.627   5.741 -31.397  1.00  0.00    -0.331 N 
HETATM    6  H   UNL     1      -4.193   6.342 -31.996  1.00  0.00     0.168 HD
BRANCH   5   7
HETATM    7  C   UNL     1      -2.262   6.093 -31.259  1.00  0.00     0.049 A 
HETATM    8  C   UNL     1      -1.382   5.909 -32.344  1.00  0.00     0.074 A 
HETATM    9  C   UNL     1      -0.027   6.282 -32.208  1.00  0.00     0.018 A 
HETATM   10  C   UNL     1       0.445   6.856 -31.032  1.00  0.00     0.001 A 
HETATM   11  C   UNL     1      -0.430   7.071 -29.976  1.00  0.00     0.002 A 
HETATM   12  C   UNL     1      -1.773   6.700 -30.092  1.00  0.00     0.030 A 
BRANCH   8  13
HETATM   13  C   UNL     1      -1.809   5.260 -33.636  1.00  0.00     0.419 C 
HETATM   14  F   UNL     1      -2.128   3.942 -33.499  1.00  0.00    -0.166 F 
HETATM   15  F   UNL     1      -2.908   5.854 -34.177  1.00  0.00    -0.166 F 
HETATM   16  F   UNL     1      -0.849   5.302 -34.606  1.00  0.00    -0.166 F 
ENDBRANCH   8  13
ENDBRANCH   5   7
ENDBRANCH   3   5
ENDBRANCH   1   3
BRANCH   1  17
HETATM   17  N   UNL     1      -4.485   2.608 -31.823  1.00  0.00    -0.268 N 
HETATM   18  C   UNL     1      -3.932   1.349 -31.933  1.00  0.00     0.236 C 
HETATM   19  O   UNL     1      -2.927   1.008 -31.315  1.00  0.00    -0.272 OA
HETATM   20  H   UNL     1      -5.333   2.898 -32.305  1.00  0.00     0.190 HD
BRANCH  18  21
HETATM   21  C   UNL     1      -4.719   0.439 -32.853  1.00  0.00     0.109 C 
BRANCH  21  22
HETATM   22  C   UNL     1      -3.986  -0.878 -33.103  1.00  0.00     0.048 C 
BRANCH  22  23
HETATM   23  C   UNL     1      -4.786  -1.990 -33.752  1.00  0.00    -0.055 A 
HETATM   24  C   UNL     1      -4.187  -3.261 -33.845  1.00  0.00     0.046 A 
HETATM   25  C   UNL     1      -4.887  -4.325 -34.407  1.00  0.00     0.099 A 
HETATM   26  C   UNL     1      -6.180  -4.140 -34.882  1.00  0.00     0.098 A 
HETATM   27  C   UNL     1      -6.787  -2.898 -34.811  1.00  0.00     0.040 A 
HETATM   28  C   UNL     1      -6.091  -1.822 -34.250  1.00  0.00     0.010 A 
BRANCH  25  29
HETATM   29  O   UNL     1      -4.343  -5.575 -34.509  1.00  0.00    -0.358 OA
HETATM   30  H   UNL     1      -4.340  -5.975 -33.622  1.00  0.00     0.218 HD
ENDBRANCH  25  29
BRANCH  26  31
HETATM   31  O   UNL     1      -6.866  -5.190 -35.423  1.00  0.00    -0.358 OA
HETATM   32  H   UNL     1      -6.181  -5.716 -35.881  1.00  0.00     0.218 HD
ENDBRANCH  26  31
ENDBRANCH  22  23
ENDBRANCH  21  22
ENDBRANCH  18  21
ENDBRANCH   1  17
TORSDOF 10
ENDMDL
MODEL 8
REMARK VINA RESULT:      -7.7      5.663      8.197
REMARK  10 active torsions:
REMARK  status: ('A' for Active; 'I' for Inactive)
REMARK    1  A    between atoms: C_3  and  C_4 
REMARK    2  A    between atoms: C_8  and  N_9 
REMARK    3  A    between atoms: N_9  and  C_10 
REMARK    4  A    between atoms: C_10  and  N_11 
REMARK    5  A    between atoms: N_11  and  N_12 
REMARK       I    between atoms: N_12  and  C_13 
REMARK    6  A    between atoms: C_13  and  C_14 
REMARK    7  A    between atoms: C_14  and  C_15 
REMARK    8  A    between atoms: C_15  and  C_16 
REMARK    9  A    between atoms: C_18  and  O_19 
REMARK   10  A    between atoms: C_20  and  O_21 
ROOT
HETATM    1  N   UNL     1      -4.412   3.961 -33.311  1.00  0.00    -0.274 N 
HETATM    2  H   UNL     1      -4.963   4.076 -34.163  1.00  0.00     0.189 HD
ENDROOT
BRANCH   1   3
HETATM    3  C   UNL     1      -4.854   3.096 -32.346  1.00  0.00     0.191 C 
HETATM    4  S   UNL     1      -5.421   3.568 -30.840  1.00  0.00    -0.039 SA
BRANCH   3   5
HETATM    5  N   UNL     1      -4.799   1.757 -32.622  1.00  0.00    -0.331 N 
HETATM    6  H   UNL     1      -4.107   1.276 -32.048  1.00  0.00     0.168 HD
BRANCH   5   7
HETATM    7  C   UNL     1      -5.601   0.943 -33.459  1.00  0.00     0.049 A 
HETATM    8  C   UNL     1      -5.307  -0.431 -33.581  1.00  0.00     0.074 A 
HETATM    9  C   UNL     1      -6.122  -1.243 -34.399  1.00  0.00     0.018 A 
HETATM   10  C   UNL     1      -7.227  -0.716 -35.061  1.00  0.00     0.001 A 
HETATM   11  C   UNL     1      -7.537   0.628 -34.911  1.00  0.00     0.002 A 
HETATM   12  C   UNL     1      -6.736   1.448 -34.111  1.00  0.00     0.030 A 
BRANCH   8  13
HETATM   13  C   UNL     1      -4.108  -1.067 -32.926  1.00  0.00     0.419 C 
HETATM   14  F   UNL     1      -4.185  -1.091 -31.565  1.00  0.00    -0.166 F 
HETATM   15  F   UNL     1      -3.931  -2.361 -33.311  1.00  0.00    -0.166 F 
HETATM   16  F   UNL     1      -2.934  -0.431 -33.212  1.00  0.00    -0.166 F 
ENDBRANCH   8  13
ENDBRANCH   5   7
ENDBRANCH   3   5
ENDBRANCH   1   3
BRANCH   1  17
HETATM   17  N   UNL     1      -3.055   4.273 -33.450  1.00  0.00    -0.268 N 
HETATM   18  C   UNL     1      -2.702   5.279 -34.326  1.00  0.00     0.236 C 
HETATM   19  O   UNL     1      -3.511   5.827 -35.071  1.00  0.00    -0.272 OA
HETATM   20  H   UNL     1      -2.405   3.829 -32.807  1.00  0.00     0.190 HD
BRANCH  18  21
HETATM   21  C   UNL     1      -1.238   5.652 -34.234  1.00  0.00     0.109 C 
BRANCH  21  22
HETATM   22  C   UNL     1      -1.022   6.864 -33.328  1.00  0.00     0.048 C 
BRANCH  22  23
HETATM   23  C   UNL     1      -0.784   6.582 -31.858  1.00  0.00    -0.055 A 
HETATM   24  C   UNL     1      -0.135   5.379 -31.517  1.00  0.00     0.046 A 
HETATM   25  C   UNL     1       0.133   5.083 -30.184  1.00  0.00     0.099 A 
HETATM   26  C   UNL     1      -0.239   5.970 -29.180  1.00  0.00     0.098 A 
HETATM   27  C   UNL     1      -0.887   7.153 -29.489  1.00  0.00     0.040 A 
HETATM   28  C   UNL     1      -1.162   7.459 -30.826  1.00  0.00     0.010 A 
BRANCH  25  29
HETATM   29  O   UNL     1       0.766   3.930 -29.813  1.00  0.00    -0.358 OA
HETATM   30  H   UNL     1       0.219   3.490 -29.139  1.00  0.00     0.218 HD
ENDBRANCH  25  29
BRANCH  26  31
HETATM   31  O   UNL     1       0.036   5.678 -27.875  1.00  0.00    -0.358 OA
HETATM   32  H   UNL     1       0.036   4.701 -27.839  1.00  0.00     0.218 HD
ENDBRANCH  26  31
ENDBRANCH  22  23
ENDBRANCH  21  22
ENDBRANCH  18  21
ENDBRANCH   1  17
TORSDOF 10
ENDMDL
MODEL 9
REMARK VINA RESULT:      -7.6      4.410      7.301
REMARK  10 active torsions:
REMARK  status: ('A' for Active; 'I' for Inactive)
REMARK    1  A    between atoms: C_3  and  C_4 
REMARK    2  A    between atoms: C_8  and  N_9 
REMARK    3  A    between atoms: N_9  and  C_10 
REMARK    4  A    between atoms: C_10  and  N_11 
REMARK    5  A    between atoms: N_11  and  N_12 
REMARK       I    between atoms: N_12  and  C_13 
REMARK    6  A    between atoms: C_13  and  C_14 
REMARK    7  A    between atoms: C_14  and  C_15 
REMARK    8  A    between atoms: C_15  and  C_16 
REMARK    9  A    between atoms: C_18  and  O_19 
REMARK   10  A    between atoms: C_20  and  O_21 
ROOT
HETATM    1  N   UNL     1      -3.183  -0.811 -31.361  1.00  0.00    -0.274 N 
HETATM    2  H   UNL     1      -3.101  -0.854 -30.344  1.00  0.00     0.189 HD
ENDROOT
BRANCH   1   3
HETATM    3  C   UNL     1      -3.277  -1.978 -32.071  1.00  0.00     0.191 C 
HETATM    4  S   UNL     1      -2.668  -3.452 -31.551  1.00  0.00    -0.039 SA
BRANCH   3   5
HETATM    5  N   UNL     1      -3.882  -1.928 -33.297  1.00  0.00    -0.331 N 
HETATM    6  H   UNL     1      -3.542  -1.146 -33.858  1.00  0.00     0.168 HD
BRANCH   5   7
HETATM    7  C   UNL     1      -4.780  -2.819 -33.933  1.00  0.00     0.049 A 
HETATM    8  C   UNL     1      -6.068  -2.372 -34.290  1.00  0.00     0.074 A 
HETATM    9  C   UNL     1      -6.952  -3.257 -34.944  1.00  0.00     0.018 A 
HETATM   10  C   UNL     1      -6.561  -4.553 -35.268  1.00  0.00     0.001 A 
HETATM   11  C   UNL     1      -5.280  -4.981 -34.950  1.00  0.00     0.002 A 
HETATM   12  C   UNL     1      -4.395  -4.119 -34.295  1.00  0.00     0.030 A 
BRANCH   8  13
HETATM   13  C   UNL     1      -6.577  -0.997 -33.940  1.00  0.00     0.419 C 
HETATM   14  F   UNL     1      -5.735   0.004 -34.323  1.00  0.00    -0.166 F 
HETATM   15  F   UNL     1      -7.774  -0.720 -34.527  1.00  0.00    -0.166 F 
HETATM   16  F   UNL     1      -6.771  -0.816 -32.600  1.00  0.00    -0.166 F 
ENDBRANCH   8  13
ENDBRANCH   5   7
ENDBRANCH   3   5
ENDBRANCH   1   3
BRANCH   1  17
HETATM   17  N   UNL     1      -3.714   0.389 -31.849  1.00  0.00    -0.268 N 
HETATM   18  C   UNL     1      -4.707   1.010 -31.120  1.00  0.00     0.236 C 
HETATM   19  O   UNL     1      -5.224   0.498 -30.131  1.00  0.00    -0.272 OA
HETATM   20  H   UNL     1      -3.255   0.810 -32.654  1.00  0.00     0.190 HD
BRANCH  18  21
HETATM   21  C   UNL     1      -5.048   2.388 -31.646  1.00  0.00     0.109 C 
BRANCH  21  22
HETATM   22  C   UNL     1      -4.152   3.463 -31.030  1.00  0.00     0.048 C 
BRANCH  22  23
HETATM   23  C   UNL     1      -3.249   4.223 -31.980  1.00  0.00    -0.055 A 
HETATM   24  C   UNL     1      -3.787   4.626 -33.217  1.00  0.00     0.046 A 
HETATM   25  C   UNL     1      -3.010   5.350 -34.116  1.00  0.00     0.099 A 
HETATM   26  C   UNL     1      -1.697   5.680 -33.800  1.00  0.00     0.098 A 
HETATM   27  C   UNL     1      -1.141   5.286 -32.594  1.00  0.00     0.040 A 
HETATM   28  C   UNL     1      -1.915   4.556 -31.686  1.00  0.00     0.010 A 
BRANCH  25  29
HETATM   29  O   UNL     1      -3.498   5.766 -35.323  1.00  0.00    -0.358 OA
HETATM   30  H   UNL     1      -4.176   5.129 -35.609  1.00  0.00     0.218 HD
ENDBRANCH  25  29
BRANCH  26  31
HETATM   31  O   UNL     1      -0.943   6.400 -34.681  1.00  0.00    -0.358 OA
HETATM   32  H   UNL     1      -1.422   7.246 -34.776  1.00  0.00     0.218 HD
ENDBRANCH  26  31
ENDBRANCH  22  23
ENDBRANCH  21  22
ENDBRANCH  18  21
ENDBRANCH   1  17
TORSDOF 10
ENDMDL
MODEL 10
REMARK VINA RESULT:      -7.4      3.887      5.561
REMARK  10 active torsions:
REMARK  status: ('A' for Active; 'I' for Inactive)
REMARK    1  A    between atoms: C_3  and  C_4 
REMARK    2  A    between atoms: C_8  and  N_9 
REMARK    3  A    between atoms: N_9  and  C_10 
REMARK    4  A    between atoms: C_10  and  N_11 
REMARK    5  A    between atoms: N_11  and  N_12 
REMARK       I    between atoms: N_12  and  C_13 
REMARK    6  A    between atoms: C_13  and  C_14 
REMARK    7  A    between atoms: C_14  and  C_15 
REMARK    8  A    between atoms: C_15  and  C_16 
REMARK    9  A    between atoms: C_18  and  O_19 
REMARK   10  A    between atoms: C_20  and  O_21 
ROOT
HETATM    1  N   UNL     1      -9.066   3.278 -33.552  1.00  0.00    -0.274 N 
HETATM    2  H   UNL     1      -8.408   4.033 -33.355  1.00  0.00     0.189 HD
ENDROOT
BRANCH   1   3
HETATM    3  C   UNL     1     -10.382   3.583 -33.779  1.00  0.00     0.191 C 
HETATM    4  S   UNL     1     -10.918   4.607 -34.994  1.00  0.00    -0.039 SA
BRANCH   3   5
HETATM    5  N   UNL     1     -11.313   3.038 -32.938  1.00  0.00    -0.331 N 
HETATM    6  H   UNL     1     -11.245   3.421 -31.995  1.00  0.00     0.168 HD
BRANCH   5   7
HETATM    7  C   UNL     1     -12.389   2.152 -33.185  1.00  0.00     0.049 A 
HETATM    8  C   UNL     1     -13.702   2.540 -32.845  1.00  0.00     0.074 A 
HETATM    9  C   UNL     1     -14.774   1.662 -33.113  1.00  0.00     0.018 A 
HETATM   10  C   UNL     1     -14.560   0.435 -33.734  1.00  0.00     0.001 A 
HETATM   11  C   UNL     1     -13.273   0.070 -34.101  1.00  0.00     0.002 A 
HETATM   12  C   UNL     1     -12.198   0.924 -33.836  1.00  0.00     0.030 A 
BRANCH   8  13
HETATM   13  C   UNL     1     -14.009   3.835 -32.138  1.00  0.00     0.419 C 
HETATM   14  F   UNL     1     -15.340   4.019 -31.904  1.00  0.00    -0.166 F 
HETATM   15  F   UNL     1     -13.402   3.921 -30.922  1.00  0.00    -0.166 F 
HETATM   16  F   UNL     1     -13.607   4.940 -32.833  1.00  0.00    -0.166 F 
ENDBRANCH   8  13
ENDBRANCH   5   7
ENDBRANCH   3   5
ENDBRANCH   1   3
BRANCH   1  17
HETATM   17  N   UNL     1      -8.480   2.122 -34.082  1.00  0.00    -0.268 N 
HETATM   18  C   UNL     1      -8.484   0.976 -33.315  1.00  0.00     0.236 C 
HETATM   19  O   UNL     1      -8.870   0.957 -32.149  1.00  0.00    -0.272 OA
HETATM   20  H   UNL     1      -8.191   2.150 -35.057  1.00  0.00     0.190 HD
BRANCH  18  21
HETATM   21  C   UNL     1      -8.006  -0.243 -34.076  1.00  0.00     0.109 C 
BRANCH  21  22
HETATM   22  C   UNL     1      -6.486  -0.386 -34.014  1.00  0.00     0.048 C 
BRANCH  22  23
HETATM   23  C   UNL     1      -5.928  -1.789 -34.139  1.00  0.00    -0.055 A 
HETATM   24  C   UNL     1      -6.757  -2.777 -34.705  1.00  0.00     0.046 A 
HETATM   25  C   UNL     1      -6.286  -4.076 -34.868  1.00  0.00     0.099 A 
HETATM   26  C   UNL     1      -4.994  -4.408 -34.473  1.00  0.00     0.098 A 
HETATM   27  C   UNL     1      -4.164  -3.457 -33.905  1.00  0.00     0.040 A 
HETATM   28  C   UNL     1      -4.630  -2.149 -33.735  1.00  0.00     0.010 A 
BRANCH  25  29
HETATM   29  O   UNL     1      -7.056  -5.061 -35.419  1.00  0.00    -0.358 OA
HETATM   30  H   UNL     1      -7.344  -5.654 -34.702  1.00  0.00     0.218 HD
ENDBRANCH  25  29
BRANCH  26  31
HETATM   31  O   UNL     1      -4.534  -5.682 -34.646  1.00  0.00    -0.358 OA
HETATM   32  H   UNL     1      -4.105  -5.902 -33.796  1.00  0.00     0.218 HD
ENDBRANCH  26  31
ENDBRANCH  22  23
ENDBRANCH  21  22
ENDBRANCH  18  21
ENDBRANCH   1  17
TORSDOF 10
ENDMDL
