MODEL 1
REMARK VINA RESULT:      -7.7      0.000      0.000
REMARK  10 active torsions:
REMARK  status: ('A' for Active; 'I' for Inactive)
REMARK    1  A    between atoms: O_2  and  C_3 
REMARK    2  A    between atoms: C_6  and  N_7 
REMARK    3  A    between atoms: N_7  and  C_8 
REMARK    4  A    between atoms: C_8  and  N_9 
REMARK    5  A    between atoms: N_9  and  N_10 
REMARK       I    between atoms: N_10  and  C_11 
REMARK    6  A    between atoms: C_11  and  C_12 
REMARK    7  A    between atoms: C_12  and  S_13 
REMARK    8  A    between atoms: S_13  and  C_14 
REMARK    9  A    between atoms: C_14  and  C_15 
REMARK       I    between atoms: C_15  and  N_16 
REMARK   10  A    between atoms: N_16  and  C_17 
ROOT
HETATM    1  N   UNL     1      -3.587   3.322 -31.217  1.00  0.00    -0.267 N 
HETATM    2  C   UNL     1      -2.506   3.904 -31.820  1.00  0.00     0.245 C 
HETATM    3  O   UNL     1      -1.490   4.114 -31.155  1.00  0.00    -0.271 OA
HETATM    4  H   UNL     1      -3.494   3.071 -30.234  1.00  0.00     0.190 HD
ENDROOT
BRANCH   1   5
HETATM    5  N   UNL     1      -4.820   3.090 -31.821  1.00  0.00    -0.274 N 
HETATM    6  H   UNL     1      -5.259   3.851 -32.336  1.00  0.00     0.189 HD
BRANCH   5   7
HETATM    7  C   UNL     1      -5.421   1.857 -31.779  1.00  0.00     0.191 C 
HETATM    8  S   UNL     1      -5.797   1.029 -30.373  1.00  0.00    -0.039 SA
BRANCH   7   9
HETATM    9  N   UNL     1      -5.680   1.250 -32.975  1.00  0.00    -0.332 N 
HETATM   10  H   UNL     1      -5.900   1.908 -33.718  1.00  0.00     0.168 HD
BRANCH   9  11
HETATM   11  C   UNL     1      -5.511  -0.090 -33.383  1.00  0.00     0.034 A 
HETATM   12  C   UNL     1      -6.636  -0.754 -33.877  1.00  0.00     0.032 A 
HETATM   13  C   UNL     1      -6.536  -2.070 -34.339  1.00  0.00     0.039 A 
HETATM   14  C   UNL     1      -5.309  -2.734 -34.340  1.00  0.00     0.068 A 
HETATM   15  C   UNL     1      -4.180  -2.067 -33.868  1.00  0.00     0.039 A 
HETATM   16  C   UNL     1      -4.280  -0.749 -33.401  1.00  0.00     0.032 A 
BRANCH  14  17
HETATM   17  O   UNL     1      -5.346  -4.009 -34.829  1.00  0.00    -0.356 OA
HETATM   18  C   UNL     1      -6.603  -4.481 -35.300  1.00  0.00     0.210 C 
ENDBRANCH  14  17
ENDBRANCH   9  11
ENDBRANCH   7   9
ENDBRANCH   5   7
ENDBRANCH   1   5
BRANCH   2  19
HETATM   19  C   UNL     1      -2.533   4.217 -33.303  1.00  0.00     0.178 C 
BRANCH  19  20
HETATM   20  S   UNL     1      -3.127   5.877 -33.771  1.00  0.00    -0.150 SA
BRANCH  20  21
HETATM   21  C   UNL     1      -1.616   6.880 -33.605  1.00  0.00     0.177 C 
BRANCH  21  22
HETATM   22  C   UNL     1      -1.532   7.729 -32.348  1.00  0.00     0.231 C 
HETATM   23  N   UNL     1      -1.020   7.068 -31.248  1.00  0.00    -0.327 N 
HETATM   24  H   UNL     1      -0.860   6.072 -31.359  1.00  0.00     0.169 HD
HETATM   25  O   UNL     1      -1.817   8.923 -32.414  1.00  0.00    -0.272 OA
BRANCH  23  26
HETATM   26  C   UNL     1      -0.705   7.622 -29.989  1.00  0.00     0.034 A 
HETATM   27  C   UNL     1      -1.609   8.342 -29.205  1.00  0.00     0.029 A 
HETATM   28  C   UNL     1      -1.215   8.882 -27.977  1.00  0.00     0.002 A 
HETATM   29  C   UNL     1       0.088   8.704 -27.520  1.00  0.00     0.000 A 
HETATM   30  C   UNL     1       0.996   7.981 -28.287  1.00  0.00     0.002 A 
HETATM   31  C   UNL     1       0.602   7.442 -29.517  1.00  0.00     0.029 A 
ENDBRANCH  23  26
ENDBRANCH  21  22
ENDBRANCH  20  21
ENDBRANCH  19  20
ENDBRANCH   2  19
TORSDOF 10
ENDMDL
MODEL 2
REMARK VINA RESULT:      -7.5      3.907      5.519
REMARK  10 active torsions:
REMARK  status: ('A' for Active; 'I' for Inactive)
REMARK    1  A    between atoms: O_2  and  C_3 
REMARK    2  A    between atoms: C_6  and  N_7 
REMARK    3  A    between atoms: N_7  and  C_8 
REMARK    4  A    between atoms: C_8  and  N_9 
REMARK    5  A    between atoms: N_9  and  N_10 
REMARK       I    between atoms: N_10  and  C_11 
REMARK    6  A    between atoms: C_11  and  C_12 
REMARK    7  A    between atoms: C_12  and  S_13 
REMARK    8  A    between atoms: S_13  and  C_14 
REMARK    9  A    between atoms: C_14  and  C_15 
REMARK       I    between atoms: C_15  and  N_16 
REMARK   10  A    between atoms: N_16  and  C_17 
ROOT
HETATM    1  N   UNL     1      -9.405   0.644 -31.839  1.00  0.00    -0.267 N 
HETATM    2  C   UNL     1     -10.127   1.384 -32.735  1.00  0.00     0.245 C 
HETATM    3  O   UNL     1     -10.896   0.808 -33.507  1.00  0.00    -0.271 OA
HETATM    4  H   UNL     1      -9.552  -0.364 -31.841  1.00  0.00     0.190 HD
ENDROOT
BRANCH   1   5
HETATM    5  N   UNL     1      -8.450   1.147 -30.960  1.00  0.00    -0.274 N 
HETATM    6  H   UNL     1      -8.768   1.653 -30.135  1.00  0.00     0.189 HD
BRANCH   5   7
HETATM    7  C   UNL     1      -7.109   0.932 -31.154  1.00  0.00     0.191 C 
HETATM    8  S   UNL     1      -5.958   0.939 -29.939  1.00  0.00    -0.039 SA
BRANCH   7   9
HETATM    9  N   UNL     1      -6.688   0.750 -32.442  1.00  0.00    -0.332 N 
HETATM   10  H   UNL     1      -6.529   1.622 -32.938  1.00  0.00     0.168 HD
BRANCH   9  11
HETATM   11  C   UNL     1      -6.267  -0.416 -33.115  1.00  0.00     0.034 A 
HETATM   12  C   UNL     1      -4.953  -0.838 -32.902  1.00  0.00     0.032 A 
HETATM   13  C   UNL     1      -4.477  -2.007 -33.503  1.00  0.00     0.039 A 
HETATM   14  C   UNL     1      -5.311  -2.787 -34.304  1.00  0.00     0.068 A 
HETATM   15  C   UNL     1      -6.630  -2.382 -34.501  1.00  0.00     0.039 A 
HETATM   16  C   UNL     1      -7.107  -1.208 -33.902  1.00  0.00     0.032 A 
BRANCH  14  17
HETATM   17  O   UNL     1      -4.727  -3.910 -34.818  1.00  0.00    -0.356 OA
HETATM   18  C   UNL     1      -3.753  -4.558 -34.008  1.00  0.00     0.210 C 
ENDBRANCH  14  17
ENDBRANCH   9  11
ENDBRANCH   7   9
ENDBRANCH   5   7
ENDBRANCH   1   5
BRANCH   2  19
HETATM   19  C   UNL     1     -10.035   2.897 -32.728  1.00  0.00     0.178 C 
BRANCH  19  20
HETATM   20  S   UNL     1      -9.476   3.683 -34.277  1.00  0.00    -0.150 SA
BRANCH  20  21
HETATM   21  C   UNL     1      -8.195   4.830 -33.676  1.00  0.00     0.177 C 
BRANCH  21  22
HETATM   22  C   UNL     1      -6.762   4.370 -33.880  1.00  0.00     0.231 C 
HETATM   23  N   UNL     1      -5.814   5.355 -33.676  1.00  0.00    -0.327 N 
HETATM   24  H   UNL     1      -6.169   6.293 -33.523  1.00  0.00     0.169 HD
HETATM   25  O   UNL     1      -6.542   3.182 -34.103  1.00  0.00    -0.272 OA
BRANCH  23  26
HETATM   26  C   UNL     1      -4.412   5.201 -33.664  1.00  0.00     0.034 A 
HETATM   27  C   UNL     1      -3.661   4.968 -32.510  1.00  0.00     0.029 A 
HETATM   28  C   UNL     1      -2.270   4.850 -32.577  1.00  0.00     0.002 A 
HETATM   29  C   UNL     1      -1.615   4.961 -33.800  1.00  0.00     0.000 A 
HETATM   30  C   UNL     1      -2.352   5.186 -34.959  1.00  0.00     0.002 A 
HETATM   31  C   UNL     1      -3.744   5.305 -34.892  1.00  0.00     0.029 A 
ENDBRANCH  23  26
ENDBRANCH  21  22
ENDBRANCH  20  21
ENDBRANCH  19  20
ENDBRANCH   2  19
TORSDOF 10
ENDMDL
MODEL 3
REMARK VINA RESULT:      -7.4      2.267     10.174
REMARK  10 active torsions:
REMARK  status: ('A' for Active; 'I' for Inactive)
REMARK    1  A    between atoms: O_2  and  C_3 
REMARK    2  A    between atoms: C_6  and  N_7 
REMARK    3  A    between atoms: N_7  and  C_8 
REMARK    4  A    between atoms: C_8  and  N_9 
REMARK    5  A    between atoms: N_9  and  N_10 
REMARK       I    between atoms: N_10  and  C_11 
REMARK    6  A    between atoms: C_11  and  C_12 
REMARK    7  A    between atoms: C_12  and  S_13 
REMARK    8  A    between atoms: S_13  and  C_14 
REMARK    9  A    between atoms: C_14  and  C_15 
REMARK       I    between atoms: C_15  and  N_16 
REMARK   10  A    between atoms: N_16  and  C_17 
ROOT
HETATM    1  N   UNL     1      -2.967   3.107 -31.945  1.00  0.00    -0.267 N 
HETATM    2  C   UNL     1      -4.033   2.389 -32.414  1.00  0.00     0.245 C 
HETATM    3  O   UNL     1      -4.030   1.163 -32.292  1.00  0.00    -0.271 OA
HETATM    4  H   UNL     1      -2.216   2.586 -31.495  1.00  0.00     0.190 HD
ENDROOT
BRANCH   1   5
HETATM    5  N   UNL     1      -2.800   4.483 -32.076  1.00  0.00    -0.274 N 
HETATM    6  H   UNL     1      -3.344   5.098 -31.473  1.00  0.00     0.189 HD
BRANCH   5   7
HETATM    7  C   UNL     1      -1.891   5.017 -32.953  1.00  0.00     0.191 C 
HETATM    8  S   UNL     1      -2.131   5.160 -34.604  1.00  0.00    -0.039 SA
BRANCH   7   9
HETATM    9  N   UNL     1      -0.687   5.410 -32.440  1.00  0.00    -0.332 N 
HETATM   10  H   UNL     1       0.028   5.540 -33.150  1.00  0.00     0.168 HD
BRANCH   9  11
HETATM   11  C   UNL     1      -0.336   5.839 -31.142  1.00  0.00     0.034 A 
HETATM   12  C   UNL     1       0.328   4.922 -30.324  1.00  0.00     0.032 A 
HETATM   13  C   UNL     1       0.744   5.289 -29.041  1.00  0.00     0.039 A 
HETATM   14  C   UNL     1       0.528   6.582 -28.564  1.00  0.00     0.068 A 
HETATM   15  C   UNL     1      -0.114   7.506 -29.385  1.00  0.00     0.039 A 
HETATM   16  C   UNL     1      -0.535   7.139 -30.671  1.00  0.00     0.032 A 
BRANCH  14  17
HETATM   17  O   UNL     1       0.995   6.813 -27.301  1.00  0.00    -0.356 OA
HETATM   18  C   UNL     1       0.607   8.035 -26.683  1.00  0.00     0.210 C 
ENDBRANCH  14  17
ENDBRANCH   9  11
ENDBRANCH   7   9
ENDBRANCH   5   7
ENDBRANCH   1   5
BRANCH   2  19
HETATM   19  C   UNL     1      -5.232   3.100 -33.009  1.00  0.00     0.178 C 
BRANCH  19  20
HETATM   20  S   UNL     1      -6.869   2.600 -32.375  1.00  0.00    -0.150 SA
BRANCH  20  21
HETATM   21  C   UNL     1      -7.696   2.011 -33.887  1.00  0.00     0.177 C 
BRANCH  21  22
HETATM   22  C   UNL     1      -7.062   0.797 -34.545  1.00  0.00     0.231 C 
HETATM   23  N   UNL     1      -6.657  -0.184 -33.659  1.00  0.00    -0.327 N 
HETATM   24  H   UNL     1      -6.721   0.049 -32.674  1.00  0.00     0.169 HD
HETATM   25  O   UNL     1      -7.044   0.724 -35.771  1.00  0.00    -0.272 OA
BRANCH  23  26
HETATM   26  C   UNL     1      -6.160  -1.465 -33.974  1.00  0.00     0.034 A 
HETATM   27  C   UNL     1      -4.817  -1.832 -33.858  1.00  0.00     0.029 A 
HETATM   28  C   UNL     1      -4.395  -3.116 -34.213  1.00  0.00     0.002 A 
HETATM   29  C   UNL     1      -5.314  -4.049 -34.685  1.00  0.00     0.000 A 
HETATM   30  C   UNL     1      -6.656  -3.700 -34.798  1.00  0.00     0.002 A 
HETATM   31  C   UNL     1      -7.078  -2.414 -34.444  1.00  0.00     0.029 A 
ENDBRANCH  23  26
ENDBRANCH  21  22
ENDBRANCH  20  21
ENDBRANCH  19  20
ENDBRANCH   2  19
TORSDOF 10
ENDMDL
MODEL 4
REMARK VINA RESULT:      -7.3      1.621      2.325
REMARK  10 active torsions:
REMARK  status: ('A' for Active; 'I' for Inactive)
REMARK    1  A    between atoms: O_2  and  C_3 
REMARK    2  A    between atoms: C_6  and  N_7 
REMARK    3  A    between atoms: N_7  and  C_8 
REMARK    4  A    between atoms: C_8  and  N_9 
REMARK    5  A    between atoms: N_9  and  N_10 
REMARK       I    between atoms: N_10  and  C_11 
REMARK    6  A    between atoms: C_11  and  C_12 
REMARK    7  A    between atoms: C_12  and  S_13 
REMARK    8  A    between atoms: S_13  and  C_14 
REMARK    9  A    between atoms: C_14  and  C_15 
REMARK       I    between atoms: C_15  and  N_16 
REMARK   10  A    between atoms: N_16  and  C_17 
ROOT
HETATM    1  N   UNL     1      -4.490   3.391 -30.671  1.00  0.00    -0.267 N 
HETATM    2  C   UNL     1      -5.139   4.160 -31.598  1.00  0.00     0.245 C 
HETATM    3  O   UNL     1      -5.929   5.025 -31.214  1.00  0.00    -0.271 OA
HETATM    4  H   UNL     1      -4.681   3.584 -29.689  1.00  0.00     0.190 HD
ENDROOT
BRANCH   1   5
HETATM    5  N   UNL     1      -3.629   2.335 -30.958  1.00  0.00    -0.274 N 
HETATM    6  H   UNL     1      -2.642   2.538 -31.101  1.00  0.00     0.189 HD
BRANCH   5   7
HETATM    7  C   UNL     1      -4.072   1.037 -30.998  1.00  0.00     0.191 C 
HETATM    8  S   UNL     1      -5.496   0.495 -30.305  1.00  0.00    -0.039 SA
BRANCH   7   9
HETATM    9  N   UNL     1      -3.261   0.121 -31.608  1.00  0.00    -0.332 N 
HETATM   10  H   UNL     1      -2.274   0.276 -31.424  1.00  0.00     0.168 HD
BRANCH   9  11
HETATM   11  C   UNL     1      -3.571  -1.082 -32.275  1.00  0.00     0.034 A 
HETATM   12  C   UNL     1      -4.293  -0.985 -33.467  1.00  0.00     0.032 A 
HETATM   13  C   UNL     1      -4.601  -2.131 -34.205  1.00  0.00     0.039 A 
HETATM   14  C   UNL     1      -4.171  -3.390 -33.780  1.00  0.00     0.068 A 
HETATM   15  C   UNL     1      -3.432  -3.489 -32.603  1.00  0.00     0.039 A 
HETATM   16  C   UNL     1      -3.126  -2.340 -31.860  1.00  0.00     0.032 A 
BRANCH  14  17
HETATM   17  O   UNL     1      -4.527  -4.424 -34.599  1.00  0.00    -0.356 OA
HETATM   18  C   UNL     1      -5.909  -4.549 -34.915  1.00  0.00     0.210 C 
ENDBRANCH  14  17
ENDBRANCH   9  11
ENDBRANCH   7   9
ENDBRANCH   5   7
ENDBRANCH   1   5
BRANCH   2  19
HETATM   19  C   UNL     1      -4.835   3.998 -33.074  1.00  0.00     0.178 C 
BRANCH  19  20
HETATM   20  S   UNL     1      -3.822   5.307 -33.842  1.00  0.00    -0.150 SA
BRANCH  20  21
HETATM   21  C   UNL     1      -2.131   4.701 -33.542  1.00  0.00     0.177 C 
BRANCH  21  22
HETATM   22  C   UNL     1      -1.539   5.063 -32.192  1.00  0.00     0.231 C 
HETATM   23  N   UNL     1      -1.272   6.410 -32.030  1.00  0.00    -0.327 N 
HETATM   24  H   UNL     1      -1.392   6.991 -32.852  1.00  0.00     0.169 HD
HETATM   25  O   UNL     1      -1.435   4.191 -31.332  1.00  0.00    -0.272 OA
BRANCH  23  26
HETATM   26  C   UNL     1      -0.846   7.060 -30.853  1.00  0.00     0.034 A 
HETATM   27  C   UNL     1       0.406   6.868 -30.265  1.00  0.00     0.029 A 
HETATM   28  C   UNL     1       0.748   7.532 -29.083  1.00  0.00     0.002 A 
HETATM   29  C   UNL     1      -0.159   8.397 -28.478  1.00  0.00     0.000 A 
HETATM   30  C   UNL     1      -1.407   8.604 -29.058  1.00  0.00     0.002 A 
HETATM   31  C   UNL     1      -1.749   7.939 -30.240  1.00  0.00     0.029 A 
ENDBRANCH  23  26
ENDBRANCH  21  22
ENDBRANCH  20  21
ENDBRANCH  19  20
ENDBRANCH   2  19
TORSDOF 10
ENDMDL
MODEL 5
REMARK VINA RESULT:      -7.2      5.213      9.075
REMARK  10 active torsions:
REMARK  status: ('A' for Active; 'I' for Inactive)
REMARK    1  A    between atoms: O_2  and  C_3 
REMARK    2  A    between atoms: C_6  and  N_7 
REMARK    3  A    between atoms: N_7  and  C_8 
REMARK    4  A    between atoms: C_8  and  N_9 
REMARK    5  A    between atoms: N_9  and  N_10 
REMARK       I    between atoms: N_10  and  C_11 
REMARK    6  A    between atoms: C_11  and  C_12 
REMARK    7  A    between atoms: C_12  and  S_13 
REMARK    8  A    between atoms: S_13  and  C_14 
REMARK    9  A    between atoms: C_14  and  C_15 
REMARK       I    between atoms: C_15  and  N_16 
REMARK   10  A    between atoms: N_16  and  C_17 
ROOT
HETATM    1  N   UNL     1      -7.260   2.429 -29.996  1.00  0.00    -0.267 N 
HETATM    2  C   UNL     1      -6.021   2.738 -30.488  1.00  0.00     0.245 C 
HETATM    3  O   UNL     1      -5.170   3.196 -29.723  1.00  0.00    -0.271 OA
HETATM    4  H   UNL     1      -7.417   2.579 -29.001  1.00  0.00     0.190 HD
ENDROOT
BRANCH   1   5
HETATM    5  N   UNL     1      -8.337   1.973 -30.751  1.00  0.00    -0.274 N 
HETATM    6  H   UNL     1      -8.467   0.968 -30.856  1.00  0.00     0.189 HD
BRANCH   5   7
HETATM    7  C   UNL     1      -9.244   2.840 -31.305  1.00  0.00     0.191 C 
HETATM    8  S   UNL     1     -10.094   4.003 -30.452  1.00  0.00    -0.039 SA
BRANCH   7   9
HETATM    9  N   UNL     1      -9.502   2.703 -32.641  1.00  0.00    -0.332 N 
HETATM   10  H   UNL     1      -8.661   2.693 -33.211  1.00  0.00     0.168 HD
BRANCH   9  11
HETATM   11  C   UNL     1     -10.698   2.390 -33.319  1.00  0.00     0.034 A 
HETATM   12  C   UNL     1     -11.090   1.050 -33.339  1.00  0.00     0.032 A 
HETATM   13  C   UNL     1     -12.285   0.669 -33.957  1.00  0.00     0.039 A 
HETATM   14  C   UNL     1     -13.120   1.622 -34.541  1.00  0.00     0.068 A 
HETATM   15  C   UNL     1     -12.744   2.963 -34.504  1.00  0.00     0.039 A 
HETATM   16  C   UNL     1     -11.543   3.345 -33.889  1.00  0.00     0.032 A 
BRANCH  14  17
HETATM   17  O   UNL     1     -14.262   1.120 -35.097  1.00  0.00    -0.356 OA
HETATM   18  C   UNL     1     -15.323   0.794 -34.207  1.00  0.00     0.210 C 
ENDBRANCH  14  17
ENDBRANCH   9  11
ENDBRANCH   7   9
ENDBRANCH   5   7
ENDBRANCH   1   5
BRANCH   2  19
HETATM   19  C   UNL     1      -5.679   2.452 -31.937  1.00  0.00     0.178 C 
BRANCH  19  20
HETATM   20  S   UNL     1      -3.911   2.220 -32.322  1.00  0.00    -0.150 SA
BRANCH  20  21
HETATM   21  C   UNL     1      -3.588   0.566 -31.632  1.00  0.00     0.177 C 
BRANCH  21  22
HETATM   22  C   UNL     1      -4.553  -0.522 -32.070  1.00  0.00     0.231 C 
HETATM   23  N   UNL     1      -4.171  -1.195 -33.216  1.00  0.00    -0.327 N 
HETATM   24  H   UNL     1      -3.359  -0.827 -33.700  1.00  0.00     0.169 HD
HETATM   25  O   UNL     1      -5.515  -0.790 -31.354  1.00  0.00    -0.272 OA
BRANCH  23  26
HETATM   26  C   UNL     1      -4.789  -2.327 -33.787  1.00  0.00     0.034 A 
HETATM   27  C   UNL     1      -4.187  -3.584 -33.874  1.00  0.00     0.029 A 
HETATM   28  C   UNL     1      -4.855  -4.654 -34.477  1.00  0.00     0.002 A 
HETATM   29  C   UNL     1      -6.134  -4.477 -34.998  1.00  0.00     0.000 A 
HETATM   30  C   UNL     1      -6.748  -3.231 -34.911  1.00  0.00     0.002 A 
HETATM   31  C   UNL     1      -6.079  -2.160 -34.308  1.00  0.00     0.029 A 
ENDBRANCH  23  26
ENDBRANCH  21  22
ENDBRANCH  20  21
ENDBRANCH  19  20
ENDBRANCH   2  19
TORSDOF 10
ENDMDL
MODEL 6
REMARK VINA RESULT:      -7.2      2.209      3.424
REMARK  10 active torsions:
REMARK  status: ('A' for Active; 'I' for Inactive)
REMARK    1  A    between atoms: O_2  and  C_3 
REMARK    2  A    between atoms: C_6  and  N_7 
REMARK    3  A    between atoms: N_7  and  C_8 
REMARK    4  A    between atoms: C_8  and  N_9 
REMARK    5  A    between atoms: N_9  and  N_10 
REMARK       I    between atoms: N_10  and  C_11 
REMARK    6  A    between atoms: C_11  and  C_12 
REMARK    7  A    between atoms: C_12  and  S_13 
REMARK    8  A    between atoms: S_13  and  C_14 
REMARK    9  A    between atoms: C_14  and  C_15 
REMARK       I    between atoms: C_15  and  N_16 
REMARK   10  A    between atoms: N_16  and  C_17 
ROOT
HETATM    1  N   UNL     1      -6.994   2.572 -31.230  1.00  0.00    -0.267 N 
HETATM    2  C   UNL     1      -5.810   2.666 -30.551  1.00  0.00     0.245 C 
HETATM    3  O   UNL     1      -5.481   3.751 -30.068  1.00  0.00    -0.271 OA
HETATM    4  H   UNL     1      -7.564   3.414 -31.292  1.00  0.00     0.190 HD
ENDROOT
BRANCH   1   5
HETATM    5  N   UNL     1      -7.460   1.436 -31.886  1.00  0.00    -0.274 N 
HETATM    6  H   UNL     1      -7.754   0.637 -31.326  1.00  0.00     0.189 HD
BRANCH   5   7
HETATM    7  C   UNL     1      -7.578   1.392 -33.252  1.00  0.00     0.191 C 
HETATM    8  S   UNL     1      -8.929   1.889 -34.107  1.00  0.00    -0.039 SA
BRANCH   7   9
HETATM    9  N   UNL     1      -6.533   0.857 -33.951  1.00  0.00    -0.332 N 
HETATM   10  H   UNL     1      -5.852   1.551 -34.247  1.00  0.00     0.168 HD
BRANCH   9  11
HETATM   11  C   UNL     1      -6.157  -0.486 -34.158  1.00  0.00     0.034 A 
HETATM   12  C   UNL     1      -4.867  -0.856 -33.771  1.00  0.00     0.032 A 
HETATM   13  C   UNL     1      -4.438  -2.180 -33.907  1.00  0.00     0.039 A 
HETATM   14  C   UNL     1      -5.297  -3.160 -34.407  1.00  0.00     0.068 A 
HETATM   15  C   UNL     1      -6.592  -2.800 -34.774  1.00  0.00     0.039 A 
HETATM   16  C   UNL     1      -7.022  -1.472 -34.641  1.00  0.00     0.032 A 
BRANCH  14  17
HETATM   17  O   UNL     1      -4.758  -4.413 -34.476  1.00  0.00    -0.356 OA
HETATM   18  C   UNL     1      -3.673  -4.697 -33.600  1.00  0.00     0.210 C 
ENDBRANCH  14  17
ENDBRANCH   9  11
ENDBRANCH   7   9
ENDBRANCH   5   7
ENDBRANCH   1   5
BRANCH   2  19
HETATM   19  C   UNL     1      -4.952   1.436 -30.333  1.00  0.00     0.178 C 
BRANCH  19  20
HETATM   20  S   UNL     1      -3.394   1.355 -31.279  1.00  0.00    -0.150 SA
BRANCH  20  21
HETATM   21  C   UNL     1      -3.694   2.565 -32.606  1.00  0.00     0.177 C 
BRANCH  21  22
HETATM   22  C   UNL     1      -2.802   3.794 -32.580  1.00  0.00     0.231 C 
HETATM   23  N   UNL     1      -2.470   4.230 -31.311  1.00  0.00    -0.327 N 
HETATM   24  H   UNL     1      -2.936   3.762 -30.542  1.00  0.00     0.169 HD
HETATM   25  O   UNL     1      -2.370   4.240 -33.640  1.00  0.00    -0.272 OA
BRANCH  23  26
HETATM   26  C   UNL     1      -1.563   5.255 -30.971  1.00  0.00     0.034 A 
HETATM   27  C   UNL     1      -0.186   5.183 -31.187  1.00  0.00     0.029 A 
HETATM   28  C   UNL     1       0.653   6.232 -30.799  1.00  0.00     0.002 A 
HETATM   29  C   UNL     1       0.121   7.367 -30.195  1.00  0.00     0.000 A 
HETATM   30  C   UNL     1      -1.252   7.456 -29.981  1.00  0.00     0.002 A 
HETATM   31  C   UNL     1      -2.091   6.405 -30.367  1.00  0.00     0.029 A 
ENDBRANCH  23  26
ENDBRANCH  21  22
ENDBRANCH  20  21
ENDBRANCH  19  20
ENDBRANCH   2  19
TORSDOF 10
ENDMDL
MODEL 7
REMARK VINA RESULT:      -7.2      1.920      2.496
REMARK  10 active torsions:
REMARK  status: ('A' for Active; 'I' for Inactive)
REMARK    1  A    between atoms: O_2  and  C_3 
REMARK    2  A    between atoms: C_6  and  N_7 
REMARK    3  A    between atoms: N_7  and  C_8 
REMARK    4  A    between atoms: C_8  and  N_9 
REMARK    5  A    between atoms: N_9  and  N_10 
REMARK       I    between atoms: N_10  and  C_11 
REMARK    6  A    between atoms: C_11  and  C_12 
REMARK    7  A    between atoms: C_12  and  S_13 
REMARK    8  A    between atoms: S_13  and  C_14 
REMARK    9  A    between atoms: C_14  and  C_15 
REMARK       I    between atoms: C_15  and  N_16 
REMARK   10  A    between atoms: N_16  and  C_17 
ROOT
HETATM    1  N   UNL     1      -5.196   3.418 -33.449  1.00  0.00    -0.267 N 
HETATM    2  C   UNL     1      -4.917   4.757 -33.499  1.00  0.00     0.245 C 
HETATM    3  O   UNL     1      -5.094   5.367 -34.555  1.00  0.00    -0.271 OA
HETATM    4  H   UNL     1      -5.558   2.985 -34.296  1.00  0.00     0.190 HD
ENDROOT
BRANCH   1   5
HETATM    5  N   UNL     1      -4.978   2.589 -32.352  1.00  0.00    -0.274 N 
HETATM    6  H   UNL     1      -4.018   2.400 -32.069  1.00  0.00     0.189 HD
BRANCH   5   7
HETATM    7  C   UNL     1      -6.019   2.072 -31.623  1.00  0.00     0.191 C 
HETATM    8  S   UNL     1      -6.545   2.676 -30.153  1.00  0.00    -0.039 SA
BRANCH   7   9
HETATM    9  N   UNL     1      -6.631   0.955 -32.118  1.00  0.00    -0.332 N 
HETATM   10  H   UNL     1      -7.645   0.995 -32.060  1.00  0.00     0.168 HD
BRANCH   9  11
HETATM   11  C   UNL     1      -6.110  -0.132 -32.850  1.00  0.00     0.034 A 
HETATM   12  C   UNL     1      -4.998  -0.788 -32.316  1.00  0.00     0.032 A 
HETATM   13  C   UNL     1      -4.452  -1.899 -32.965  1.00  0.00     0.039 A 
HETATM   14  C   UNL     1      -5.021  -2.390 -34.141  1.00  0.00     0.068 A 
HETATM   15  C   UNL     1      -6.143  -1.752 -34.665  1.00  0.00     0.039 A 
HETATM   16  C   UNL     1      -6.690  -0.635 -34.018  1.00  0.00     0.032 A 
BRANCH  14  17
HETATM   17  O   UNL     1      -4.399  -3.488 -34.664  1.00  0.00    -0.356 OA
HETATM   18  C   UNL     1      -3.669  -4.308 -33.758  1.00  0.00     0.210 C 
ENDBRANCH  14  17
ENDBRANCH   9  11
ENDBRANCH   7   9
ENDBRANCH   5   7
ENDBRANCH   1   5
BRANCH   2  19
HETATM   19  C   UNL     1      -4.466   5.492 -32.253  1.00  0.00     0.178 C 
BRANCH  19  20
HETATM   20  S   UNL     1      -2.760   6.139 -32.264  1.00  0.00    -0.150 SA
BRANCH  20  21
HETATM   21  C   UNL     1      -1.831   4.767 -31.508  1.00  0.00     0.177 C 
BRANCH  21  22
HETATM   22  C   UNL     1      -0.702   5.178 -30.581  1.00  0.00     0.231 C 
HETATM   23  N   UNL     1      -1.005   6.241 -29.750  1.00  0.00    -0.327 N 
HETATM   24  H   UNL     1      -1.894   6.699 -29.918  1.00  0.00     0.169 HD
HETATM   25  O   UNL     1       0.327   4.507 -30.558  1.00  0.00    -0.272 OA
BRANCH  23  26
HETATM   26  C   UNL     1      -0.215   6.759 -28.704  1.00  0.00     0.034 A 
HETATM   27  C   UNL     1      -0.269   6.305 -27.385  1.00  0.00     0.029 A 
HETATM   28  C   UNL     1       0.530   6.887 -26.396  1.00  0.00     0.002 A 
HETATM   29  C   UNL     1       1.395   7.929 -26.719  1.00  0.00     0.000 A 
HETATM   30  C   UNL     1       1.465   8.386 -28.031  1.00  0.00     0.002 A 
HETATM   31  C   UNL     1       0.664   7.804 -29.020  1.00  0.00     0.029 A 
ENDBRANCH  23  26
ENDBRANCH  21  22
ENDBRANCH  20  21
ENDBRANCH  19  20
ENDBRANCH   2  19
TORSDOF 10
ENDMDL
MODEL 8
REMARK VINA RESULT:      -7.1      3.822      9.062
REMARK  10 active torsions:
REMARK  status: ('A' for Active; 'I' for Inactive)
REMARK    1  A    between atoms: O_2  and  C_3 
REMARK    2  A    between atoms: C_6  and  N_7 
REMARK    3  A    between atoms: N_7  and  C_8 
REMARK    4  A    between atoms: C_8  and  N_9 
REMARK    5  A    between atoms: N_9  and  N_10 
REMARK       I    between atoms: N_10  and  C_11 
REMARK    6  A    between atoms: C_11  and  C_12 
REMARK    7  A    between atoms: C_12  and  S_13 
REMARK    8  A    between atoms: S_13  and  C_14 
REMARK    9  A    between atoms: C_14  and  C_15 
REMARK       I    between atoms: C_15  and  N_16 
REMARK   10  A    between atoms: N_16  and  C_17 
ROOT
HETATM    1  N   UNL     1      -8.828   4.424 -33.543  1.00  0.00    -0.267 N 
HETATM    2  C   UNL     1      -9.993   4.448 -34.260  1.00  0.00     0.245 C 
HETATM    3  O   UNL     1     -10.042   5.102 -35.303  1.00  0.00    -0.271 OA
HETATM    4  H   UNL     1      -8.037   4.944 -33.920  1.00  0.00     0.190 HD
ENDROOT
BRANCH   1   5
HETATM    5  N   UNL     1      -8.647   3.790 -32.316  1.00  0.00    -0.274 N 
HETATM    6  H   UNL     1      -9.472   3.506 -31.791  1.00  0.00     0.189 HD
BRANCH   5   7
HETATM    7  C   UNL     1      -7.396   3.500 -31.834  1.00  0.00     0.191 C 
HETATM    8  S   UNL     1      -6.932   3.658 -30.234  1.00  0.00    -0.039 SA
BRANCH   7   9
HETATM    9  N   UNL     1      -6.456   3.101 -32.743  1.00  0.00    -0.332 N 
HETATM   10  H   UNL     1      -6.752   2.306 -33.302  1.00  0.00     0.168 HD
BRANCH   9  11
HETATM   11  C   UNL     1      -5.254   3.714 -33.152  1.00  0.00     0.034 A 
HETATM   12  C   UNL     1      -4.071   3.256 -32.566  1.00  0.00     0.032 A 
HETATM   13  C   UNL     1      -2.837   3.787 -32.952  1.00  0.00     0.039 A 
HETATM   14  C   UNL     1      -2.760   4.764 -33.945  1.00  0.00     0.068 A 
HETATM   15  C   UNL     1      -3.936   5.209 -34.548  1.00  0.00     0.039 A 
HETATM   16  C   UNL     1      -5.174   4.679 -34.159  1.00  0.00     0.032 A 
BRANCH  14  17
HETATM   17  O   UNL     1      -1.495   5.188 -34.237  1.00  0.00    -0.356 OA
HETATM   18  C   UNL     1      -1.219   6.572 -34.051  1.00  0.00     0.210 C 
ENDBRANCH  14  17
ENDBRANCH   9  11
ENDBRANCH   7   9
ENDBRANCH   5   7
ENDBRANCH   1   5
BRANCH   2  19
HETATM   19  C   UNL     1     -11.183   3.621 -33.814  1.00  0.00     0.178 C 
BRANCH  19  20
HETATM   20  S   UNL     1     -11.403   2.007 -34.635  1.00  0.00    -0.150 SA
BRANCH  20  21
HETATM   21  C   UNL     1     -10.515   0.886 -33.507  1.00  0.00     0.177 C 
BRANCH  21  22
HETATM   22  C   UNL     1      -9.033   0.716 -33.791  1.00  0.00     0.231 C 
HETATM   23  N   UNL     1      -8.466  -0.403 -33.210  1.00  0.00    -0.327 N 
HETATM   24  H   UNL     1      -9.060  -0.926 -32.575  1.00  0.00     0.169 HD
HETATM   25  O   UNL     1      -8.480   1.493 -34.567  1.00  0.00    -0.272 OA
BRANCH  23  26
HETATM   26  C   UNL     1      -7.156  -0.891 -33.397  1.00  0.00     0.034 A 
HETATM   27  C   UNL     1      -6.058  -0.491 -32.634  1.00  0.00     0.029 A 
HETATM   28  C   UNL     1      -4.783  -1.003 -32.895  1.00  0.00     0.002 A 
HETATM   29  C   UNL     1      -4.595  -1.924 -33.922  1.00  0.00     0.000 A 
HETATM   30  C   UNL     1      -5.683  -2.337 -34.685  1.00  0.00     0.002 A 
HETATM   31  C   UNL     1      -6.958  -1.824 -34.424  1.00  0.00     0.029 A 
ENDBRANCH  23  26
ENDBRANCH  21  22
ENDBRANCH  20  21
ENDBRANCH  19  20
ENDBRANCH   2  19
TORSDOF 10
ENDMDL
MODEL 9
REMARK VINA RESULT:      -7.1      2.545      9.555
REMARK  10 active torsions:
REMARK  status: ('A' for Active; 'I' for Inactive)
REMARK    1  A    between atoms: O_2  and  C_3 
REMARK    2  A    between atoms: C_6  and  N_7 
REMARK    3  A    between atoms: N_7  and  C_8 
REMARK    4  A    between atoms: C_8  and  N_9 
REMARK    5  A    between atoms: N_9  and  N_10 
REMARK       I    between atoms: N_10  and  C_11 
REMARK    6  A    between atoms: C_11  and  C_12 
REMARK    7  A    between atoms: C_12  and  S_13 
REMARK    8  A    between atoms: S_13  and  C_14 
REMARK    9  A    between atoms: C_14  and  C_15 
REMARK       I    between atoms: C_15  and  N_16 
REMARK   10  A    between atoms: N_16  and  C_17 
ROOT
HETATM    1  N   UNL     1      -5.501   5.127 -33.905  1.00  0.00    -0.267 N 
HETATM    2  C   UNL     1      -6.800   5.167 -33.477  1.00  0.00     0.245 C 
HETATM    3  O   UNL     1      -7.707   5.149 -34.312  1.00  0.00    -0.271 OA
HETATM    4  H   UNL     1      -5.343   5.067 -34.910  1.00  0.00     0.190 HD
ENDROOT
BRANCH   1   5
HETATM    5  N   UNL     1      -4.378   5.212 -33.086  1.00  0.00    -0.274 N 
HETATM    6  H   UNL     1      -4.425   4.806 -32.154  1.00  0.00     0.189 HD
BRANCH   5   7
HETATM    7  C   UNL     1      -3.209   5.778 -33.526  1.00  0.00     0.191 C 
HETATM    8  S   UNL     1      -2.320   5.233 -34.836  1.00  0.00    -0.039 SA
BRANCH   7   9
HETATM    9  N   UNL     1      -2.718   6.831 -32.806  1.00  0.00    -0.332 N 
HETATM   10  H   UNL     1      -3.227   7.696 -32.965  1.00  0.00     0.168 HD
BRANCH   9  11
HETATM   11  C   UNL     1      -1.768   6.870 -31.765  1.00  0.00     0.034 A 
HETATM   12  C   UNL     1      -2.254   6.863 -30.455  1.00  0.00     0.032 A 
HETATM   13  C   UNL     1      -1.371   6.858 -29.371  1.00  0.00     0.039 A 
HETATM   14  C   UNL     1       0.009   6.833 -29.576  1.00  0.00     0.068 A 
HETATM   15  C   UNL     1       0.498   6.818 -30.880  1.00  0.00     0.039 A 
HETATM   16  C   UNL     1      -0.386   6.827 -31.968  1.00  0.00     0.032 A 
BRANCH  14  17
HETATM   17  O   UNL     1       0.758   6.816 -28.433  1.00  0.00    -0.356 OA
HETATM   18  C   UNL     1       0.064   6.589 -27.212  1.00  0.00     0.210 C 
ENDBRANCH  14  17
ENDBRANCH   9  11
ENDBRANCH   7   9
ENDBRANCH   5   7
ENDBRANCH   1   5
BRANCH   2  19
HETATM   19  C   UNL     1      -7.118   5.158 -31.995  1.00  0.00     0.178 C 
BRANCH  19  20
HETATM   20  S   UNL     1      -7.694   3.573 -31.298  1.00  0.00    -0.150 SA
BRANCH  20  21
HETATM   21  C   UNL     1      -6.122   2.732 -30.926  1.00  0.00     0.177 C 
BRANCH  21  22
HETATM   22  C   UNL     1      -5.608   1.802 -32.010  1.00  0.00     0.231 C 
HETATM   23  N   UNL     1      -6.082   0.506 -31.921  1.00  0.00    -0.327 N 
HETATM   24  H   UNL     1      -6.625   0.285 -31.094  1.00  0.00     0.169 HD
HETATM   25  O   UNL     1      -4.917   2.264 -32.915  1.00  0.00    -0.272 OA
BRANCH  23  26
HETATM   26  C   UNL     1      -5.887  -0.540 -32.847  1.00  0.00     0.034 A 
HETATM   27  C   UNL     1      -4.679  -1.221 -33.014  1.00  0.00     0.029 A 
HETATM   28  C   UNL     1      -4.557  -2.232 -33.971  1.00  0.00     0.002 A 
HETATM   29  C   UNL     1      -5.643  -2.575 -34.771  1.00  0.00     0.000 A 
HETATM   30  C   UNL     1      -6.855  -1.909 -34.610  1.00  0.00     0.002 A 
HETATM   31  C   UNL     1      -6.977  -0.897 -33.653  1.00  0.00     0.029 A 
ENDBRANCH  23  26
ENDBRANCH  21  22
ENDBRANCH  20  21
ENDBRANCH  19  20
ENDBRANCH   2  19
TORSDOF 10
ENDMDL
MODEL 10
REMARK VINA RESULT:      -7.1      2.646     10.581
REMARK  10 active torsions:
REMARK  status: ('A' for Active; 'I' for Inactive)
REMARK    1  A    between atoms: O_2  and  C_3 
REMARK    2  A    between atoms: C_6  and  N_7 
REMARK    3  A    between atoms: N_7  and  C_8 
REMARK    4  A    between atoms: C_8  and  N_9 
REMARK    5  A    between atoms: N_9  and  N_10 
REMARK       I    between atoms: N_10  and  C_11 
REMARK    6  A    between atoms: C_11  and  C_12 
REMARK    7  A    between atoms: C_12  and  S_13 
REMARK    8  A    between atoms: S_13  and  C_14 
REMARK    9  A    between atoms: C_14  and  C_15 
REMARK       I    between atoms: C_15  and  N_16 
REMARK   10  A    between atoms: N_16  and  C_17 
ROOT
HETATM    1  N   UNL     1      -2.553   3.804 -31.131  1.00  0.00    -0.267 N 
HETATM    2  C   UNL     1      -3.546   3.435 -31.996  1.00  0.00     0.245 C 
HETATM    3  O   UNL     1      -3.543   2.294 -32.462  1.00  0.00    -0.271 OA
HETATM    4  H   UNL     1      -1.854   3.101 -30.896  1.00  0.00     0.190 HD
ENDROOT
BRANCH   1   5
HETATM    5  N   UNL     1      -2.388   5.074 -30.585  1.00  0.00    -0.274 N 
HETATM    6  H   UNL     1      -3.162   5.483 -30.064  1.00  0.00     0.189 HD
BRANCH   5   7
HETATM    7  C   UNL     1      -1.201   5.754 -30.690  1.00  0.00     0.191 C 
HETATM    8  S   UNL     1      -0.758   6.700 -31.998  1.00  0.00    -0.039 SA
BRANCH   7   9
HETATM    9  N   UNL     1      -0.304   5.600 -29.670  1.00  0.00    -0.332 N 
HETATM   10  H   UNL     1       0.254   4.755 -29.752  1.00  0.00     0.168 HD
BRANCH   9  11
HETATM   11  C   UNL     1       0.096   6.493 -28.655  1.00  0.00     0.034 A 
HETATM   12  C   UNL     1      -0.282   6.185 -27.346  1.00  0.00     0.032 A 
HETATM   13  C   UNL     1       0.113   7.002 -26.283  1.00  0.00     0.039 A 
HETATM   14  C   UNL     1       0.914   8.123 -26.504  1.00  0.00     0.068 A 
HETATM   15  C   UNL     1       1.313   8.421 -27.805  1.00  0.00     0.039 A 
HETATM   16  C   UNL     1       0.914   7.605 -28.873  1.00  0.00     0.032 A 
BRANCH  14  17
HETATM   17  O   UNL     1       1.240   8.826 -25.379  1.00  0.00    -0.356 OA
HETATM   18  C   UNL     1       2.625   8.952 -25.077  1.00  0.00     0.210 C 
ENDBRANCH  14  17
ENDBRANCH   9  11
ENDBRANCH   7   9
ENDBRANCH   5   7
ENDBRANCH   1   5
BRANCH   2  19
HETATM   19  C   UNL     1      -4.675   4.393 -32.319  1.00  0.00     0.178 C 
BRANCH  19  20
HETATM   20  S   UNL     1      -6.258   4.101 -31.459  1.00  0.00    -0.150 SA
BRANCH  20  21
HETATM   21  C   UNL     1      -7.173   3.107 -32.680  1.00  0.00     0.177 C 
BRANCH  21  22
HETATM   22  C   UNL     1      -6.941   1.608 -32.604  1.00  0.00     0.231 C 
HETATM   23  N   UNL     1      -6.374   1.061 -33.740  1.00  0.00    -0.327 N 
HETATM   24  H   UNL     1      -6.276   1.684 -34.535  1.00  0.00     0.169 HD
HETATM   25  O   UNL     1      -7.167   1.021 -31.548  1.00  0.00    -0.272 OA
BRANCH  23  26
HETATM   26  C   UNL     1      -5.928  -0.265 -33.918  1.00  0.00     0.034 A 
HETATM   27  C   UNL     1      -4.709  -0.749 -33.438  1.00  0.00     0.029 A 
HETATM   28  C   UNL     1      -4.324  -2.072 -33.675  1.00  0.00     0.002 A 
HETATM   29  C   UNL     1      -5.156  -2.925 -34.395  1.00  0.00     0.000 A 
HETATM   30  C   UNL     1      -6.376  -2.457 -34.873  1.00  0.00     0.002 A 
HETATM   31  C   UNL     1      -6.761  -1.133 -34.636  1.00  0.00     0.029 A 
ENDBRANCH  23  26
ENDBRANCH  21  22
ENDBRANCH  20  21
ENDBRANCH  19  20
ENDBRANCH   2  19
TORSDOF 10
ENDMDL
