MODEL 1
REMARK VINA RESULT:      -9.7      0.000      0.000
REMARK  6 active torsions:
REMARK  status: ('A' for Active; 'I' for Inactive)
REMARK    1  A    between atoms: C_3  and  C_4 
REMARK    2  A    between atoms: C_4  and  C_5 
REMARK    3  A    between atoms: N_8  and  C_10 
REMARK    4  A    between atoms: C_10  and  C_11 
REMARK    5  A    between atoms: N_24  and  C_25 
REMARK    6  A    between atoms: C_25  and  C_26 
ROOT
HETATM    1  C   UNL     1      -6.766   1.906 -32.524  1.00  0.00     0.149 C 
HETATM    2  N   UNL     1      -7.280   2.923 -33.434  1.00  0.00    -0.220 NA
HETATM    3  C   UNL     1      -6.409   3.974 -33.571  1.00  0.00     0.304 C 
HETATM    4  O   UNL     1      -6.593   4.890 -34.353  1.00  0.00    -0.253 OA
HETATM    5  N   UNL     1      -5.396   3.829 -32.684  1.00  0.00    -0.270 N 
HETATM    6  C   UNL     1      -5.472   2.613 -32.063  1.00  0.00     0.257 C 
HETATM    7  O   UNL     1      -4.711   2.185 -31.206  1.00  0.00    -0.270 OA
HETATM    8  H   UNL     1      -7.686   2.611 -34.316  1.00  0.00     0.134 HD
ENDROOT
BRANCH   1   9
HETATM    9  C   UNL     1      -6.529   0.622 -33.313  1.00  0.00     0.067 A 
HETATM   10  C   UNL     1      -5.860  -0.479 -32.787  1.00  0.00     0.030 A 
HETATM   11  C   UNL     1      -5.756  -1.635 -33.560  1.00  0.00     0.003 A 
HETATM   12  C   UNL     1      -6.324  -1.671 -34.828  1.00  0.00     0.019 A 
HETATM   13  C   UNL     1      -6.981  -0.542 -35.279  1.00  0.00     0.117 A 
HETATM   14  N   UNL     1      -7.108   0.592 -34.554  1.00  0.00    -0.263 NA
ENDBRANCH   1   9
BRANCH   1  15
HETATM   15  C   UNL     1      -7.722   1.655 -31.301  1.00  0.00     0.028 C 
HETATM   16  C   UNL     1      -8.832   0.615 -31.542  1.00  0.00     0.035 C 
HETATM   17  C   UNL     1      -9.903   1.089 -32.510  1.00  0.00     0.235 C 
HETATM   18  N   UNL     1     -10.496   2.412 -32.079  1.00  0.00    -0.067 N 
HETATM   19  H   UNL     1     -11.123   2.213 -31.286  1.00  0.00     0.280 HD
HETATM   20  C   UNL     1      -9.520   3.468 -31.617  1.00  0.00     0.235 C 
HETATM   21  C   UNL     1      -8.421   2.904 -30.732  1.00  0.00     0.035 C 
BRANCH  18  22
HETATM   22  C   UNL     1     -11.376   3.016 -33.176  1.00  0.00     0.278 C 
BRANCH  22  23
HETATM   23  C   UNL     1     -12.766   2.465 -33.264  1.00  0.00     0.028 A 
HETATM   24  C   UNL     1     -13.786   2.781 -32.356  1.00  0.00     0.045 A 
HETATM   25 CL   UNL     1     -13.543   3.902 -31.066  1.00  0.00    -0.084 Cl
HETATM   26  C   UNL     1     -15.055   2.208 -32.484  1.00  0.00     0.024 A 
HETATM   27  C   UNL     1     -15.323   1.314 -33.521  1.00  0.00     0.005 A 
HETATM   28  C   UNL     1     -14.324   1.000 -34.437  1.00  0.00     0.043 A 
HETATM   29  C   UNL     1     -13.065   1.576 -34.301  1.00  0.00     0.126 A 
HETATM   30  F   UNL     1     -12.115   1.293 -35.203  1.00  0.00    -0.205 F 
ENDBRANCH  22  23
ENDBRANCH  18  22
ENDBRANCH   1  15
BRANCH   5  31
HETATM   31  C   UNL     1      -4.348   4.820 -32.503  1.00  0.00     0.168 C 
BRANCH  31  32
HETATM   32  C   UNL     1      -3.073   4.477 -33.277  1.00  0.00     0.140 C 
HETATM   33  O   UNL     1      -1.918   4.766 -32.467  1.00  0.00    -0.384 OA
HETATM   34  C   UNL     1      -1.043   5.624 -33.214  1.00  0.00     0.168 C 
HETATM   35  C   UNL     1      -1.443   5.479 -34.663  1.00  0.00     0.029 C 
HETATM   36  C   UNL     1      -2.936   5.306 -34.549  1.00  0.00     0.036 C 
ENDBRANCH  31  32
ENDBRANCH   5  31
TORSDOF 6
ENDMDL
MODEL 2
REMARK VINA RESULT:      -9.1      3.954      6.446
REMARK  6 active torsions:
REMARK  status: ('A' for Active; 'I' for Inactive)
REMARK    1  A    between atoms: C_3  and  C_4 
REMARK    2  A    between atoms: C_4  and  C_5 
REMARK    3  A    between atoms: N_8  and  C_10 
REMARK    4  A    between atoms: C_10  and  C_11 
REMARK    5  A    between atoms: N_24  and  C_25 
REMARK    6  A    between atoms: C_25  and  C_26 
ROOT
HETATM    1  C   UNL     1      -5.393   4.674 -31.713  1.00  0.00     0.149 C 
HETATM    2  N   UNL     1      -4.650   3.538 -31.181  1.00  0.00    -0.220 NA
HETATM    3  C   UNL     1      -3.346   3.534 -31.610  1.00  0.00     0.304 C 
HETATM    4  O   UNL     1      -2.521   2.730 -31.214  1.00  0.00    -0.253 OA
HETATM    5  N   UNL     1      -3.181   4.505 -32.538  1.00  0.00    -0.270 N 
HETATM    6  C   UNL     1      -4.305   5.280 -32.628  1.00  0.00     0.257 C 
HETATM    7  O   UNL     1      -4.475   6.231 -33.378  1.00  0.00    -0.270 OA
HETATM    8  H   UNL     1      -4.755   3.321 -30.191  1.00  0.00     0.134 HD
ENDROOT
BRANCH   1   9
HETATM    9  C   UNL     1      -5.803   5.574 -30.552  1.00  0.00     0.067 A 
HETATM   10  C   UNL     1      -6.442   6.798 -30.729  1.00  0.00     0.030 A 
HETATM   11  C   UNL     1      -6.843   7.515 -29.602  1.00  0.00     0.003 A 
HETATM   12  C   UNL     1      -6.609   6.997 -28.334  1.00  0.00     0.019 A 
HETATM   13  C   UNL     1      -5.978   5.772 -28.237  1.00  0.00     0.117 A 
HETATM   14  N   UNL     1      -5.584   5.045 -29.307  1.00  0.00    -0.263 NA
ENDBRANCH   1   9
BRANCH   1  15
HETATM   15  C   UNL     1      -6.642   4.233 -32.560  1.00  0.00     0.028 C 
HETATM   16  C   UNL     1      -7.762   3.541 -31.763  1.00  0.00     0.035 C 
HETATM   17  C   UNL     1      -7.384   2.155 -31.269  1.00  0.00     0.235 C 
HETATM   18  N   UNL     1      -6.912   1.271 -32.402  1.00  0.00    -0.067 N 
HETATM   19  H   UNL     1      -7.751   0.991 -32.930  1.00  0.00     0.280 HD
HETATM   20  C   UNL     1      -5.956   1.896 -33.390  1.00  0.00     0.235 C 
HETATM   21  C   UNL     1      -6.343   3.317 -33.763  1.00  0.00     0.035 C 
BRANCH  18  22
HETATM   22  C   UNL     1      -6.287  -0.025 -31.880  1.00  0.00     0.278 C 
BRANCH  22  23
HETATM   23  C   UNL     1      -5.920  -1.032 -32.927  1.00  0.00     0.028 A 
HETATM   24  C   UNL     1      -4.619  -1.518 -33.115  1.00  0.00     0.045 A 
HETATM   25 CL   UNL     1      -3.310  -1.036 -32.099  1.00  0.00    -0.084 Cl
HETATM   26  C   UNL     1      -4.343  -2.439 -34.131  1.00  0.00     0.024 A 
HETATM   27  C   UNL     1      -5.364  -2.888 -34.969  1.00  0.00     0.005 A 
HETATM   28  C   UNL     1      -6.663  -2.423 -34.787  1.00  0.00     0.043 A 
HETATM   29  C   UNL     1      -6.926  -1.508 -33.773  1.00  0.00     0.126 A 
HETATM   30  F   UNL     1      -8.183  -1.085 -33.583  1.00  0.00    -0.205 F 
ENDBRANCH  22  23
ENDBRANCH  18  22
ENDBRANCH   1  15
BRANCH   5  31
HETATM   31  C   UNL     1      -1.938   4.712 -33.263  1.00  0.00     0.168 C 
BRANCH  31  32
HETATM   32  C   UNL     1      -0.949   5.592 -32.497  1.00  0.00     0.140 C 
HETATM   33  O   UNL     1      -0.075   4.766 -31.703  1.00  0.00    -0.384 OA
HETATM   34  C   UNL     1      -0.124   5.227 -30.345  1.00  0.00     0.168 C 
HETATM   35  C   UNL     1      -0.669   6.636 -30.395  1.00  0.00     0.029 C 
HETATM   36  C   UNL     1      -1.654   6.538 -31.532  1.00  0.00     0.036 C 
ENDBRANCH  31  32
ENDBRANCH   5  31
TORSDOF 6
ENDMDL
MODEL 3
REMARK VINA RESULT:      -8.8      4.112      8.126
REMARK  6 active torsions:
REMARK  status: ('A' for Active; 'I' for Inactive)
REMARK    1  A    between atoms: C_3  and  C_4 
REMARK    2  A    between atoms: C_4  and  C_5 
REMARK    3  A    between atoms: N_8  and  C_10 
REMARK    4  A    between atoms: C_10  and  C_11 
REMARK    5  A    between atoms: N_24  and  C_25 
REMARK    6  A    between atoms: C_25  and  C_26 
ROOT
HETATM    1  C   UNL     1      -7.408   2.603 -31.731  1.00  0.00     0.149 C 
HETATM    2  N   UNL     1      -6.713   2.868 -32.985  1.00  0.00    -0.220 NA
HETATM    3  C   UNL     1      -6.880   1.847 -33.888  1.00  0.00     0.304 C 
HETATM    4  O   UNL     1      -6.465   1.899 -35.032  1.00  0.00    -0.253 OA
HETATM    5  N   UNL     1      -7.511   0.815 -33.279  1.00  0.00    -0.270 N 
HETATM    6  C   UNL     1      -7.927   1.177 -32.027  1.00  0.00     0.257 C 
HETATM    7  O   UNL     1      -8.518   0.469 -31.224  1.00  0.00    -0.270 OA
HETATM    8  H   UNL     1      -6.809   3.796 -33.396  1.00  0.00     0.134 HD
ENDROOT
BRANCH   1   9
HETATM    9  C   UNL     1      -8.510   3.643 -31.556  1.00  0.00     0.067 A 
HETATM   10  C   UNL     1      -9.456   3.584 -30.536  1.00  0.00     0.030 A 
HETATM   11  C   UNL     1     -10.379   4.621 -30.415  1.00  0.00     0.003 A 
HETATM   12  C   UNL     1     -10.336   5.691 -31.301  1.00  0.00     0.019 A 
HETATM   13  C   UNL     1      -9.363   5.686 -32.282  1.00  0.00     0.117 A 
HETATM   14  N   UNL     1      -8.447   4.702 -32.424  1.00  0.00    -0.263 NA
ENDBRANCH   1   9
BRANCH   1  15
HETATM   15  C   UNL     1      -6.437   2.590 -30.495  1.00  0.00     0.028 C 
HETATM   16  C   UNL     1      -5.734   3.927 -30.202  1.00  0.00     0.035 C 
HETATM   17  C   UNL     1      -4.693   4.304 -31.243  1.00  0.00     0.235 C 
HETATM   18  N   UNL     1      -3.677   3.199 -31.437  1.00  0.00    -0.067 N 
HETATM   19  H   UNL     1      -3.052   3.223 -30.620  1.00  0.00     0.280 HD
HETATM   20  C   UNL     1      -4.222   1.794 -31.536  1.00  0.00     0.235 C 
HETATM   21  C   UNL     1      -5.328   1.521 -30.529  1.00  0.00     0.035 C 
BRANCH  18  22
HETATM   22  C   UNL     1      -2.792   3.460 -32.658  1.00  0.00     0.278 C 
BRANCH  22  23
HETATM   23  C   UNL     1      -2.263   4.855 -32.785  1.00  0.00     0.028 A 
HETATM   24  C   UNL     1      -2.604   5.723 -33.832  1.00  0.00     0.045 A 
HETATM   25 CL   UNL     1      -3.732   5.273 -35.059  1.00  0.00    -0.084 Cl
HETATM   26  C   UNL     1      -2.051   7.006 -33.902  1.00  0.00     0.024 A 
HETATM   27  C   UNL     1      -1.153   7.439 -32.926  1.00  0.00     0.005 A 
HETATM   28  C   UNL     1      -0.814   6.593 -31.874  1.00  0.00     0.043 A 
HETATM   29  C   UNL     1      -1.371   5.319 -31.814  1.00  0.00     0.126 A 
HETATM   30  F   UNL     1      -1.064   4.519 -30.784  1.00  0.00    -0.205 F 
ENDBRANCH  22  23
ENDBRANCH  18  22
ENDBRANCH   1  15
BRANCH   5  31
HETATM   31  C   UNL     1      -7.761  -0.461 -33.929  1.00  0.00     0.168 C 
BRANCH  31  32
HETATM   32  C   UNL     1      -6.753  -1.537 -33.519  1.00  0.00     0.140 C 
HETATM   33  O   UNL     1      -5.533  -0.916 -33.069  1.00  0.00    -0.384 OA
HETATM   34  C   UNL     1      -4.439  -1.474 -33.811  1.00  0.00     0.168 C 
HETATM   35  C   UNL     1      -4.939  -2.778 -34.388  1.00  0.00     0.029 C 
HETATM   36  C   UNL     1      -6.378  -2.444 -34.686  1.00  0.00     0.036 C 
ENDBRANCH  31  32
ENDBRANCH   5  31
TORSDOF 6
ENDMDL
MODEL 4
REMARK VINA RESULT:      -8.5      1.823      2.324
REMARK  6 active torsions:
REMARK  status: ('A' for Active; 'I' for Inactive)
REMARK    1  A    between atoms: C_3  and  C_4 
REMARK    2  A    between atoms: C_4  and  C_5 
REMARK    3  A    between atoms: N_8  and  C_10 
REMARK    4  A    between atoms: C_10  and  C_11 
REMARK    5  A    between atoms: N_24  and  C_25 
REMARK    6  A    between atoms: C_25  and  C_26 
ROOT
HETATM    1  C   UNL     1      -5.947   2.293 -32.665  1.00  0.00     0.149 C 
HETATM    2  N   UNL     1      -6.323   3.417 -33.514  1.00  0.00    -0.220 NA
HETATM    3  C   UNL     1      -5.238   4.189 -33.850  1.00  0.00     0.304 C 
HETATM    4  O   UNL     1      -5.306   5.124 -34.627  1.00  0.00    -0.253 OA
HETATM    5  N   UNL     1      -4.159   3.765 -33.151  1.00  0.00    -0.270 N 
HETATM    6  C   UNL     1      -4.447   2.612 -32.473  1.00  0.00     0.257 C 
HETATM    7  O   UNL     1      -3.688   1.986 -31.747  1.00  0.00    -0.270 OA
HETATM    8  H   UNL     1      -6.952   3.235 -34.294  1.00  0.00     0.134 HD
ENDROOT
BRANCH   1   9
HETATM    9  C   UNL     1      -6.216   0.997 -33.425  1.00  0.00     0.067 A 
HETATM   10  C   UNL     1      -6.861   0.961 -34.657  1.00  0.00     0.030 A 
HETATM   11  C   UNL     1      -6.996  -0.265 -35.308  1.00  0.00     0.003 A 
HETATM   12  C   UNL     1      -6.483  -1.417 -34.725  1.00  0.00     0.019 A 
HETATM   13  C   UNL     1      -5.847  -1.301 -33.504  1.00  0.00     0.117 A 
HETATM   14  N   UNL     1      -5.690  -0.129 -32.849  1.00  0.00    -0.263 NA
ENDBRANCH   1   9
BRANCH   1  15
HETATM   15  C   UNL     1      -6.694   2.307 -31.281  1.00  0.00     0.028 C 
HETATM   16  C   UNL     1      -7.926   1.388 -31.194  1.00  0.00     0.035 C 
HETATM   17  C   UNL     1      -9.098   1.869 -32.034  1.00  0.00     0.235 C 
HETATM   18  N   UNL     1      -9.472   3.297 -31.701  1.00  0.00    -0.067 N 
HETATM   19  H   UNL     1      -9.967   3.272 -30.798  1.00  0.00     0.280 HD
HETATM   20  C   UNL     1      -8.330   4.274 -31.552  1.00  0.00     0.235 C 
HETATM   21  C   UNL     1      -7.154   3.691 -30.785  1.00  0.00     0.035 C 
BRANCH  18  22
HETATM   22  C   UNL     1     -10.466   3.868 -32.715  1.00  0.00     0.278 C 
BRANCH  22  23
HETATM   23  C   UNL     1     -11.888   3.432 -32.540  1.00  0.00     0.028 A 
HETATM   24  C   UNL     1     -12.507   2.461 -33.341  1.00  0.00     0.045 A 
HETATM   25 CL   UNL     1     -11.651   1.623 -34.583  1.00  0.00    -0.084 Cl
HETATM   26  C   UNL     1     -13.848   2.121 -33.137  1.00  0.00     0.024 A 
HETATM   27  C   UNL     1     -14.587   2.744 -32.131  1.00  0.00     0.005 A 
HETATM   28  C   UNL     1     -13.983   3.701 -31.322  1.00  0.00     0.043 A 
HETATM   29  C   UNL     1     -12.649   4.031 -31.532  1.00  0.00     0.126 A 
HETATM   30  F   UNL     1     -12.063   4.932 -30.731  1.00  0.00    -0.205 F 
ENDBRANCH  22  23
ENDBRANCH  18  22
ENDBRANCH   1  15
BRANCH   5  31
HETATM   31  C   UNL     1      -2.866   4.427 -33.204  1.00  0.00     0.168 C 
BRANCH  31  32
HETATM   32  C   UNL     1      -2.804   5.669 -32.311  1.00  0.00     0.140 C 
HETATM   33  O   UNL     1      -2.828   6.856 -33.127  1.00  0.00    -0.384 OA
HETATM   34  C   UNL     1      -1.703   7.673 -32.773  1.00  0.00     0.168 C 
HETATM   35  C   UNL     1      -1.250   7.204 -31.410  1.00  0.00     0.029 C 
HETATM   36  C   UNL     1      -1.517   5.723 -31.496  1.00  0.00     0.036 C 
ENDBRANCH  31  32
ENDBRANCH   5  31
TORSDOF 6
ENDMDL
MODEL 5
REMARK VINA RESULT:      -8.4      2.239      2.939
REMARK  6 active torsions:
REMARK  status: ('A' for Active; 'I' for Inactive)
REMARK    1  A    between atoms: C_3  and  C_4 
REMARK    2  A    between atoms: C_4  and  C_5 
REMARK    3  A    between atoms: N_8  and  C_10 
REMARK    4  A    between atoms: C_10  and  C_11 
REMARK    5  A    between atoms: N_24  and  C_25 
REMARK    6  A    between atoms: C_25  and  C_26 
ROOT
HETATM    1  C   UNL     1      -5.358   2.268 -32.461  1.00  0.00     0.149 C 
HETATM    2  N   UNL     1      -5.778   3.478 -33.156  1.00  0.00    -0.220 NA
HETATM    3  C   UNL     1      -4.706   4.244 -33.541  1.00  0.00     0.304 C 
HETATM    4  O   UNL     1      -4.820   5.251 -34.217  1.00  0.00    -0.253 OA
HETATM    5  N   UNL     1      -3.575   3.723 -33.011  1.00  0.00    -0.270 N 
HETATM    6  C   UNL     1      -3.835   2.521 -32.411  1.00  0.00     0.257 C 
HETATM    7  O   UNL     1      -3.027   1.805 -31.836  1.00  0.00    -0.270 OA
HETATM    8  H   UNL     1      -6.497   3.391 -33.874  1.00  0.00     0.134 HD
ENDROOT
BRANCH   1   9
HETATM    9  C   UNL     1      -5.763   1.059 -33.300  1.00  0.00     0.067 A 
HETATM   10  C   UNL     1      -5.433  -0.249 -32.957  1.00  0.00     0.030 A 
HETATM   11  C   UNL     1      -5.910  -1.292 -33.749  1.00  0.00     0.003 A 
HETATM   12  C   UNL     1      -6.707  -1.013 -34.852  1.00  0.00     0.019 A 
HETATM   13  C   UNL     1      -7.001   0.309 -35.125  1.00  0.00     0.117 A 
HETATM   14  N   UNL     1      -6.563   1.345 -34.375  1.00  0.00    -0.263 NA
ENDBRANCH   1   9
BRANCH   1  15
HETATM   15  C   UNL     1      -5.948   2.173 -31.006  1.00  0.00     0.028 C 
HETATM   16  C   UNL     1      -7.440   1.800 -30.929  1.00  0.00     0.035 C 
HETATM   17  C   UNL     1      -8.364   2.900 -31.424  1.00  0.00     0.235 C 
HETATM   18  N   UNL     1      -8.103   4.208 -30.711  1.00  0.00    -0.067 N 
HETATM   19  H   UNL     1      -8.509   4.120 -29.769  1.00  0.00     0.280 HD
HETATM   20  C   UNL     1      -6.656   4.602 -30.534  1.00  0.00     0.235 C 
HETATM   21  C   UNL     1      -5.774   3.430 -30.133  1.00  0.00     0.035 C 
BRANCH  18  22
HETATM   22  C   UNL     1      -8.840   5.370 -31.383  1.00  0.00     0.278 C 
BRANCH  22  23
HETATM   23  C   UNL     1      -9.764   4.989 -32.498  1.00  0.00     0.028 A 
HETATM   24  C   UNL     1     -11.069   4.518 -32.298  1.00  0.00     0.045 A 
HETATM   25 CL   UNL     1     -11.761   4.390 -30.722  1.00  0.00    -0.084 Cl
HETATM   26  C   UNL     1     -11.869   4.155 -33.386  1.00  0.00     0.024 A 
HETATM   27  C   UNL     1     -11.377   4.260 -34.688  1.00  0.00     0.005 A 
HETATM   28  C   UNL     1     -10.088   4.737 -34.902  1.00  0.00     0.043 A 
HETATM   29  C   UNL     1      -9.301   5.096 -33.813  1.00  0.00     0.126 A 
HETATM   30  F   UNL     1      -8.071   5.582 -34.026  1.00  0.00    -0.205 F 
ENDBRANCH  22  23
ENDBRANCH  18  22
ENDBRANCH   1  15
BRANCH   5  31
HETATM   31  C   UNL     1      -2.269   4.346 -33.149  1.00  0.00     0.168 C 
BRANCH  31  32
HETATM   32  C   UNL     1      -1.954   5.312 -32.004  1.00  0.00     0.140 C 
HETATM   33  O   UNL     1      -2.341   6.649 -32.375  1.00  0.00    -0.384 OA
HETATM   34  C   UNL     1      -1.211   7.516 -32.193  1.00  0.00     0.168 C 
HETATM   35  C   UNL     1      -0.267   6.790 -31.263  1.00  0.00     0.029 C 
HETATM   36  C   UNL     1      -0.464   5.358 -31.688  1.00  0.00     0.036 C 
ENDBRANCH  31  32
ENDBRANCH   5  31
TORSDOF 6
ENDMDL
MODEL 6
REMARK VINA RESULT:      -8.4      3.892      8.243
REMARK  6 active torsions:
REMARK  status: ('A' for Active; 'I' for Inactive)
REMARK    1  A    between atoms: C_3  and  C_4 
REMARK    2  A    between atoms: C_4  and  C_5 
REMARK    3  A    between atoms: N_8  and  C_10 
REMARK    4  A    between atoms: C_10  and  C_11 
REMARK    5  A    between atoms: N_24  and  C_25 
REMARK    6  A    between atoms: C_25  and  C_26 
ROOT
HETATM    1  C   UNL     1      -7.694   2.856 -31.502  1.00  0.00     0.149 C 
HETATM    2  N   UNL     1      -6.909   3.358 -32.623  1.00  0.00    -0.220 NA
HETATM    3  C   UNL     1      -6.788   2.423 -33.621  1.00  0.00     0.304 C 
HETATM    4  O   UNL     1      -6.253   2.660 -34.690  1.00  0.00    -0.253 OA
HETATM    5  N   UNL     1      -7.301   1.246 -33.191  1.00  0.00    -0.270 N 
HETATM    6  C   UNL     1      -7.921   1.405 -31.982  1.00  0.00     0.257 C 
HETATM    7  O   UNL     1      -8.474   0.532 -31.328  1.00  0.00    -0.270 OA
HETATM    8  H   UNL     1      -7.112   4.296 -32.965  1.00  0.00     0.134 HD
ENDROOT
BRANCH   1   9
HETATM    9  C   UNL     1      -8.972   3.684 -31.393  1.00  0.00     0.067 A 
HETATM   10  C   UNL     1     -10.015   3.360 -30.530  1.00  0.00     0.030 A 
HETATM   11  C   UNL     1     -11.110   4.219 -30.449  1.00  0.00     0.003 A 
HETATM   12  C   UNL     1     -11.139   5.376 -31.217  1.00  0.00     0.019 A 
HETATM   13  C   UNL     1     -10.063   5.636 -32.044  1.00  0.00     0.117 A 
HETATM   14  N   UNL     1      -8.981   4.831 -32.141  1.00  0.00    -0.263 NA
ENDBRANCH   1   9
BRANCH   1  15
HETATM   15  C   UNL     1      -6.891   2.870 -30.150  1.00  0.00     0.028 C 
HETATM   16  C   UNL     1      -6.783   4.245 -29.467  1.00  0.00     0.035 C 
HETATM   17  C   UNL     1      -5.891   5.222 -30.214  1.00  0.00     0.235 C 
HETATM   18  N   UNL     1      -4.517   4.641 -30.463  1.00  0.00    -0.067 N 
HETATM   19  H   UNL     1      -4.013   4.673 -29.565  1.00  0.00     0.280 HD
HETATM   20  C   UNL     1      -4.468   3.211 -30.946  1.00  0.00     0.235 C 
HETATM   21  C   UNL     1      -5.456   2.313 -30.221  1.00  0.00     0.035 C 
BRANCH  18  22
HETATM   22  C   UNL     1      -3.710   5.506 -31.434  1.00  0.00     0.278 C 
BRANCH  22  23
HETATM   23  C   UNL     1      -2.316   5.838 -30.997  1.00  0.00     0.028 A 
HETATM   24  C   UNL     1      -2.018   6.768 -29.991  1.00  0.00     0.045 A 
HETATM   25 CL   UNL     1      -3.257   7.583 -29.108  1.00  0.00    -0.084 Cl
HETATM   26  C   UNL     1      -0.691   7.048 -29.651  1.00  0.00     0.024 A 
HETATM   27  C   UNL     1       0.356   6.401 -30.310  1.00  0.00     0.005 A 
HETATM   28  C   UNL     1       0.075   5.468 -31.303  1.00  0.00     0.043 A 
HETATM   29  C   UNL     1      -1.249   5.196 -31.632  1.00  0.00     0.126 A 
HETATM   30  F   UNL     1      -1.514   4.275 -32.568  1.00  0.00    -0.205 F 
ENDBRANCH  22  23
ENDBRANCH  18  22
ENDBRANCH   1  15
BRANCH   5  31
HETATM   31  C   UNL     1      -7.248   0.021 -33.972  1.00  0.00     0.168 C 
BRANCH  31  32
HETATM   32  C   UNL     1      -6.306  -1.022 -33.367  1.00  0.00     0.140 C 
HETATM   33  O   UNL     1      -5.096  -0.382 -32.916  1.00  0.00    -0.384 OA
HETATM   34  C   UNL     1      -3.977  -1.057 -33.510  1.00  0.00     0.168 C 
HETATM   35  C   UNL     1      -4.485  -2.409 -33.955  1.00  0.00     0.029 C 
HETATM   36  C   UNL     1      -5.890  -2.077 -34.386  1.00  0.00     0.036 C 
ENDBRANCH  31  32
ENDBRANCH   5  31
TORSDOF 6
ENDMDL
MODEL 7
REMARK VINA RESULT:      -8.4      3.287      7.711
REMARK  6 active torsions:
REMARK  status: ('A' for Active; 'I' for Inactive)
REMARK    1  A    between atoms: C_3  and  C_4 
REMARK    2  A    between atoms: C_4  and  C_5 
REMARK    3  A    between atoms: N_8  and  C_10 
REMARK    4  A    between atoms: C_10  and  C_11 
REMARK    5  A    between atoms: N_24  and  C_25 
REMARK    6  A    between atoms: C_25  and  C_26 
ROOT
HETATM    1  C   UNL     1      -8.819   2.234 -32.826  1.00  0.00     0.149 C 
HETATM    2  N   UNL     1      -8.108   2.375 -34.091  1.00  0.00    -0.220 NA
HETATM    3  C   UNL     1      -7.516   1.198 -34.478  1.00  0.00     0.304 C 
HETATM    4  O   UNL     1      -6.950   1.062 -35.548  1.00  0.00    -0.253 OA
HETATM    5  N   UNL     1      -7.633   0.293 -33.478  1.00  0.00    -0.270 N 
HETATM    6  C   UNL     1      -8.440   0.775 -32.485  1.00  0.00     0.257 C 
HETATM    7  O   UNL     1      -8.736   0.203 -31.445  1.00  0.00    -0.270 OA
HETATM    8  H   UNL     1      -8.580   2.864 -34.851  1.00  0.00     0.134 HD
ENDROOT
BRANCH   1   9
HETATM    9  C   UNL     1     -10.309   2.449 -33.078  1.00  0.00     0.067 A 
HETATM   10  C   UNL     1     -11.037   1.704 -34.001  1.00  0.00     0.030 A 
HETATM   11  C   UNL     1     -12.410   1.925 -34.108  1.00  0.00     0.003 A 
HETATM   12  C   UNL     1     -13.023   2.870 -33.294  1.00  0.00     0.019 A 
HETATM   13  C   UNL     1     -12.237   3.564 -32.395  1.00  0.00     0.117 A 
HETATM   14  N   UNL     1     -10.905   3.370 -32.258  1.00  0.00    -0.263 NA
ENDBRANCH   1   9
BRANCH   1  15
HETATM   15  C   UNL     1      -8.282   3.215 -31.721  1.00  0.00     0.028 C 
HETATM   16  C   UNL     1      -7.727   4.551 -32.246  1.00  0.00     0.035 C 
HETATM   17  C   UNL     1      -6.419   4.405 -33.006  1.00  0.00     0.235 C 
HETATM   18  N   UNL     1      -5.377   3.682 -32.182  1.00  0.00    -0.067 N 
HETATM   19  H   UNL     1      -5.038   4.351 -31.476  1.00  0.00     0.280 HD
HETATM   20  C   UNL     1      -5.841   2.453 -31.437  1.00  0.00     0.235 C 
HETATM   21  C   UNL     1      -7.201   2.640 -30.786  1.00  0.00     0.035 C 
BRANCH  18  22
HETATM   22  C   UNL     1      -4.158   3.302 -33.027  1.00  0.00     0.278 C 
BRANCH  22  23
HETATM   23  C   UNL     1      -3.072   4.331 -33.092  1.00  0.00     0.028 A 
HETATM   24  C   UNL     1      -2.886   5.195 -34.180  1.00  0.00     0.045 A 
HETATM   25 CL   UNL     1      -3.948   5.191 -35.541  1.00  0.00    -0.084 Cl
HETATM   26  C   UNL     1      -1.833   6.116 -34.185  1.00  0.00     0.024 A 
HETATM   27  C   UNL     1      -0.955   6.187 -33.103  1.00  0.00     0.005 A 
HETATM   28  C   UNL     1      -1.135   5.344 -32.011  1.00  0.00     0.043 A 
HETATM   29  C   UNL     1      -2.185   4.432 -32.016  1.00  0.00     0.126 A 
HETATM   30  F   UNL     1      -2.372   3.643 -30.950  1.00  0.00    -0.205 F 
ENDBRANCH  22  23
ENDBRANCH  18  22
ENDBRANCH   1  15
BRANCH   5  31
HETATM   31  C   UNL     1      -7.033  -1.030 -33.527  1.00  0.00     0.168 C 
BRANCH  31  32
HETATM   32  C   UNL     1      -5.503  -0.982 -33.541  1.00  0.00     0.140 C 
HETATM   33  O   UNL     1      -4.987  -2.117 -34.262  1.00  0.00    -0.384 OA
HETATM   34  C   UNL     1      -4.043  -2.798 -33.422  1.00  0.00     0.168 C 
HETATM   35  C   UNL     1      -3.632  -1.807 -32.358  1.00  0.00     0.029 C 
HETATM   36  C   UNL     1      -4.917  -1.052 -32.136  1.00  0.00     0.036 C 
ENDBRANCH  31  32
ENDBRANCH   5  31
TORSDOF 6
ENDMDL
MODEL 8
REMARK VINA RESULT:      -8.1      3.424      7.041
REMARK  6 active torsions:
REMARK  status: ('A' for Active; 'I' for Inactive)
REMARK    1  A    between atoms: C_3  and  C_4 
REMARK    2  A    between atoms: C_4  and  C_5 
REMARK    3  A    between atoms: N_8  and  C_10 
REMARK    4  A    between atoms: C_10  and  C_11 
REMARK    5  A    between atoms: N_24  and  C_25 
REMARK    6  A    between atoms: C_25  and  C_26 
ROOT
HETATM    1  C   UNL     1      -4.859   3.925 -31.780  1.00  0.00     0.149 C 
HETATM    2  N   UNL     1      -5.595   3.685 -33.015  1.00  0.00    -0.220 NA
HETATM    3  C   UNL     1      -6.676   4.522 -33.136  1.00  0.00     0.304 C 
HETATM    4  O   UNL     1      -7.377   4.560 -34.132  1.00  0.00    -0.253 OA
HETATM    5  N   UNL     1      -6.832   5.216 -31.984  1.00  0.00    -0.270 N 
HETATM    6  C   UNL     1      -5.777   4.991 -31.142  1.00  0.00     0.257 C 
HETATM    7  O   UNL     1      -5.626   5.465 -30.024  1.00  0.00    -0.270 OA
HETATM    8  H   UNL     1      -5.060   3.581 -33.876  1.00  0.00     0.134 HD
ENDROOT
BRANCH   1   9
HETATM    9  C   UNL     1      -3.465   4.435 -32.135  1.00  0.00     0.067 A 
HETATM   10  C   UNL     1      -2.976   4.461 -33.438  1.00  0.00     0.030 A 
HETATM   11  C   UNL     1      -1.717   5.013 -33.672  1.00  0.00     0.003 A 
HETATM   12  C   UNL     1      -0.982   5.529 -32.612  1.00  0.00     0.019 A 
HETATM   13  C   UNL     1      -1.536   5.477 -31.348  1.00  0.00     0.117 A 
HETATM   14  N   UNL     1      -2.757   4.957 -31.086  1.00  0.00    -0.263 NA
ENDBRANCH   1   9
BRANCH   1  15
HETATM   15  C   UNL     1      -4.782   2.648 -30.866  1.00  0.00     0.028 C 
HETATM   16  C   UNL     1      -3.639   1.672 -31.202  1.00  0.00     0.035 C 
HETATM   17  C   UNL     1      -3.838   0.938 -32.517  1.00  0.00     0.235 C 
HETATM   18  N   UNL     1      -5.174   0.231 -32.562  1.00  0.00    -0.067 N 
HETATM   19  H   UNL     1      -5.089  -0.604 -31.965  1.00  0.00     0.280 HD
HETATM   20  C   UNL     1      -6.366   1.011 -32.062  1.00  0.00     0.235 C 
HETATM   21  C   UNL     1      -6.065   1.798 -30.798  1.00  0.00     0.035 C 
BRANCH  18  22
HETATM   22  C   UNL     1      -5.490  -0.284 -33.969  1.00  0.00     0.278 C 
BRANCH  22  23
HETATM   23  C   UNL     1      -5.498  -1.773 -34.124  1.00  0.00     0.028 A 
HETATM   24  C   UNL     1      -4.464  -2.607 -33.674  1.00  0.00     0.045 A 
HETATM   25 CL   UNL     1      -3.093  -1.984 -32.830  1.00  0.00    -0.084 Cl
HETATM   26  C   UNL     1      -4.526  -3.989 -33.876  1.00  0.00     0.024 A 
HETATM   27  C   UNL     1      -5.621  -4.557 -34.529  1.00  0.00     0.005 A 
HETATM   28  C   UNL     1      -6.659  -3.744 -34.971  1.00  0.00     0.043 A 
HETATM   29  C   UNL     1      -6.588  -2.370 -34.764  1.00  0.00     0.126 A 
HETATM   30  F   UNL     1      -7.604  -1.594 -35.165  1.00  0.00    -0.205 F 
ENDBRANCH  22  23
ENDBRANCH  18  22
ENDBRANCH   1  15
BRANCH   5  31
HETATM   31  C   UNL     1      -7.940   6.126 -31.745  1.00  0.00     0.168 C 
BRANCH  31  32
HETATM   32  C   UNL     1      -9.138   5.435 -31.089  1.00  0.00     0.140 C 
HETATM   33  O   UNL     1      -8.715   4.196 -30.488  1.00  0.00    -0.384 OA
HETATM   34  C   UNL     1      -9.549   3.141 -30.989  1.00  0.00     0.168 C 
HETATM   35  C   UNL     1     -10.789   3.807 -31.540  1.00  0.00     0.029 C 
HETATM   36  C   UNL     1     -10.221   5.084 -32.102  1.00  0.00     0.036 C 
ENDBRANCH  31  32
ENDBRANCH   5  31
TORSDOF 6
ENDMDL
MODEL 9
REMARK VINA RESULT:      -8.1      1.799      2.298
REMARK  6 active torsions:
REMARK  status: ('A' for Active; 'I' for Inactive)
REMARK    1  A    between atoms: C_3  and  C_4 
REMARK    2  A    between atoms: C_4  and  C_5 
REMARK    3  A    between atoms: N_8  and  C_10 
REMARK    4  A    between atoms: C_10  and  C_11 
REMARK    5  A    between atoms: N_24  and  C_25 
REMARK    6  A    between atoms: C_25  and  C_26 
ROOT
HETATM    1  C   UNL     1      -6.545   2.000 -32.016  1.00  0.00     0.149 C 
HETATM    2  N   UNL     1      -6.956   2.670 -33.243  1.00  0.00    -0.220 NA
HETATM    3  C   UNL     1      -6.400   3.921 -33.354  1.00  0.00     0.304 C 
HETATM    4  O   UNL     1      -6.532   4.620 -34.342  1.00  0.00    -0.253 OA
HETATM    5  N   UNL     1      -5.760   4.225 -32.200  1.00  0.00    -0.270 N 
HETATM    6  C   UNL     1      -5.726   3.139 -31.368  1.00  0.00     0.257 C 
HETATM    7  O   UNL     1      -5.228   3.093 -30.252  1.00  0.00    -0.270 OA
HETATM    8  H   UNL     1      -6.931   2.134 -34.110  1.00  0.00     0.134 HD
ENDROOT
BRANCH   1   9
HETATM    9  C   UNL     1      -5.719   0.771 -32.386  1.00  0.00     0.067 A 
HETATM   10  C   UNL     1      -4.931   0.082 -31.469  1.00  0.00     0.030 A 
HETATM   11  C   UNL     1      -4.270  -1.073 -31.885  1.00  0.00     0.003 A 
HETATM   12  C   UNL     1      -4.414  -1.517 -33.194  1.00  0.00     0.019 A 
HETATM   13  C   UNL     1      -5.221  -0.787 -34.045  1.00  0.00     0.117 A 
HETATM   14  N   UNL     1      -5.883   0.332 -33.673  1.00  0.00    -0.263 NA
ENDBRANCH   1   9
BRANCH   1  15
HETATM   15  C   UNL     1      -7.765   1.611 -31.104  1.00  0.00     0.028 C 
HETATM   16  C   UNL     1      -8.627   0.447 -31.625  1.00  0.00     0.035 C 
HETATM   17  C   UNL     1      -9.435   0.801 -32.863  1.00  0.00     0.235 C 
HETATM   18  N   UNL     1     -10.283   2.034 -32.639  1.00  0.00    -0.067 N 
HETATM   19  H   UNL     1     -11.076   1.746 -32.049  1.00  0.00     0.280 HD
HETATM   20  C   UNL     1      -9.613   3.194 -31.942  1.00  0.00     0.235 C 
HETATM   21  C   UNL     1      -8.743   2.755 -30.776  1.00  0.00     0.035 C 
BRANCH  18  22
HETATM   22  C   UNL     1     -10.889   2.543 -33.949  1.00  0.00     0.278 C 
BRANCH  22  23
HETATM   23  C   UNL     1     -11.807   3.719 -33.820  1.00  0.00     0.028 A 
HETATM   24  C   UNL     1     -11.511   4.995 -34.322  1.00  0.00     0.045 A 
HETATM   25 CL   UNL     1     -10.062   5.314 -35.203  1.00  0.00    -0.084 Cl
HETATM   26  C   UNL     1     -12.405   6.055 -34.143  1.00  0.00     0.024 A 
HETATM   27  C   UNL     1     -13.607   5.855 -33.462  1.00  0.00     0.005 A 
HETATM   28  C   UNL     1     -13.919   4.592 -32.968  1.00  0.00     0.043 A 
HETATM   29  C   UNL     1     -13.023   3.545 -33.153  1.00  0.00     0.126 A 
HETATM   30  F   UNL     1     -13.342   2.324 -32.702  1.00  0.00    -0.205 F 
ENDBRANCH  22  23
ENDBRANCH  18  22
ENDBRANCH   1  15
BRANCH   5  31
HETATM   31  C   UNL     1      -5.140   5.516 -31.949  1.00  0.00     0.168 C 
BRANCH  31  32
HETATM   32  C   UNL     1      -3.730   5.615 -32.536  1.00  0.00     0.140 C 
HETATM   33  O   UNL     1      -3.780   6.276 -33.815  1.00  0.00    -0.384 OA
HETATM   34  C   UNL     1      -3.131   5.439 -34.784  1.00  0.00     0.168 C 
HETATM   35  C   UNL     1      -2.269   4.475 -34.002  1.00  0.00     0.029 C 
HETATM   36  C   UNL     1      -3.112   4.242 -32.775  1.00  0.00     0.036 C 
ENDBRANCH  31  32
ENDBRANCH   5  31
TORSDOF 6
ENDMDL
MODEL 10
REMARK VINA RESULT:      -8.0      3.436      6.230
REMARK  6 active torsions:
REMARK  status: ('A' for Active; 'I' for Inactive)
REMARK    1  A    between atoms: C_3  and  C_4 
REMARK    2  A    between atoms: C_4  and  C_5 
REMARK    3  A    between atoms: N_8  and  C_10 
REMARK    4  A    between atoms: C_10  and  C_11 
REMARK    5  A    between atoms: N_24  and  C_25 
REMARK    6  A    between atoms: C_25  and  C_26 
ROOT
HETATM    1  C   UNL     1      -7.343   4.862 -32.223  1.00  0.00     0.149 C 
HETATM    2  N   UNL     1      -7.033   3.839 -31.232  1.00  0.00    -0.220 NA
HETATM    3  C   UNL     1      -5.848   4.095 -30.587  1.00  0.00     0.304 C 
HETATM    4  O   UNL     1      -5.442   3.422 -29.656  1.00  0.00    -0.253 OA
HETATM    5  N   UNL     1      -5.235   5.143 -31.185  1.00  0.00    -0.270 N 
HETATM    6  C   UNL     1      -6.057   5.713 -32.118  1.00  0.00     0.257 C 
HETATM    7  O   UNL     1      -5.794   6.671 -32.832  1.00  0.00    -0.270 OA
HETATM    8  H   UNL     1      -7.781   3.538 -30.608  1.00  0.00     0.134 HD
ENDROOT
BRANCH   1   9
HETATM    9  C   UNL     1      -8.611   5.591 -31.790  1.00  0.00     0.067 A 
HETATM   10  C   UNL     1      -9.312   5.273 -30.631  1.00  0.00     0.030 A 
HETATM   11  C   UNL     1     -10.419   6.045 -30.281  1.00  0.00     0.003 A 
HETATM   12  C   UNL     1     -10.797   7.114 -31.085  1.00  0.00     0.019 A 
HETATM   13  C   UNL     1     -10.047   7.376 -32.215  1.00  0.00     0.117 A 
HETATM   14  N   UNL     1      -8.963   6.654 -32.580  1.00  0.00    -0.263 NA
ENDBRANCH   1   9
BRANCH   1  15
HETATM   15  C   UNL     1      -7.494   4.270 -33.672  1.00  0.00     0.028 C 
HETATM   16  C   UNL     1      -8.720   3.364 -33.884  1.00  0.00     0.035 C 
HETATM   17  C   UNL     1      -8.619   2.032 -33.158  1.00  0.00     0.235 C 
HETATM   18  N   UNL     1      -7.345   1.299 -33.515  1.00  0.00    -0.067 N 
HETATM   19  H   UNL     1      -7.478   0.916 -34.462  1.00  0.00     0.280 HD
HETATM   20  C   UNL     1      -6.080   2.124 -33.547  1.00  0.00     0.235 C 
HETATM   21  C   UNL     1      -6.280   3.481 -34.200  1.00  0.00     0.035 C 
BRANCH  18  22
HETATM   22  C   UNL     1      -7.114   0.096 -32.598  1.00  0.00     0.278 C 
BRANCH  22  23
HETATM   23  C   UNL     1      -6.124  -0.912 -33.094  1.00  0.00     0.028 A 
HETATM   24  C   UNL     1      -4.866  -1.118 -32.510  1.00  0.00     0.045 A 
HETATM   25 CL   UNL     1      -4.361  -0.254 -31.104  1.00  0.00    -0.084 Cl
HETATM   26  C   UNL     1      -3.980  -2.061 -33.043  1.00  0.00     0.024 A 
HETATM   27  C   UNL     1      -4.340  -2.810 -34.163  1.00  0.00     0.005 A 
HETATM   28  C   UNL     1      -5.590  -2.625 -34.747  1.00  0.00     0.043 A 
HETATM   29  C   UNL     1      -6.463  -1.685 -34.208  1.00  0.00     0.126 A 
HETATM   30  F   UNL     1      -7.677  -1.531 -34.755  1.00  0.00    -0.205 F 
ENDBRANCH  22  23
ENDBRANCH  18  22
ENDBRANCH   1  15
BRANCH   5  31
HETATM   31  C   UNL     1      -3.914   5.616 -30.805  1.00  0.00     0.168 C 
BRANCH  31  32
HETATM   32  C   UNL     1      -2.790   4.859 -31.517  1.00  0.00     0.140 C 
HETATM   33  O   UNL     1      -1.533   5.129 -30.867  1.00  0.00    -0.384 OA
HETATM   34  C   UNL     1      -0.601   5.592 -31.855  1.00  0.00     0.168 C 
HETATM   35  C   UNL     1      -1.153   5.158 -33.194  1.00  0.00     0.029 C 
HETATM   36  C   UNL     1      -2.636   5.297 -32.969  1.00  0.00     0.036 C 
ENDBRANCH  31  32
ENDBRANCH   5  31
TORSDOF 6
ENDMDL
