MODEL 1
REMARK VINA RESULT:      -8.9      0.000      0.000
REMARK  6 active torsions:
REMARK  status: ('A' for Active; 'I' for Inactive)
REMARK    1  A    between atoms: C_2  and  C_3 
REMARK    2  A    between atoms: C_3  and  N_4 
REMARK    3  A    between atoms: C_5  and  S_6 
REMARK    4  A    between atoms: S_6  and  C_7 
REMARK    5  A    between atoms: C_7  and  C_8 
REMARK       I    between atoms: C_8  and  N_9 
REMARK    6  A    between atoms: N_9  and  C_10 
ROOT
HETATM    1  C   UNL     1      -5.481   1.551 -31.316  1.00  0.00     0.231 C 
HETATM    2  N   UNL     1      -5.020   1.225 -32.585  1.00  0.00    -0.325 N 
HETATM    3  O   UNL     1      -6.335   0.913 -30.703  1.00  0.00    -0.272 OA
HETATM    4  H   UNL     1      -4.054   1.497 -32.732  1.00  0.00     0.169 HD
ENDROOT
BRANCH   1   5
HETATM    5  C   UNL     1      -4.858   2.796 -30.698  1.00  0.00     0.185 C 
BRANCH   5   6
HETATM    6  S   UNL     1      -5.031   4.272 -31.755  1.00  0.00    -0.083 SA
BRANCH   6   7
HETATM    7  C   UNL     1      -3.550   5.096 -31.380  1.00  0.00     0.170 A 
HETATM    8  N   UNL     1      -2.415   5.018 -32.151  1.00  0.00    -0.324 N 
HETATM    9  C   UNL     1      -1.420   5.711 -31.488  1.00  0.00     0.065 A 
HETATM   10  C   UNL     1      -2.052   6.212 -30.351  1.00  0.00     0.088 A 
HETATM   11  C   UNL     1      -0.067   5.950 -31.762  1.00  0.00     0.034 A 
HETATM   12  N   UNL     1      -3.367   5.833 -30.311  1.00  0.00    -0.222 NA
HETATM   13  C   UNL     1      -1.329   6.985 -29.432  1.00  0.00     0.057 A 
HETATM   14  C   UNL     1       0.023   7.225 -29.691  1.00  0.00     0.036 A 
HETATM   15 CL   UNL     1       0.941   8.163 -28.574  1.00  0.00    -0.084 Cl
HETATM   16  C   UNL     1       0.645   6.718 -30.833  1.00  0.00     0.026 A 
BRANCH   8  17
HETATM   17  C   UNL     1      -2.252   4.322 -33.414  1.00  0.00     0.131 C 
BRANCH  17  18
HETATM   18  C   UNL     1      -2.362   5.226 -34.643  1.00  0.00     0.016 C 
HETATM   19  C   UNL     1      -3.748   5.223 -35.275  1.00  0.00     0.006 C 
ENDBRANCH  17  18
ENDBRANCH   8  17
ENDBRANCH   6   7
ENDBRANCH   5   6
ENDBRANCH   1   5
BRANCH   2  20
HETATM   20  C   UNL     1      -5.478   0.080 -33.282  1.00  0.00     0.054 A 
HETATM   21  C   UNL     1      -6.718   0.022 -33.985  1.00  0.00     0.040 A 
HETATM   22 BR   UNL     1      -7.771   1.573 -34.341  1.00  0.00    -0.049 Br
HETATM   23  C   UNL     1      -7.156  -1.165 -34.594  1.00  0.00     0.053 A 
HETATM   24  C   UNL     1      -6.320  -2.250 -34.504  1.00  0.00     0.064 A 
HETATM   25  C   UNL     1      -5.084  -2.186 -33.867  1.00  0.00     0.065 A 
HETATM   26  N   UNL     1      -6.483  -3.540 -34.995  1.00  0.00    -0.306 N 
HETATM   27  N   UNL     1      -4.487  -3.437 -33.964  1.00  0.00    -0.306 N 
HETATM   28  C   UNL     1      -4.626  -1.037 -33.263  1.00  0.00     0.063 A 
HETATM   29  C   UNL     1      -5.349  -4.296 -34.661  1.00  0.00     0.325 A 
HETATM   30  H   UNL     1      -3.595  -3.726 -33.596  1.00  0.00     0.170 HD
HETATM   31  O   UNL     1      -5.151  -5.468 -34.925  1.00  0.00    -0.247 OA
HETATM   32  H   UNL     1      -7.272  -3.910 -35.499  1.00  0.00     0.170 HD
ENDBRANCH   2  20
TORSDOF 6
ENDMDL
MODEL 2
REMARK VINA RESULT:      -8.3      5.398      7.897
REMARK  6 active torsions:
REMARK  status: ('A' for Active; 'I' for Inactive)
REMARK    1  A    between atoms: C_2  and  C_3 
REMARK    2  A    between atoms: C_3  and  N_4 
REMARK    3  A    between atoms: C_5  and  S_6 
REMARK    4  A    between atoms: S_6  and  C_7 
REMARK    5  A    between atoms: C_7  and  C_8 
REMARK       I    between atoms: C_8  and  N_9 
REMARK    6  A    between atoms: N_9  and  C_10 
ROOT
HETATM    1  C   UNL     1      -6.334   2.526 -32.918  1.00  0.00     0.231 C 
HETATM    2  N   UNL     1      -6.503   1.320 -32.249  1.00  0.00    -0.325 N 
HETATM    3  O   UNL     1      -5.683   2.659 -33.953  1.00  0.00    -0.272 OA
HETATM    4  H   UNL     1      -7.393   1.264 -31.763  1.00  0.00     0.169 HD
ENDROOT
BRANCH   1   5
HETATM    5  C   UNL     1      -7.015   3.727 -32.277  1.00  0.00     0.185 C 
BRANCH   5   6
HETATM    6  S   UNL     1      -7.917   4.756 -33.484  1.00  0.00    -0.083 SA
BRANCH   6   7
HETATM    7  C   UNL     1      -9.277   3.727 -33.810  1.00  0.00     0.170 A 
HETATM    8  N   UNL     1     -10.303   4.063 -34.659  1.00  0.00    -0.324 N 
HETATM    9  C   UNL     1     -11.245   3.054 -34.585  1.00  0.00     0.065 A 
HETATM   10  C   UNL     1     -10.686   2.130 -33.703  1.00  0.00     0.088 A 
HETATM   11  C   UNL     1     -12.494   2.857 -35.186  1.00  0.00     0.034 A 
HETATM   12  N   UNL     1      -9.468   2.557 -33.249  1.00  0.00    -0.222 NA
HETATM   13  C   UNL     1     -11.381   0.953 -33.390  1.00  0.00     0.057 A 
HETATM   14  C   UNL     1     -12.631   0.749 -33.979  1.00  0.00     0.036 A 
HETATM   15 CL   UNL     1     -13.514  -0.683 -33.606  1.00  0.00    -0.084 Cl
HETATM   16  C   UNL     1     -13.180   1.681 -34.860  1.00  0.00     0.026 A 
BRANCH   8  17
HETATM   17  C   UNL     1     -10.420   5.259 -35.473  1.00  0.00     0.131 C 
BRANCH  17  18
HETATM   18  C   UNL     1     -11.385   6.305 -34.909  1.00  0.00     0.016 C 
HETATM   19  C   UNL     1     -11.714   7.419 -35.894  1.00  0.00     0.006 C 
ENDBRANCH  17  18
ENDBRANCH   8  17
ENDBRANCH   6   7
ENDBRANCH   5   6
ENDBRANCH   1   5
BRANCH   2  20
HETATM   20  C   UNL     1      -5.960   0.105 -32.734  1.00  0.00     0.054 A 
HETATM   21  C   UNL     1      -4.589  -0.263 -32.591  1.00  0.00     0.040 A 
HETATM   22 BR   UNL     1      -3.382   0.686 -31.457  1.00  0.00    -0.049 Br
HETATM   23  C   UNL     1      -4.088  -1.445 -33.159  1.00  0.00     0.053 A 
HETATM   24  C   UNL     1      -4.988  -2.238 -33.828  1.00  0.00     0.064 A 
HETATM   25  C   UNL     1      -6.338  -1.912 -33.924  1.00  0.00     0.065 A 
HETATM   26  N   UNL     1      -4.790  -3.445 -34.488  1.00  0.00    -0.306 N 
HETATM   27  N   UNL     1      -6.970  -2.917 -34.646  1.00  0.00    -0.306 N 
HETATM   28  C   UNL     1      -6.858  -0.762 -33.377  1.00  0.00     0.063 A 
HETATM   29  C   UNL     1      -6.017  -3.880 -35.009  1.00  0.00     0.325 A 
HETATM   30  H   UNL     1      -7.943  -2.976 -34.901  1.00  0.00     0.170 HD
HETATM   31  O   UNL     1      -6.217  -4.895 -35.651  1.00  0.00    -0.247 OA
HETATM   32  H   UNL     1      -3.924  -3.946 -34.604  1.00  0.00     0.170 HD
ENDBRANCH   2  20
TORSDOF 6
ENDMDL
MODEL 3
REMARK VINA RESULT:      -8.2      4.382      8.938
REMARK  6 active torsions:
REMARK  status: ('A' for Active; 'I' for Inactive)
REMARK    1  A    between atoms: C_2  and  C_3 
REMARK    2  A    between atoms: C_3  and  N_4 
REMARK    3  A    between atoms: C_5  and  S_6 
REMARK    4  A    between atoms: S_6  and  C_7 
REMARK    5  A    between atoms: C_7  and  C_8 
REMARK       I    between atoms: C_8  and  N_9 
REMARK    6  A    between atoms: N_9  and  C_10 
ROOT
HETATM    1  C   UNL     1      -6.318   4.253 -33.520  1.00  0.00     0.231 C 
HETATM    2  N   UNL     1      -5.888   4.450 -32.214  1.00  0.00    -0.325 N 
HETATM    3  O   UNL     1      -5.843   4.824 -34.500  1.00  0.00    -0.272 OA
HETATM    4  H   UNL     1      -5.996   3.621 -31.638  1.00  0.00     0.169 HD
ENDROOT
BRANCH   1   5
HETATM    5  C   UNL     1      -7.461   3.260 -33.686  1.00  0.00     0.185 C 
BRANCH   5   6
HETATM    6  S   UNL     1      -7.696   2.202 -32.219  1.00  0.00    -0.083 SA
BRANCH   6   7
HETATM    7  C   UNL     1      -7.077   0.696 -32.822  1.00  0.00     0.170 A 
HETATM    8  N   UNL     1      -5.739   0.391 -32.883  1.00  0.00    -0.324 N 
HETATM    9  C   UNL     1      -5.626  -0.836 -33.510  1.00  0.00     0.065 A 
HETATM   10  C   UNL     1      -6.945  -1.218 -33.751  1.00  0.00     0.088 A 
HETATM   11  C   UNL     1      -4.535  -1.633 -33.877  1.00  0.00     0.034 A 
HETATM   12  N   UNL     1      -7.823  -0.266 -33.307  1.00  0.00    -0.222 NA
HETATM   13  C   UNL     1      -7.215  -2.440 -34.384  1.00  0.00     0.057 A 
HETATM   14  C   UNL     1      -6.134  -3.240 -34.761  1.00  0.00     0.036 A 
HETATM   15 CL   UNL     1      -6.433  -4.743 -35.550  1.00  0.00    -0.084 Cl
HETATM   16  C   UNL     1      -4.818  -2.847 -34.514  1.00  0.00     0.026 A 
BRANCH   8  17
HETATM   17  C   UNL     1      -4.626   1.196 -32.414  1.00  0.00     0.131 C 
BRANCH  17  18
HETATM   18  C   UNL     1      -4.084   0.774 -31.046  1.00  0.00     0.016 C 
HETATM   19  C   UNL     1      -2.764   0.019 -31.124  1.00  0.00     0.006 C 
ENDBRANCH  17  18
ENDBRANCH   8  17
ENDBRANCH   6   7
ENDBRANCH   5   6
ENDBRANCH   1   5
BRANCH   2  20
HETATM   20  C   UNL     1      -4.814   5.317 -31.896  1.00  0.00     0.054 A 
HETATM   21  C   UNL     1      -4.945   6.734 -31.785  1.00  0.00     0.040 A 
HETATM   22 BR   UNL     1      -6.640   7.610 -31.743  1.00  0.00    -0.049 Br
HETATM   23  C   UNL     1      -3.831   7.552 -31.543  1.00  0.00     0.053 A 
HETATM   24  C   UNL     1      -2.622   6.919 -31.389  1.00  0.00     0.064 A 
HETATM   25  C   UNL     1      -2.496   5.534 -31.440  1.00  0.00     0.065 A 
HETATM   26  N   UNL     1      -1.362   7.456 -31.149  1.00  0.00    -0.306 N 
HETATM   27  N   UNL     1      -1.158   5.217 -31.235  1.00  0.00    -0.306 N 
HETATM   28  C   UNL     1      -3.570   4.705 -31.674  1.00  0.00     0.063 A 
HETATM   29  C   UNL     1      -0.436   6.406 -31.056  1.00  0.00     0.325 A 
HETATM   30  H   UNL     1      -0.734   4.304 -31.224  1.00  0.00     0.170 HD
HETATM   31  O   UNL     1       0.761   6.506 -30.858  1.00  0.00    -0.247 OA
HETATM   32  H   UNL     1      -1.116   8.428 -31.063  1.00  0.00     0.170 HD
ENDBRANCH   2  20
TORSDOF 6
ENDMDL
MODEL 4
REMARK VINA RESULT:      -8.2      2.466      3.785
REMARK  6 active torsions:
REMARK  status: ('A' for Active; 'I' for Inactive)
REMARK    1  A    between atoms: C_2  and  C_3 
REMARK    2  A    between atoms: C_3  and  N_4 
REMARK    3  A    between atoms: C_5  and  S_6 
REMARK    4  A    between atoms: S_6  and  C_7 
REMARK    5  A    between atoms: C_7  and  C_8 
REMARK       I    between atoms: C_8  and  N_9 
REMARK    6  A    between atoms: N_9  and  C_10 
ROOT
HETATM    1  C   UNL     1      -7.870   1.678 -32.630  1.00  0.00     0.231 C 
HETATM    2  N   UNL     1      -7.011   1.360 -33.675  1.00  0.00    -0.325 N 
HETATM    3  O   UNL     1      -8.137   0.923 -31.697  1.00  0.00    -0.272 OA
HETATM    4  H   UNL     1      -6.531   2.172 -34.047  1.00  0.00     0.169 HD
ENDROOT
BRANCH   1   5
HETATM    5  C   UNL     1      -8.501   3.062 -32.705  1.00  0.00     0.185 C 
BRANCH   5   6
HETATM    6  S   UNL     1      -7.935   4.169 -31.370  1.00  0.00    -0.083 SA
BRANCH   6   7
HETATM    7  C   UNL     1      -6.277   4.388 -31.833  1.00  0.00     0.170 A 
HETATM    8  N   UNL     1      -5.250   4.564 -30.937  1.00  0.00    -0.324 N 
HETATM    9  C   UNL     1      -4.104   4.808 -31.669  1.00  0.00     0.065 A 
HETATM   10  C   UNL     1      -4.520   4.717 -32.996  1.00  0.00     0.088 A 
HETATM   11  C   UNL     1      -2.777   5.088 -31.316  1.00  0.00     0.034 A 
HETATM   12  N   UNL     1      -5.859   4.443 -33.075  1.00  0.00    -0.222 NA
HETATM   13  C   UNL     1      -3.597   4.909 -34.034  1.00  0.00     0.057 A 
HETATM   14  C   UNL     1      -2.273   5.195 -33.695  1.00  0.00     0.036 A 
HETATM   15 CL   UNL     1      -1.117   5.447 -34.948  1.00  0.00    -0.084 Cl
HETATM   16  C   UNL     1      -1.867   5.284 -32.362  1.00  0.00     0.026 A 
BRANCH   8  17
HETATM   17  C   UNL     1      -5.328   4.534 -29.488  1.00  0.00     0.131 C 
BRANCH  17  18
HETATM   18  C   UNL     1      -5.432   5.918 -28.841  1.00  0.00     0.016 C 
HETATM   19  C   UNL     1      -5.346   5.883 -27.321  1.00  0.00     0.006 C 
ENDBRANCH  17  18
ENDBRANCH   8  17
ENDBRANCH   6   7
ENDBRANCH   5   6
ENDBRANCH   1   5
BRANCH   2  20
HETATM   20  C   UNL     1      -6.322   0.123 -33.734  1.00  0.00     0.054 A 
HETATM   21  C   UNL     1      -4.992  -0.067 -33.254  1.00  0.00     0.040 A 
HETATM   22 BR   UNL     1      -4.087   1.233 -32.190  1.00  0.00    -0.049 Br
HETATM   23  C   UNL     1      -4.330  -1.295 -33.409  1.00  0.00     0.053 A 
HETATM   24  C   UNL     1      -5.036  -2.305 -34.014  1.00  0.00     0.064 A 
HETATM   25  C   UNL     1      -6.353  -2.143 -34.434  1.00  0.00     0.065 A 
HETATM   26  N   UNL     1      -4.650  -3.609 -34.305  1.00  0.00    -0.306 N 
HETATM   27  N   UNL     1      -6.777  -3.346 -34.987  1.00  0.00    -0.306 N 
HETATM   28  C   UNL     1      -7.029  -0.953 -34.295  1.00  0.00     0.063 A 
HETATM   29  C   UNL     1      -5.724  -4.270 -34.918  1.00  0.00     0.325 A 
HETATM   30  H   UNL     1      -7.673  -3.557 -35.394  1.00  0.00     0.170 HD
HETATM   31  O   UNL     1      -5.740  -5.421 -35.314  1.00  0.00    -0.247 OA
HETATM   32  H   UNL     1      -3.755  -4.036 -34.132  1.00  0.00     0.170 HD
ENDBRANCH   2  20
TORSDOF 6
ENDMDL
MODEL 5
REMARK VINA RESULT:      -8.2      3.982      9.383
REMARK  6 active torsions:
REMARK  status: ('A' for Active; 'I' for Inactive)
REMARK    1  A    between atoms: C_2  and  C_3 
REMARK    2  A    between atoms: C_3  and  N_4 
REMARK    3  A    between atoms: C_5  and  S_6 
REMARK    4  A    between atoms: S_6  and  C_7 
REMARK    5  A    between atoms: C_7  and  C_8 
REMARK       I    between atoms: C_8  and  N_9 
REMARK    6  A    between atoms: N_9  and  C_10 
ROOT
HETATM    1  C   UNL     1      -4.364   3.197 -31.406  1.00  0.00     0.231 C 
HETATM    2  N   UNL     1      -4.218   4.547 -31.699  1.00  0.00    -0.325 N 
HETATM    3  O   UNL     1      -3.445   2.461 -31.051  1.00  0.00    -0.272 OA
HETATM    4  H   UNL     1      -5.053   5.085 -31.490  1.00  0.00     0.169 HD
ENDROOT
BRANCH   1   5
HETATM    5  C   UNL     1      -5.775   2.646 -31.562  1.00  0.00     0.185 C 
BRANCH   5   6
HETATM    6  S   UNL     1      -6.328   2.602 -33.300  1.00  0.00    -0.083 SA
BRANCH   6   7
HETATM    7  C   UNL     1      -6.009   0.939 -33.683  1.00  0.00     0.170 A 
HETATM    8  N   UNL     1      -6.941   0.088 -34.225  1.00  0.00    -0.324 N 
HETATM    9  C   UNL     1      -6.362  -1.166 -34.291  1.00  0.00     0.065 A 
HETATM   10  C   UNL     1      -5.068  -0.970 -33.812  1.00  0.00     0.088 A 
HETATM   11  C   UNL     1      -6.824  -2.419 -34.714  1.00  0.00     0.034 A 
HETATM   12  N   UNL     1      -4.867   0.337 -33.456  1.00  0.00    -0.222 NA
HETATM   13  C   UNL     1      -4.178  -2.050 -33.740  1.00  0.00     0.057 A 
HETATM   14  C   UNL     1      -4.629  -3.305 -34.153  1.00  0.00     0.036 A 
HETATM   15 CL   UNL     1      -3.561  -4.656 -34.067  1.00  0.00    -0.084 Cl
HETATM   16  C   UNL     1      -5.927  -3.490 -34.632  1.00  0.00     0.026 A 
BRANCH   8  17
HETATM   17  C   UNL     1      -8.297   0.406 -34.634  1.00  0.00     0.131 C 
BRANCH  17  18
HETATM   18  C   UNL     1      -9.315   0.380 -33.491  1.00  0.00     0.016 C 
HETATM   19  C   UNL     1     -10.637   1.049 -33.843  1.00  0.00     0.006 C 
ENDBRANCH  17  18
ENDBRANCH   8  17
ENDBRANCH   6   7
ENDBRANCH   5   6
ENDBRANCH   1   5
BRANCH   2  20
HETATM   20  C   UNL     1      -2.976   5.216 -31.572  1.00  0.00     0.054 A 
HETATM   21  C   UNL     1      -2.020   5.319 -32.626  1.00  0.00     0.040 A 
HETATM   22 BR   UNL     1      -2.422   4.843 -34.430  1.00  0.00    -0.049 Br
HETATM   23  C   UNL     1      -0.771   5.927 -32.421  1.00  0.00     0.053 A 
HETATM   24  C   UNL     1      -0.533   6.442 -31.171  1.00  0.00     0.064 A 
HETATM   25  C   UNL     1      -1.483   6.394 -30.154  1.00  0.00     0.065 A 
HETATM   26  N   UNL     1       0.594   7.087 -30.675  1.00  0.00    -0.306 N 
HETATM   27  N   UNL     1      -0.939   7.007 -29.032  1.00  0.00    -0.306 N 
HETATM   28  C   UNL     1      -2.715   5.806 -30.325  1.00  0.00     0.063 A 
HETATM   29  C   UNL     1       0.359   7.442 -29.339  1.00  0.00     0.325 A 
HETATM   30  H   UNL     1      -1.364   7.127 -28.127  1.00  0.00     0.170 HD
HETATM   31  O   UNL     1       1.130   8.014 -28.590  1.00  0.00    -0.247 OA
HETATM   32  H   UNL     1       1.456   7.275 -31.160  1.00  0.00     0.170 HD
ENDBRANCH   2  20
TORSDOF 6
ENDMDL
MODEL 6
REMARK VINA RESULT:      -8.2      6.112      8.813
REMARK  6 active torsions:
REMARK  status: ('A' for Active; 'I' for Inactive)
REMARK    1  A    between atoms: C_2  and  C_3 
REMARK    2  A    between atoms: C_3  and  N_4 
REMARK    3  A    between atoms: C_5  and  S_6 
REMARK    4  A    between atoms: S_6  and  C_7 
REMARK    5  A    between atoms: C_7  and  C_8 
REMARK       I    between atoms: C_8  and  N_9 
REMARK    6  A    between atoms: N_9  and  C_10 
ROOT
HETATM    1  C   UNL     1      -9.545   1.662 -33.910  1.00  0.00     0.231 C 
HETATM    2  N   UNL     1     -10.664   1.866 -34.708  1.00  0.00    -0.325 N 
HETATM    3  O   UNL     1      -9.476   1.968 -32.721  1.00  0.00    -0.272 OA
HETATM    4  H   UNL     1     -10.756   1.168 -35.438  1.00  0.00     0.169 HD
ENDROOT
BRANCH   1   5
HETATM    5  C   UNL     1      -8.354   1.022 -34.611  1.00  0.00     0.185 C 
BRANCH   5   6
HETATM    6  S   UNL     1      -6.764   1.777 -34.132  1.00  0.00    -0.083 SA
BRANCH   6   7
HETATM    7  C   UNL     1      -5.877   0.360 -33.666  1.00  0.00     0.170 A 
HETATM    8  N   UNL     1      -5.034   0.308 -32.582  1.00  0.00    -0.324 N 
HETATM    9  C   UNL     1      -4.433  -0.937 -32.589  1.00  0.00     0.065 A 
HETATM   10  C   UNL     1      -5.005  -1.586 -33.682  1.00  0.00     0.088 A 
HETATM   11  C   UNL     1      -3.476  -1.548 -31.769  1.00  0.00     0.034 A 
HETATM   12  N   UNL     1      -5.902  -0.774 -34.323  1.00  0.00    -0.222 NA
HETATM   13  C   UNL     1      -4.623  -2.898 -33.994  1.00  0.00     0.057 A 
HETATM   14  C   UNL     1      -3.665  -3.516 -33.187  1.00  0.00     0.036 A 
HETATM   15 CL   UNL     1      -3.168  -5.126 -33.552  1.00  0.00    -0.084 Cl
HETATM   16  C   UNL     1      -3.100  -2.856 -32.095  1.00  0.00     0.026 A 
BRANCH   8  17
HETATM   17  C   UNL     1      -4.777   1.356 -31.612  1.00  0.00     0.131 C 
BRANCH  17  18
HETATM   18  C   UNL     1      -5.596   1.229 -30.325  1.00  0.00     0.016 C 
HETATM   19  C   UNL     1      -6.807   2.152 -30.284  1.00  0.00     0.006 C 
ENDBRANCH  17  18
ENDBRANCH   8  17
ENDBRANCH   6   7
ENDBRANCH   5   6
ENDBRANCH   1   5
BRANCH   2  20
HETATM   20  C   UNL     1     -11.863   2.421 -34.197  1.00  0.00     0.054 A 
HETATM   21  C   UNL     1     -12.110   3.823 -34.104  1.00  0.00     0.040 A 
HETATM   22 BR   UNL     1     -10.992   5.123 -34.940  1.00  0.00    -0.049 Br
HETATM   23  C   UNL     1     -13.286   4.318 -33.518  1.00  0.00     0.053 A 
HETATM   24  C   UNL     1     -14.192   3.389 -33.071  1.00  0.00     0.064 A 
HETATM   25  C   UNL     1     -13.982   2.020 -33.209  1.00  0.00     0.065 A 
HETATM   26  N   UNL     1     -15.424   3.574 -32.452  1.00  0.00    -0.306 N 
HETATM   27  N   UNL     1     -15.083   1.361 -32.673  1.00  0.00    -0.306 N 
HETATM   28  C   UNL     1     -12.841   1.504 -33.780  1.00  0.00     0.063 A 
HETATM   29  C   UNL     1     -15.990   2.317 -32.192  1.00  0.00     0.325 A 
HETATM   30  H   UNL     1     -15.236   0.369 -32.606  1.00  0.00     0.170 HD
HETATM   31  O   UNL     1     -17.060   2.097 -31.654  1.00  0.00    -0.247 OA
HETATM   32  H   UNL     1     -15.861   4.446 -32.205  1.00  0.00     0.170 HD
ENDBRANCH   2  20
TORSDOF 6
ENDMDL
MODEL 7
REMARK VINA RESULT:      -8.2      5.852      8.475
REMARK  6 active torsions:
REMARK  status: ('A' for Active; 'I' for Inactive)
REMARK    1  A    between atoms: C_2  and  C_3 
REMARK    2  A    between atoms: C_3  and  N_4 
REMARK    3  A    between atoms: C_5  and  S_6 
REMARK    4  A    between atoms: S_6  and  C_7 
REMARK    5  A    between atoms: C_7  and  C_8 
REMARK       I    between atoms: C_8  and  N_9 
REMARK    6  A    between atoms: N_9  and  C_10 
ROOT
HETATM    1  C   UNL     1      -8.688   3.261 -32.921  1.00  0.00     0.231 C 
HETATM    2  N   UNL     1      -9.651   2.672 -32.112  1.00  0.00    -0.325 N 
HETATM    3  O   UNL     1      -8.923   3.784 -34.010  1.00  0.00    -0.272 OA
HETATM    4  H   UNL     1      -9.429   2.744 -31.124  1.00  0.00     0.169 HD
ENDROOT
BRANCH   1   5
HETATM    5  C   UNL     1      -7.266   3.218 -32.378  1.00  0.00     0.185 C 
BRANCH   5   6
HETATM    6  S   UNL     1      -6.012   3.060 -33.693  1.00  0.00    -0.083 SA
BRANCH   6   7
HETATM    7  C   UNL     1      -5.916   1.331 -33.821  1.00  0.00     0.170 A 
HETATM    8  N   UNL     1      -4.935   0.574 -33.228  1.00  0.00    -0.324 N 
HETATM    9  C   UNL     1      -5.122  -0.733 -33.634  1.00  0.00     0.065 A 
HETATM   10  C   UNL     1      -6.264  -0.682 -34.432  1.00  0.00     0.088 A 
HETATM   11  C   UNL     1      -4.432  -1.927 -33.388  1.00  0.00     0.034 A 
HETATM   12  N   UNL     1      -6.745   0.596 -34.522  1.00  0.00    -0.222 NA
HETATM   13  C   UNL     1      -6.758  -1.854 -35.023  1.00  0.00     0.057 A 
HETATM   14  C   UNL     1      -6.074  -3.049 -34.789  1.00  0.00     0.036 A 
HETATM   15 CL   UNL     1      -6.650  -4.505 -35.510  1.00  0.00    -0.084 Cl
HETATM   16  C   UNL     1      -4.932  -3.088 -33.988  1.00  0.00     0.026 A 
BRANCH   8  17
HETATM   17  C   UNL     1      -3.869   1.036 -32.357  1.00  0.00     0.131 C 
BRANCH  17  18
HETATM   18  C   UNL     1      -3.937   0.472 -30.935  1.00  0.00     0.016 C 
HETATM   19  C   UNL     1      -5.249   0.778 -30.225  1.00  0.00     0.006 C 
ENDBRANCH  17  18
ENDBRANCH   8  17
ENDBRANCH   6   7
ENDBRANCH   5   6
ENDBRANCH   1   5
BRANCH   2  20
HETATM   20  C   UNL     1     -11.024   2.657 -32.461  1.00  0.00     0.054 A 
HETATM   21  C   UNL     1     -11.967   3.629 -32.012  1.00  0.00     0.040 A 
HETATM   22 BR   UNL     1     -11.443   5.245 -31.142  1.00  0.00    -0.049 Br
HETATM   23  C   UNL     1     -13.331   3.521 -32.327  1.00  0.00     0.053 A 
HETATM   24  C   UNL     1     -13.702   2.456 -33.110  1.00  0.00     0.064 A 
HETATM   25  C   UNL     1     -12.779   1.535 -33.597  1.00  0.00     0.065 A 
HETATM   26  N   UNL     1     -14.960   2.090 -33.574  1.00  0.00    -0.306 N 
HETATM   27  N   UNL     1     -13.469   0.600 -34.359  1.00  0.00    -0.306 N 
HETATM   28  C   UNL     1     -11.436   1.615 -33.308  1.00  0.00     0.063 A 
HETATM   29  C   UNL     1     -14.833   0.929 -34.351  1.00  0.00     0.325 A 
HETATM   30  H   UNL     1     -13.095  -0.202 -34.839  1.00  0.00     0.170 HD
HETATM   31  O   UNL     1     -15.729   0.324 -34.910  1.00  0.00    -0.247 OA
HETATM   32  H   UNL     1     -15.838   2.548 -33.393  1.00  0.00     0.170 HD
ENDBRANCH   2  20
TORSDOF 6
ENDMDL
MODEL 8
REMARK VINA RESULT:      -7.9      5.046     10.265
REMARK  6 active torsions:
REMARK  status: ('A' for Active; 'I' for Inactive)
REMARK    1  A    between atoms: C_2  and  C_3 
REMARK    2  A    between atoms: C_3  and  N_4 
REMARK    3  A    between atoms: C_5  and  S_6 
REMARK    4  A    between atoms: S_6  and  C_7 
REMARK    5  A    between atoms: C_7  and  C_8 
REMARK       I    between atoms: C_8  and  N_9 
REMARK    6  A    between atoms: N_9  and  C_10 
ROOT
HETATM    1  C   UNL     1      -0.997   6.007 -30.760  1.00  0.00     0.231 C 
HETATM    2  N   UNL     1      -1.345   6.081 -29.417  1.00  0.00    -0.325 N 
HETATM    3  O   UNL     1      -0.228   6.786 -31.321  1.00  0.00    -0.272 OA
HETATM    4  H   UNL     1      -1.546   5.171 -29.015  1.00  0.00     0.169 HD
ENDROOT
BRANCH   1   5
HETATM    5  C   UNL     1      -1.648   4.872 -31.540  1.00  0.00     0.185 C 
BRANCH   5   6
HETATM    6  S   UNL     1      -3.421   4.679 -31.156  1.00  0.00    -0.083 SA
BRANCH   6   7
HETATM    7  C   UNL     1      -3.637   2.999 -31.538  1.00  0.00     0.170 A 
HETATM    8  N   UNL     1      -4.769   2.489 -32.127  1.00  0.00    -0.324 N 
HETATM    9  C   UNL     1      -4.622   1.115 -32.177  1.00  0.00     0.065 A 
HETATM   10  C   UNL     1      -3.356   0.888 -31.640  1.00  0.00     0.088 A 
HETATM   11  C   UNL     1      -5.443   0.075 -32.630  1.00  0.00     0.034 A 
HETATM   12  N   UNL     1      -2.761   2.063 -31.266  1.00  0.00    -0.222 NA
HETATM   13  C   UNL     1      -2.864  -0.421 -31.537  1.00  0.00     0.057 A 
HETATM   14  C   UNL     1      -3.676  -1.467 -31.980  1.00  0.00     0.036 A 
HETATM   15 CL   UNL     1      -3.104  -3.089 -31.858  1.00  0.00    -0.084 Cl
HETATM   16  C   UNL     1      -4.942  -1.228 -32.516  1.00  0.00     0.026 A 
BRANCH   8  17
HETATM   17  C   UNL     1      -5.930   3.224 -32.592  1.00  0.00     0.131 C 
BRANCH  17  18
HETATM   18  C   UNL     1      -5.933   3.498 -34.098  1.00  0.00     0.016 C 
HETATM   19  C   UNL     1      -5.164   4.755 -34.486  1.00  0.00     0.006 C 
ENDBRANCH  17  18
ENDBRANCH   8  17
ENDBRANCH   6   7
ENDBRANCH   5   6
ENDBRANCH   1   5
BRANCH   2  20
HETATM   20  C   UNL     1      -0.801   7.060 -28.550  1.00  0.00     0.054 A 
HETATM   21  C   UNL     1      -1.302   8.391 -28.443  1.00  0.00     0.040 A 
HETATM   22 BR   UNL     1      -2.958   8.932 -29.220  1.00  0.00    -0.049 Br
HETATM   23  C   UNL     1      -0.674   9.342 -27.623  1.00  0.00     0.053 A 
HETATM   24  C   UNL     1       0.420   8.918 -26.910  1.00  0.00     0.064 A 
HETATM   25  C   UNL     1       0.880   7.606 -26.967  1.00  0.00     0.065 A 
HETATM   26  N   UNL     1       1.237   9.622 -26.034  1.00  0.00    -0.306 N 
HETATM   27  N   UNL     1       1.983   7.503 -26.127  1.00  0.00    -0.306 N 
HETATM   28  C   UNL     1       0.287   6.651 -27.760  1.00  0.00     0.063 A 
HETATM   29  C   UNL     1       2.222   8.754 -25.540  1.00  0.00     0.325 A 
HETATM   30  H   UNL     1       2.553   6.691 -25.953  1.00  0.00     0.170 HD
HETATM   31  O   UNL     1       3.111   9.031 -24.756  1.00  0.00    -0.247 OA
HETATM   32  H   UNL     1       1.172  10.595 -25.781  1.00  0.00     0.170 HD
ENDBRANCH   2  20
TORSDOF 6
ENDMDL
MODEL 9
REMARK VINA RESULT:      -7.8      4.173      8.512
REMARK  6 active torsions:
REMARK  status: ('A' for Active; 'I' for Inactive)
REMARK    1  A    between atoms: C_2  and  C_3 
REMARK    2  A    between atoms: C_3  and  N_4 
REMARK    3  A    between atoms: C_5  and  S_6 
REMARK    4  A    between atoms: S_6  and  C_7 
REMARK    5  A    between atoms: C_7  and  C_8 
REMARK       I    between atoms: C_8  and  N_9 
REMARK    6  A    between atoms: N_9  and  C_10 
ROOT
HETATM    1  C   UNL     1      -7.010   4.344 -30.655  1.00  0.00     0.231 C 
HETATM    2  N   UNL     1      -5.801   3.682 -30.834  1.00  0.00    -0.325 N 
HETATM    3  O   UNL     1      -7.227   5.500 -31.014  1.00  0.00    -0.272 OA
HETATM    4  H   UNL     1      -5.918   2.681 -30.954  1.00  0.00     0.169 HD
ENDROOT
BRANCH   1   5
HETATM    5  C   UNL     1      -8.096   3.538 -29.955  1.00  0.00     0.185 C 
BRANCH   5   6
HETATM    6  S   UNL     1      -9.411   2.988 -31.094  1.00  0.00    -0.083 SA
BRANCH   6   7
HETATM    7  C   UNL     1      -8.524   1.857 -32.067  1.00  0.00     0.170 A 
HETATM    8  N   UNL     1      -8.847   1.550 -33.367  1.00  0.00    -0.324 N 
HETATM    9  C   UNL     1      -7.990   0.545 -33.775  1.00  0.00     0.065 A 
HETATM   10  C   UNL     1      -7.156   0.340 -32.677  1.00  0.00     0.088 A 
HETATM   11  C   UNL     1      -7.859  -0.184 -34.965  1.00  0.00     0.034 A 
HETATM   12  N   UNL     1      -7.493   1.169 -31.641  1.00  0.00    -0.222 NA
HETATM   13  C   UNL     1      -6.142  -0.626 -32.740  1.00  0.00     0.057 A 
HETATM   14  C   UNL     1      -6.005  -1.364 -33.918  1.00  0.00     0.036 A 
HETATM   15 CL   UNL     1      -4.775  -2.566 -34.022  1.00  0.00    -0.084 Cl
HETATM   16  C   UNL     1      -6.846  -1.149 -35.011  1.00  0.00     0.026 A 
BRANCH   8  17
HETATM   17  C   UNL     1      -9.902   2.131 -34.176  1.00  0.00     0.131 C 
BRANCH  17  18
HETATM   18  C   UNL     1     -11.219   1.353 -34.135  1.00  0.00     0.016 C 
HETATM   19  C   UNL     1     -12.198   1.761 -35.228  1.00  0.00     0.006 C 
ENDBRANCH  17  18
ENDBRANCH   8  17
ENDBRANCH   6   7
ENDBRANCH   5   6
ENDBRANCH   1   5
BRANCH   2  20
HETATM   20  C   UNL     1      -4.702   4.284 -31.496  1.00  0.00     0.054 A 
HETATM   21  C   UNL     1      -4.523   4.268 -32.911  1.00  0.00     0.040 A 
HETATM   22 BR   UNL     1      -5.895   3.710 -34.115  1.00  0.00    -0.049 Br
HETATM   23  C   UNL     1      -3.376   4.814 -33.506  1.00  0.00     0.053 A 
HETATM   24  C   UNL     1      -2.455   5.387 -32.664  1.00  0.00     0.064 A 
HETATM   25  C   UNL     1      -2.650   5.455 -31.287  1.00  0.00     0.065 A 
HETATM   26  N   UNL     1      -1.239   5.994 -32.956  1.00  0.00    -0.306 N 
HETATM   27  N   UNL     1      -1.552   6.101 -30.731  1.00  0.00    -0.306 N 
HETATM   28  C   UNL     1      -3.765   4.931 -30.674  1.00  0.00     0.063 A 
HETATM   29  C   UNL     1      -0.660   6.440 -31.759  1.00  0.00     0.325 A 
HETATM   30  H   UNL     1      -1.379   6.299 -29.759  1.00  0.00     0.170 HD
HETATM   31  O   UNL     1       0.409   7.011 -31.635  1.00  0.00    -0.247 OA
HETATM   32  H   UNL     1      -0.809   6.102 -33.859  1.00  0.00     0.170 HD
ENDBRANCH   2  20
TORSDOF 6
ENDMDL
MODEL 10
REMARK VINA RESULT:      -7.7      2.374      3.246
REMARK  6 active torsions:
REMARK  status: ('A' for Active; 'I' for Inactive)
REMARK    1  A    between atoms: C_2  and  C_3 
REMARK    2  A    between atoms: C_3  and  N_4 
REMARK    3  A    between atoms: C_5  and  S_6 
REMARK    4  A    between atoms: S_6  and  C_7 
REMARK    5  A    between atoms: C_7  and  C_8 
REMARK       I    between atoms: C_8  and  N_9 
REMARK    6  A    between atoms: N_9  and  C_10 
ROOT
HETATM    1  C   UNL     1      -6.687   2.371 -33.389  1.00  0.00     0.231 C 
HETATM    2  N   UNL     1      -6.587   1.264 -32.556  1.00  0.00    -0.325 N 
HETATM    3  O   UNL     1      -6.261   2.412 -34.542  1.00  0.00    -0.272 OA
HETATM    4  H   UNL     1      -7.358   1.198 -31.899  1.00  0.00     0.169 HD
ENDROOT
BRANCH   1   5
HETATM    5  C   UNL     1      -7.371   3.586 -32.777  1.00  0.00     0.185 C 
BRANCH   5   6
HETATM    6  S   UNL     1      -6.771   5.161 -33.475  1.00  0.00    -0.083 SA
BRANCH   6   7
HETATM    7  C   UNL     1      -5.261   5.316 -32.632  1.00  0.00     0.170 A 
HETATM    8  N   UNL     1      -5.082   6.111 -31.526  1.00  0.00    -0.324 N 
HETATM    9  C   UNL     1      -3.740   6.062 -31.199  1.00  0.00     0.065 A 
HETATM   10  C   UNL     1      -3.193   5.180 -32.130  1.00  0.00     0.088 A 
HETATM   11  C   UNL     1      -2.968   6.679 -30.206  1.00  0.00     0.034 A 
HETATM   12  N   UNL     1      -4.150   4.721 -32.994  1.00  0.00    -0.222 NA
HETATM   13  C   UNL     1      -1.823   4.885 -32.093  1.00  0.00     0.057 A 
HETATM   14  C   UNL     1      -1.042   5.499 -31.111  1.00  0.00     0.036 A 
HETATM   15 CL   UNL     1       0.647   5.163 -31.046  1.00  0.00    -0.084 Cl
HETATM   16  C   UNL     1      -1.601   6.380 -30.184  1.00  0.00     0.026 A 
BRANCH   8  17
HETATM   17  C   UNL     1      -6.086   6.892 -30.828  1.00  0.00     0.131 C 
BRANCH  17  18
HETATM   18  C   UNL     1      -6.124   8.367 -31.237  1.00  0.00     0.016 C 
HETATM   19  C   UNL     1      -6.963   9.232 -30.305  1.00  0.00     0.006 C 
ENDBRANCH  17  18
ENDBRANCH   8  17
ENDBRANCH   6   7
ENDBRANCH   5   6
ENDBRANCH   1   5
BRANCH   2  20
HETATM   20  C   UNL     1      -6.006   0.046 -32.987  1.00  0.00     0.054 A 
HETATM   21  C   UNL     1      -4.614  -0.249 -32.883  1.00  0.00     0.040 A 
HETATM   22 BR   UNL     1      -3.408   0.827 -31.869  1.00  0.00    -0.049 Br
HETATM   23  C   UNL     1      -4.082  -1.442 -33.397  1.00  0.00     0.053 A 
HETATM   24  C   UNL     1      -4.969  -2.317 -33.972  1.00  0.00     0.064 A 
HETATM   25  C   UNL     1      -6.336  -2.061 -34.027  1.00  0.00     0.065 A 
HETATM   26  N   UNL     1      -4.741  -3.555 -34.562  1.00  0.00    -0.306 N 
HETATM   27  N   UNL     1      -6.949  -3.140 -34.654  1.00  0.00    -0.306 N 
HETATM   28  C   UNL     1      -6.888  -0.902 -33.532  1.00  0.00     0.063 A 
HETATM   29  C   UNL     1      -5.967  -4.080 -34.998  1.00  0.00     0.325 A 
HETATM   30  H   UNL     1      -7.927  -3.260 -34.860  1.00  0.00     0.170 HD
HETATM   31  O   UNL     1      -6.145  -5.142 -35.565  1.00  0.00    -0.247 OA
HETATM   32  H   UNL     1      -3.858  -4.023 -34.686  1.00  0.00     0.170 HD
ENDBRANCH   2  20
TORSDOF 6
ENDMDL
