MODEL 1
REMARK VINA RESULT:      -8.6      0.000      0.000
REMARK  3 active torsions:
REMARK  status: ('A' for Active; 'I' for Inactive)
REMARK    1  A    between atoms: C_3  and  C_4 
REMARK    2  A    between atoms: C_10  and  C_11 
REMARK    3  A    between atoms: C_14  and  O_15 
ROOT
HETATM    1  C   UNL     1     -11.721   2.338 -33.460  1.00  0.00    -0.007 A 
HETATM    2  C   UNL     1     -11.184   1.066 -33.217  1.00  0.00     0.047 A 
HETATM    3  C   UNL     1      -9.857   0.813 -33.603  1.00  0.00     0.086 A 
HETATM    4  C   UNL     1      -9.115   1.817 -34.206  1.00  0.00     0.063 A 
HETATM    5  N   UNL     1      -7.898   1.234 -34.449  1.00  0.00    -0.338 N 
HETATM    6  H   UNL     1      -7.099   1.690 -34.860  1.00  0.00     0.167 HD
HETATM    7  C   UNL     1      -7.929  -0.067 -33.999  1.00  0.00     0.139 A 
HETATM    8  N   UNL     1      -9.112  -0.332 -33.471  1.00  0.00    -0.228 NA
HETATM    9  C   UNL     1      -9.606   3.097 -34.447  1.00  0.00     0.033 A 
HETATM   10  C   UNL     1     -10.931   3.336 -34.057  1.00  0.00     0.016 A 
ENDROOT
BRANCH   1  11
HETATM   11  C   UNL     1     -13.137   2.678 -33.107  1.00  0.00     0.069 C 
HETATM   12  C   UNL     1     -14.146   1.554 -32.907  1.00  0.00     0.045 C 
HETATM   13  C   UNL     1     -14.686   1.125 -34.273  1.00  0.00     0.017 C 
HETATM   14  C   UNL     1     -15.257   2.013 -31.976  1.00  0.00     0.115 C 
HETATM   15  C   UNL     1     -15.731   3.399 -32.307  1.00  0.00     0.238 C 
HETATM   16  N   UNL     1     -14.776   4.247 -32.801  1.00  0.00    -0.247 N 
HETATM   17  O   UNL     1     -16.878   3.775 -32.078  1.00  0.00    -0.272 OA
HETATM   18  N   UNL     1     -13.484   3.932 -33.082  1.00  0.00    -0.176 NA
HETATM   19  H   UNL     1     -15.045   5.217 -32.934  1.00  0.00     0.192 HD
ENDBRANCH   1  11
BRANCH   7  20
HETATM   20  C   UNL     1      -6.789  -0.984 -34.070  1.00  0.00     0.010 A 
HETATM   21  C   UNL     1      -6.943  -2.224 -34.701  1.00  0.00     0.018 A 
HETATM   22  C   UNL     1      -5.879  -3.129 -34.768  1.00  0.00     0.037 A 
HETATM   23  C   UNL     1      -4.637  -2.807 -34.220  1.00  0.00     0.068 A 
HETATM   24  C   UNL     1      -4.467  -1.568 -33.603  1.00  0.00     0.037 A 
HETATM   25  C   UNL     1      -5.537  -0.664 -33.529  1.00  0.00     0.018 A 
BRANCH  23  26
HETATM   26  O   UNL     1      -3.683  -3.778 -34.353  1.00  0.00    -0.356 OA
HETATM   27  C   UNL     1      -3.667  -4.805 -33.371  1.00  0.00     0.210 C 
ENDBRANCH  23  26
ENDBRANCH   7  20
TORSDOF 3
ENDMDL
MODEL 2
REMARK VINA RESULT:      -8.4      4.634      9.273
REMARK  3 active torsions:
REMARK  status: ('A' for Active; 'I' for Inactive)
REMARK    1  A    between atoms: C_3  and  C_4 
REMARK    2  A    between atoms: C_10  and  C_11 
REMARK    3  A    between atoms: C_14  and  O_15 
ROOT
HETATM    1  C   UNL     1      -5.073   3.692 -33.404  1.00  0.00    -0.007 A 
HETATM    2  C   UNL     1      -6.336   4.013 -33.919  1.00  0.00     0.047 A 
HETATM    3  C   UNL     1      -7.379   3.085 -33.765  1.00  0.00     0.086 A 
HETATM    4  C   UNL     1      -7.140   1.886 -33.111  1.00  0.00     0.063 A 
HETATM    5  N   UNL     1      -8.347   1.237 -33.148  1.00  0.00    -0.338 N 
HETATM    6  H   UNL     1      -8.544   0.339 -32.737  1.00  0.00     0.167 HD
HETATM    7  C   UNL     1      -9.261   2.034 -33.801  1.00  0.00     0.139 A 
HETATM    8  N   UNL     1      -8.688   3.167 -34.170  1.00  0.00    -0.228 NA
HETATM    9  C   UNL     1      -5.905   1.540 -32.569  1.00  0.00     0.033 A 
HETATM   10  C   UNL     1      -4.873   2.474 -32.729  1.00  0.00     0.016 A 
ENDROOT
BRANCH   1  11
HETATM   11  C   UNL     1      -3.900   4.614 -33.554  1.00  0.00     0.069 C 
HETATM   12  C   UNL     1      -2.828   4.637 -32.472  1.00  0.00     0.045 C 
HETATM   13  C   UNL     1      -3.287   5.554 -31.338  1.00  0.00     0.017 C 
HETATM   14  C   UNL     1      -1.503   5.088 -33.066  1.00  0.00     0.115 C 
HETATM   15  C   UNL     1      -1.670   6.264 -33.985  1.00  0.00     0.238 C 
HETATM   16  N   UNL     1      -2.849   6.308 -34.679  1.00  0.00    -0.247 N 
HETATM   17  O   UNL     1      -0.779   7.092 -34.164  1.00  0.00    -0.272 OA
HETATM   18  N   UNL     1      -3.889   5.442 -34.558  1.00  0.00    -0.176 NA
HETATM   19  H   UNL     1      -2.943   7.034 -35.382  1.00  0.00     0.192 HD
ENDBRANCH   1  11
BRANCH   7  20
HETATM   20  C   UNL     1     -10.666   1.670 -34.001  1.00  0.00     0.010 A 
HETATM   21  C   UNL     1     -11.486   2.495 -34.780  1.00  0.00     0.018 A 
HETATM   22  C   UNL     1     -12.835   2.185 -34.973  1.00  0.00     0.037 A 
HETATM   23  C   UNL     1     -13.389   1.037 -34.406  1.00  0.00     0.068 A 
HETATM   24  C   UNL     1     -12.578   0.199 -33.641  1.00  0.00     0.037 A 
HETATM   25  C   UNL     1     -11.227   0.515 -33.440  1.00  0.00     0.018 A 
BRANCH  23  26
HETATM   26  O   UNL     1     -14.717   0.850 -34.672  1.00  0.00    -0.356 OA
HETATM   27  C   UNL     1     -15.641   1.317 -33.698  1.00  0.00     0.210 C 
ENDBRANCH  23  26
ENDBRANCH   7  20
TORSDOF 3
ENDMDL
MODEL 3
REMARK VINA RESULT:      -8.3      6.557      9.476
REMARK  3 active torsions:
REMARK  status: ('A' for Active; 'I' for Inactive)
REMARK    1  A    between atoms: C_3  and  C_4 
REMARK    2  A    between atoms: C_10  and  C_11 
REMARK    3  A    between atoms: C_14  and  O_15 
ROOT
HETATM    1  C   UNL     1      -2.847   4.982 -31.474  1.00  0.00    -0.007 A 
HETATM    2  C   UNL     1      -2.669   3.602 -31.646  1.00  0.00     0.047 A 
HETATM    3  C   UNL     1      -3.703   2.862 -32.244  1.00  0.00     0.086 A 
HETATM    4  C   UNL     1      -4.862   3.506 -32.648  1.00  0.00     0.063 A 
HETATM    5  N   UNL     1      -5.638   2.503 -33.169  1.00  0.00    -0.338 N 
HETATM    6  H   UNL     1      -6.548   2.619 -33.586  1.00  0.00     0.167 HD
HETATM    7  C   UNL     1      -4.951   1.313 -33.073  1.00  0.00     0.139 A 
HETATM    8  N   UNL     1      -3.767   1.520 -32.523  1.00  0.00    -0.228 NA
HETATM    9  C   UNL     1      -5.068   4.876 -32.512  1.00  0.00     0.033 A 
HETATM   10  C   UNL     1      -4.029   5.603 -31.916  1.00  0.00     0.016 A 
ENDROOT
BRANCH   1  11
HETATM   11  C   UNL     1      -1.805   5.838 -30.818  1.00  0.00     0.069 C 
HETATM   12  C   UNL     1      -1.951   7.353 -30.861  1.00  0.00     0.045 C 
HETATM   13  C   UNL     1      -1.402   7.867 -32.193  1.00  0.00     0.017 C 
HETATM   14  C   UNL     1      -1.235   7.977 -29.673  1.00  0.00     0.115 C 
HETATM   15  C   UNL     1       0.113   7.357 -29.441  1.00  0.00     0.238 C 
HETATM   16  N   UNL     1       0.214   6.029 -29.757  1.00  0.00    -0.247 N 
HETATM   17  O   UNL     1       1.043   7.975 -28.929  1.00  0.00    -0.272 OA
HETATM   18  N   UNL     1      -0.753   5.257 -30.318  1.00  0.00    -0.176 NA
HETATM   19  H   UNL     1       1.081   5.561 -29.512  1.00  0.00     0.192 HD
ENDBRANCH   1  11
BRANCH   7  20
HETATM   20  C   UNL     1      -5.467   0.031 -33.559  1.00  0.00     0.010 A 
HETATM   21  C   UNL     1      -4.654  -1.107 -33.493  1.00  0.00     0.018 A 
HETATM   22  C   UNL     1      -5.110  -2.341 -33.966  1.00  0.00     0.037 A 
HETATM   23  C   UNL     1      -6.392  -2.466 -34.501  1.00  0.00     0.068 A 
HETATM   24  C   UNL     1      -7.217  -1.343 -34.559  1.00  0.00     0.037 A 
HETATM   25  C   UNL     1      -6.756  -0.104 -34.091  1.00  0.00     0.018 A 
BRANCH  23  26
HETATM   26  O   UNL     1      -6.715  -3.725 -34.927  1.00  0.00    -0.356 OA
HETATM   27  C   UNL     1      -5.683  -4.702 -34.893  1.00  0.00     0.210 C 
ENDBRANCH  23  26
ENDBRANCH   7  20
TORSDOF 3
ENDMDL
MODEL 4
REMARK VINA RESULT:      -8.2      4.290      5.413
REMARK  3 active torsions:
REMARK  status: ('A' for Active; 'I' for Inactive)
REMARK    1  A    between atoms: C_3  and  C_4 
REMARK    2  A    between atoms: C_10  and  C_11 
REMARK    3  A    between atoms: C_14  and  O_15 
ROOT
HETATM    1  C   UNL     1     -10.146   1.276 -33.348  1.00  0.00    -0.007 A 
HETATM    2  C   UNL     1      -9.392   2.333 -33.875  1.00  0.00     0.047 A 
HETATM    3  C   UNL     1      -8.043   2.447 -33.501  1.00  0.00     0.086 A 
HETATM    4  C   UNL     1      -7.492   1.519 -32.631  1.00  0.00     0.063 A 
HETATM    5  N   UNL     1      -6.192   1.929 -32.483  1.00  0.00    -0.338 N 
HETATM    6  H   UNL     1      -5.487   1.463 -31.934  1.00  0.00     0.167 HD
HETATM    7  C   UNL     1      -5.992   3.058 -33.245  1.00  0.00     0.139 A 
HETATM    8  N   UNL     1      -7.108   3.377 -33.879  1.00  0.00    -0.228 NA
HETATM    9  C   UNL     1      -8.203   0.445 -32.102  1.00  0.00     0.033 A 
HETATM   10  C   UNL     1      -9.547   0.342 -32.484  1.00  0.00     0.016 A 
ENDROOT
BRANCH   1  11
HETATM   11  C   UNL     1     -11.600   1.102 -33.673  1.00  0.00     0.069 C 
HETATM   12  C   UNL     1     -12.423   2.319 -34.077  1.00  0.00     0.045 C 
HETATM   13  C   UNL     1     -12.886   3.045 -32.812  1.00  0.00     0.017 C 
HETATM   14  C   UNL     1     -13.594   1.888 -34.945  1.00  0.00     0.115 C 
HETATM   15  C   UNL     1     -14.276   0.664 -34.402  1.00  0.00     0.238 C 
HETATM   16  N   UNL     1     -13.462  -0.226 -33.755  1.00  0.00    -0.247 N 
HETATM   17  O   UNL     1     -15.468   0.436 -34.593  1.00  0.00    -0.272 OA
HETATM   18  N   UNL     1     -12.137  -0.070 -33.501  1.00  0.00    -0.176 NA
HETATM   19  H   UNL     1     -13.877  -1.108 -33.472  1.00  0.00     0.192 HD
ENDBRANCH   1  11
BRANCH   7  20
HETATM   20  C   UNL     1      -4.708   3.755 -33.350  1.00  0.00     0.010 A 
HETATM   21  C   UNL     1      -4.568   4.805 -34.266  1.00  0.00     0.018 A 
HETATM   22  C   UNL     1      -3.350   5.477 -34.403  1.00  0.00     0.037 A 
HETATM   23  C   UNL     1      -2.252   5.124 -33.619  1.00  0.00     0.068 A 
HETATM   24  C   UNL     1      -2.383   4.090 -32.693  1.00  0.00     0.037 A 
HETATM   25  C   UNL     1      -3.603   3.411 -32.560  1.00  0.00     0.018 A 
BRANCH  23  26
HETATM   26  O   UNL     1      -1.122   5.858 -33.852  1.00  0.00    -0.356 OA
HETATM   27  C   UNL     1      -1.087   7.176 -33.319  1.00  0.00     0.210 C 
ENDBRANCH  23  26
ENDBRANCH   7  20
TORSDOF 3
ENDMDL
MODEL 5
REMARK VINA RESULT:      -8.2      5.395      9.748
REMARK  3 active torsions:
REMARK  status: ('A' for Active; 'I' for Inactive)
REMARK    1  A    between atoms: C_3  and  C_4 
REMARK    2  A    between atoms: C_10  and  C_11 
REMARK    3  A    between atoms: C_14  and  O_15 
ROOT
HETATM    1  C   UNL     1      -3.539   3.685 -32.387  1.00  0.00    -0.007 A 
HETATM    2  C   UNL     1      -4.806   4.168 -32.741  1.00  0.00     0.047 A 
HETATM    3  C   UNL     1      -5.848   3.245 -32.931  1.00  0.00     0.086 A 
HETATM    4  C   UNL     1      -5.602   1.891 -32.765  1.00  0.00     0.063 A 
HETATM    5  N   UNL     1      -6.809   1.296 -33.030  1.00  0.00    -0.338 N 
HETATM    6  H   UNL     1      -7.003   0.309 -32.976  1.00  0.00     0.167 HD
HETATM    7  C   UNL     1      -7.729   2.274 -33.338  1.00  0.00     0.139 A 
HETATM    8  N   UNL     1      -7.159   3.465 -33.270  1.00  0.00    -0.228 NA
HETATM    9  C   UNL     1      -4.363   1.374 -32.396  1.00  0.00     0.033 A 
HETATM   10  C   UNL     1      -3.333   2.305 -32.208  1.00  0.00     0.016 A 
ENDROOT
BRANCH   1  11
HETATM   11  C   UNL     1      -2.368   4.602 -32.196  1.00  0.00     0.069 C 
HETATM   12  C   UNL     1      -2.180   5.777 -33.147  1.00  0.00     0.045 C 
HETATM   13  C   UNL     1      -1.470   5.283 -34.409  1.00  0.00     0.017 C 
HETATM   14  C   UNL     1      -1.401   6.884 -32.454  1.00  0.00     0.115 C 
HETATM   15  C   UNL     1      -0.232   6.349 -31.678  1.00  0.00     0.238 C 
HETATM   16  N   UNL     1      -0.408   5.108 -31.128  1.00  0.00    -0.247 N 
HETATM   17  O   UNL     1       0.785   7.010 -31.480  1.00  0.00    -0.272 OA
HETATM   18  N   UNL     1      -1.492   4.303 -31.282  1.00  0.00    -0.176 NA
HETATM   19  H   UNL     1       0.325   4.769 -30.513  1.00  0.00     0.192 HD
ENDBRANCH   1  11
BRANCH   7  20
HETATM   20  C   UNL     1      -9.134   2.004 -33.649  1.00  0.00     0.010 A 
HETATM   21  C   UNL     1      -9.735   0.839 -33.159  1.00  0.00     0.018 A 
HETATM   22  C   UNL     1     -11.069   0.543 -33.455  1.00  0.00     0.037 A 
HETATM   23  C   UNL     1     -11.834   1.412 -34.233  1.00  0.00     0.068 A 
HETATM   24  C   UNL     1     -11.250   2.583 -34.716  1.00  0.00     0.037 A 
HETATM   25  C   UNL     1      -9.910   2.876 -34.425  1.00  0.00     0.018 A 
BRANCH  23  26
HETATM   26  O   UNL     1     -13.122   1.007 -34.449  1.00  0.00    -0.356 OA
HETATM   27  C   UNL     1     -13.581  -0.110 -33.698  1.00  0.00     0.210 C 
ENDBRANCH  23  26
ENDBRANCH   7  20
TORSDOF 3
ENDMDL
MODEL 6
REMARK VINA RESULT:      -8.0      6.858      9.535
REMARK  3 active torsions:
REMARK  status: ('A' for Active; 'I' for Inactive)
REMARK    1  A    between atoms: C_3  and  C_4 
REMARK    2  A    between atoms: C_10  and  C_11 
REMARK    3  A    between atoms: C_14  and  O_15 
ROOT
HETATM    1  C   UNL     1      -5.154   1.686 -33.172  1.00  0.00    -0.007 A 
HETATM    2  C   UNL     1      -4.001   1.843 -32.391  1.00  0.00     0.047 A 
HETATM    3  C   UNL     1      -3.576   3.145 -32.076  1.00  0.00     0.086 A 
HETATM    4  C   UNL     1      -4.301   4.233 -32.537  1.00  0.00     0.063 A 
HETATM    5  N   UNL     1      -3.614   5.320 -32.060  1.00  0.00    -0.338 N 
HETATM    6  H   UNL     1      -3.878   6.284 -32.185  1.00  0.00     0.167 HD
HETATM    7  C   UNL     1      -2.525   4.878 -31.342  1.00  0.00     0.139 A 
HETATM    8  N   UNL     1      -2.498   3.556 -31.334  1.00  0.00    -0.228 NA
HETATM    9  C   UNL     1      -5.461   4.117 -33.299  1.00  0.00     0.033 A 
HETATM   10  C   UNL     1      -5.874   2.814 -33.605  1.00  0.00     0.016 A 
ENDROOT
BRANCH   1  11
HETATM   11  C   UNL     1      -5.656   0.333 -33.577  1.00  0.00     0.069 C 
HETATM   12  C   UNL     1      -7.094   0.185 -34.057  1.00  0.00     0.045 C 
HETATM   13  C   UNL     1      -8.013   0.060 -32.839  1.00  0.00     0.017 C 
HETATM   14  C   UNL     1      -7.211  -1.017 -34.981  1.00  0.00     0.115 C 
HETATM   15  C   UNL     1      -6.468  -2.209 -34.450  1.00  0.00     0.238 C 
HETATM   16  N   UNL     1      -5.335  -1.928 -33.736  1.00  0.00    -0.247 N 
HETATM   17  O   UNL     1      -6.807  -3.363 -34.704  1.00  0.00    -0.272 OA
HETATM   18  N   UNL     1      -4.874  -0.693 -33.408  1.00  0.00    -0.176 NA
HETATM   19  H   UNL     1      -4.760  -2.716 -33.456  1.00  0.00     0.192 HD
ENDBRANCH   1  11
BRANCH   7  20
HETATM   20  C   UNL     1      -1.580   5.766 -30.662  1.00  0.00     0.010 A 
HETATM   21  C   UNL     1      -0.217   5.447 -30.658  1.00  0.00     0.018 A 
HETATM   22  C   UNL     1       0.707   6.265 -30.001  1.00  0.00     0.037 A 
HETATM   23  C   UNL     1       0.292   7.425 -29.349  1.00  0.00     0.068 A 
HETATM   24  C   UNL     1      -1.061   7.762 -29.359  1.00  0.00     0.037 A 
HETATM   25  C   UNL     1      -1.990   6.938 -30.011  1.00  0.00     0.018 A 
BRANCH  23  26
HETATM   26  O   UNL     1       1.293   8.135 -28.747  1.00  0.00    -0.356 OA
HETATM   27  C   UNL     1       1.386   8.047 -27.331  1.00  0.00     0.210 C 
ENDBRANCH  23  26
ENDBRANCH   7  20
TORSDOF 3
ENDMDL
MODEL 7
REMARK VINA RESULT:      -8.0      6.247      9.785
REMARK  3 active torsions:
REMARK  status: ('A' for Active; 'I' for Inactive)
REMARK    1  A    between atoms: C_3  and  C_4 
REMARK    2  A    between atoms: C_10  and  C_11 
REMARK    3  A    between atoms: C_14  and  O_15 
ROOT
HETATM    1  C   UNL     1      -4.883   0.020 -33.339  1.00  0.00    -0.007 A 
HETATM    2  C   UNL     1      -3.799   0.555 -32.630  1.00  0.00     0.047 A 
HETATM    3  C   UNL     1      -3.798   1.930 -32.342  1.00  0.00     0.086 A 
HETATM    4  C   UNL     1      -4.859   2.719 -32.759  1.00  0.00     0.063 A 
HETATM    5  N   UNL     1      -4.532   3.977 -32.326  1.00  0.00    -0.338 N 
HETATM    6  H   UNL     1      -5.099   4.803 -32.435  1.00  0.00     0.167 HD
HETATM    7  C   UNL     1      -3.319   3.923 -31.675  1.00  0.00     0.139 A 
HETATM    8  N   UNL     1      -2.868   2.680 -31.667  1.00  0.00    -0.228 NA
HETATM    9  C   UNL     1      -5.962   2.221 -33.448  1.00  0.00     0.033 A 
HETATM   10  C   UNL     1      -5.951   0.848 -33.728  1.00  0.00     0.016 A 
ENDROOT
BRANCH   1  11
HETATM   11  C   UNL     1      -4.945  -1.431 -33.711  1.00  0.00     0.069 C 
HETATM   12  C   UNL     1      -6.026  -1.907 -34.674  1.00  0.00     0.045 C 
HETATM   13  C   UNL     1      -7.317  -2.147 -33.890  1.00  0.00     0.017 C 
HETATM   14  C   UNL     1      -5.560  -3.160 -35.398  1.00  0.00     0.115 C 
HETATM   15  C   UNL     1      -4.900  -4.135 -34.466  1.00  0.00     0.238 C 
HETATM   16  N   UNL     1      -4.210  -3.580 -33.422  1.00  0.00    -0.247 N 
HETATM   17  O   UNL     1      -4.909  -5.348 -34.666  1.00  0.00    -0.272 OA
HETATM   18  N   UNL     1      -4.133  -2.258 -33.118  1.00  0.00    -0.176 NA
HETATM   19  H   UNL     1      -3.669  -4.211 -32.839  1.00  0.00     0.192 HD
ENDBRANCH   1  11
BRANCH   7  20
HETATM   20  C   UNL     1      -2.673   5.082 -31.055  1.00  0.00     0.010 A 
HETATM   21  C   UNL     1      -1.275   5.150 -31.017  1.00  0.00     0.018 A 
HETATM   22  C   UNL     1      -0.629   6.234 -30.414  1.00  0.00     0.037 A 
HETATM   23  C   UNL     1      -1.364   7.277 -29.852  1.00  0.00     0.068 A 
HETATM   24  C   UNL     1      -2.757   7.227 -29.897  1.00  0.00     0.037 A 
HETATM   25  C   UNL     1      -3.406   6.137 -30.494  1.00  0.00     0.018 A 
BRANCH  23  26
HETATM   26  O   UNL     1      -0.612   8.274 -29.296  1.00  0.00    -0.356 OA
HETATM   27  C   UNL     1      -1.274   9.160 -28.402  1.00  0.00     0.210 C 
ENDBRANCH  23  26
ENDBRANCH   7  20
TORSDOF 3
ENDMDL
MODEL 8
REMARK VINA RESULT:      -7.8      1.817      9.414
REMARK  3 active torsions:
REMARK  status: ('A' for Active; 'I' for Inactive)
REMARK    1  A    between atoms: C_3  and  C_4 
REMARK    2  A    between atoms: C_10  and  C_11 
REMARK    3  A    between atoms: C_14  and  O_15 
ROOT
HETATM    1  C   UNL     1      -6.933  -0.676 -34.034  1.00  0.00    -0.007 A 
HETATM    2  C   UNL     1      -8.207  -0.832 -33.472  1.00  0.00     0.047 A 
HETATM    3  C   UNL     1      -9.111   0.241 -33.550  1.00  0.00     0.086 A 
HETATM    4  C   UNL     1      -8.728   1.417 -34.176  1.00  0.00     0.063 A 
HETATM    5  N   UNL     1      -9.826   2.229 -34.064  1.00  0.00    -0.338 N 
HETATM    6  H   UNL     1      -9.909   3.162 -34.438  1.00  0.00     0.167 HD
HETATM    7  C   UNL     1     -10.819   1.547 -33.395  1.00  0.00     0.139 A 
HETATM    8  N   UNL     1     -10.400   0.332 -33.088  1.00  0.00    -0.228 NA
HETATM    9  C   UNL     1      -7.479   1.603 -34.763  1.00  0.00     0.033 A 
HETATM   10  C   UNL     1      -6.587   0.525 -34.679  1.00  0.00     0.016 A 
ENDROOT
BRANCH   1  11
HETATM   11  C   UNL     1      -5.900  -1.761 -33.966  1.00  0.00     0.069 C 
HETATM   12  C   UNL     1      -5.942  -2.893 -34.985  1.00  0.00     0.045 C 
HETATM   13  C   UNL     1      -6.947  -3.946 -34.514  1.00  0.00     0.017 C 
HETATM   14  C   UNL     1      -4.551  -3.478 -35.166  1.00  0.00     0.115 C 
HETATM   15  C   UNL     1      -3.846  -3.671 -33.854  1.00  0.00     0.238 C 
HETATM   16  N   UNL     1      -4.146  -2.755 -32.883  1.00  0.00    -0.247 N 
HETATM   17  O   UNL     1      -2.998  -4.544 -33.685  1.00  0.00    -0.272 OA
HETATM   18  N   UNL     1      -5.060  -1.753 -32.973  1.00  0.00    -0.176 NA
HETATM   19  H   UNL     1      -3.607  -2.801 -32.024  1.00  0.00     0.192 HD
ENDBRANCH   1  11
BRANCH   7  20
HETATM   20  C   UNL     1     -12.146   2.101 -33.120  1.00  0.00     0.010 A 
HETATM   21  C   UNL     1     -12.255   3.368 -32.535  1.00  0.00     0.018 A 
HETATM   22  C   UNL     1     -13.508   3.914 -32.241  1.00  0.00     0.037 A 
HETATM   23  C   UNL     1     -14.677   3.214 -32.540  1.00  0.00     0.068 A 
HETATM   24  C   UNL     1     -14.582   1.957 -33.137  1.00  0.00     0.037 A 
HETATM   25  C   UNL     1     -13.325   1.405 -33.424  1.00  0.00     0.018 A 
BRANCH  23  26
HETATM   26  O   UNL     1     -15.834   3.860 -32.203  1.00  0.00    -0.356 OA
HETATM   27  C   UNL     1     -16.992   3.055 -32.021  1.00  0.00     0.210 C 
ENDBRANCH  23  26
ENDBRANCH   7  20
TORSDOF 3
ENDMDL
MODEL 9
REMARK VINA RESULT:      -7.7     15.179     18.962
REMARK  3 active torsions:
REMARK  status: ('A' for Active; 'I' for Inactive)
REMARK    1  A    between atoms: C_3  and  C_4 
REMARK    2  A    between atoms: C_10  and  C_11 
REMARK    3  A    between atoms: C_14  and  O_15 
ROOT
HETATM    1  C   UNL     1      -2.385 -13.982 -38.486  1.00  0.00    -0.007 A 
HETATM    2  C   UNL     1      -3.488 -14.742 -38.897  1.00  0.00     0.047 A 
HETATM    3  C   UNL     1      -4.722 -14.094 -39.072  1.00  0.00     0.086 A 
HETATM    4  C   UNL     1      -4.821 -12.731 -38.838  1.00  0.00     0.063 A 
HETATM    5  N   UNL     1      -6.136 -12.441 -39.092  1.00  0.00    -0.338 N 
HETATM    6  H   UNL     1      -6.556 -11.527 -39.047  1.00  0.00     0.167 HD
HETATM    7  C   UNL     1      -6.783 -13.599 -39.464  1.00  0.00     0.139 A 
HETATM    8  N   UNL     1      -5.931 -14.610 -39.468  1.00  0.00    -0.228 NA
HETATM    9  C   UNL     1      -3.744 -11.939 -38.447  1.00  0.00     0.033 A 
HETATM   10  C   UNL     1      -2.519 -12.598 -38.278  1.00  0.00     0.016 A 
ENDROOT
BRANCH   1  11
HETATM   11  C   UNL     1      -1.041 -14.603 -38.247  1.00  0.00     0.069 C 
HETATM   12  C   UNL     1       0.029 -14.499 -39.326  1.00  0.00     0.045 C 
HETATM   13  C   UNL     1      -0.198 -15.606 -40.358  1.00  0.00     0.017 C 
HETATM   14  C   UNL     1       1.410 -14.585 -38.696  1.00  0.00     0.115 C 
HETATM   15  C   UNL     1       1.489 -15.669 -37.660  1.00  0.00     0.238 C 
HETATM   16  N   UNL     1       0.336 -15.901 -36.959  1.00  0.00    -0.247 N 
HETATM   17  O   UNL     1       2.536 -16.258 -37.401  1.00  0.00    -0.272 OA
HETATM   18  N   UNL     1      -0.866 -15.302 -37.164  1.00  0.00    -0.176 NA
HETATM   19  H   UNL     1       0.391 -16.554 -36.184  1.00  0.00     0.192 HD
ENDBRANCH   1  11
BRANCH   7  20
HETATM   20  C   UNL     1      -8.198 -13.659 -39.838  1.00  0.00     0.010 A 
HETATM   21  C   UNL     1      -8.781 -14.899 -40.126  1.00  0.00     0.018 A 
HETATM   22  C   UNL     1     -10.124 -14.987 -40.505  1.00  0.00     0.037 A 
HETATM   23  C   UNL     1     -10.916 -13.842 -40.587  1.00  0.00     0.068 A 
HETATM   24  C   UNL     1     -10.351 -12.603 -40.287  1.00  0.00     0.037 A 
HETATM   25  C   UNL     1      -9.001 -12.513 -39.916  1.00  0.00     0.018 A 
BRANCH  23  26
HETATM   26  O   UNL     1     -12.210 -14.065 -40.968  1.00  0.00    -0.356 OA
HETATM   27  C   UNL     1     -12.439 -15.130 -41.881  1.00  0.00     0.210 C 
ENDBRANCH  23  26
ENDBRANCH   7  20
TORSDOF 3
ENDMDL
MODEL 10
REMARK VINA RESULT:      -7.7      9.326     11.940
REMARK  3 active torsions:
REMARK  status: ('A' for Active; 'I' for Inactive)
REMARK    1  A    between atoms: C_3  and  C_4 
REMARK    2  A    between atoms: C_10  and  C_11 
REMARK    3  A    between atoms: C_14  and  O_15 
ROOT
HETATM    1  C   UNL     1      -0.656   7.152 -29.605  1.00  0.00    -0.007 A 
HETATM    2  C   UNL     1      -2.006   6.783 -29.690  1.00  0.00     0.047 A 
HETATM    3  C   UNL     1      -2.385   5.846 -30.666  1.00  0.00     0.086 A 
HETATM    4  C   UNL     1      -1.426   5.311 -31.512  1.00  0.00     0.063 A 
HETATM    5  N   UNL     1      -2.132   4.460 -32.322  1.00  0.00    -0.338 N 
HETATM    6  H   UNL     1      -1.741   3.876 -33.045  1.00  0.00     0.167 HD
HETATM    7  C   UNL     1      -3.459   4.495 -31.957  1.00  0.00     0.139 A 
HETATM    8  N   UNL     1      -3.624   5.327 -30.942  1.00  0.00    -0.228 NA
HETATM    9  C   UNL     1      -0.074   5.638 -31.446  1.00  0.00     0.033 A 
HETATM   10  C   UNL     1       0.291   6.573 -30.468  1.00  0.00     0.016 A 
ENDROOT
BRANCH   1  11
HETATM   11  C   UNL     1      -0.175   8.168 -28.612  1.00  0.00     0.069 C 
HETATM   12  C   UNL     1       1.136   7.925 -27.875  1.00  0.00     0.045 C 
HETATM   13  C   UNL     1       0.869   7.014 -26.676  1.00  0.00     0.017 C 
HETATM   14  C   UNL     1       1.746   9.253 -27.454  1.00  0.00     0.115 C 
HETATM   15  C   UNL     1       0.720  10.186 -26.878  1.00  0.00     0.238 C 
HETATM   16  N   UNL     1      -0.537  10.081 -27.409  1.00  0.00    -0.247 N 
HETATM   17  O   UNL     1       1.003  11.042 -26.043  1.00  0.00    -0.272 OA
HETATM   18  N   UNL     1      -0.948   9.178 -28.337  1.00  0.00    -0.176 NA
HETATM   19  H   UNL     1      -1.222  10.770 -27.112  1.00  0.00     0.192 HD
ENDBRANCH   1  11
BRANCH   7  20
HETATM   20  C   UNL     1      -4.503   3.687 -32.591  1.00  0.00     0.010 A 
HETATM   21  C   UNL     1      -4.714   2.373 -32.157  1.00  0.00     0.018 A 
HETATM   22  C   UNL     1      -5.689   1.570 -32.755  1.00  0.00     0.037 A 
HETATM   23  C   UNL     1      -6.483   2.067 -33.789  1.00  0.00     0.068 A 
HETATM   24  C   UNL     1      -6.292   3.379 -34.221  1.00  0.00     0.037 A 
HETATM   25  C   UNL     1      -5.308   4.182 -33.626  1.00  0.00     0.018 A 
BRANCH  23  26
HETATM   26  O   UNL     1      -7.397   1.180 -34.288  1.00  0.00    -0.356 OA
HETATM   27  C   UNL     1      -6.964   0.332 -35.343  1.00  0.00     0.210 C 
ENDBRANCH  23  26
ENDBRANCH   7  20
TORSDOF 3
ENDMDL
