MODEL 1
REMARK VINA RESULT:      -7.4      0.000      0.000
REMARK  4 active torsions:
REMARK  status: ('A' for Active; 'I' for Inactive)
REMARK    1  A    between atoms: C_4  and  N_5 
REMARK       I    between atoms: N_5  and  C_6 
REMARK    2  A    between atoms: C_6  and  C_7 
REMARK    3  A    between atoms: C_7  and  O_8 
REMARK    4  A    between atoms: O_8  and  C_9 
ROOT
HETATM    1  N   UNL     1      -7.077   0.518 -31.449  1.00  0.00    -0.309 N 
HETATM    2  C   UNL     1      -7.447   1.808 -31.696  1.00  0.00     0.252 C 
HETATM    3  O   UNL     1      -8.257   2.302 -30.901  1.00  0.00    -0.270 OA
HETATM    4  H   UNL     1      -7.574   0.129 -30.660  1.00  0.00     0.170 HD
ENDROOT
BRANCH   2   5
HETATM    5  C   UNL     1      -6.919   2.597 -32.915  1.00  0.00     0.217 C 
HETATM    6  C   UNL     1      -8.105   2.998 -33.794  1.00  0.00     0.050 C 
BRANCH   5   7
HETATM    7  O   UNL     1      -6.287   3.834 -32.557  1.00  0.00    -0.335 OA
BRANCH   7   8
HETATM    8  C   UNL     1      -5.125   4.198 -33.183  1.00  0.00     0.091 A 
HETATM    9  C   UNL     1      -3.925   3.817 -32.557  1.00  0.00     0.069 A 
HETATM   10 CL   UNL     1      -3.927   2.922 -31.076  1.00  0.00    -0.081 Cl
HETATM   11  C   UNL     1      -2.687   4.147 -33.116  1.00  0.00     0.050 A 
HETATM   12  C   UNL     1      -2.644   4.870 -34.302  1.00  0.00     0.035 A 
HETATM   13 CL   UNL     1      -1.126   5.286 -34.996  1.00  0.00    -0.084 Cl
HETATM   14  C   UNL     1      -3.824   5.268 -34.928  1.00  0.00     0.026 A 
HETATM   15  C   UNL     1      -5.063   4.934 -34.371  1.00  0.00     0.040 A 
ENDBRANCH   7   8
ENDBRANCH   5   7
ENDBRANCH   2   5
BRANCH   1  16
HETATM   16  C   UNL     1      -6.134  -0.291 -32.079  1.00  0.00     0.130 A 
HETATM   17  C   UNL     1      -6.575  -1.068 -33.148  1.00  0.00     0.057 A 
HETATM   18  C   UNL     1      -5.669  -1.890 -33.821  1.00  0.00    -0.057 A 
HETATM   19  C   UNL     1      -6.092  -2.721 -34.994  1.00  0.00     0.048 C 
HETATM   20  C   UNL     1      -4.344  -1.910 -33.386  1.00  0.00     0.033 A 
HETATM   21  C   UNL     1      -3.981  -1.118 -32.303  1.00  0.00     0.033 A 
HETATM   22  N   UNL     1      -4.860  -0.317 -31.655  1.00  0.00    -0.236 NA
HETATM   23  C   UNL     1      -2.563  -1.119 -31.814  1.00  0.00     0.070 C 
ENDBRANCH   1  16
TORSDOF 4
ENDMDL
MODEL 2
REMARK VINA RESULT:      -7.4      0.593      1.827
REMARK  4 active torsions:
REMARK  status: ('A' for Active; 'I' for Inactive)
REMARK    1  A    between atoms: C_4  and  N_5 
REMARK       I    between atoms: N_5  and  C_6 
REMARK    2  A    between atoms: C_6  and  C_7 
REMARK    3  A    between atoms: C_7  and  O_8 
REMARK    4  A    between atoms: O_8  and  C_9 
ROOT
HETATM    1  N   UNL     1      -7.199   0.450 -31.547  1.00  0.00    -0.309 N 
HETATM    2  C   UNL     1      -7.517   1.762 -31.744  1.00  0.00     0.252 C 
HETATM    3  O   UNL     1      -8.320   2.252 -30.939  1.00  0.00    -0.270 OA
HETATM    4  H   UNL     1      -7.721   0.047 -30.782  1.00  0.00     0.170 HD
ENDROOT
BRANCH   2   5
HETATM    5  C   UNL     1      -6.942   2.582 -32.921  1.00  0.00     0.217 C 
HETATM    6  C   UNL     1      -8.099   3.057 -33.801  1.00  0.00     0.050 C 
BRANCH   5   7
HETATM    7  O   UNL     1      -6.277   3.781 -32.502  1.00  0.00    -0.335 OA
BRANCH   7   8
HETATM    8  C   UNL     1      -5.123   4.162 -33.134  1.00  0.00     0.091 A 
HETATM    9  C   UNL     1      -3.915   3.781 -32.523  1.00  0.00     0.069 A 
HETATM   10 CL   UNL     1      -3.899   2.866 -31.054  1.00  0.00    -0.081 Cl
HETATM   11  C   UNL     1      -2.685   4.126 -33.088  1.00  0.00     0.050 A 
HETATM   12  C   UNL     1      -2.657   4.866 -34.264  1.00  0.00     0.035 A 
HETATM   13 CL   UNL     1      -1.148   5.301 -34.966  1.00  0.00    -0.084 Cl
HETATM   14  C   UNL     1      -3.844   5.264 -34.875  1.00  0.00     0.026 A 
HETATM   15  C   UNL     1      -5.076   4.914 -34.312  1.00  0.00     0.040 A 
ENDBRANCH   7   8
ENDBRANCH   5   7
ENDBRANCH   2   5
BRANCH   1  16
HETATM   16  C   UNL     1      -6.278  -0.367 -32.200  1.00  0.00     0.130 A 
HETATM   17  C   UNL     1      -4.965  -0.344 -31.733  1.00  0.00     0.057 A 
HETATM   18  C   UNL     1      -4.005  -1.152 -32.346  1.00  0.00    -0.057 A 
HETATM   19  C   UNL     1      -2.587  -1.181 -31.860  1.00  0.00     0.048 C 
HETATM   20  C   UNL     1      -4.398  -1.951 -33.418  1.00  0.00     0.033 A 
HETATM   21  C   UNL     1      -5.722  -1.911 -33.835  1.00  0.00     0.033 A 
HETATM   22  N   UNL     1      -6.655  -1.131 -33.237  1.00  0.00    -0.236 NA
HETATM   23  C   UNL     1      -6.174  -2.762 -34.985  1.00  0.00     0.070 C 
ENDBRANCH   1  16
TORSDOF 4
ENDMDL
MODEL 3
REMARK VINA RESULT:      -7.4      3.380      6.335
REMARK  4 active torsions:
REMARK  status: ('A' for Active; 'I' for Inactive)
REMARK    1  A    between atoms: C_4  and  N_5 
REMARK       I    between atoms: N_5  and  C_6 
REMARK    2  A    between atoms: C_6  and  C_7 
REMARK    3  A    between atoms: C_7  and  O_8 
REMARK    4  A    between atoms: O_8  and  C_9 
ROOT
HETATM    1  N   UNL     1      -8.919   1.945 -31.950  1.00  0.00    -0.309 N 
HETATM    2  C   UNL     1      -7.576   1.784 -32.121  1.00  0.00     0.252 C 
HETATM    3  O   UNL     1      -6.900   1.721 -31.086  1.00  0.00    -0.270 OA
HETATM    4  H   UNL     1      -9.165   2.045 -30.975  1.00  0.00     0.170 HD
ENDROOT
BRANCH   2   5
HETATM    5  C   UNL     1      -6.926   1.721 -33.522  1.00  0.00     0.217 C 
HETATM    6  C   UNL     1      -6.508   3.133 -33.936  1.00  0.00     0.050 C 
BRANCH   5   7
HETATM    7  O   UNL     1      -5.715   0.953 -33.548  1.00  0.00    -0.335 OA
BRANCH   7   8
HETATM    8  C   UNL     1      -5.770  -0.373 -33.885  1.00  0.00     0.091 A 
HETATM    9  C   UNL     1      -4.604  -1.129 -33.664  1.00  0.00     0.069 A 
HETATM   10 CL   UNL     1      -3.182  -0.412 -32.988  1.00  0.00    -0.081 Cl
HETATM   11  C   UNL     1      -4.559  -2.489 -33.980  1.00  0.00     0.050 A 
HETATM   12  C   UNL     1      -5.680  -3.100 -34.530  1.00  0.00     0.035 A 
HETATM   13 CL   UNL     1      -5.635  -4.773 -34.927  1.00  0.00    -0.084 Cl
HETATM   14  C   UNL     1      -6.839  -2.363 -34.768  1.00  0.00     0.026 A 
HETATM   15  C   UNL     1      -6.884  -1.002 -34.447  1.00  0.00     0.040 A 
ENDBRANCH   7   8
ENDBRANCH   5   7
ENDBRANCH   2   5
BRANCH   1  16
HETATM   16  C   UNL     1      -9.957   1.961 -32.880  1.00  0.00     0.130 A 
HETATM   17  C   UNL     1     -10.837   0.882 -32.869  1.00  0.00     0.057 A 
HETATM   18  C   UNL     1     -11.901   0.854 -33.774  1.00  0.00    -0.057 A 
HETATM   19  C   UNL     1     -12.889  -0.273 -33.779  1.00  0.00     0.048 C 
HETATM   20  C   UNL     1     -12.035   1.912 -34.671  1.00  0.00     0.033 A 
HETATM   21  C   UNL     1     -11.110   2.948 -34.631  1.00  0.00     0.033 A 
HETATM   22  N   UNL     1     -10.082   2.977 -33.749  1.00  0.00    -0.236 NA
HETATM   23  C   UNL     1     -11.230   4.100 -35.584  1.00  0.00     0.070 C 
ENDBRANCH   1  16
TORSDOF 4
ENDMDL
MODEL 4
REMARK VINA RESULT:      -7.3      2.360      3.268
REMARK  4 active torsions:
REMARK  status: ('A' for Active; 'I' for Inactive)
REMARK    1  A    between atoms: C_4  and  N_5 
REMARK       I    between atoms: N_5  and  C_6 
REMARK    2  A    between atoms: C_6  and  C_7 
REMARK    3  A    between atoms: C_7  and  O_8 
REMARK    4  A    between atoms: O_8  and  C_9 
ROOT
HETATM    1  N   UNL     1     -10.085   0.825 -32.644  1.00  0.00    -0.309 N 
HETATM    2  C   UNL     1     -10.563   1.963 -33.224  1.00  0.00     0.252 C 
HETATM    3  O   UNL     1     -11.779   2.163 -33.108  1.00  0.00    -0.270 OA
HETATM    4  H   UNL     1     -10.826   0.270 -32.238  1.00  0.00     0.170 HD
ENDROOT
BRANCH   2   5
HETATM    5  C   UNL     1      -9.651   2.931 -34.012  1.00  0.00     0.217 C 
HETATM    6  C   UNL     1     -10.519   3.765 -34.956  1.00  0.00     0.050 C 
BRANCH   5   7
HETATM    7  O   UNL     1      -8.985   3.887 -33.176  1.00  0.00    -0.335 OA
BRANCH   7   8
HETATM    8  C   UNL     1      -7.672   3.687 -32.846  1.00  0.00     0.091 A 
HETATM    9  C   UNL     1      -7.279   4.086 -31.555  1.00  0.00     0.069 A 
HETATM   10 CL   UNL     1      -8.410   4.781 -30.445  1.00  0.00    -0.081 Cl
HETATM   11  C   UNL     1      -5.959   3.928 -31.125  1.00  0.00     0.050 A 
HETATM   12  C   UNL     1      -5.021   3.379 -31.990  1.00  0.00     0.035 A 
HETATM   13 CL   UNL     1      -3.391   3.184 -31.473  1.00  0.00    -0.084 Cl
HETATM   14  C   UNL     1      -5.389   2.991 -33.277  1.00  0.00     0.026 A 
HETATM   15  C   UNL     1      -6.712   3.145 -33.705  1.00  0.00     0.040 A 
ENDBRANCH   7   8
ENDBRANCH   5   7
ENDBRANCH   2   5
BRANCH   1  16
HETATM   16  C   UNL     1      -8.781   0.354 -32.509  1.00  0.00     0.130 A 
HETATM   17  C   UNL     1      -8.251  -0.365 -33.578  1.00  0.00     0.057 A 
HETATM   18  C   UNL     1      -6.945  -0.851 -33.499  1.00  0.00    -0.057 A 
HETATM   19  C   UNL     1      -6.323  -1.605 -34.635  1.00  0.00     0.048 C 
HETATM   20  C   UNL     1      -6.216  -0.605 -32.336  1.00  0.00     0.033 A 
HETATM   21  C   UNL     1      -6.816   0.109 -31.306  1.00  0.00     0.033 A 
HETATM   22  N   UNL     1      -8.082   0.584 -31.386  1.00  0.00    -0.236 NA
HETATM   23  C   UNL     1      -6.056   0.389 -30.044  1.00  0.00     0.070 C 
ENDBRANCH   1  16
TORSDOF 4
ENDMDL
MODEL 5
REMARK VINA RESULT:      -7.3      3.109      5.888
REMARK  4 active torsions:
REMARK  status: ('A' for Active; 'I' for Inactive)
REMARK    1  A    between atoms: C_4  and  N_5 
REMARK       I    between atoms: N_5  and  C_6 
REMARK    2  A    between atoms: C_6  and  C_7 
REMARK    3  A    between atoms: C_7  and  O_8 
REMARK    4  A    between atoms: O_8  and  C_9 
ROOT
HETATM    1  N   UNL     1      -7.437   1.329 -30.785  1.00  0.00    -0.309 N 
HETATM    2  C   UNL     1      -6.096   1.086 -30.818  1.00  0.00     0.252 C 
HETATM    3  O   UNL     1      -5.605   0.609 -29.786  1.00  0.00    -0.270 OA
HETATM    4  H   UNL     1      -7.834   1.127 -29.878  1.00  0.00     0.170 HD
ENDROOT
BRANCH   2   5
HETATM    5  C   UNL     1      -5.228   1.417 -32.053  1.00  0.00     0.217 C 
HETATM    6  C   UNL     1      -4.293   2.575 -31.702  1.00  0.00     0.050 C 
BRANCH   5   7
HETATM    7  O   UNL     1      -4.360   0.343 -32.439  1.00  0.00    -0.335 OA
BRANCH   7   8
HETATM    8  C   UNL     1      -4.863  -0.690 -33.184  1.00  0.00     0.091 A 
HETATM    9  C   UNL     1      -4.225  -1.936 -33.046  1.00  0.00     0.069 A 
HETATM   10 CL   UNL     1      -2.880  -2.145 -31.977  1.00  0.00    -0.081 Cl
HETATM   11  C   UNL     1      -4.661  -3.050 -33.767  1.00  0.00     0.050 A 
HETATM   12  C   UNL     1      -5.734  -2.920 -34.641  1.00  0.00     0.035 A 
HETATM   13 CL   UNL     1      -6.277  -4.284 -35.538  1.00  0.00    -0.084 Cl
HETATM   14  C   UNL     1      -6.370  -1.690 -34.800  1.00  0.00     0.026 A 
HETATM   15  C   UNL     1      -5.935  -0.576 -34.074  1.00  0.00     0.040 A 
ENDBRANCH   7   8
ENDBRANCH   5   7
ENDBRANCH   2   5
BRANCH   1  16
HETATM   16  C   UNL     1      -8.304   1.766 -31.785  1.00  0.00     0.130 A 
HETATM   17  C   UNL     1      -9.352   0.916 -32.134  1.00  0.00     0.057 A 
HETATM   18  C   UNL     1     -10.255   1.311 -33.123  1.00  0.00    -0.057 A 
HETATM   19  C   UNL     1     -11.414   0.442 -33.510  1.00  0.00     0.048 C 
HETATM   20  C   UNL     1     -10.067   2.548 -33.737  1.00  0.00     0.033 A 
HETATM   21  C   UNL     1      -8.991   3.335 -33.345  1.00  0.00     0.033 A 
HETATM   22  N   UNL     1      -8.118   2.954 -32.382  1.00  0.00    -0.236 NA
HETATM   23  C   UNL     1      -8.764   4.671 -33.987  1.00  0.00     0.070 C 
ENDBRANCH   1  16
TORSDOF 4
ENDMDL
MODEL 6
REMARK VINA RESULT:      -7.2      3.885      6.025
REMARK  4 active torsions:
REMARK  status: ('A' for Active; 'I' for Inactive)
REMARK    1  A    between atoms: C_4  and  N_5 
REMARK       I    between atoms: N_5  and  C_6 
REMARK    2  A    between atoms: C_6  and  C_7 
REMARK    3  A    between atoms: C_7  and  O_8 
REMARK    4  A    between atoms: O_8  and  C_9 
ROOT
HETATM    1  N   UNL     1      -5.963   3.203 -33.626  1.00  0.00    -0.309 N 
HETATM    2  C   UNL     1      -6.876   4.205 -33.778  1.00  0.00     0.252 C 
HETATM    3  O   UNL     1      -6.454   5.252 -34.288  1.00  0.00    -0.270 OA
HETATM    4  H   UNL     1      -5.037   3.491 -33.911  1.00  0.00     0.170 HD
ENDROOT
BRANCH   2   5
HETATM    5  C   UNL     1      -8.342   4.062 -33.311  1.00  0.00     0.217 C 
HETATM    6  C   UNL     1      -8.852   5.431 -32.861  1.00  0.00     0.050 C 
BRANCH   5   7
HETATM    7  O   UNL     1      -9.233   3.661 -34.362  1.00  0.00    -0.335 OA
BRANCH   7   8
HETATM    8  C   UNL     1     -10.111   2.634 -34.140  1.00  0.00     0.091 A 
HETATM    9  C   UNL     1     -11.400   2.778 -34.684  1.00  0.00     0.069 A 
HETATM   10 CL   UNL     1     -11.839   4.180 -35.598  1.00  0.00    -0.081 Cl
HETATM   11  C   UNL     1     -12.368   1.786 -34.509  1.00  0.00     0.050 A 
HETATM   12  C   UNL     1     -12.055   0.647 -33.776  1.00  0.00     0.035 A 
HETATM   13 CL   UNL     1     -13.241  -0.578 -33.549  1.00  0.00    -0.084 Cl
HETATM   14  C   UNL     1     -10.787   0.495 -33.218  1.00  0.00     0.026 A 
HETATM   15  C   UNL     1      -9.816   1.486 -33.398  1.00  0.00     0.040 A 
ENDBRANCH   7   8
ENDBRANCH   5   7
ENDBRANCH   2   5
BRANCH   1  16
HETATM   16  C   UNL     1      -6.121   1.892 -33.182  1.00  0.00     0.130 A 
HETATM   17  C   UNL     1      -6.335   0.914 -34.151  1.00  0.00     0.057 A 
HETATM   18  C   UNL     1      -6.490  -0.417 -33.761  1.00  0.00    -0.057 A 
HETATM   19  C   UNL     1      -6.693  -1.507 -34.770  1.00  0.00     0.048 C 
HETATM   20  C   UNL     1      -6.434  -0.720 -32.401  1.00  0.00     0.033 A 
HETATM   21  C   UNL     1      -6.231   0.311 -31.492  1.00  0.00     0.033 A 
HETATM   22  N   UNL     1      -6.075   1.602 -31.872  1.00  0.00    -0.236 NA
HETATM   23  C   UNL     1      -6.166   0.015 -30.023  1.00  0.00     0.070 C 
ENDBRANCH   1  16
TORSDOF 4
ENDMDL
MODEL 7
REMARK VINA RESULT:      -7.0      3.199      6.183
REMARK  4 active torsions:
REMARK  status: ('A' for Active; 'I' for Inactive)
REMARK    1  A    between atoms: C_4  and  N_5 
REMARK       I    between atoms: N_5  and  C_6 
REMARK    2  A    between atoms: C_6  and  C_7 
REMARK    3  A    between atoms: C_7  and  O_8 
REMARK    4  A    between atoms: O_8  and  C_9 
ROOT
HETATM    1  N   UNL     1      -7.471   1.516 -30.515  1.00  0.00    -0.309 N 
HETATM    2  C   UNL     1      -6.173   1.102 -30.580  1.00  0.00     0.252 C 
HETATM    3  O   UNL     1      -5.692   0.654 -29.530  1.00  0.00    -0.270 OA
HETATM    4  H   UNL     1      -7.843   1.443 -29.578  1.00  0.00     0.170 HD
ENDROOT
BRANCH   2   5
HETATM    5  C   UNL     1      -5.336   1.215 -31.874  1.00  0.00     0.217 C 
HETATM    6  C   UNL     1      -4.359   2.383 -31.728  1.00  0.00     0.050 C 
BRANCH   5   7
HETATM    7  O   UNL     1      -4.510   0.068 -32.115  1.00  0.00    -0.335 OA
BRANCH   7   8
HETATM    8  C   UNL     1      -4.956  -0.913 -32.959  1.00  0.00     0.091 A 
HETATM    9  C   UNL     1      -4.228  -2.117 -32.968  1.00  0.00     0.069 A 
HETATM   10 CL   UNL     1      -2.846  -2.340 -31.950  1.00  0.00    -0.081 Cl
HETATM   11  C   UNL     1      -4.602  -3.176 -33.798  1.00  0.00     0.050 A 
HETATM   12  C   UNL     1      -5.703  -3.033 -34.634  1.00  0.00     0.035 A 
HETATM   13 CL   UNL     1      -6.170  -4.330 -35.664  1.00  0.00    -0.084 Cl
HETATM   14  C   UNL     1      -6.428  -1.843 -34.648  1.00  0.00     0.026 A 
HETATM   15  C   UNL     1      -6.055  -0.784 -33.813  1.00  0.00     0.040 A 
ENDBRANCH   7   8
ENDBRANCH   5   7
ENDBRANCH   2   5
BRANCH   1  16
HETATM   16  C   UNL     1      -8.327   1.976 -31.513  1.00  0.00     0.130 A 
HETATM   17  C   UNL     1      -8.151   3.287 -31.948  1.00  0.00     0.057 A 
HETATM   18  C   UNL     1      -8.977   3.794 -32.954  1.00  0.00    -0.057 A 
HETATM   19  C   UNL     1      -8.806   5.189 -33.474  1.00  0.00     0.048 C 
HETATM   20  C   UNL     1      -9.963   2.962 -33.483  1.00  0.00     0.033 A 
HETATM   21  C   UNL     1     -10.087   1.669 -32.989  1.00  0.00     0.033 A 
HETATM   22  N   UNL     1      -9.282   1.177 -32.017  1.00  0.00    -0.236 NA
HETATM   23  C   UNL     1     -11.139   0.752 -33.539  1.00  0.00     0.070 C 
ENDBRANCH   1  16
TORSDOF 4
ENDMDL
MODEL 8
REMARK VINA RESULT:      -6.9      2.792      5.515
REMARK  4 active torsions:
REMARK  status: ('A' for Active; 'I' for Inactive)
REMARK    1  A    between atoms: C_4  and  N_5 
REMARK       I    between atoms: N_5  and  C_6 
REMARK    2  A    between atoms: C_6  and  C_7 
REMARK    3  A    between atoms: C_7  and  O_8 
REMARK    4  A    between atoms: O_8  and  C_9 
ROOT
HETATM    1  N   UNL     1      -8.192   3.887 -31.471  1.00  0.00    -0.309 N 
HETATM    2  C   UNL     1      -6.864   4.189 -31.537  1.00  0.00     0.252 C 
HETATM    3  O   UNL     1      -6.387   4.757 -30.545  1.00  0.00    -0.270 OA
HETATM    4  H   UNL     1      -8.614   4.229 -30.619  1.00  0.00     0.170 HD
ENDROOT
BRANCH   2   5
HETATM    5  C   UNL     1      -6.009   3.878 -32.786  1.00  0.00     0.217 C 
HETATM    6  C   UNL     1      -5.007   5.015 -32.993  1.00  0.00     0.050 C 
BRANCH   5   7
HETATM    7  O   UNL     1      -5.206   2.698 -32.641  1.00  0.00    -0.335 OA
BRANCH   7   8
HETATM    8  C   UNL     1      -5.687   1.501 -33.101  1.00  0.00     0.091 A 
HETATM    9  C   UNL     1      -5.467   0.378 -32.283  1.00  0.00     0.069 A 
HETATM   10 CL   UNL     1      -4.641   0.515 -30.769  1.00  0.00    -0.081 Cl
HETATM   11  C   UNL     1      -5.915  -0.888 -32.667  1.00  0.00     0.050 A 
HETATM   12  C   UNL     1      -6.578  -1.040 -33.880  1.00  0.00     0.035 A 
HETATM   13 CL   UNL     1      -7.130  -2.595 -34.365  1.00  0.00    -0.084 Cl
HETATM   14  C   UNL     1      -6.792   0.060 -34.708  1.00  0.00     0.026 A 
HETATM   15  C   UNL     1      -6.347   1.328 -34.321  1.00  0.00     0.040 A 
ENDBRANCH   7   8
ENDBRANCH   5   7
ENDBRANCH   2   5
BRANCH   1  16
HETATM   16  C   UNL     1      -9.006   3.181 -32.355  1.00  0.00     0.130 A 
HETATM   17  C   UNL     1      -9.164   1.817 -32.123  1.00  0.00     0.057 A 
HETATM   18  C   UNL     1      -9.977   1.065 -32.973  1.00  0.00    -0.057 A 
HETATM   19  C   UNL     1     -10.199  -0.400 -32.746  1.00  0.00     0.048 C 
HETATM   20  C   UNL     1     -10.599   1.714 -34.039  1.00  0.00     0.033 A 
HETATM   21  C   UNL     1     -10.384   3.075 -34.214  1.00  0.00     0.033 A 
HETATM   22  N   UNL     1      -9.599   3.805 -33.386  1.00  0.00    -0.236 NA
HETATM   23  C   UNL     1     -11.041   3.799 -35.352  1.00  0.00     0.070 C 
ENDBRANCH   1  16
TORSDOF 4
ENDMDL
MODEL 9
REMARK VINA RESULT:      -6.9      2.571      3.724
REMARK  4 active torsions:
REMARK  status: ('A' for Active; 'I' for Inactive)
REMARK    1  A    between atoms: C_4  and  N_5 
REMARK       I    between atoms: N_5  and  C_6 
REMARK    2  A    between atoms: C_6  and  C_7 
REMARK    3  A    between atoms: C_7  and  O_8 
REMARK    4  A    between atoms: O_8  and  C_9 
ROOT
HETATM    1  N   UNL     1     -10.294   0.688 -32.796  1.00  0.00    -0.309 N 
HETATM    2  C   UNL     1     -10.830   1.809 -33.357  1.00  0.00     0.252 C 
HETATM    3  O   UNL     1     -12.052   1.956 -33.220  1.00  0.00    -0.270 OA
HETATM    4  H   UNL     1     -11.004   0.098 -32.383  1.00  0.00     0.170 HD
ENDROOT
BRANCH   2   5
HETATM    5  C   UNL     1      -9.974   2.822 -34.152  1.00  0.00     0.217 C 
HETATM    6  C   UNL     1     -10.896   3.651 -35.047  1.00  0.00     0.050 C 
BRANCH   5   7
HETATM    7  O   UNL     1      -9.309   3.778 -33.315  1.00  0.00    -0.335 OA
BRANCH   7   8
HETATM    8  C   UNL     1      -7.971   4.009 -33.494  1.00  0.00     0.091 A 
HETATM    9  C   UNL     1      -7.519   5.318 -33.251  1.00  0.00     0.069 A 
HETATM   10 CL   UNL     1      -8.605   6.565 -32.739  1.00  0.00    -0.081 Cl
HETATM   11  C   UNL     1      -6.172   5.654 -33.410  1.00  0.00     0.050 A 
HETATM   12  C   UNL     1      -5.271   4.682 -33.825  1.00  0.00     0.035 A 
HETATM   13 CL   UNL     1      -3.611   5.085 -34.029  1.00  0.00    -0.084 Cl
HETATM   14  C   UNL     1      -5.704   3.383 -34.084  1.00  0.00     0.026 A 
HETATM   15  C   UNL     1      -7.052   3.046 -33.920  1.00  0.00     0.040 A 
ENDBRANCH   7   8
ENDBRANCH   5   7
ENDBRANCH   2   5
BRANCH   1  16
HETATM   16  C   UNL     1      -8.969   0.272 -32.687  1.00  0.00     0.130 A 
HETATM   17  C   UNL     1      -8.286   0.622 -31.524  1.00  0.00     0.057 A 
HETATM   18  C   UNL     1      -6.959   0.221 -31.360  1.00  0.00    -0.057 A 
HETATM   19  C   UNL     1      -6.194   0.550 -30.113  1.00  0.00     0.048 C 
HETATM   20  C   UNL     1      -6.357  -0.512 -32.382  1.00  0.00     0.033 A 
HETATM   21  C   UNL     1      -7.098  -0.811 -33.519  1.00  0.00     0.033 A 
HETATM   22  N   UNL     1      -8.387  -0.427 -33.675  1.00  0.00    -0.236 NA
HETATM   23  C   UNL     1      -6.477  -1.599 -34.634  1.00  0.00     0.070 C 
ENDBRANCH   1  16
TORSDOF 4
ENDMDL
MODEL 10
REMARK VINA RESULT:      -6.8      1.565      2.505
REMARK  4 active torsions:
REMARK  status: ('A' for Active; 'I' for Inactive)
REMARK    1  A    between atoms: C_4  and  N_5 
REMARK       I    between atoms: N_5  and  C_6 
REMARK    2  A    between atoms: C_6  and  C_7 
REMARK    3  A    between atoms: C_7  and  O_8 
REMARK    4  A    between atoms: O_8  and  C_9 
ROOT
HETATM    1  N   UNL     1      -7.246   1.175 -30.679  1.00  0.00    -0.309 N 
HETATM    2  C   UNL     1      -7.429   2.526 -30.695  1.00  0.00     0.252 C 
HETATM    3  O   UNL     1      -8.115   2.993 -29.776  1.00  0.00    -0.270 OA
HETATM    4  H   UNL     1      -7.757   0.735 -29.926  1.00  0.00     0.170 HD
ENDROOT
BRANCH   2   5
HETATM    5  C   UNL     1      -6.848   3.423 -31.812  1.00  0.00     0.217 C 
HETATM    6  C   UNL     1      -7.956   4.340 -32.334  1.00  0.00     0.050 C 
BRANCH   5   7
HETATM    7  O   UNL     1      -5.820   4.309 -31.347  1.00  0.00    -0.335 OA
BRANCH   7   8
HETATM    8  C   UNL     1      -4.707   4.506 -32.119  1.00  0.00     0.091 A 
HETATM    9  C   UNL     1      -4.541   5.789 -32.671  1.00  0.00     0.069 A 
HETATM   10 CL   UNL     1      -5.686   7.052 -32.372  1.00  0.00    -0.081 Cl
HETATM   11  C   UNL     1      -3.439   6.088 -33.476  1.00  0.00     0.050 A 
HETATM   12  C   UNL     1      -2.501   5.098 -33.743  1.00  0.00     0.035 A 
HETATM   13 CL   UNL     1      -1.142   5.453 -34.738  1.00  0.00    -0.084 Cl
HETATM   14  C   UNL     1      -2.656   3.818 -33.216  1.00  0.00     0.026 A 
HETATM   15  C   UNL     1      -3.757   3.521 -32.406  1.00  0.00     0.040 A 
ENDBRANCH   7   8
ENDBRANCH   5   7
ENDBRANCH   2   5
BRANCH   1  16
HETATM   16  C   UNL     1      -6.469   0.355 -31.494  1.00  0.00     0.130 A 
HETATM   17  C   UNL     1      -5.112   0.261 -31.192  1.00  0.00     0.057 A 
HETATM   18  C   UNL     1      -4.290  -0.555 -31.972  1.00  0.00    -0.057 A 
HETATM   19  C   UNL     1      -2.831  -0.710 -31.667  1.00  0.00     0.048 C 
HETATM   20  C   UNL     1      -4.862  -1.244 -33.041  1.00  0.00     0.033 A 
HETATM   21  C   UNL     1      -6.221  -1.089 -33.289  1.00  0.00     0.033 A 
HETATM   22  N   UNL     1      -7.019  -0.302 -32.529  1.00  0.00    -0.236 NA
HETATM   23  C   UNL     1      -6.864  -1.818 -34.431  1.00  0.00     0.070 C 
ENDBRANCH   1  16
TORSDOF 4
ENDMDL
