MODEL 1
REMARK VINA RESULT:      -9.5      0.000      0.000
REMARK  6 active torsions:
REMARK  status: ('A' for Active; 'I' for Inactive)
REMARK    1  A    between atoms: O_2  and  C_3 
REMARK    2  A    between atoms: C_6  and  C_7 
REMARK    3  A    between atoms: C_13  and  C_14 
REMARK       I    between atoms: C_14  and  N_15 
REMARK    4  A    between atoms: N_15  and  C_16 
REMARK    5  A    between atoms: C_16  and  C_17 
REMARK    6  A    between atoms: C_24  and  C_25 
ROOT
HETATM    1  C   UNL     1      -7.360   0.011 -33.445  1.00  0.00     0.118 C 
HETATM    2  N   UNL     1      -6.484   1.098 -32.988  1.00  0.00    -0.365 N 
HETATM    3  C   UNL     1      -6.929   2.388 -33.015  1.00  0.00     0.138 A 
HETATM    4  N   UNL     1      -8.116   2.708 -33.634  1.00  0.00    -0.240 N 
HETATM    5  N   UNL     1      -8.408   4.015 -33.629  1.00  0.00    -0.181 NA
HETATM    6  C   UNL     1      -7.407   4.544 -32.923  1.00  0.00     0.160 A 
HETATM    7  C   UNL     1      -6.436   3.587 -32.524  1.00  0.00     0.096 A 
HETATM    8  C   UNL     1      -9.008   1.753 -34.261  1.00  0.00     0.221 C 
HETATM    9  C   UNL     1      -8.226   0.485 -34.625  1.00  0.00     0.066 C 
HETATM   10  H   UNL     1      -5.885   0.803 -32.214  1.00  0.00     0.161 HD
ENDROOT
BRANCH   7  11
HETATM   11  C   UNL     1      -5.228   3.895 -31.784  1.00  0.00     0.257 C 
HETATM   12  N   UNL     1      -4.101   3.205 -32.166  1.00  0.00    -0.352 N 
HETATM   13  H   UNL     1      -4.134   2.727 -33.055  1.00  0.00     0.163 HD
HETATM   14  O   UNL     1      -5.215   4.749 -30.903  1.00  0.00    -0.267 OA
BRANCH  12  15
HETATM   15  C   UNL     1      -2.814   3.566 -31.624  1.00  0.00     0.161 C 
BRANCH  15  16
HETATM   16  C   UNL     1      -2.168   4.662 -32.426  1.00  0.00    -0.041 A 
HETATM   17  C   UNL     1      -1.608   5.780 -31.792  1.00  0.00     0.009 A 
HETATM   18  C   UNL     1      -1.004   6.788 -32.544  1.00  0.00     0.001 A 
HETATM   19  C   UNL     1      -0.957   6.692 -33.933  1.00  0.00     0.000 A 
HETATM   20  C   UNL     1      -1.521   5.592 -34.575  1.00  0.00     0.001 A 
HETATM   21  C   UNL     1      -2.130   4.584 -33.826  1.00  0.00     0.009 A 
ENDBRANCH  15  16
ENDBRANCH  12  15
ENDBRANCH   7  11
BRANCH   1  22
HETATM   22  C   UNL     1      -6.537  -1.197 -33.854  1.00  0.00    -0.035 A 
HETATM   23  C   UNL     1      -5.189  -1.285 -33.477  1.00  0.00     0.012 A 
HETATM   24  C   UNL     1      -4.447  -2.434 -33.762  1.00  0.00     0.037 A 
HETATM   25  C   UNL     1      -5.035  -3.518 -34.413  1.00  0.00     0.068 A 
HETATM   26  C   UNL     1      -6.363  -3.428 -34.824  1.00  0.00     0.037 A 
HETATM   27  C   UNL     1      -7.108  -2.276 -34.548  1.00  0.00     0.012 A 
BRANCH  25  28
HETATM   28  O   UNL     1      -4.212  -4.594 -34.600  1.00  0.00    -0.356 OA
HETATM   29  C   UNL     1      -3.305  -4.881 -33.540  1.00  0.00     0.210 C 
ENDBRANCH  25  28
ENDBRANCH   1  22
BRANCH   8  30
HETATM   30  C   UNL     1     -10.183   1.464 -33.351  1.00  0.00     0.409 C 
HETATM   31  F   UNL     1     -10.655   0.205 -33.481  1.00  0.00    -0.169 F 
HETATM   32  F   UNL     1      -9.906   1.671 -32.047  1.00  0.00    -0.169 F 
HETATM   33  F   UNL     1     -11.214   2.294 -33.660  1.00  0.00    -0.169 F 
ENDBRANCH   8  30
TORSDOF 6
ENDMDL
MODEL 2
REMARK VINA RESULT:      -9.4      1.534      1.862
REMARK  6 active torsions:
REMARK  status: ('A' for Active; 'I' for Inactive)
REMARK    1  A    between atoms: O_2  and  C_3 
REMARK    2  A    between atoms: C_6  and  C_7 
REMARK    3  A    between atoms: C_13  and  C_14 
REMARK       I    between atoms: C_14  and  N_15 
REMARK    4  A    between atoms: N_15  and  C_16 
REMARK    5  A    between atoms: C_16  and  C_17 
REMARK    6  A    between atoms: C_24  and  C_25 
ROOT
HETATM    1  C   UNL     1      -6.754   0.613 -33.143  1.00  0.00     0.118 C 
HETATM    2  N   UNL     1      -5.945   1.729 -33.648  1.00  0.00    -0.365 N 
HETATM    3  C   UNL     1      -6.479   2.983 -33.712  1.00  0.00     0.138 A 
HETATM    4  N   UNL     1      -7.822   3.186 -33.485  1.00  0.00    -0.240 N 
HETATM    5  N   UNL     1      -8.221   4.456 -33.628  1.00  0.00    -0.181 NA
HETATM    6  C   UNL     1      -7.083   5.102 -33.890  1.00  0.00     0.160 A 
HETATM    7  C   UNL     1      -5.958   4.240 -33.976  1.00  0.00     0.096 A 
HETATM    8  C   UNL     1      -8.768   2.148 -33.127  1.00  0.00     0.221 C 
HETATM    9  C   UNL     1      -8.224   0.785 -33.567  1.00  0.00     0.066 C 
HETATM   10  H   UNL     1      -4.960   1.630 -33.392  1.00  0.00     0.161 HD
ENDROOT
BRANCH   7  11
HETATM   11  C   UNL     1      -4.609   4.671 -34.290  1.00  0.00     0.257 C 
HETATM   12  N   UNL     1      -3.642   4.317 -33.378  1.00  0.00    -0.352 N 
HETATM   13  H   UNL     1      -3.884   3.605 -32.703  1.00  0.00     0.163 HD
HETATM   14  O   UNL     1      -4.353   5.277 -35.325  1.00  0.00    -0.267 OA
BRANCH  12  15
HETATM   15  C   UNL     1      -2.248   4.533 -33.682  1.00  0.00     0.161 C 
BRANCH  15  16
HETATM   16  C   UNL     1      -1.633   5.543 -32.753  1.00  0.00    -0.041 A 
HETATM   17  C   UNL     1      -0.614   5.171 -31.865  1.00  0.00     0.009 A 
HETATM   18  C   UNL     1      -0.043   6.117 -31.012  1.00  0.00     0.001 A 
HETATM   19  C   UNL     1      -0.486   7.438 -31.034  1.00  0.00     0.000 A 
HETATM   20  C   UNL     1      -1.507   7.815 -31.903  1.00  0.00     0.001 A 
HETATM   21  C   UNL     1      -2.083   6.871 -32.755  1.00  0.00     0.009 A 
ENDBRANCH  15  16
ENDBRANCH  12  15
ENDBRANCH   7  11
BRANCH   1  22
HETATM   22  C   UNL     1      -6.215  -0.709 -33.657  1.00  0.00    -0.035 A 
HETATM   23  C   UNL     1      -4.866  -1.039 -33.460  1.00  0.00     0.012 A 
HETATM   24  C   UNL     1      -4.379  -2.291 -33.840  1.00  0.00     0.037 A 
HETATM   25  C   UNL     1      -5.226  -3.242 -34.410  1.00  0.00     0.068 A 
HETATM   26  C   UNL     1      -6.559  -2.913 -34.644  1.00  0.00     0.037 A 
HETATM   27  C   UNL     1      -7.050  -1.656 -34.272  1.00  0.00     0.012 A 
BRANCH  25  28
HETATM   28  O   UNL     1      -4.635  -4.439 -34.703  1.00  0.00    -0.356 OA
HETATM   29  C   UNL     1      -3.591  -4.855 -33.828  1.00  0.00     0.210 C 
ENDBRANCH  25  28
ENDBRANCH   1  22
BRANCH   8  30
HETATM   30  C   UNL     1      -9.060   2.201 -31.642  1.00  0.00     0.409 C 
HETATM   31  F   UNL     1      -9.330   0.988 -31.113  1.00  0.00    -0.169 F 
HETATM   32  F   UNL     1      -8.059   2.752 -30.925  1.00  0.00    -0.169 F 
HETATM   33  F   UNL     1     -10.159   2.969 -31.419  1.00  0.00    -0.169 F 
ENDBRANCH   8  30
TORSDOF 6
ENDMDL
MODEL 3
REMARK VINA RESULT:      -9.0      2.125      3.118
REMARK  6 active torsions:
REMARK  status: ('A' for Active; 'I' for Inactive)
REMARK    1  A    between atoms: O_2  and  C_3 
REMARK    2  A    between atoms: C_6  and  C_7 
REMARK    3  A    between atoms: C_13  and  C_14 
REMARK       I    between atoms: C_14  and  N_15 
REMARK    4  A    between atoms: N_15  and  C_16 
REMARK    5  A    between atoms: C_16  and  C_17 
REMARK    6  A    between atoms: C_24  and  C_25 
ROOT
HETATM    1  C   UNL     1      -6.189   1.507 -32.729  1.00  0.00     0.118 C 
HETATM    2  N   UNL     1      -5.091   2.432 -33.035  1.00  0.00    -0.365 N 
HETATM    3  C   UNL     1      -5.290   3.779 -32.944  1.00  0.00     0.138 A 
HETATM    4  N   UNL     1      -6.553   4.290 -32.750  1.00  0.00    -0.240 N 
HETATM    5  N   UNL     1      -6.611   5.628 -32.728  1.00  0.00    -0.181 NA
HETATM    6  C   UNL     1      -5.332   5.987 -32.846  1.00  0.00     0.160 A 
HETATM    7  C   UNL     1      -4.453   4.883 -33.004  1.00  0.00     0.096 A 
HETATM    8  C   UNL     1      -7.753   3.494 -32.584  1.00  0.00     0.221 C 
HETATM    9  C   UNL     1      -7.532   2.103 -33.189  1.00  0.00     0.066 C 
HETATM   10  H   UNL     1      -4.185   2.052 -32.753  1.00  0.00     0.161 HD
ENDROOT
BRANCH   7  11
HETATM   11  C   UNL     1      -3.019   4.989 -33.193  1.00  0.00     0.257 C 
HETATM   12  N   UNL     1      -2.482   6.240 -33.001  1.00  0.00    -0.352 N 
HETATM   13  H   UNL     1      -3.060   6.921 -32.527  1.00  0.00     0.163 HD
HETATM   14  O   UNL     1      -2.334   4.009 -33.466  1.00  0.00    -0.267 OA
BRANCH  12  15
HETATM   15  C   UNL     1      -1.051   6.418 -32.982  1.00  0.00     0.161 C 
BRANCH  15  16
HETATM   16  C   UNL     1      -0.504   6.326 -31.585  1.00  0.00    -0.041 A 
HETATM   17  C   UNL     1       0.147   5.165 -31.144  1.00  0.00     0.009 A 
HETATM   18  C   UNL     1       0.659   5.092 -29.848  1.00  0.00     0.001 A 
HETATM   19  C   UNL     1       0.521   6.173 -28.979  1.00  0.00     0.000 A 
HETATM   20  C   UNL     1      -0.136   7.327 -29.402  1.00  0.00     0.001 A 
HETATM   21  C   UNL     1      -0.651   7.402 -30.697  1.00  0.00     0.009 A 
ENDBRANCH  15  16
ENDBRANCH  12  15
ENDBRANCH   7  11
BRANCH   1  22
HETATM   22  C   UNL     1      -5.956   0.166 -33.403  1.00  0.00    -0.035 A 
HETATM   23  C   UNL     1      -4.732  -0.495 -33.238  1.00  0.00     0.012 A 
HETATM   24  C   UNL     1      -4.538  -1.773 -33.769  1.00  0.00     0.037 A 
HETATM   25  C   UNL     1      -5.563  -2.419 -34.461  1.00  0.00     0.068 A 
HETATM   26  C   UNL     1      -6.772  -1.757 -34.662  1.00  0.00     0.037 A 
HETATM   27  C   UNL     1      -6.967  -0.474 -34.138  1.00  0.00     0.012 A 
BRANCH  25  28
HETATM   28  O   UNL     1      -5.259  -3.678 -34.898  1.00  0.00    -0.356 OA
HETATM   29  C   UNL     1      -6.360  -4.483 -35.306  1.00  0.00     0.210 C 
ENDBRANCH  25  28
ENDBRANCH   1  22
BRANCH   8  30
HETATM   30  C   UNL     1      -8.138   3.432 -31.122  1.00  0.00     0.409 C 
HETATM   31  F   UNL     1      -8.940   4.451 -30.743  1.00  0.00    -0.169 F 
HETATM   32  F   UNL     1      -8.747   2.278 -30.782  1.00  0.00    -0.169 F 
HETATM   33  F   UNL     1      -7.022   3.517 -30.351  1.00  0.00    -0.169 F 
ENDBRANCH   8  30
TORSDOF 6
ENDMDL
MODEL 4
REMARK VINA RESULT:      -8.8      3.565      7.290
REMARK  6 active torsions:
REMARK  status: ('A' for Active; 'I' for Inactive)
REMARK    1  A    between atoms: O_2  and  C_3 
REMARK    2  A    between atoms: C_6  and  C_7 
REMARK    3  A    between atoms: C_13  and  C_14 
REMARK       I    between atoms: C_14  and  N_15 
REMARK    4  A    between atoms: N_15  and  C_16 
REMARK    5  A    between atoms: C_16  and  C_17 
REMARK    6  A    between atoms: C_24  and  C_25 
ROOT
HETATM    1  C   UNL     1      -5.654   0.793 -32.155  1.00  0.00     0.118 C 
HETATM    2  N   UNL     1      -7.092   0.936 -32.416  1.00  0.00    -0.365 N 
HETATM    3  C   UNL     1      -7.830   1.831 -31.696  1.00  0.00     0.138 A 
HETATM    4  N   UNL     1      -7.287   2.469 -30.604  1.00  0.00    -0.240 N 
HETATM    5  N   UNL     1      -8.135   3.282 -29.962  1.00  0.00    -0.181 NA
HETATM    6  C   UNL     1      -9.239   3.215 -30.707  1.00  0.00     0.160 A 
HETATM    7  C   UNL     1      -9.126   2.312 -31.796  1.00  0.00     0.096 A 
HETATM    8  C   UNL     1      -5.923   2.306 -30.141  1.00  0.00     0.221 C 
HETATM    9  C   UNL     1      -5.365   0.973 -30.654  1.00  0.00     0.066 C 
HETATM   10  H   UNL     1      -7.313   0.805 -33.406  1.00  0.00     0.161 HD
ENDROOT
BRANCH   7  11
HETATM   11  C   UNL     1     -10.187   2.016 -32.738  1.00  0.00     0.257 C 
HETATM   12  N   UNL     1     -10.962   3.086 -33.121  1.00  0.00    -0.352 N 
HETATM   13  H   UNL     1     -10.605   4.009 -32.917  1.00  0.00     0.163 HD
HETATM   14  O   UNL     1     -10.349   0.886 -33.189  1.00  0.00    -0.267 OA
BRANCH  12  15
HETATM   15  C   UNL     1     -11.921   2.939 -34.189  1.00  0.00     0.161 C 
BRANCH  15  16
HETATM   16  C   UNL     1     -13.270   2.534 -33.663  1.00  0.00    -0.041 A 
HETATM   17  C   UNL     1     -13.820   3.167 -32.539  1.00  0.00     0.009 A 
HETATM   18  C   UNL     1     -15.077   2.791 -32.062  1.00  0.00     0.001 A 
HETATM   19  C   UNL     1     -15.793   1.779 -32.699  1.00  0.00     0.000 A 
HETATM   20  C   UNL     1     -15.250   1.134 -33.809  1.00  0.00     0.001 A 
HETATM   21  C   UNL     1     -13.992   1.506 -34.286  1.00  0.00     0.009 A 
ENDBRANCH  15  16
ENDBRANCH  12  15
ENDBRANCH   7  11
BRANCH   1  22
HETATM   22  C   UNL     1      -5.162  -0.565 -32.621  1.00  0.00    -0.035 A 
HETATM   23  C   UNL     1      -5.745  -1.172 -33.742  1.00  0.00     0.012 A 
HETATM   24  C   UNL     1      -5.238  -2.375 -34.241  1.00  0.00     0.037 A 
HETATM   25  C   UNL     1      -4.136  -2.986 -33.642  1.00  0.00     0.068 A 
HETATM   26  C   UNL     1      -3.572  -2.411 -32.506  1.00  0.00     0.037 A 
HETATM   27  C   UNL     1      -4.081  -1.210 -31.998  1.00  0.00     0.012 A 
BRANCH  25  28
HETATM   28  O   UNL     1      -3.716  -4.138 -34.248  1.00  0.00    -0.356 OA
HETATM   29  C   UNL     1      -4.664  -5.198 -34.306  1.00  0.00     0.210 C 
ENDBRANCH  25  28
ENDBRANCH   1  22
BRANCH   8  30
HETATM   30  C   UNL     1      -5.082   3.488 -30.573  1.00  0.00     0.409 C 
HETATM   31  F   UNL     1      -3.786   3.168 -30.779  1.00  0.00    -0.169 F 
HETATM   32  F   UNL     1      -5.544   4.086 -31.691  1.00  0.00    -0.169 F 
HETATM   33  F   UNL     1      -5.093   4.437 -29.600  1.00  0.00    -0.169 F 
ENDBRANCH   8  30
TORSDOF 6
ENDMDL
MODEL 5
REMARK VINA RESULT:      -8.7      1.853      2.416
REMARK  6 active torsions:
REMARK  status: ('A' for Active; 'I' for Inactive)
REMARK    1  A    between atoms: O_2  and  C_3 
REMARK    2  A    between atoms: C_6  and  C_7 
REMARK    3  A    between atoms: C_13  and  C_14 
REMARK       I    between atoms: C_14  and  N_15 
REMARK    4  A    between atoms: N_15  and  C_16 
REMARK    5  A    between atoms: C_16  and  C_17 
REMARK    6  A    between atoms: C_24  and  C_25 
ROOT
HETATM    1  C   UNL     1      -7.409   0.915 -32.793  1.00  0.00     0.118 C 
HETATM    2  N   UNL     1      -7.108   2.352 -32.828  1.00  0.00    -0.365 N 
HETATM    3  C   UNL     1      -7.985   3.218 -33.414  1.00  0.00     0.138 A 
HETATM    4  N   UNL     1      -9.059   2.747 -34.135  1.00  0.00    -0.240 N 
HETATM    5  N   UNL     1      -9.810   3.703 -34.696  1.00  0.00    -0.181 NA
HETATM    6  C   UNL     1      -9.237   4.828 -34.265  1.00  0.00     0.160 A 
HETATM    7  C   UNL     1      -8.080   4.599 -33.474  1.00  0.00     0.096 A 
HETATM    8  C   UNL     1      -9.390   1.346 -34.311  1.00  0.00     0.221 C 
HETATM    9  C   UNL     1      -8.139   0.492 -34.080  1.00  0.00     0.066 C 
HETATM   10  H   UNL     1      -6.608   2.655 -31.989  1.00  0.00     0.161 HD
ENDROOT
BRANCH   7  11
HETATM   11  C   UNL     1      -7.244   5.642 -32.912  1.00  0.00     0.257 C 
HETATM   12  N   UNL     1      -5.911   5.332 -32.779  1.00  0.00    -0.352 N 
HETATM   13  H   UNL     1      -5.574   4.523 -33.282  1.00  0.00     0.163 HD
HETATM   14  O   UNL     1      -7.701   6.742 -32.617  1.00  0.00    -0.267 OA
BRANCH  12  15
HETATM   15  C   UNL     1      -4.964   6.355 -32.407  1.00  0.00     0.161 C 
BRANCH  15  16
HETATM   16  C   UNL     1      -3.673   6.211 -33.163  1.00  0.00    -0.041 A 
HETATM   17  C   UNL     1      -3.539   5.250 -34.176  1.00  0.00     0.009 A 
HETATM   18  C   UNL     1      -2.340   5.128 -34.878  1.00  0.00     0.001 A 
HETATM   19  C   UNL     1      -1.263   5.959 -34.574  1.00  0.00     0.000 A 
HETATM   20  C   UNL     1      -1.380   6.908 -33.560  1.00  0.00     0.001 A 
HETATM   21  C   UNL     1      -2.578   7.030 -32.854  1.00  0.00     0.009 A 
ENDBRANCH  15  16
ENDBRANCH  12  15
ENDBRANCH   7  11
BRANCH   1  22
HETATM   22  C   UNL     1      -6.133   0.109 -32.628  1.00  0.00    -0.035 A 
HETATM   23  C   UNL     1      -5.365   0.247 -31.463  1.00  0.00     0.012 A 
HETATM   24  C   UNL     1      -4.243  -0.559 -31.254  1.00  0.00     0.037 A 
HETATM   25  C   UNL     1      -3.875  -1.523 -32.192  1.00  0.00     0.068 A 
HETATM   26  C   UNL     1      -4.609  -1.644 -33.370  1.00  0.00     0.037 A 
HETATM   27  C   UNL     1      -5.729  -0.834 -33.587  1.00  0.00     0.012 A 
BRANCH  25  28
HETATM   28  O   UNL     1      -2.780  -2.269 -31.852  1.00  0.00    -0.356 OA
HETATM   29  C   UNL     1      -2.961  -3.682 -31.849  1.00  0.00     0.210 C 
ENDBRANCH  25  28
ENDBRANCH   1  22
BRANCH   8  30
HETATM   30  C   UNL     1     -10.529   0.963 -33.390  1.00  0.00     0.409 C 
HETATM   31  F   UNL     1     -10.625   1.764 -32.306  1.00  0.00    -0.169 F 
HETATM   32  F   UNL     1     -11.728   0.953 -34.006  1.00  0.00    -0.169 F 
HETATM   33  F   UNL     1     -10.330  -0.297 -32.918  1.00  0.00    -0.169 F 
ENDBRANCH   8  30
TORSDOF 6
ENDMDL
MODEL 6
REMARK VINA RESULT:      -8.7      3.298      5.276
REMARK  6 active torsions:
REMARK  status: ('A' for Active; 'I' for Inactive)
REMARK    1  A    between atoms: O_2  and  C_3 
REMARK    2  A    between atoms: C_6  and  C_7 
REMARK    3  A    between atoms: C_13  and  C_14 
REMARK       I    between atoms: C_14  and  N_15 
REMARK    4  A    between atoms: N_15  and  C_16 
REMARK    5  A    between atoms: C_16  and  C_17 
REMARK    6  A    between atoms: C_24  and  C_25 
ROOT
HETATM    1  C   UNL     1      -6.922   0.534 -33.339  1.00  0.00     0.118 C 
HETATM    2  N   UNL     1      -6.253   1.763 -32.894  1.00  0.00    -0.365 N 
HETATM    3  C   UNL     1      -5.067   1.689 -32.224  1.00  0.00     0.138 A 
HETATM    4  N   UNL     1      -4.578   0.475 -31.795  1.00  0.00    -0.240 N 
HETATM    5  N   UNL     1      -3.432   0.553 -31.108  1.00  0.00    -0.181 NA
HETATM    6  C   UNL     1      -3.139   1.853 -31.156  1.00  0.00     0.160 A 
HETATM    7  C   UNL     1      -4.128   2.625 -31.821  1.00  0.00     0.096 A 
HETATM    8  C   UNL     1      -5.215  -0.805 -32.032  1.00  0.00     0.221 C 
HETATM    9  C   UNL     1      -6.707  -0.592 -32.312  1.00  0.00     0.066 C 
HETATM   10  H   UNL     1      -6.395   2.532 -33.554  1.00  0.00     0.161 HD
ENDROOT
BRANCH   7  11
HETATM   11  C   UNL     1      -4.083   4.066 -31.980  1.00  0.00     0.257 C 
HETATM   12  N   UNL     1      -3.792   4.783 -30.843  1.00  0.00    -0.352 N 
HETATM   13  H   UNL     1      -3.409   4.271 -30.061  1.00  0.00     0.163 HD
HETATM   14  O   UNL     1      -4.254   4.597 -33.072  1.00  0.00    -0.267 OA
BRANCH  12  15
HETATM   15  C   UNL     1      -3.541   6.202 -30.927  1.00  0.00     0.161 C 
BRANCH  15  16
HETATM   16  C   UNL     1      -2.097   6.521 -30.656  1.00  0.00    -0.041 A 
HETATM   17  C   UNL     1      -1.689   6.980 -29.395  1.00  0.00     0.009 A 
HETATM   18  C   UNL     1      -0.346   7.266 -29.150  1.00  0.00     0.001 A 
HETATM   19  C   UNL     1       0.601   7.102 -30.159  1.00  0.00     0.000 A 
HETATM   20  C   UNL     1       0.205   6.659 -31.419  1.00  0.00     0.001 A 
HETATM   21  C   UNL     1      -1.138   6.375 -31.669  1.00  0.00     0.009 A 
ENDBRANCH  15  16
ENDBRANCH  12  15
ENDBRANCH   7  11
BRANCH   1  22
HETATM   22  C   UNL     1      -8.406   0.780 -33.540  1.00  0.00    -0.035 A 
HETATM   23  C   UNL     1      -9.342  -0.113 -32.999  1.00  0.00     0.012 A 
HETATM   24  C   UNL     1     -10.711   0.152 -33.091  1.00  0.00     0.037 A 
HETATM   25  C   UNL     1     -11.170   1.315 -33.708  1.00  0.00     0.068 A 
HETATM   26  C   UNL     1     -10.252   2.192 -34.279  1.00  0.00     0.037 A 
HETATM   27  C   UNL     1      -8.880   1.926 -34.198  1.00  0.00     0.012 A 
BRANCH  25  28
HETATM   28  O   UNL     1     -12.529   1.474 -33.699  1.00  0.00    -0.356 OA
HETATM   29  C   UNL     1     -13.300   0.278 -33.716  1.00  0.00     0.210 C 
ENDBRANCH  25  28
ENDBRANCH   1  22
BRANCH   8  30
HETATM   30  C   UNL     1      -4.515  -1.532 -33.161  1.00  0.00     0.409 C 
HETATM   31  F   UNL     1      -5.352  -2.293 -33.899  1.00  0.00    -0.169 F 
HETATM   32  F   UNL     1      -3.862  -0.702 -34.000  1.00  0.00    -0.169 F 
HETATM   33  F   UNL     1      -3.579  -2.375 -32.651  1.00  0.00    -0.169 F 
ENDBRANCH   8  30
TORSDOF 6
ENDMDL
MODEL 7
REMARK VINA RESULT:      -8.6      2.520      3.582
REMARK  6 active torsions:
REMARK  status: ('A' for Active; 'I' for Inactive)
REMARK    1  A    between atoms: O_2  and  C_3 
REMARK    2  A    between atoms: C_6  and  C_7 
REMARK    3  A    between atoms: C_13  and  C_14 
REMARK       I    between atoms: C_14  and  N_15 
REMARK    4  A    between atoms: N_15  and  C_16 
REMARK    5  A    between atoms: C_16  and  C_17 
REMARK    6  A    between atoms: C_24  and  C_25 
ROOT
HETATM    1  C   UNL     1      -6.087   1.664 -33.012  1.00  0.00     0.118 C 
HETATM    2  N   UNL     1      -4.826   2.324 -32.653  1.00  0.00    -0.365 N 
HETATM    3  C   UNL     1      -4.717   3.681 -32.747  1.00  0.00     0.138 A 
HETATM    4  N   UNL     1      -5.708   4.425 -33.347  1.00  0.00    -0.240 N 
HETATM    5  N   UNL     1      -5.450   5.737 -33.415  1.00  0.00    -0.181 NA
HETATM    6  C   UNL     1      -4.285   5.848 -32.776  1.00  0.00     0.160 A 
HETATM    7  C   UNL     1      -3.760   4.601 -32.348  1.00  0.00     0.096 A 
HETATM    8  C   UNL     1      -6.941   3.883 -33.885  1.00  0.00     0.221 C 
HETATM    9  C   UNL     1      -6.754   2.393 -34.192  1.00  0.00     0.066 C 
HETATM   10  H   UNL     1      -4.355   1.848 -31.880  1.00  0.00     0.161 HD
ENDROOT
BRANCH   7  11
HETATM   11  C   UNL     1      -2.491   4.428 -31.667  1.00  0.00     0.257 C 
HETATM   12  N   UNL     1      -1.790   5.583 -31.408  1.00  0.00    -0.352 N 
HETATM   13  H   UNL     1      -2.295   6.455 -31.489  1.00  0.00     0.163 HD
HETATM   14  O   UNL     1      -2.097   3.321 -31.313  1.00  0.00    -0.267 OA
BRANCH  12  15
HETATM   15  C   UNL     1      -0.612   5.542 -30.576  1.00  0.00     0.161 C 
BRANCH  15  16
HETATM   16  C   UNL     1      -0.540   6.738 -29.667  1.00  0.00    -0.041 A 
HETATM   17  C   UNL     1      -1.449   7.797 -29.803  1.00  0.00     0.009 A 
HETATM   18  C   UNL     1      -1.380   8.899 -28.949  1.00  0.00     0.001 A 
HETATM   19  C   UNL     1      -0.402   8.957 -27.958  1.00  0.00     0.000 A 
HETATM   20  C   UNL     1       0.515   7.917 -27.823  1.00  0.00     0.001 A 
HETATM   21  C   UNL     1       0.450   6.814 -28.677  1.00  0.00     0.009 A 
ENDBRANCH  15  16
ENDBRANCH  12  15
ENDBRANCH   7  11
BRANCH   1  22
HETATM   22  C   UNL     1      -5.841   0.209 -33.370  1.00  0.00    -0.035 A 
HETATM   23  C   UNL     1      -6.626  -0.411 -34.353  1.00  0.00     0.012 A 
HETATM   24  C   UNL     1      -6.347  -1.718 -34.762  1.00  0.00     0.037 A 
HETATM   25  C   UNL     1      -5.276  -2.423 -34.213  1.00  0.00     0.068 A 
HETATM   26  C   UNL     1      -4.512  -1.830 -33.211  1.00  0.00     0.037 A 
HETATM   27  C   UNL     1      -4.793  -0.524 -32.792  1.00  0.00     0.012 A 
BRANCH  25  28
HETATM   28  O   UNL     1      -5.089  -3.677 -34.725  1.00  0.00    -0.356 OA
HETATM   29  C   UNL     1      -6.257  -4.478 -34.866  1.00  0.00     0.210 C 
ENDBRANCH  25  28
ENDBRANCH   1  22
BRANCH   8  30
HETATM   30  C   UNL     1      -8.082   4.134 -32.922  1.00  0.00     0.409 C 
HETATM   31  F   UNL     1      -8.701   5.316 -33.135  1.00  0.00    -0.169 F 
HETATM   32  F   UNL     1      -9.018   3.165 -32.946  1.00  0.00    -0.169 F 
HETATM   33  F   UNL     1      -7.605   4.175 -31.650  1.00  0.00    -0.169 F 
ENDBRANCH   8  30
TORSDOF 6
ENDMDL
MODEL 8
REMARK VINA RESULT:      -8.6      4.513      9.171
REMARK  6 active torsions:
REMARK  status: ('A' for Active; 'I' for Inactive)
REMARK    1  A    between atoms: O_2  and  C_3 
REMARK    2  A    between atoms: C_6  and  C_7 
REMARK    3  A    between atoms: C_13  and  C_14 
REMARK       I    between atoms: C_14  and  N_15 
REMARK    4  A    between atoms: N_15  and  C_16 
REMARK    5  A    between atoms: C_16  and  C_17 
REMARK    6  A    between atoms: C_24  and  C_25 
ROOT
HETATM    1  C   UNL     1      -3.130   6.293 -30.688  1.00  0.00     0.118 C 
HETATM    2  N   UNL     1      -4.188   5.425 -31.220  1.00  0.00    -0.365 N 
HETATM    3  C   UNL     1      -4.286   5.216 -32.565  1.00  0.00     0.138 A 
HETATM    4  N   UNL     1      -3.525   5.951 -33.446  1.00  0.00    -0.240 N 
HETATM    5  N   UNL     1      -3.756   5.679 -34.736  1.00  0.00    -0.181 NA
HETATM    6  C   UNL     1      -4.647   4.687 -34.680  1.00  0.00     0.160 A 
HETATM    7  C   UNL     1      -5.037   4.360 -33.354  1.00  0.00     0.096 A 
HETATM    8  C   UNL     1      -2.549   6.952 -33.064  1.00  0.00     0.221 C 
HETATM    9  C   UNL     1      -2.865   7.463 -31.653  1.00  0.00     0.066 C 
HETATM   10  H   UNL     1      -4.394   4.648 -30.588  1.00  0.00     0.161 HD
ENDROOT
BRANCH   7  11
HETATM   11  C   UNL     1      -6.019   3.351 -33.007  1.00  0.00     0.257 C 
HETATM   12  N   UNL     1      -6.264   2.400 -33.970  1.00  0.00    -0.352 N 
HETATM   13  H   UNL     1      -5.598   2.329 -34.727  1.00  0.00     0.163 HD
HETATM   14  O   UNL     1      -6.561   3.334 -31.907  1.00  0.00    -0.267 OA
BRANCH  12  15
HETATM   15  C   UNL     1      -7.081   1.252 -33.660  1.00  0.00     0.161 C 
BRANCH  15  16
HETATM   16  C   UNL     1      -6.327  -0.032 -33.873  1.00  0.00    -0.041 A 
HETATM   17  C   UNL     1      -5.121  -0.274 -33.200  1.00  0.00     0.009 A 
HETATM   18  C   UNL     1      -4.432  -1.472 -33.398  1.00  0.00     0.001 A 
HETATM   19  C   UNL     1      -4.937  -2.435 -34.269  1.00  0.00     0.000 A 
HETATM   20  C   UNL     1      -6.128  -2.199 -34.953  1.00  0.00     0.001 A 
HETATM   21  C   UNL     1      -6.818  -1.001 -34.760  1.00  0.00     0.009 A 
ENDBRANCH  15  16
ENDBRANCH  12  15
ENDBRANCH   7  11
BRANCH   1  22
HETATM   22  C   UNL     1      -3.517   6.825 -29.320  1.00  0.00    -0.035 A 
HETATM   23  C   UNL     1      -4.822   6.642 -28.843  1.00  0.00     0.012 A 
HETATM   24  C   UNL     1      -5.167   7.038 -27.548  1.00  0.00     0.037 A 
HETATM   25  C   UNL     1      -4.216   7.608 -26.702  1.00  0.00     0.068 A 
HETATM   26  C   UNL     1      -2.925   7.827 -27.176  1.00  0.00     0.037 A 
HETATM   27  C   UNL     1      -2.578   7.440 -28.476  1.00  0.00     0.012 A 
BRANCH  25  28
HETATM   28  O   UNL     1      -4.670   7.917 -25.449  1.00  0.00    -0.356 OA
HETATM   29  C   UNL     1      -3.727   8.524 -24.572  1.00  0.00     0.210 C 
ENDBRANCH  25  28
ENDBRANCH   1  22
BRANCH   8  30
HETATM   30  C   UNL     1      -1.151   6.382 -33.171  1.00  0.00     0.409 C 
HETATM   31  F   UNL     1      -1.086   5.075 -32.836  1.00  0.00    -0.169 F 
HETATM   32  F   UNL     1      -0.615   6.521 -34.401  1.00  0.00    -0.169 F 
HETATM   33  F   UNL     1      -0.323   7.038 -32.316  1.00  0.00    -0.169 F 
ENDBRANCH   8  30
TORSDOF 6
ENDMDL
MODEL 9
REMARK VINA RESULT:      -8.5      3.117      6.434
REMARK  6 active torsions:
REMARK  status: ('A' for Active; 'I' for Inactive)
REMARK    1  A    between atoms: O_2  and  C_3 
REMARK    2  A    between atoms: C_6  and  C_7 
REMARK    3  A    between atoms: C_13  and  C_14 
REMARK       I    between atoms: C_14  and  N_15 
REMARK    4  A    between atoms: N_15  and  C_16 
REMARK    5  A    between atoms: C_16  and  C_17 
REMARK    6  A    between atoms: C_24  and  C_25 
ROOT
HETATM    1  C   UNL     1      -5.435   1.601 -32.933  1.00  0.00     0.118 C 
HETATM    2  N   UNL     1      -6.646   2.221 -32.381  1.00  0.00    -0.365 N 
HETATM    3  C   UNL     1      -6.543   3.145 -31.381  1.00  0.00     0.138 A 
HETATM    4  N   UNL     1      -5.338   3.368 -30.754  1.00  0.00    -0.240 N 
HETATM    5  N   UNL     1      -5.390   4.264 -29.760  1.00  0.00    -0.181 NA
HETATM    6  C   UNL     1      -6.657   4.678 -29.795  1.00  0.00     0.160 A 
HETATM    7  C   UNL     1      -7.440   4.007 -30.771  1.00  0.00     0.096 A 
HETATM    8  C   UNL     1      -4.091   2.713 -31.096  1.00  0.00     0.221 C 
HETATM    9  C   UNL     1      -4.388   1.396 -31.824  1.00  0.00     0.066 C 
HETATM   10  H   UNL     1      -7.364   2.354 -33.097  1.00  0.00     0.161 HD
ENDROOT
BRANCH   7  11
HETATM   11  C   UNL     1      -8.855   4.233 -30.994  1.00  0.00     0.257 C 
HETATM   12  N   UNL     1      -9.248   4.311 -32.310  1.00  0.00    -0.352 N 
HETATM   13  H   UNL     1      -8.594   3.980 -33.005  1.00  0.00     0.163 HD
HETATM   14  O   UNL     1      -9.648   4.307 -30.061  1.00  0.00    -0.267 OA
BRANCH  12  15
HETATM   15  C   UNL     1     -10.650   4.348 -32.644  1.00  0.00     0.161 C 
BRANCH  15  16
HETATM   16  C   UNL     1     -11.167   2.981 -32.999  1.00  0.00    -0.041 A 
HETATM   17  C   UNL     1     -10.291   1.891 -33.109  1.00  0.00     0.009 A 
HETATM   18  C   UNL     1     -10.780   0.624 -33.431  1.00  0.00     0.001 A 
HETATM   19  C   UNL     1     -12.143   0.434 -33.651  1.00  0.00     0.000 A 
HETATM   20  C   UNL     1     -13.020   1.513 -33.558  1.00  0.00     0.001 A 
HETATM   21  C   UNL     1     -12.534   2.782 -33.239  1.00  0.00     0.009 A 
ENDBRANCH  15  16
ENDBRANCH  12  15
ENDBRANCH   7  11
BRANCH   1  22
HETATM   22  C   UNL     1      -5.770   0.272 -33.585  1.00  0.00    -0.035 A 
HETATM   23  C   UNL     1      -4.904  -0.820 -33.431  1.00  0.00     0.012 A 
HETATM   24  C   UNL     1      -5.247  -2.075 -33.942  1.00  0.00     0.037 A 
HETATM   25  C   UNL     1      -6.461  -2.267 -34.601  1.00  0.00     0.068 A 
HETATM   26  C   UNL     1      -7.313  -1.182 -34.791  1.00  0.00     0.037 A 
HETATM   27  C   UNL     1      -6.970   0.078 -34.289  1.00  0.00     0.012 A 
BRANCH  25  28
HETATM   28  O   UNL     1      -6.692  -3.548 -35.020  1.00  0.00    -0.356 OA
HETATM   29  C   UNL     1      -5.651  -4.487 -34.773  1.00  0.00     0.210 C 
ENDBRANCH  25  28
ENDBRANCH   1  22
BRANCH   8  30
HETATM   30  C   UNL     1      -3.223   3.643 -31.917  1.00  0.00     0.409 C 
HETATM   31  F   UNL     1      -2.280   4.271 -31.182  1.00  0.00    -0.169 F 
HETATM   32  F   UNL     1      -2.605   3.022 -32.942  1.00  0.00    -0.169 F 
HETATM   33  F   UNL     1      -3.993   4.618 -32.468  1.00  0.00    -0.169 F 
ENDBRANCH   8  30
TORSDOF 6
ENDMDL
MODEL 10
REMARK VINA RESULT:      -8.3     15.880     17.100
REMARK  6 active torsions:
REMARK  status: ('A' for Active; 'I' for Inactive)
REMARK    1  A    between atoms: O_2  and  C_3 
REMARK    2  A    between atoms: C_6  and  C_7 
REMARK    3  A    between atoms: C_13  and  C_14 
REMARK       I    between atoms: C_14  and  N_15 
REMARK    4  A    between atoms: N_15  and  C_16 
REMARK    5  A    between atoms: C_16  and  C_17 
REMARK    6  A    between atoms: C_24  and  C_25 
ROOT
HETATM    1  C   UNL     1      -7.320 -14.018 -36.856  1.00  0.00     0.118 C 
HETATM    2  N   UNL     1      -5.960 -13.724 -37.327  1.00  0.00    -0.365 N 
HETATM    3  C   UNL     1      -5.739 -13.456 -38.647  1.00  0.00     0.138 A 
HETATM    4  N   UNL     1      -6.737 -13.639 -39.576  1.00  0.00    -0.240 N 
HETATM    5  N   UNL     1      -6.370 -13.386 -40.839  1.00  0.00    -0.181 NA
HETATM    6  C   UNL     1      -5.112 -12.962 -40.707  1.00  0.00     0.160 A 
HETATM    7  C   UNL     1      -4.646 -12.998 -39.366  1.00  0.00     0.096 A 
HETATM    8  C   UNL     1      -8.086 -14.073 -39.270  1.00  0.00     0.221 C 
HETATM    9  C   UNL     1      -8.094 -14.809 -37.926  1.00  0.00     0.066 C 
HETATM   10  H   UNL     1      -5.420 -13.211 -36.626  1.00  0.00     0.161 HD
ENDROOT
BRANCH   7  11
HETATM   11  C   UNL     1      -3.308 -12.633 -38.947  1.00  0.00     0.257 C 
HETATM   12  N   UNL     1      -2.296 -13.445 -39.403  1.00  0.00    -0.352 N 
HETATM   13  H   UNL     1      -2.517 -14.072 -40.163  1.00  0.00     0.163 HD
HETATM   14  O   UNL     1      -3.099 -11.637 -38.261  1.00  0.00    -0.267 OA
BRANCH  12  15
HETATM   15  C   UNL     1      -0.918 -13.067 -39.199  1.00  0.00     0.161 C 
BRANCH  15  16
HETATM   16  C   UNL     1      -0.173 -14.109 -38.412  1.00  0.00    -0.041 A 
HETATM   17  C   UNL     1      -0.772 -14.741 -37.313  1.00  0.00     0.009 A 
HETATM   18  C   UNL     1      -0.077 -15.713 -36.593  1.00  0.00     0.001 A 
HETATM   19  C   UNL     1       1.222 -16.060 -36.960  1.00  0.00     0.000 A 
HETATM   20  C   UNL     1       1.832 -15.430 -38.043  1.00  0.00     0.001 A 
HETATM   21  C   UNL     1       1.140 -14.455 -38.763  1.00  0.00     0.009 A 
ENDBRANCH  15  16
ENDBRANCH  12  15
ENDBRANCH   7  11
BRANCH   1  22
HETATM   22  C   UNL     1      -7.274 -14.803 -35.558  1.00  0.00    -0.035 A 
HETATM   23  C   UNL     1      -7.323 -16.203 -35.586  1.00  0.00     0.012 A 
HETATM   24  C   UNL     1      -7.183 -16.942 -34.408  1.00  0.00     0.037 A 
HETATM   25  C   UNL     1      -6.978 -16.301 -33.187  1.00  0.00     0.068 A 
HETATM   26  C   UNL     1      -6.964 -14.909 -33.141  1.00  0.00     0.037 A 
HETATM   27  C   UNL     1      -7.113 -14.165 -34.317  1.00  0.00     0.012 A 
BRANCH  25  28
HETATM   28  O   UNL     1      -6.820 -17.137 -32.116  1.00  0.00    -0.356 OA
HETATM   29  C   UNL     1      -6.042 -16.633 -31.036  1.00  0.00     0.210 C 
ENDBRANCH  25  28
ENDBRANCH   1  22
BRANCH   8  30
HETATM   30  C   UNL     1      -9.029 -12.889 -39.284  1.00  0.00     0.409 C 
HETATM   31  F   UNL     1      -8.504 -11.788 -38.703  1.00  0.00    -0.169 F 
HETATM   32  F   UNL     1      -9.433 -12.548 -40.525  1.00  0.00    -0.169 F 
HETATM   33  F   UNL     1     -10.154 -13.192 -38.585  1.00  0.00    -0.169 F 
ENDBRANCH   8  30
TORSDOF 6
ENDMDL
