MODEL 1
REMARK VINA RESULT:      -8.1      0.000      0.000
REMARK  9 active torsions:
REMARK  status: ('A' for Active; 'I' for Inactive)
REMARK    1  A    between atoms: C_2  and  C_3 
REMARK    2  A    between atoms: C_7  and  C_8 
REMARK    3  A    between atoms: C_8  and  C_9 
REMARK       I    between atoms: C_9  and  N_10 
REMARK    4  A    between atoms: N_10  and  C_11 
REMARK    5  A    between atoms: C_11  and  C_12 
REMARK    6  A    between atoms: C_12  and  N_13 
REMARK    7  A    between atoms: C_21  and  C_22 
REMARK    8  A    between atoms: C_32  and  C_33 
REMARK    9  A    between atoms: C_33  and  O_34 
ROOT
HETATM    1  C   UNL     1      -3.569   6.444 -31.472  1.00  0.00     0.051 C 
HETATM    2  N   UNL     1      -4.847   7.009 -31.433  1.00  0.00    -0.228 NA
HETATM    3  C   UNL     1      -5.815   6.263 -31.851  1.00  0.00     0.170 C 
HETATM    4  N   UNL     1      -5.635   4.749 -32.162  1.00  0.00    -0.318 N 
HETATM    5  C   UNL     1      -6.371   4.416 -33.173  1.00  0.00     0.011 C 
HETATM    6  C   UNL     1      -4.581   4.226 -31.270  1.00  0.00     0.166 C 
HETATM    7  S   UNL     1      -7.367   6.818 -32.348  1.00  0.00    -0.086 SA
HETATM    8  C   UNL     1      -7.468   5.415 -33.518  1.00  0.00     0.135 C 
HETATM    9  C   UNL     1      -3.385   5.099 -31.457  1.00  0.00     0.069 C 
ENDROOT
BRANCH   5  10
HETATM   10  C   UNL     1      -6.116   3.169 -33.970  1.00  0.00     0.156 C 
BRANCH  10  11
HETATM   11  C   UNL     1      -6.897   1.978 -33.449  1.00  0.00     0.223 C 
HETATM   12  N   UNL     1      -6.363   0.739 -33.694  1.00  0.00    -0.359 N 
HETATM   13  H   UNL     1      -5.463   0.658 -34.163  1.00  0.00     0.162 HD
HETATM   14  O   UNL     1      -7.982   2.111 -32.888  1.00  0.00    -0.273 OA
BRANCH  12  15
HETATM   15  C   UNL     1      -7.102  -0.517 -33.506  1.00  0.00     0.150 C 
BRANCH  15  16
HETATM   16  C   UNL     1      -7.300  -1.380 -34.775  1.00  0.00     0.254 C 
BRANCH  16  17
HETATM   17  N   UNL     1      -6.272  -2.492 -34.885  1.00  0.00    -0.070 N 
HETATM   18  H   UNL     1      -5.842  -2.407 -35.826  1.00  0.00     0.279 HD
HETATM   19  C   UNL     1      -5.136  -2.361 -33.895  1.00  0.00     0.235 C 
HETATM   20  C   UNL     1      -4.073  -3.404 -34.209  1.00  0.00     0.028 C 
HETATM   21  C   UNL     1      -4.650  -4.815 -34.211  1.00  0.00     0.003 C 
HETATM   22  C   UNL     1      -5.859  -4.918 -35.133  1.00  0.00     0.028 C 
HETATM   23  C   UNL     1      -6.906  -3.861 -34.817  1.00  0.00     0.235 C 
ENDBRANCH  16  17
ENDBRANCH  15  16
ENDBRANCH  12  15
ENDBRANCH  10  11
ENDBRANCH   5  10
BRANCH   6  24
HETATM   24  C   UNL     1      -4.572   2.712 -31.084  1.00  0.00    -0.024 A 
HETATM   25  C   UNL     1      -5.584   2.087 -30.295  1.00  0.00    -0.053 A 
HETATM   26  C   UNL     1      -6.667   2.849 -29.566  1.00  0.00     0.049 C 
HETATM   27  C   UNL     1      -5.572   0.693 -30.113  1.00  0.00     0.008 A 
HETATM   28  C   UNL     1      -4.594  -0.099 -30.702  1.00  0.00     0.007 A 
HETATM   29  C   UNL     1      -3.597   0.486 -31.477  1.00  0.00    -0.061 A 
HETATM   30  C   UNL     1      -2.548  -0.378 -32.120  1.00  0.00     0.048 C 
HETATM   31  C   UNL     1      -3.605   1.875 -31.677  1.00  0.00     0.017 A 
ENDBRANCH   6  24
BRANCH   9  32
HETATM   32  C   UNL     1      -2.128   4.540 -31.935  1.00  0.00     0.293 C 
HETATM   33  O   UNL     1      -1.193   4.391 -31.161  1.00  0.00    -0.259 OA
BRANCH  32  34
HETATM   34  O   UNL     1      -2.175   4.327 -33.257  1.00  0.00    -0.323 OA
HETATM   35  C   UNL     1      -1.356   5.192 -34.055  1.00  0.00     0.213 C 
ENDBRANCH  32  34
ENDBRANCH   9  32
BRANCH   1  36
HETATM   36  C   UNL     1      -2.455   7.460 -31.660  1.00  0.00     0.056 C 
HETATM   37  C   UNL     1      -2.173   8.238 -30.382  1.00  0.00     0.011 C 
ENDBRANCH   1  36
TORSDOF 9
ENDMDL
MODEL 2
REMARK VINA RESULT:      -7.8      2.562      7.780
REMARK  9 active torsions:
REMARK  status: ('A' for Active; 'I' for Inactive)
REMARK    1  A    between atoms: C_2  and  C_3 
REMARK    2  A    between atoms: C_7  and  C_8 
REMARK    3  A    between atoms: C_8  and  C_9 
REMARK       I    between atoms: C_9  and  N_10 
REMARK    4  A    between atoms: N_10  and  C_11 
REMARK    5  A    between atoms: C_11  and  C_12 
REMARK    6  A    between atoms: C_12  and  N_13 
REMARK    7  A    between atoms: C_21  and  C_22 
REMARK    8  A    between atoms: C_32  and  C_33 
REMARK    9  A    between atoms: C_33  and  O_34 
ROOT
HETATM    1  C   UNL     1      -6.344   1.855 -32.697  1.00  0.00     0.051 C 
HETATM    2  N   UNL     1      -7.321   2.565 -33.400  1.00  0.00    -0.228 NA
HETATM    3  C   UNL     1      -7.211   3.851 -33.390  1.00  0.00     0.170 C 
HETATM    4  N   UNL     1      -5.953   4.583 -32.838  1.00  0.00    -0.318 N 
HETATM    5  C   UNL     1      -6.305   5.682 -32.254  1.00  0.00     0.011 C 
HETATM    6  C   UNL     1      -4.787   3.706 -33.060  1.00  0.00     0.166 C 
HETATM    7  S   UNL     1      -8.470   4.969 -33.750  1.00  0.00    -0.086 SA
HETATM    8  C   UNL     1      -7.710   6.164 -32.593  1.00  0.00     0.135 C 
HETATM    9  C   UNL     1      -5.118   2.384 -32.451  1.00  0.00     0.069 C 
ENDROOT
BRANCH   5  10
HETATM   10  C   UNL     1      -5.409   6.389 -31.277  1.00  0.00     0.156 C 
BRANCH  10  11
HETATM   11  C   UNL     1      -5.612   5.908 -29.852  1.00  0.00     0.223 C 
HETATM   12  N   UNL     1      -5.046   6.669 -28.862  1.00  0.00    -0.359 N 
HETATM   13  H   UNL     1      -4.561   7.533 -29.099  1.00  0.00     0.162 HD
HETATM   14  O   UNL     1      -6.201   4.860 -29.601  1.00  0.00    -0.273 OA
BRANCH  12  15
HETATM   15  C   UNL     1      -4.910   6.221 -27.469  1.00  0.00     0.150 C 
BRANCH  15  16
HETATM   16  C   UNL     1      -3.820   6.935 -26.634  1.00  0.00     0.254 C 
BRANCH  16  17
HETATM   17  N   UNL     1      -2.469   6.935 -27.325  1.00  0.00    -0.070 N 
HETATM   18  H   UNL     1      -2.527   6.237 -28.092  1.00  0.00     0.279 HD
HETATM   19  C   UNL     1      -2.130   8.252 -27.986  1.00  0.00     0.235 C 
HETATM   20  C   UNL     1      -0.856   8.092 -28.803  1.00  0.00     0.028 C 
HETATM   21  C   UNL     1       0.301   7.584 -27.952  1.00  0.00     0.003 C 
HETATM   22  C   UNL     1      -0.078   6.309 -27.205  1.00  0.00     0.028 C 
HETATM   23  C   UNL     1      -1.360   6.481 -26.405  1.00  0.00     0.235 C 
ENDBRANCH  16  17
ENDBRANCH  15  16
ENDBRANCH  12  15
ENDBRANCH  10  11
ENDBRANCH   5  10
BRANCH   6  24
HETATM   24  C   UNL     1      -3.429   4.400 -33.023  1.00  0.00    -0.024 A 
HETATM   25  C   UNL     1      -2.970   5.126 -34.164  1.00  0.00    -0.053 A 
HETATM   26  C   UNL     1      -3.736   5.212 -35.464  1.00  0.00     0.049 C 
HETATM   27  C   UNL     1      -1.715   5.758 -34.136  1.00  0.00     0.008 A 
HETATM   28  C   UNL     1      -0.909   5.702 -33.007  1.00  0.00     0.007 A 
HETATM   29  C   UNL     1      -1.334   5.003 -31.880  1.00  0.00    -0.061 A 
HETATM   30  C   UNL     1      -0.460   4.957 -30.657  1.00  0.00     0.048 C 
HETATM   31  C   UNL     1      -2.591   4.379 -31.890  1.00  0.00     0.017 A 
ENDBRANCH   6  24
BRANCH   9  32
HETATM   32  C   UNL     1      -4.303   1.839 -31.375  1.00  0.00     0.293 C 
HETATM   33  O   UNL     1      -4.518   2.173 -30.218  1.00  0.00    -0.259 OA
BRANCH  32  34
HETATM   34  O   UNL     1      -3.331   1.056 -31.864  1.00  0.00    -0.323 OA
HETATM   35  C   UNL     1      -3.204  -0.233 -31.250  1.00  0.00     0.213 C 
ENDBRANCH  32  34
ENDBRANCH   9  32
BRANCH   1  36
HETATM   36  C   UNL     1      -6.830   0.526 -32.145  1.00  0.00     0.056 C 
HETATM   37  C   UNL     1      -6.512  -0.631 -33.082  1.00  0.00     0.011 C 
ENDBRANCH   1  36
TORSDOF 9
ENDMDL
MODEL 3
REMARK VINA RESULT:      -7.7      3.765      5.363
REMARK  9 active torsions:
REMARK  status: ('A' for Active; 'I' for Inactive)
REMARK    1  A    between atoms: C_2  and  C_3 
REMARK    2  A    between atoms: C_7  and  C_8 
REMARK    3  A    between atoms: C_8  and  C_9 
REMARK       I    between atoms: C_9  and  N_10 
REMARK    4  A    between atoms: N_10  and  C_11 
REMARK    5  A    between atoms: C_11  and  C_12 
REMARK    6  A    between atoms: C_12  and  N_13 
REMARK    7  A    between atoms: C_21  and  C_22 
REMARK    8  A    between atoms: C_32  and  C_33 
REMARK    9  A    between atoms: C_33  and  O_34 
ROOT
HETATM    1  C   UNL     1      -4.101   5.213 -30.881  1.00  0.00     0.051 C 
HETATM    2  N   UNL     1      -4.893   5.565 -29.785  1.00  0.00    -0.228 NA
HETATM    3  C   UNL     1      -6.116   5.153 -29.808  1.00  0.00     0.170 C 
HETATM    4  N   UNL     1      -6.639   4.131 -30.858  1.00  0.00    -0.318 N 
HETATM    5  C   UNL     1      -7.859   4.416 -31.181  1.00  0.00     0.011 C 
HETATM    6  C   UNL     1      -5.515   3.248 -31.229  1.00  0.00     0.166 C 
HETATM    7  S   UNL     1      -7.410   5.797 -28.872  1.00  0.00    -0.086 SA
HETATM    8  C   UNL     1      -8.570   5.355 -30.215  1.00  0.00     0.135 C 
HETATM    9  C   UNL     1      -4.391   4.134 -31.652  1.00  0.00     0.069 C 
ENDROOT
BRANCH   5  10
HETATM   10  C   UNL     1      -8.493   3.901 -32.441  1.00  0.00     0.156 C 
BRANCH  10  11
HETATM   11  C   UNL     1      -9.274   2.619 -32.216  1.00  0.00     0.223 C 
HETATM   12  N   UNL     1      -9.872   2.064 -33.317  1.00  0.00    -0.359 N 
HETATM   13  H   UNL     1      -9.741   2.488 -34.234  1.00  0.00     0.162 HD
HETATM   14  O   UNL     1      -9.413   2.136 -31.095  1.00  0.00    -0.273 OA
BRANCH  12  15
HETATM   15  C   UNL     1     -10.875   0.993 -33.245  1.00  0.00     0.150 C 
BRANCH  15  16
HETATM   16  C   UNL     1     -12.240   1.300 -33.906  1.00  0.00     0.254 C 
BRANCH  16  17
HETATM   17  N   UNL     1     -13.211   1.965 -32.948  1.00  0.00    -0.070 N 
HETATM   18  H   UNL     1     -12.944   1.656 -31.993  1.00  0.00     0.279 HD
HETATM   19  C   UNL     1     -13.111   3.474 -32.940  1.00  0.00     0.235 C 
HETATM   20  C   UNL     1     -13.981   4.030 -31.821  1.00  0.00     0.028 C 
HETATM   21  C   UNL     1     -15.428   3.569 -31.950  1.00  0.00     0.003 C 
HETATM   22  C   UNL     1     -15.518   2.051 -32.060  1.00  0.00     0.028 C 
HETATM   23  C   UNL     1     -14.633   1.510 -33.172  1.00  0.00     0.235 C 
ENDBRANCH  16  17
ENDBRANCH  15  16
ENDBRANCH  12  15
ENDBRANCH  10  11
ENDBRANCH   5  10
BRANCH   6  24
HETATM   24  C   UNL     1      -5.908   1.921 -31.871  1.00  0.00    -0.024 A 
HETATM   25  C   UNL     1      -6.021   0.748 -31.066  1.00  0.00    -0.053 A 
HETATM   26  C   UNL     1      -5.718   0.716 -29.585  1.00  0.00     0.049 C 
HETATM   27  C   UNL     1      -6.373  -0.478 -31.657  1.00  0.00     0.008 A 
HETATM   28  C   UNL     1      -6.628  -0.570 -33.019  1.00  0.00     0.007 A 
HETATM   29  C   UNL     1      -6.527   0.559 -33.826  1.00  0.00    -0.061 A 
HETATM   30  C   UNL     1      -6.816   0.454 -35.297  1.00  0.00     0.048 C 
HETATM   31  C   UNL     1      -6.190   1.792 -33.246  1.00  0.00     0.017 A 
ENDBRANCH   6  24
BRANCH   9  32
HETATM   32  C   UNL     1      -3.846   4.045 -33.000  1.00  0.00     0.293 C 
HETATM   33  O   UNL     1      -2.813   3.422 -33.200  1.00  0.00    -0.259 OA
BRANCH  32  34
HETATM   34  O   UNL     1      -4.578   4.771 -33.857  1.00  0.00    -0.323 OA
HETATM   35  C   UNL     1      -3.884   5.241 -35.021  1.00  0.00     0.213 C 
ENDBRANCH  32  34
ENDBRANCH   9  32
BRANCH   1  36
HETATM   36  C   UNL     1      -2.994   6.210 -31.184  1.00  0.00     0.056 C 
HETATM   37  C   UNL     1      -2.370   6.771 -29.913  1.00  0.00     0.011 C 
ENDBRANCH   1  36
TORSDOF 9
ENDMDL
MODEL 4
REMARK VINA RESULT:      -7.6      3.071      4.334
REMARK  9 active torsions:
REMARK  status: ('A' for Active; 'I' for Inactive)
REMARK    1  A    between atoms: C_2  and  C_3 
REMARK    2  A    between atoms: C_7  and  C_8 
REMARK    3  A    between atoms: C_8  and  C_9 
REMARK       I    between atoms: C_9  and  N_10 
REMARK    4  A    between atoms: N_10  and  C_11 
REMARK    5  A    between atoms: C_11  and  C_12 
REMARK    6  A    between atoms: C_12  and  N_13 
REMARK    7  A    between atoms: C_21  and  C_22 
REMARK    8  A    between atoms: C_32  and  C_33 
REMARK    9  A    between atoms: C_33  and  O_34 
ROOT
HETATM    1  C   UNL     1      -3.458   6.367 -30.898  1.00  0.00     0.051 C 
HETATM    2  N   UNL     1      -4.641   7.070 -30.655  1.00  0.00    -0.228 NA
HETATM    3  C   UNL     1      -5.719   6.568 -31.160  1.00  0.00     0.170 C 
HETATM    4  N   UNL     1      -5.764   5.150 -31.802  1.00  0.00    -0.318 N 
HETATM    5  C   UNL     1      -6.575   5.150 -32.810  1.00  0.00     0.011 C 
HETATM    6  C   UNL     1      -4.764   4.310 -31.114  1.00  0.00     0.166 C 
HETATM    7  S   UNL     1      -7.194   7.416 -31.424  1.00  0.00    -0.086 SA
HETATM    8  C   UNL     1      -7.532   6.334 -32.859  1.00  0.00     0.135 C 
HETATM    9  C   UNL     1      -3.465   5.040 -31.185  1.00  0.00     0.069 C 
ENDROOT
BRANCH   5  10
HETATM   10  C   UNL     1      -6.527   4.090 -33.873  1.00  0.00     0.156 C 
BRANCH  10  11
HETATM   11  C   UNL     1      -7.612   3.044 -33.699  1.00  0.00     0.223 C 
HETATM   12  N   UNL     1      -8.825   3.489 -33.238  1.00  0.00    -0.359 N 
HETATM   13  H   UNL     1      -8.972   4.484 -33.076  1.00  0.00     0.162 HD
HETATM   14  O   UNL     1      -7.400   1.852 -33.904  1.00  0.00    -0.273 OA
BRANCH  12  15
HETATM   15  C   UNL     1      -9.890   2.597 -32.760  1.00  0.00     0.150 C 
BRANCH  15  16
HETATM   16  C   UNL     1     -11.307   3.215 -32.690  1.00  0.00     0.254 C 
BRANCH  16  17
HETATM   17  N   UNL     1     -12.400   2.168 -32.790  1.00  0.00    -0.070 N 
HETATM   18  H   UNL     1     -12.427   1.678 -31.874  1.00  0.00     0.279 HD
HETATM   19  C   UNL     1     -13.780   2.755 -32.987  1.00  0.00     0.235 C 
HETATM   20  C   UNL     1     -14.818   1.646 -32.885  1.00  0.00     0.028 C 
HETATM   21  C   UNL     1     -14.544   0.523 -33.878  1.00  0.00     0.003 C 
HETATM   22  C   UNL     1     -13.117   0.001 -33.745  1.00  0.00     0.028 C 
HETATM   23  C   UNL     1     -12.093   1.122 -33.835  1.00  0.00     0.235 C 
ENDBRANCH  16  17
ENDBRANCH  15  16
ENDBRANCH  12  15
ENDBRANCH  10  11
ENDBRANCH   5  10
BRANCH   6  24
HETATM   24  C   UNL     1      -4.962   2.804 -31.261  1.00  0.00    -0.024 A 
HETATM   25  C   UNL     1      -6.073   2.169 -30.627  1.00  0.00    -0.053 A 
HETATM   26  C   UNL     1      -7.067   2.898 -29.752  1.00  0.00     0.049 C 
HETATM   27  C   UNL     1      -6.252   0.780 -30.752  1.00  0.00     0.008 A 
HETATM   28  C   UNL     1      -5.370   0.007 -31.496  1.00  0.00     0.007 A 
HETATM   29  C   UNL     1      -4.280   0.603 -32.125  1.00  0.00    -0.061 A 
HETATM   30  C   UNL     1      -3.336  -0.238 -32.938  1.00  0.00     0.048 C 
HETATM   31  C   UNL     1      -4.098   1.991 -32.019  1.00  0.00     0.017 A 
ENDBRANCH   6  24
BRANCH   9  32
HETATM   32  C   UNL     1      -2.316   4.443 -31.853  1.00  0.00     0.293 C 
HETATM   33  O   UNL     1      -1.391   3.995 -31.192  1.00  0.00    -0.259 OA
BRANCH  32  34
HETATM   34  O   UNL     1      -2.433   4.549 -33.185  1.00  0.00    -0.323 OA
HETATM   35  C   UNL     1      -1.363   5.234 -33.849  1.00  0.00     0.213 C 
ENDBRANCH  32  34
ENDBRANCH   9  32
BRANCH   1  36
HETATM   36  C   UNL     1      -2.219   7.245 -30.934  1.00  0.00     0.056 C 
HETATM   37  C   UNL     1      -2.462   8.541 -31.696  1.00  0.00     0.011 C 
ENDBRANCH   1  36
TORSDOF 9
ENDMDL
MODEL 5
REMARK VINA RESULT:      -7.6      3.607      6.641
REMARK  9 active torsions:
REMARK  status: ('A' for Active; 'I' for Inactive)
REMARK    1  A    between atoms: C_2  and  C_3 
REMARK    2  A    between atoms: C_7  and  C_8 
REMARK    3  A    between atoms: C_8  and  C_9 
REMARK       I    between atoms: C_9  and  N_10 
REMARK    4  A    between atoms: N_10  and  C_11 
REMARK    5  A    between atoms: C_11  and  C_12 
REMARK    6  A    between atoms: C_12  and  N_13 
REMARK    7  A    between atoms: C_21  and  C_22 
REMARK    8  A    between atoms: C_32  and  C_33 
REMARK    9  A    between atoms: C_33  and  O_34 
ROOT
HETATM    1  C   UNL     1      -4.940   0.074 -33.246  1.00  0.00     0.051 C 
HETATM    2  N   UNL     1      -5.996  -0.023 -34.156  1.00  0.00    -0.228 NA
HETATM    3  C   UNL     1      -7.030   0.712 -33.912  1.00  0.00     0.170 C 
HETATM    4  N   UNL     1      -7.035   1.817 -32.817  1.00  0.00    -0.318 N 
HETATM    5  C   UNL     1      -8.199   1.875 -32.255  1.00  0.00     0.011 C 
HETATM    6  C   UNL     1      -5.661   2.346 -32.701  1.00  0.00     0.166 C 
HETATM    7  S   UNL     1      -8.608   0.471 -34.558  1.00  0.00    -0.086 SA
HETATM    8  C   UNL     1      -9.316   1.190 -33.033  1.00  0.00     0.135 C 
HETATM    9  C   UNL     1      -4.766   1.175 -32.472  1.00  0.00     0.069 C 
ENDROOT
BRANCH   5  10
HETATM   10  C   UNL     1      -8.409   2.520 -30.915  1.00  0.00     0.156 C 
BRANCH  10  11
HETATM   11  C   UNL     1      -9.386   3.679 -30.975  1.00  0.00     0.223 C 
HETATM   12  N   UNL     1     -10.654   3.436 -30.515  1.00  0.00    -0.359 N 
HETATM   13  H   UNL     1     -10.884   2.528 -30.115  1.00  0.00     0.162 HD
HETATM   14  O   UNL     1      -9.075   4.761 -31.466  1.00  0.00    -0.273 OA
BRANCH  12  15
HETATM   15  C   UNL     1     -11.789   4.342 -30.742  1.00  0.00     0.150 C 
BRANCH  15  16
HETATM   16  C   UNL     1     -12.974   3.752 -31.542  1.00  0.00     0.254 C 
BRANCH  16  17
HETATM   17  N   UNL     1     -12.517   2.977 -32.765  1.00  0.00    -0.070 N 
HETATM   18  H   UNL     1     -11.637   2.494 -32.500  1.00  0.00     0.279 HD
HETATM   19  C   UNL     1     -13.480   1.888 -33.182  1.00  0.00     0.235 C 
HETATM   20  C   UNL     1     -12.848   1.055 -34.289  1.00  0.00     0.028 C 
HETATM   21  C   UNL     1     -12.433   1.915 -35.476  1.00  0.00     0.003 C 
HETATM   22  C   UNL     1     -11.544   3.074 -35.038  1.00  0.00     0.028 C 
HETATM   23  C   UNL     1     -12.182   3.888 -33.923  1.00  0.00     0.235 C 
ENDBRANCH  16  17
ENDBRANCH  15  16
ENDBRANCH  12  15
ENDBRANCH  10  11
ENDBRANCH   5  10
BRANCH   6  24
HETATM   24  C   UNL     1      -5.541   3.717 -32.041  1.00  0.00    -0.024 A 
HETATM   25  C   UNL     1      -5.311   4.874 -32.844  1.00  0.00    -0.053 A 
HETATM   26  C   UNL     1      -5.120   4.829 -34.343  1.00  0.00     0.049 C 
HETATM   27  C   UNL     1      -5.189   6.137 -32.238  1.00  0.00     0.008 A 
HETATM   28  C   UNL     1      -5.301   6.285 -30.861  1.00  0.00     0.007 A 
HETATM   29  C   UNL     1      -5.528   5.173 -30.056  1.00  0.00    -0.061 A 
HETATM   30  C   UNL     1      -5.660   5.342 -28.569  1.00  0.00     0.048 C 
HETATM   31  C   UNL     1      -5.665   3.908 -30.650  1.00  0.00     0.017 A 
ENDBRANCH   6  24
BRANCH   9  32
HETATM   32  C   UNL     1      -3.965   1.082 -31.259  1.00  0.00     0.293 C 
HETATM   33  O   UNL     1      -2.939   1.737 -31.153  1.00  0.00    -0.259 OA
BRANCH  32  34
HETATM   34  O   UNL     1      -4.481   0.174 -30.417  1.00  0.00    -0.323 OA
HETATM   35  C   UNL     1      -5.587   0.623 -29.622  1.00  0.00     0.213 C 
ENDBRANCH  32  34
ENDBRANCH   9  32
BRANCH   1  36
HETATM   36  C   UNL     1      -4.114  -1.196 -33.128  1.00  0.00     0.056 C 
HETATM   37  C   UNL     1      -4.605  -2.284 -34.073  1.00  0.00     0.011 C 
ENDBRANCH   1  36
TORSDOF 9
ENDMDL
MODEL 6
REMARK VINA RESULT:      -7.5      2.431      6.588
REMARK  9 active torsions:
REMARK  status: ('A' for Active; 'I' for Inactive)
REMARK    1  A    between atoms: C_2  and  C_3 
REMARK    2  A    between atoms: C_7  and  C_8 
REMARK    3  A    between atoms: C_8  and  C_9 
REMARK       I    between atoms: C_9  and  N_10 
REMARK    4  A    between atoms: N_10  and  C_11 
REMARK    5  A    between atoms: C_11  and  C_12 
REMARK    6  A    between atoms: C_12  and  N_13 
REMARK    7  A    between atoms: C_21  and  C_22 
REMARK    8  A    between atoms: C_32  and  C_33 
REMARK    9  A    between atoms: C_33  and  O_34 
ROOT
HETATM    1  C   UNL     1      -7.705   3.540 -29.833  1.00  0.00     0.051 C 
HETATM    2  N   UNL     1      -8.731   4.275 -30.434  1.00  0.00    -0.228 NA
HETATM    3  C   UNL     1      -8.749   4.279 -31.726  1.00  0.00     0.170 C 
HETATM    4  N   UNL     1      -7.844   3.347 -32.582  1.00  0.00    -0.318 N 
HETATM    5  C   UNL     1      -7.469   3.964 -33.656  1.00  0.00     0.011 C 
HETATM    6  C   UNL     1      -7.615   2.108 -31.813  1.00  0.00     0.166 C 
HETATM    7  S   UNL     1      -9.569   5.427 -32.714  1.00  0.00    -0.086 SA
HETATM    8  C   UNL     1      -8.285   5.204 -33.997  1.00  0.00     0.135 C 
HETATM    9  C   UNL     1      -7.088   2.519 -30.479  1.00  0.00     0.069 C 
ENDROOT
BRANCH   5  10
HETATM   10  C   UNL     1      -6.284   3.515 -34.462  1.00  0.00     0.156 C 
BRANCH  10  11
HETATM   11  C   UNL     1      -5.102   4.456 -34.331  1.00  0.00     0.223 C 
HETATM   12  N   UNL     1      -4.736   4.809 -33.057  1.00  0.00    -0.359 N 
HETATM   13  H   UNL     1      -5.224   4.405 -32.259  1.00  0.00     0.162 HD
HETATM   14  O   UNL     1      -4.537   4.926 -35.315  1.00  0.00    -0.273 OA
BRANCH  12  15
HETATM   15  C   UNL     1      -3.805   5.903 -32.751  1.00  0.00     0.150 C 
BRANCH  15  16
HETATM   16  C   UNL     1      -3.643   6.253 -31.253  1.00  0.00     0.254 C 
BRANCH  16  17
HETATM   17  N   UNL     1      -2.276   6.833 -30.939  1.00  0.00    -0.070 N 
HETATM   18  H   UNL     1      -2.221   7.747 -31.430  1.00  0.00     0.279 HD
HETATM   19  C   UNL     1      -2.074   7.138 -29.471  1.00  0.00     0.235 C 
HETATM   20  C   UNL     1      -0.760   7.884 -29.288  1.00  0.00     0.028 C 
HETATM   21  C   UNL     1       0.416   7.104 -29.862  1.00  0.00     0.003 C 
HETATM   22  C   UNL     1       0.166   6.710 -31.313  1.00  0.00     0.028 C 
HETATM   23  C   UNL     1      -1.156   5.978 -31.482  1.00  0.00     0.235 C 
ENDBRANCH  16  17
ENDBRANCH  15  16
ENDBRANCH  12  15
ENDBRANCH  10  11
ENDBRANCH   5  10
BRANCH   6  24
HETATM   24  C   UNL     1      -7.158   0.905 -32.632  1.00  0.00    -0.024 A 
HETATM   25  C   UNL     1      -8.116   0.132 -33.355  1.00  0.00    -0.053 A 
HETATM   26  C   UNL     1      -9.604   0.399 -33.323  1.00  0.00     0.049 C 
HETATM   27  C   UNL     1      -7.699  -0.984 -34.102  1.00  0.00     0.008 A 
HETATM   28  C   UNL     1      -6.359  -1.346 -34.163  1.00  0.00     0.007 A 
HETATM   29  C   UNL     1      -5.405  -0.608 -33.469  1.00  0.00    -0.061 A 
HETATM   30  C   UNL     1      -3.956  -0.999 -33.548  1.00  0.00     0.048 C 
HETATM   31  C   UNL     1      -5.807   0.516 -32.730  1.00  0.00     0.017 A 
ENDBRANCH   6  24
BRANCH   9  32
HETATM   32  C   UNL     1      -5.773   2.076 -30.035  1.00  0.00     0.293 C 
HETATM   33  O   UNL     1      -5.669   1.080 -29.335  1.00  0.00    -0.259 OA
BRANCH  32  34
HETATM   34  O   UNL     1      -4.823   2.934 -30.435  1.00  0.00    -0.323 OA
HETATM   35  C   UNL     1      -3.664   2.339 -31.035  1.00  0.00     0.213 C 
ENDBRANCH  32  34
ENDBRANCH   9  32
BRANCH   1  36
HETATM   36  C   UNL     1      -7.282   4.076 -28.476  1.00  0.00     0.056 C 
HETATM   37  C   UNL     1      -6.936   5.558 -28.531  1.00  0.00     0.011 C 
ENDBRANCH   1  36
TORSDOF 9
ENDMDL
MODEL 7
REMARK VINA RESULT:      -7.4      1.888      2.489
REMARK  9 active torsions:
REMARK  status: ('A' for Active; 'I' for Inactive)
REMARK    1  A    between atoms: C_2  and  C_3 
REMARK    2  A    between atoms: C_7  and  C_8 
REMARK    3  A    between atoms: C_8  and  C_9 
REMARK       I    between atoms: C_9  and  N_10 
REMARK    4  A    between atoms: N_10  and  C_11 
REMARK    5  A    between atoms: C_11  and  C_12 
REMARK    6  A    between atoms: C_12  and  N_13 
REMARK    7  A    between atoms: C_21  and  C_22 
REMARK    8  A    between atoms: C_32  and  C_33 
REMARK    9  A    between atoms: C_33  and  O_34 
ROOT
HETATM    1  C   UNL     1      -3.157   7.057 -31.439  1.00  0.00     0.051 C 
HETATM    2  N   UNL     1      -4.233   7.849 -31.027  1.00  0.00    -0.228 NA
HETATM    3  C   UNL     1      -5.411   7.355 -31.216  1.00  0.00     0.170 C 
HETATM    4  N   UNL     1      -5.643   5.879 -31.653  1.00  0.00    -0.318 N 
HETATM    5  C   UNL     1      -6.661   5.811 -32.449  1.00  0.00     0.011 C 
HETATM    6  C   UNL     1      -4.538   5.066 -31.107  1.00  0.00     0.166 C 
HETATM    7  S   UNL     1      -6.882   8.249 -31.248  1.00  0.00    -0.086 SA
HETATM    8  C   UNL     1      -7.569   7.034 -32.429  1.00  0.00     0.135 C 
HETATM    9  C   UNL     1      -3.268   5.709 -31.553  1.00  0.00     0.069 C 
ENDROOT
BRANCH   5  10
HETATM   10  C   UNL     1      -6.886   4.637 -33.358  1.00  0.00     0.156 C 
BRANCH  10  11
HETATM   11  C   UNL     1      -8.318   4.136 -33.316  1.00  0.00     0.223 C 
HETATM   12  N   UNL     1      -8.640   3.285 -32.291  1.00  0.00    -0.359 N 
HETATM   13  H   UNL     1      -7.944   3.057 -31.583  1.00  0.00     0.162 HD
HETATM   14  O   UNL     1      -9.132   4.430 -34.188  1.00  0.00    -0.273 OA
BRANCH  12  15
HETATM   15  C   UNL     1      -9.881   2.500 -32.245  1.00  0.00     0.150 C 
BRANCH  15  16
HETATM   16  C   UNL     1      -9.959   1.302 -33.221  1.00  0.00     0.254 C 
BRANCH  16  17
HETATM   17  N   UNL     1      -8.592   0.729 -33.543  1.00  0.00    -0.070 N 
HETATM   18  H   UNL     1      -7.900   1.287 -33.005  1.00  0.00     0.279 HD
HETATM   19  C   UNL     1      -8.416  -0.703 -33.087  1.00  0.00     0.235 C 
HETATM   20  C   UNL     1      -6.965  -1.119 -33.283  1.00  0.00     0.028 C 
HETATM   21  C   UNL     1      -6.516  -0.937 -34.728  1.00  0.00     0.003 C 
HETATM   22  C   UNL     1      -6.787   0.481 -35.218  1.00  0.00     0.028 C 
HETATM   23  C   UNL     1      -8.237   0.887 -35.003  1.00  0.00     0.235 C 
ENDBRANCH  16  17
ENDBRANCH  15  16
ENDBRANCH  12  15
ENDBRANCH  10  11
ENDBRANCH   5  10
BRANCH   6  24
HETATM   24  C   UNL     1      -4.809   3.567 -31.021  1.00  0.00    -0.024 A 
HETATM   25  C   UNL     1      -5.816   3.077 -30.135  1.00  0.00    -0.053 A 
HETATM   26  C   UNL     1      -6.621   3.961 -29.210  1.00  0.00     0.049 C 
HETATM   27  C   UNL     1      -6.060   1.695 -30.046  1.00  0.00     0.008 A 
HETATM   28  C   UNL     1      -5.344   0.789 -30.818  1.00  0.00     0.007 A 
HETATM   29  C   UNL     1      -4.359   1.242 -31.691  1.00  0.00    -0.061 A 
HETATM   30  C   UNL     1      -3.596   0.256 -32.531  1.00  0.00     0.048 C 
HETATM   31  C   UNL     1      -4.115   2.620 -31.799  1.00  0.00     0.017 A 
ENDBRANCH   6  24
BRANCH   9  32
HETATM   32  C   UNL     1      -2.319   4.977 -32.381  1.00  0.00     0.293 C 
HETATM   33  O   UNL     1      -1.300   4.521 -31.883  1.00  0.00    -0.259 OA
BRANCH  32  34
HETATM   34  O   UNL     1      -2.707   4.980 -33.664  1.00  0.00    -0.323 OA
HETATM   35  C   UNL     1      -1.658   5.127 -34.630  1.00  0.00     0.213 C 
ENDBRANCH  32  34
ENDBRANCH   9  32
BRANCH   1  36
HETATM   36  C   UNL     1      -1.933   7.855 -31.855  1.00  0.00     0.056 C 
HETATM   37  C   UNL     1      -2.012   9.303 -31.391  1.00  0.00     0.011 C 
ENDBRANCH   1  36
TORSDOF 9
ENDMDL
MODEL 8
REMARK VINA RESULT:      -7.4      2.554      8.041
REMARK  9 active torsions:
REMARK  status: ('A' for Active; 'I' for Inactive)
REMARK    1  A    between atoms: C_2  and  C_3 
REMARK    2  A    between atoms: C_7  and  C_8 
REMARK    3  A    between atoms: C_8  and  C_9 
REMARK       I    between atoms: C_9  and  N_10 
REMARK    4  A    between atoms: N_10  and  C_11 
REMARK    5  A    between atoms: C_11  and  C_12 
REMARK    6  A    between atoms: C_12  and  N_13 
REMARK    7  A    between atoms: C_21  and  C_22 
REMARK    8  A    between atoms: C_32  and  C_33 
REMARK    9  A    between atoms: C_33  and  O_34 
ROOT
HETATM    1  C   UNL     1      -6.773  -0.391 -32.829  1.00  0.00     0.051 C 
HETATM    2  N   UNL     1      -5.621  -0.412 -32.036  1.00  0.00    -0.228 NA
HETATM    3  C   UNL     1      -5.026   0.720 -31.862  1.00  0.00     0.170 C 
HETATM    4  N   UNL     1      -5.656   2.076 -32.297  1.00  0.00    -0.318 N 
HETATM    5  C   UNL     1      -4.731   2.875 -32.719  1.00  0.00     0.011 C 
HETATM    6  C   UNL     1      -7.123   1.946 -32.196  1.00  0.00     0.166 C 
HETATM    7  S   UNL     1      -3.395   0.930 -31.352  1.00  0.00    -0.086 SA
HETATM    8  C   UNL     1      -3.315   2.478 -32.323  1.00  0.00     0.135 C 
HETATM    9  C   UNL     1      -7.505   0.741 -32.990  1.00  0.00     0.069 C 
ENDROOT
BRANCH   5  10
HETATM   10  C   UNL     1      -5.037   4.067 -33.581  1.00  0.00     0.156 C 
BRANCH  10  11
HETATM   11  C   UNL     1      -4.531   5.364 -32.979  1.00  0.00     0.223 C 
HETATM   12  N   UNL     1      -3.491   5.977 -33.629  1.00  0.00    -0.359 N 
HETATM   13  H   UNL     1      -3.131   5.582 -34.496  1.00  0.00     0.162 HD
HETATM   14  O   UNL     1      -4.987   5.812 -31.930  1.00  0.00    -0.273 OA
BRANCH  12  15
HETATM   15  C   UNL     1      -2.706   7.077 -33.052  1.00  0.00     0.150 C 
BRANCH  15  16
HETATM   16  C   UNL     1      -1.175   6.993 -33.256  1.00  0.00     0.254 C 
BRANCH  16  17
HETATM   17  N   UNL     1      -0.429   6.770 -31.953  1.00  0.00    -0.070 N 
HETATM   18  H   UNL     1       0.516   7.183 -32.076  1.00  0.00     0.279 HD
HETATM   19  C   UNL     1      -1.047   7.488 -30.775  1.00  0.00     0.235 C 
HETATM   20  C   UNL     1      -0.129   7.358 -29.568  1.00  0.00     0.028 C 
HETATM   21  C   UNL     1       0.165   5.899 -29.238  1.00  0.00     0.003 C 
HETATM   22  C   UNL     1       0.694   5.150 -30.457  1.00  0.00     0.028 C 
HETATM   23  C   UNL     1      -0.227   5.302 -31.657  1.00  0.00     0.235 C 
ENDBRANCH  16  17
ENDBRANCH  15  16
ENDBRANCH  12  15
ENDBRANCH  10  11
ENDBRANCH   5  10
BRANCH   6  24
HETATM   24  C   UNL     1      -7.894   3.261 -32.127  1.00  0.00    -0.024 A 
HETATM   25  C   UNL     1      -8.078   3.910 -30.869  1.00  0.00    -0.053 A 
HETATM   26  C   UNL     1      -7.594   3.342 -29.554  1.00  0.00     0.049 C 
HETATM   27  C   UNL     1      -8.797   5.116 -30.800  1.00  0.00     0.008 A 
HETATM   28  C   UNL     1      -9.326   5.702 -31.943  1.00  0.00     0.007 A 
HETATM   29  C   UNL     1      -9.158   5.090 -33.182  1.00  0.00    -0.061 A 
HETATM   30  C   UNL     1      -9.724   5.736 -34.416  1.00  0.00     0.048 C 
HETATM   31  C   UNL     1      -8.431   3.893 -33.266  1.00  0.00     0.017 A 
ENDBRANCH   6  24
BRANCH   9  32
HETATM   32  C   UNL     1      -8.405   0.859 -34.129  1.00  0.00     0.293 C 
HETATM   33  O   UNL     1      -7.968   1.200 -35.218  1.00  0.00    -0.259 OA
BRANCH  32  34
HETATM   34  O   UNL     1      -9.672   0.625 -33.759  1.00  0.00    -0.323 OA
HETATM   35  C   UNL     1     -10.660   1.470 -34.364  1.00  0.00     0.213 C 
ENDBRANCH  32  34
ENDBRANCH   9  32
BRANCH   1  36
HETATM   36  C   UNL     1      -7.032  -1.692 -33.568  1.00  0.00     0.056 C 
HETATM   37  C   UNL     1      -5.976  -1.964 -34.631  1.00  0.00     0.011 C 
ENDBRANCH   1  36
TORSDOF 9
ENDMDL
MODEL 9
REMARK VINA RESULT:      -7.3      2.267      4.289
REMARK  9 active torsions:
REMARK  status: ('A' for Active; 'I' for Inactive)
REMARK    1  A    between atoms: C_2  and  C_3 
REMARK    2  A    between atoms: C_7  and  C_8 
REMARK    3  A    between atoms: C_8  and  C_9 
REMARK       I    between atoms: C_9  and  N_10 
REMARK    4  A    between atoms: N_10  and  C_11 
REMARK    5  A    between atoms: C_11  and  C_12 
REMARK    6  A    between atoms: C_12  and  N_13 
REMARK    7  A    between atoms: C_21  and  C_22 
REMARK    8  A    between atoms: C_32  and  C_33 
REMARK    9  A    between atoms: C_33  and  O_34 
ROOT
HETATM    1  C   UNL     1      -3.054   6.326 -33.315  1.00  0.00     0.051 C 
HETATM    2  N   UNL     1      -4.234   6.058 -34.015  1.00  0.00    -0.228 NA
HETATM    3  C   UNL     1      -5.195   5.531 -33.332  1.00  0.00     0.170 C 
HETATM    4  N   UNL     1      -5.156   5.409 -31.781  1.00  0.00    -0.318 N 
HETATM    5  C   UNL     1      -5.729   4.309 -31.412  1.00  0.00     0.011 C 
HETATM    6  C   UNL     1      -4.360   6.537 -31.258  1.00  0.00     0.166 C 
HETATM    7  S   UNL     1      -6.545   4.686 -33.987  1.00  0.00    -0.086 SA
HETATM    8  C   UNL     1      -6.607   3.660 -32.474  1.00  0.00     0.135 C 
HETATM    9  C   UNL     1      -3.049   6.507 -31.970  1.00  0.00     0.069 C 
ENDROOT
BRANCH   5  10
HETATM   10  C   UNL     1      -5.494   3.701 -30.059  1.00  0.00     0.156 C 
BRANCH  10  11
HETATM   11  C   UNL     1      -5.399   2.188 -30.111  1.00  0.00     0.223 C 
HETATM   12  N   UNL     1      -4.308   1.664 -30.756  1.00  0.00    -0.359 N 
HETATM   13  H   UNL     1      -3.592   2.284 -31.129  1.00  0.00     0.162 HD
HETATM   14  O   UNL     1      -6.282   1.469 -29.651  1.00  0.00    -0.273 OA
BRANCH  12  15
HETATM   15  C   UNL     1      -4.190   0.249 -31.135  1.00  0.00     0.150 C 
BRANCH  15  16
HETATM   16  C   UNL     1      -3.466  -0.033 -32.473  1.00  0.00     0.254 C 
BRANCH  16  17
HETATM   17  N   UNL     1      -4.376  -0.691 -33.494  1.00  0.00    -0.070 N 
HETATM   18  H   UNL     1      -4.043  -0.385 -34.430  1.00  0.00     0.279 HD
HETATM   19  C   UNL     1      -4.288  -2.201 -33.495  1.00  0.00     0.235 C 
HETATM   20  C   UNL     1      -5.086  -2.750 -34.670  1.00  0.00     0.028 C 
HETATM   21  C   UNL     1      -6.534  -2.277 -34.640  1.00  0.00     0.003 C 
HETATM   22  C   UNL     1      -6.619  -0.758 -34.536  1.00  0.00     0.028 C 
HETATM   23  C   UNL     1      -5.807  -0.224 -33.367  1.00  0.00     0.235 C 
ENDBRANCH  16  17
ENDBRANCH  15  16
ENDBRANCH  12  15
ENDBRANCH  10  11
ENDBRANCH   5  10
BRANCH   6  24
HETATM   24  C   UNL     1      -4.580   6.866 -29.785  1.00  0.00    -0.024 A 
HETATM   25  C   UNL     1      -5.842   7.372 -29.350  1.00  0.00    -0.053 A 
HETATM   26  C   UNL     1      -6.994   7.663 -30.284  1.00  0.00     0.049 C 
HETATM   27  C   UNL     1      -6.044   7.685 -27.994  1.00  0.00     0.008 A 
HETATM   28  C   UNL     1      -5.035   7.499 -27.058  1.00  0.00     0.007 A 
HETATM   29  C   UNL     1      -3.796   7.005 -27.456  1.00  0.00    -0.061 A 
HETATM   30  C   UNL     1      -2.713   6.796 -26.434  1.00  0.00     0.048 C 
HETATM   31  C   UNL     1      -3.586   6.676 -28.804  1.00  0.00     0.017 A 
ENDBRANCH   6  24
BRANCH   9  32
HETATM   32  C   UNL     1      -1.807   6.342 -31.226  1.00  0.00     0.293 C 
HETATM   33  O   UNL     1      -1.430   5.224 -30.909  1.00  0.00    -0.259 OA
BRANCH  32  34
HETATM   34  O   UNL     1      -1.272   7.534 -30.927  1.00  0.00    -0.323 OA
HETATM   35  C   UNL     1      -0.164   7.505 -30.017  1.00  0.00     0.213 C 
ENDBRANCH  32  34
ENDBRANCH   9  32
BRANCH   1  36
HETATM   36  C   UNL     1      -1.803   6.265 -34.176  1.00  0.00     0.056 C 
HETATM   37  C   UNL     1      -1.704   4.955 -34.944  1.00  0.00     0.011 C 
ENDBRANCH   1  36
TORSDOF 9
ENDMDL
MODEL 10
REMARK VINA RESULT:      -7.2      2.695      7.557
REMARK  9 active torsions:
REMARK  status: ('A' for Active; 'I' for Inactive)
REMARK    1  A    between atoms: C_2  and  C_3 
REMARK    2  A    between atoms: C_7  and  C_8 
REMARK    3  A    between atoms: C_8  and  C_9 
REMARK       I    between atoms: C_9  and  N_10 
REMARK    4  A    between atoms: N_10  and  C_11 
REMARK    5  A    between atoms: C_11  and  C_12 
REMARK    6  A    between atoms: C_12  and  N_13 
REMARK    7  A    between atoms: C_21  and  C_22 
REMARK    8  A    between atoms: C_32  and  C_33 
REMARK    9  A    between atoms: C_33  and  O_34 
ROOT
HETATM    1  C   UNL     1      -9.977   2.361 -34.158  1.00  0.00     0.051 C 
HETATM    2  N   UNL     1     -10.305   3.720 -34.153  1.00  0.00    -0.228 NA
HETATM    3  C   UNL     1      -9.664   4.459 -33.309  1.00  0.00     0.170 C 
HETATM    4  N   UNL     1      -8.437   3.943 -32.503  1.00  0.00    -0.318 N 
HETATM    5  C   UNL     1      -8.439   4.464 -31.318  1.00  0.00     0.011 C 
HETATM    6  C   UNL     1      -7.748   2.930 -33.326  1.00  0.00     0.166 C 
HETATM    7  S   UNL     1     -10.159   6.014 -32.759  1.00  0.00    -0.086 SA
HETATM    8  C   UNL     1      -9.336   5.684 -31.159  1.00  0.00     0.135 C 
HETATM    9  C   UNL     1      -8.775   1.917 -33.712  1.00  0.00     0.069 C 
ENDROOT
BRANCH   5  10
HETATM   10  C   UNL     1      -7.657   3.867 -30.183  1.00  0.00     0.156 C 
BRANCH  10  11
HETATM   11  C   UNL     1      -6.256   4.440 -30.078  1.00  0.00     0.223 C 
HETATM   12  N   UNL     1      -6.074   5.709 -30.566  1.00  0.00    -0.359 N 
HETATM   13  H   UNL     1      -6.869   6.231 -30.930  1.00  0.00     0.162 HD
HETATM   14  O   UNL     1      -5.319   3.781 -29.635  1.00  0.00    -0.273 OA
BRANCH  12  15
HETATM   15  C   UNL     1      -4.753   6.312 -30.792  1.00  0.00     0.150 C 
BRANCH  15  16
HETATM   16  C   UNL     1      -3.989   6.759 -29.523  1.00  0.00     0.254 C 
BRANCH  16  17
HETATM   17  N   UNL     1      -2.513   6.413 -29.585  1.00  0.00    -0.070 N 
HETATM   18  H   UNL     1      -2.369   5.605 -28.948  1.00  0.00     0.279 HD
HETATM   19  C   UNL     1      -2.059   5.951 -30.952  1.00  0.00     0.235 C 
HETATM   20  C   UNL     1      -0.624   5.452 -30.864  1.00  0.00     0.028 C 
HETATM   21  C   UNL     1       0.309   6.516 -30.299  1.00  0.00     0.003 C 
HETATM   22  C   UNL     1      -0.204   7.054 -28.968  1.00  0.00     0.028 C 
HETATM   23  C   UNL     1      -1.643   7.535 -29.068  1.00  0.00     0.235 C 
ENDBRANCH  16  17
ENDBRANCH  15  16
ENDBRANCH  12  15
ENDBRANCH  10  11
ENDBRANCH   5  10
BRANCH   6  24
HETATM   24  C   UNL     1      -6.301   2.644 -32.938  1.00  0.00    -0.024 A 
HETATM   25  C   UNL     1      -5.270   3.555 -33.320  1.00  0.00    -0.053 A 
HETATM   26  C   UNL     1      -5.513   4.794 -34.152  1.00  0.00     0.049 C 
HETATM   27  C   UNL     1      -3.934   3.289 -32.973  1.00  0.00     0.008 A 
HETATM   28  C   UNL     1      -3.593   2.154 -32.248  1.00  0.00     0.007 A 
HETATM   29  C   UNL     1      -4.580   1.251 -31.862  1.00  0.00    -0.061 A 
HETATM   30  C   UNL     1      -4.206   0.030 -31.069  1.00  0.00     0.048 C 
HETATM   31  C   UNL     1      -5.920   1.512 -32.191  1.00  0.00     0.017 A 
ENDBRANCH   6  24
BRANCH   9  32
HETATM   32  C   UNL     1      -8.624   0.524 -33.316  1.00  0.00     0.293 C 
HETATM   33  O   UNL     1      -8.953   0.169 -32.194  1.00  0.00    -0.259 OA
BRANCH  32  34
HETATM   34  O   UNL     1      -8.042  -0.187 -34.293  1.00  0.00    -0.323 OA
HETATM   35  C   UNL     1      -7.241  -1.295 -33.861  1.00  0.00     0.213 C 
ENDBRANCH  32  34
ENDBRANCH   9  32
BRANCH   1  36
HETATM   36  C   UNL     1     -11.123   1.457 -34.579  1.00  0.00     0.056 C 
HETATM   37  C   UNL     1     -12.208   2.221 -35.325  1.00  0.00     0.011 C 
ENDBRANCH   1  36
TORSDOF 9
ENDMDL
