MODEL 1
REMARK VINA RESULT:      -8.1      0.000      0.000
REMARK  7 active torsions:
REMARK  status: ('A' for Active; 'I' for Inactive)
REMARK    1  A    between atoms: C_3  and  C_4 
REMARK    2  A    between atoms: C_4  and  N_5 
REMARK       I    between atoms: N_5  and  C_6 
REMARK    3  A    between atoms: C_6  and  C_7 
REMARK    4  A    between atoms: C_7  and  N_8 
REMARK    5  A    between atoms: C_10  and  C_11 
REMARK    6  A    between atoms: C_11  and  N_12 
REMARK       I    between atoms: N_12  and  C_13 
REMARK       I    between atoms: C_13  and  N_14 
REMARK    7  A    between atoms: N_14  and  C_15 
ROOT
HETATM    1  N   UNL     1      -4.418   4.330 -30.408  1.00  0.00    -0.057 N 
HETATM    2  H   UNL     1      -3.784   4.101 -29.613  1.00  0.00     0.281 HD
HETATM    3  C   UNL     1      -4.014   3.353 -31.508  1.00  0.00     0.206 C 
HETATM    4  C   UNL     1      -2.539   3.595 -31.876  1.00  0.00     0.035 C 
HETATM    5  C   UNL     1      -2.265   5.050 -32.238  1.00  0.00     0.004 C 
HETATM    6  C   UNL     1      -2.714   5.980 -31.120  1.00  0.00     0.028 C 
HETATM    7  C   UNL     1      -4.180   5.768 -30.781  1.00  0.00     0.236 C 
ENDROOT
BRANCH   1   8
HETATM    8  C   UNL     1      -5.811   4.134 -29.802  1.00  0.00     0.337 C 
BRANCH   8   9
HETATM    9  C   UNL     1      -6.969   4.038 -30.801  1.00  0.00     0.243 C 
HETATM   10  N   UNL     1      -7.489   2.774 -30.945  1.00  0.00    -0.355 N 
HETATM   11  H   UNL     1      -7.226   2.026 -30.314  1.00  0.00     0.162 HD
HETATM   12  O   UNL     1      -7.382   5.010 -31.428  1.00  0.00    -0.272 OA
BRANCH  10  13
HETATM   13  C   UNL     1      -8.676   2.541 -31.745  1.00  0.00     0.169 C 
BRANCH  13  14
HETATM   14  C   UNL     1      -8.308   1.737 -32.955  1.00  0.00     0.006 A 
HETATM   15  C   UNL     1      -8.914   0.591 -33.455  1.00  0.00    -0.047 A 
HETATM   16  C   UNL     1     -10.099  -0.094 -32.853  1.00  0.00     0.049 C 
HETATM   17  C   UNL     1      -8.247   0.126 -34.637  1.00  0.00     0.015 A 
HETATM   18  C   UNL     1      -7.168   0.906 -34.983  1.00  0.00     0.051 A 
HETATM   19  S   UNL     1      -6.936   2.192 -33.890  1.00  0.00    -0.104 SA
ENDBRANCH  13  14
ENDBRANCH  10  13
ENDBRANCH   8   9
ENDBRANCH   1   8
BRANCH   3  20
HETATM   20  C   UNL     1      -4.256   1.861 -31.136  1.00  0.00     0.157 C 
BRANCH  20  21
HETATM   21  N   UNL     1      -3.943   0.811 -32.104  1.00  0.00    -0.341 N 
HETATM   22  C   UNL     1      -4.638  -0.351 -32.327  1.00  0.00     0.320 C 
HETATM   23  N   UNL     1      -4.221  -0.991 -33.465  1.00  0.00    -0.309 N 
HETATM   24  O   UNL     1      -5.530  -0.721 -31.570  1.00  0.00    -0.247 OA
HETATM   25  H   UNL     1      -3.742  -0.429 -34.155  1.00  0.00     0.170 HD
HETATM   26  H   UNL     1      -3.175   1.001 -32.737  1.00  0.00     0.164 HD
BRANCH  23  27
HETATM   27  C   UNL     1      -4.616  -2.275 -33.899  1.00  0.00     0.036 A 
HETATM   28  C   UNL     1      -3.812  -3.359 -33.528  1.00  0.00     0.029 A 
HETATM   29  C   UNL     1      -4.148  -4.658 -33.915  1.00  0.00     0.002 A 
HETATM   30  C   UNL     1      -5.302  -4.886 -34.660  1.00  0.00     0.000 A 
HETATM   31  C   UNL     1      -6.119  -3.815 -35.017  1.00  0.00     0.002 A 
HETATM   32  C   UNL     1      -5.776  -2.513 -34.639  1.00  0.00     0.029 A 
ENDBRANCH  23  27
ENDBRANCH  20  21
ENDBRANCH   3  20
TORSDOF 7
ENDMDL
MODEL 2
REMARK VINA RESULT:      -8.0      1.961      2.404
REMARK  7 active torsions:
REMARK  status: ('A' for Active; 'I' for Inactive)
REMARK    1  A    between atoms: C_3  and  C_4 
REMARK    2  A    between atoms: C_4  and  N_5 
REMARK       I    between atoms: N_5  and  C_6 
REMARK    3  A    between atoms: C_6  and  C_7 
REMARK    4  A    between atoms: C_7  and  N_8 
REMARK    5  A    between atoms: C_10  and  C_11 
REMARK    6  A    between atoms: C_11  and  N_12 
REMARK       I    between atoms: N_12  and  C_13 
REMARK       I    between atoms: C_13  and  N_14 
REMARK    7  A    between atoms: N_14  and  C_15 
ROOT
HETATM    1  N   UNL     1      -3.811   5.182 -33.488  1.00  0.00    -0.057 N 
HETATM    2  H   UNL     1      -4.147   5.860 -32.772  1.00  0.00     0.281 HD
HETATM    3  C   UNL     1      -3.182   4.054 -32.676  1.00  0.00     0.206 C 
HETATM    4  C   UNL     1      -2.016   4.623 -31.848  1.00  0.00     0.035 C 
HETATM    5  C   UNL     1      -1.008   5.374 -32.709  1.00  0.00     0.004 C 
HETATM    6  C   UNL     1      -1.693   6.466 -33.518  1.00  0.00     0.028 C 
HETATM    7  C   UNL     1      -2.821   5.900 -34.365  1.00  0.00     0.236 C 
ENDROOT
BRANCH   1   8
HETATM    8  C   UNL     1      -5.089   4.836 -34.258  1.00  0.00     0.337 C 
BRANCH   8   9
HETATM    9  C   UNL     1      -6.406   5.080 -33.515  1.00  0.00     0.243 C 
HETATM   10  N   UNL     1      -7.254   3.999 -33.496  1.00  0.00    -0.355 N 
HETATM   11  H   UNL     1      -6.943   3.085 -33.806  1.00  0.00     0.162 HD
HETATM   12  O   UNL     1      -6.681   6.158 -32.995  1.00  0.00    -0.272 OA
BRANCH  10  13
HETATM   13  C   UNL     1      -8.477   4.021 -32.715  1.00  0.00     0.169 C 
BRANCH  13  14
HETATM   14  C   UNL     1      -9.345   2.869 -33.123  1.00  0.00     0.006 A 
HETATM   15  C   UNL     1      -9.359   1.572 -32.623  1.00  0.00    -0.047 A 
HETATM   16  C   UNL     1      -8.469   1.052 -31.540  1.00  0.00     0.049 C 
HETATM   17  C   UNL     1     -10.342   0.770 -33.292  1.00  0.00     0.015 A 
HETATM   18  C   UNL     1     -11.019   1.462 -34.270  1.00  0.00     0.051 A 
HETATM   19  S   UNL     1     -10.476   3.070 -34.404  1.00  0.00    -0.104 SA
ENDBRANCH  13  14
ENDBRANCH  10  13
ENDBRANCH   8   9
ENDBRANCH   1   8
BRANCH   3  20
HETATM   20  C   UNL     1      -4.195   3.303 -31.765  1.00  0.00     0.157 C 
BRANCH  20  21
HETATM   21  N   UNL     1      -4.296   1.845 -31.839  1.00  0.00    -0.341 N 
HETATM   22  C   UNL     1      -4.945   1.102 -32.792  1.00  0.00     0.320 C 
HETATM   23  N   UNL     1      -4.637  -0.231 -32.704  1.00  0.00    -0.309 N 
HETATM   24  O   UNL     1      -5.691   1.623 -33.615  1.00  0.00    -0.247 OA
HETATM   25  H   UNL     1      -3.779  -0.471 -32.228  1.00  0.00     0.170 HD
HETATM   26  H   UNL     1      -3.760   1.325 -31.155  1.00  0.00     0.164 HD
BRANCH  23  27
HETATM   27  C   UNL     1      -5.242  -1.281 -33.428  1.00  0.00     0.036 A 
HETATM   28  C   UNL     1      -4.408  -2.291 -33.923  1.00  0.00     0.029 A 
HETATM   29  C   UNL     1      -4.940  -3.364 -34.640  1.00  0.00     0.002 A 
HETATM   30  C   UNL     1      -6.314  -3.447 -34.852  1.00  0.00     0.000 A 
HETATM   31  C   UNL     1      -7.153  -2.458 -34.346  1.00  0.00     0.002 A 
HETATM   32  C   UNL     1      -6.619  -1.377 -33.637  1.00  0.00     0.029 A 
ENDBRANCH  23  27
ENDBRANCH  20  21
ENDBRANCH   3  20
TORSDOF 7
ENDMDL
MODEL 3
REMARK VINA RESULT:      -8.0      3.048      6.551
REMARK  7 active torsions:
REMARK  status: ('A' for Active; 'I' for Inactive)
REMARK    1  A    between atoms: C_3  and  C_4 
REMARK    2  A    between atoms: C_4  and  N_5 
REMARK       I    between atoms: N_5  and  C_6 
REMARK    3  A    between atoms: C_6  and  C_7 
REMARK    4  A    between atoms: C_7  and  N_8 
REMARK    5  A    between atoms: C_10  and  C_11 
REMARK    6  A    between atoms: C_11  and  N_12 
REMARK       I    between atoms: N_12  and  C_13 
REMARK       I    between atoms: C_13  and  N_14 
REMARK    7  A    between atoms: N_14  and  C_15 
ROOT
HETATM    1  N   UNL     1      -7.679   1.275 -33.174  1.00  0.00    -0.057 N 
HETATM    2  H   UNL     1      -7.056   1.979 -33.623  1.00  0.00     0.281 HD
HETATM    3  C   UNL     1      -6.722   0.276 -32.533  1.00  0.00     0.206 C 
HETATM    4  C   UNL     1      -5.851  -0.360 -33.631  1.00  0.00     0.035 C 
HETATM    5  C   UNL     1      -6.687  -0.968 -34.752  1.00  0.00     0.004 C 
HETATM    6  C   UNL     1      -7.644   0.063 -35.334  1.00  0.00     0.028 C 
HETATM    7  C   UNL     1      -8.530   0.666 -34.256  1.00  0.00     0.236 C 
ENDROOT
BRANCH   1   8
HETATM    8  C   UNL     1      -8.520   2.123 -32.215  1.00  0.00     0.337 C 
BRANCH   8   9
HETATM    9  C   UNL     1      -9.628   2.964 -32.860  1.00  0.00     0.243 C 
HETATM   10  N   UNL     1     -10.888   2.703 -32.379  1.00  0.00    -0.355 N 
HETATM   11  H   UNL     1     -11.025   2.126 -31.557  1.00  0.00     0.162 HD
HETATM   12  O   UNL     1      -9.402   3.789 -33.742  1.00  0.00    -0.272 OA
BRANCH  10  13
HETATM   13  C   UNL     1     -12.024   3.509 -32.784  1.00  0.00     0.169 C 
BRANCH  13  14
HETATM   14  C   UNL     1     -13.155   2.608 -33.182  1.00  0.00     0.006 A 
HETATM   15  C   UNL     1     -13.264   1.796 -34.304  1.00  0.00    -0.047 A 
HETATM   16  C   UNL     1     -12.235   1.662 -35.380  1.00  0.00     0.049 C 
HETATM   17  C   UNL     1     -14.515   1.094 -34.314  1.00  0.00     0.015 A 
HETATM   18  C   UNL     1     -15.307   1.399 -33.232  1.00  0.00     0.051 A 
HETATM   19  S   UNL     1     -14.568   2.537 -32.203  1.00  0.00    -0.104 SA
ENDBRANCH  13  14
ENDBRANCH  10  13
ENDBRANCH   8   9
ENDBRANCH   1   8
BRANCH   3  20
HETATM   20  C   UNL     1      -5.836   0.893 -31.411  1.00  0.00     0.157 C 
BRANCH  20  21
HETATM   21  N   UNL     1      -4.545   1.490 -31.751  1.00  0.00    -0.341 N 
HETATM   22  C   UNL     1      -4.311   2.761 -32.215  1.00  0.00     0.320 C 
HETATM   23  N   UNL     1      -2.978   3.078 -32.196  1.00  0.00    -0.309 N 
HETATM   24  O   UNL     1      -5.228   3.491 -32.578  1.00  0.00    -0.247 OA
HETATM   25  H   UNL     1      -2.390   2.542 -31.575  1.00  0.00     0.170 HD
HETATM   26  H   UNL     1      -3.726   0.932 -31.544  1.00  0.00     0.164 HD
BRANCH  23  27
HETATM   27  C   UNL     1      -2.384   4.236 -32.743  1.00  0.00     0.036 A 
HETATM   28  C   UNL     1      -1.808   5.151 -31.852  1.00  0.00     0.029 A 
HETATM   29  C   UNL     1      -1.196   6.313 -32.326  1.00  0.00     0.002 A 
HETATM   30  C   UNL     1      -1.137   6.562 -33.694  1.00  0.00     0.000 A 
HETATM   31  C   UNL     1      -1.691   5.649 -34.588  1.00  0.00     0.002 A 
HETATM   32  C   UNL     1      -2.313   4.490 -34.114  1.00  0.00     0.029 A 
ENDBRANCH  23  27
ENDBRANCH  20  21
ENDBRANCH   3  20
TORSDOF 7
ENDMDL
MODEL 4
REMARK VINA RESULT:      -7.9      2.588      5.667
REMARK  7 active torsions:
REMARK  status: ('A' for Active; 'I' for Inactive)
REMARK    1  A    between atoms: C_3  and  C_4 
REMARK    2  A    between atoms: C_4  and  N_5 
REMARK       I    between atoms: N_5  and  C_6 
REMARK    3  A    between atoms: C_6  and  C_7 
REMARK    4  A    between atoms: C_7  and  N_8 
REMARK    5  A    between atoms: C_10  and  C_11 
REMARK    6  A    between atoms: C_11  and  N_12 
REMARK       I    between atoms: N_12  and  C_13 
REMARK       I    between atoms: C_13  and  N_14 
REMARK    7  A    between atoms: N_14  and  C_15 
ROOT
HETATM    1  N   UNL     1      -8.129   4.421 -33.860  1.00  0.00    -0.057 N 
HETATM    2  H   UNL     1      -7.644   4.052 -34.705  1.00  0.00     0.281 HD
HETATM    3  C   UNL     1      -8.634   3.174 -33.140  1.00  0.00     0.206 C 
HETATM    4  C   UNL     1      -9.605   2.419 -34.064  1.00  0.00     0.035 C 
HETATM    5  C   UNL     1     -10.731   3.312 -34.573  1.00  0.00     0.004 C 
HETATM    6  C   UNL     1     -10.172   4.553 -35.255  1.00  0.00     0.028 C 
HETATM    7  C   UNL     1      -9.241   5.320 -34.330  1.00  0.00     0.236 C 
ENDROOT
BRANCH   1   8
HETATM    8  C   UNL     1      -7.030   5.219 -33.153  1.00  0.00     0.337 C 
BRANCH   8   9
HETATM    9  C   UNL     1      -5.590   4.858 -33.534  1.00  0.00     0.243 C 
HETATM   10  N   UNL     1      -4.763   4.623 -32.462  1.00  0.00    -0.355 N 
HETATM   11  H   UNL     1      -5.136   4.537 -31.523  1.00  0.00     0.162 HD
HETATM   12  O   UNL     1      -5.210   4.800 -34.700  1.00  0.00    -0.272 OA
BRANCH  10  13
HETATM   13  C   UNL     1      -3.411   4.134 -32.653  1.00  0.00     0.169 C 
BRANCH  13  14
HETATM   14  C   UNL     1      -2.448   5.274 -32.510  1.00  0.00     0.006 A 
HETATM   15  C   UNL     1      -1.607   5.827 -33.469  1.00  0.00    -0.047 A 
HETATM   16  C   UNL     1      -1.492   5.369 -34.887  1.00  0.00     0.049 C 
HETATM   17  C   UNL     1      -0.837   6.906 -32.921  1.00  0.00     0.015 A 
HETATM   18  C   UNL     1      -1.098   7.125 -31.588  1.00  0.00     0.051 A 
HETATM   19  S   UNL     1      -2.255   6.035 -30.978  1.00  0.00    -0.104 SA
ENDBRANCH  13  14
ENDBRANCH  10  13
ENDBRANCH   8   9
ENDBRANCH   1   8
BRANCH   3  20
HETATM   20  C   UNL     1      -7.494   2.236 -32.647  1.00  0.00     0.157 C 
BRANCH  20  21
HETATM   21  N   UNL     1      -6.942   1.227 -33.550  1.00  0.00    -0.341 N 
HETATM   22  C   UNL     1      -6.710  -0.098 -33.278  1.00  0.00     0.320 C 
HETATM   23  N   UNL     1      -6.423  -0.814 -34.411  1.00  0.00    -0.309 N 
HETATM   24  O   UNL     1      -6.780  -0.541 -32.136  1.00  0.00    -0.247 OA
HETATM   25  H   UNL     1      -6.728  -0.420 -35.290  1.00  0.00     0.170 HD
HETATM   26  H   UNL     1      -6.790   1.520 -34.508  1.00  0.00     0.164 HD
BRANCH  23  27
HETATM   27  C   UNL     1      -5.990  -2.157 -34.467  1.00  0.00     0.036 A 
HETATM   28  C   UNL     1      -4.652  -2.419 -34.146  1.00  0.00     0.029 A 
HETATM   29  C   UNL     1      -4.159  -3.726 -34.173  1.00  0.00     0.002 A 
HETATM   30  C   UNL     1      -5.003  -4.783 -34.502  1.00  0.00     0.000 A 
HETATM   31  C   UNL     1      -6.340  -4.533 -34.804  1.00  0.00     0.002 A 
HETATM   32  C   UNL     1      -6.832  -3.224 -34.788  1.00  0.00     0.029 A 
ENDBRANCH  23  27
ENDBRANCH  20  21
ENDBRANCH   3  20
TORSDOF 7
ENDMDL
MODEL 5
REMARK VINA RESULT:      -7.8      2.958      6.101
REMARK  7 active torsions:
REMARK  status: ('A' for Active; 'I' for Inactive)
REMARK    1  A    between atoms: C_3  and  C_4 
REMARK    2  A    between atoms: C_4  and  N_5 
REMARK       I    between atoms: N_5  and  C_6 
REMARK    3  A    between atoms: C_6  and  C_7 
REMARK    4  A    between atoms: C_7  and  N_8 
REMARK    5  A    between atoms: C_10  and  C_11 
REMARK    6  A    between atoms: C_11  and  N_12 
REMARK       I    between atoms: N_12  and  C_13 
REMARK       I    between atoms: C_13  and  N_14 
REMARK    7  A    between atoms: N_14  and  C_15 
ROOT
HETATM    1  N   UNL     1      -4.172   3.796 -33.133  1.00  0.00    -0.057 N 
HETATM    2  H   UNL     1      -4.300   3.100 -33.898  1.00  0.00     0.281 HD
HETATM    3  C   UNL     1      -4.780   3.124 -31.905  1.00  0.00     0.206 C 
HETATM    4  C   UNL     1      -6.270   2.847 -32.172  1.00  0.00     0.035 C 
HETATM    5  C   UNL     1      -7.023   4.100 -32.602  1.00  0.00     0.004 C 
HETATM    6  C   UNL     1      -6.358   4.745 -33.810  1.00  0.00     0.028 C 
HETATM    7  C   UNL     1      -4.895   5.053 -33.535  1.00  0.00     0.236 C 
ENDROOT
BRANCH   1   8
HETATM    8  C   UNL     1      -2.655   4.008 -33.112  1.00  0.00     0.337 C 
BRANCH   8   9
HETATM    9  C   UNL     1      -2.181   5.416 -32.741  1.00  0.00     0.243 C 
HETATM   10  N   UNL     1      -2.360   5.743 -31.418  1.00  0.00    -0.355 N 
HETATM   11  H   UNL     1      -2.627   5.040 -30.737  1.00  0.00     0.162 HD
HETATM   12  O   UNL     1      -1.696   6.188 -33.564  1.00  0.00    -0.272 OA
BRANCH  10  13
HETATM   13  C   UNL     1      -1.836   6.983 -30.877  1.00  0.00     0.169 C 
BRANCH  13  14
HETATM   14  C   UNL     1      -1.015   6.683 -29.658  1.00  0.00     0.006 A 
HETATM   15  C   UNL     1       0.172   5.967 -29.565  1.00  0.00    -0.047 A 
HETATM   16  C   UNL     1       0.887   5.323 -30.710  1.00  0.00     0.049 C 
HETATM   17  C   UNL     1       0.634   5.905 -28.208  1.00  0.00     0.015 A 
HETATM   18  C   UNL     1      -0.205   6.549 -27.329  1.00  0.00     0.051 A 
HETATM   19  S   UNL     1      -1.558   7.220 -28.116  1.00  0.00    -0.104 SA
ENDBRANCH  13  14
ENDBRANCH  10  13
ENDBRANCH   8   9
ENDBRANCH   1   8
BRANCH   3  20
HETATM   20  C   UNL     1      -4.041   1.823 -31.478  1.00  0.00     0.157 C 
BRANCH  20  21
HETATM   21  N   UNL     1      -3.869   0.736 -32.440  1.00  0.00    -0.341 N 
HETATM   22  C   UNL     1      -4.618  -0.409 -32.548  1.00  0.00     0.320 C 
HETATM   23  N   UNL     1      -4.349  -1.094 -33.704  1.00  0.00    -0.309 N 
HETATM   24  O   UNL     1      -5.431  -0.728 -31.687  1.00  0.00    -0.247 OA
HETATM   25  H   UNL     1      -3.932  -0.569 -34.460  1.00  0.00     0.170 HD
HETATM   26  H   UNL     1      -3.170   0.882 -33.159  1.00  0.00     0.164 HD
BRANCH  23  27
HETATM   27  C   UNL     1      -4.827  -2.377 -34.050  1.00  0.00     0.036 A 
HETATM   28  C   UNL     1      -6.102  -2.459 -34.623  1.00  0.00     0.029 A 
HETATM   29  C   UNL     1      -6.634  -3.695 -34.998  1.00  0.00     0.002 A 
HETATM   30  C   UNL     1      -5.888  -4.857 -34.820  1.00  0.00     0.000 A 
HETATM   31  C   UNL     1      -4.611  -4.782 -34.268  1.00  0.00     0.002 A 
HETATM   32  C   UNL     1      -4.082  -3.546 -33.883  1.00  0.00     0.029 A 
ENDBRANCH  23  27
ENDBRANCH  20  21
ENDBRANCH   3  20
TORSDOF 7
ENDMDL
MODEL 6
REMARK VINA RESULT:      -7.7      2.701      3.973
REMARK  7 active torsions:
REMARK  status: ('A' for Active; 'I' for Inactive)
REMARK    1  A    between atoms: C_3  and  C_4 
REMARK    2  A    between atoms: C_4  and  N_5 
REMARK       I    between atoms: N_5  and  C_6 
REMARK    3  A    between atoms: C_6  and  C_7 
REMARK    4  A    between atoms: C_7  and  N_8 
REMARK    5  A    between atoms: C_10  and  C_11 
REMARK    6  A    between atoms: C_11  and  N_12 
REMARK       I    between atoms: N_12  and  C_13 
REMARK       I    between atoms: C_13  and  N_14 
REMARK    7  A    between atoms: N_14  and  C_15 
ROOT
HETATM    1  N   UNL     1      -7.916   2.706 -30.718  1.00  0.00    -0.057 N 
HETATM    2  H   UNL     1      -7.659   2.489 -29.732  1.00  0.00     0.281 HD
HETATM    3  C   UNL     1      -6.621   3.218 -31.343  1.00  0.00     0.206 C 
HETATM    4  C   UNL     1      -6.165   4.479 -30.588  1.00  0.00     0.035 C 
HETATM    5  C   UNL     1      -7.258   5.540 -30.523  1.00  0.00     0.004 C 
HETATM    6  C   UNL     1      -8.533   4.968 -29.921  1.00  0.00     0.028 C 
HETATM    7  C   UNL     1      -9.005   3.743 -30.687  1.00  0.00     0.236 C 
ENDROOT
BRANCH   1   8
HETATM    8  C   UNL     1      -8.439   1.364 -31.239  1.00  0.00     0.337 C 
BRANCH   8   9
HETATM    9  C   UNL     1      -9.066   1.387 -32.637  1.00  0.00     0.243 C 
HETATM   10  N   UNL     1     -10.386   1.005 -32.671  1.00  0.00    -0.355 N 
HETATM   11  H   UNL     1     -10.918   0.887 -31.817  1.00  0.00     0.162 HD
HETATM   12  O   UNL     1      -8.433   1.706 -33.640  1.00  0.00    -0.272 OA
BRANCH  10  13
HETATM   13  C   UNL     1     -11.162   1.107 -33.892  1.00  0.00     0.169 C 
BRANCH  13  14
HETATM   14  C   UNL     1     -12.577   1.466 -33.550  1.00  0.00     0.006 A 
HETATM   15  C   UNL     1     -13.070   2.654 -33.025  1.00  0.00    -0.047 A 
HETATM   16  C   UNL     1     -12.248   3.854 -32.679  1.00  0.00     0.049 C 
HETATM   17  C   UNL     1     -14.491   2.588 -32.839  1.00  0.00     0.015 A 
HETATM   18  C   UNL     1     -15.021   1.372 -33.205  1.00  0.00     0.051 A 
HETATM   19  S   UNL     1     -13.823   0.297 -33.761  1.00  0.00    -0.104 SA
ENDBRANCH  13  14
ENDBRANCH  10  13
ENDBRANCH   8   9
ENDBRANCH   1   8
BRANCH   3  20
HETATM   20  C   UNL     1      -5.485   2.154 -31.382  1.00  0.00     0.157 C 
BRANCH  20  21
HETATM   21  N   UNL     1      -5.375   1.251 -32.527  1.00  0.00    -0.341 N 
HETATM   22  C   UNL     1      -5.561  -0.109 -32.536  1.00  0.00     0.320 C 
HETATM   23  N   UNL     1      -5.627  -0.611 -33.810  1.00  0.00    -0.309 N 
HETATM   24  O   UNL     1      -5.665  -0.750 -31.496  1.00  0.00    -0.247 OA
HETATM   25  H   UNL     1      -5.867   0.039 -34.545  1.00  0.00     0.170 HD
HETATM   26  H   UNL     1      -5.225   1.688 -33.428  1.00  0.00     0.164 HD
BRANCH  23  27
HETATM   27  C   UNL     1      -5.658  -1.975 -34.174  1.00  0.00     0.036 A 
HETATM   28  C   UNL     1      -4.465  -2.700 -34.069  1.00  0.00     0.029 A 
HETATM   29  C   UNL     1      -4.427  -4.056 -34.404  1.00  0.00     0.002 A 
HETATM   30  C   UNL     1      -5.585  -4.702 -34.828  1.00  0.00     0.000 A 
HETATM   31  C   UNL     1      -6.780  -3.992 -34.916  1.00  0.00     0.002 A 
HETATM   32  C   UNL     1      -6.817  -2.633 -34.592  1.00  0.00     0.029 A 
ENDBRANCH  23  27
ENDBRANCH  20  21
ENDBRANCH   3  20
TORSDOF 7
ENDMDL
MODEL 7
REMARK VINA RESULT:      -7.7      2.416      4.929
REMARK  7 active torsions:
REMARK  status: ('A' for Active; 'I' for Inactive)
REMARK    1  A    between atoms: C_3  and  C_4 
REMARK    2  A    between atoms: C_4  and  N_5 
REMARK       I    between atoms: N_5  and  C_6 
REMARK    3  A    between atoms: C_6  and  C_7 
REMARK    4  A    between atoms: C_7  and  N_8 
REMARK    5  A    between atoms: C_10  and  C_11 
REMARK    6  A    between atoms: C_11  and  N_12 
REMARK       I    between atoms: N_12  and  C_13 
REMARK       I    between atoms: C_13  and  N_14 
REMARK    7  A    between atoms: N_14  and  C_15 
ROOT
HETATM    1  N   UNL     1      -7.077   4.483 -32.084  1.00  0.00    -0.057 N 
HETATM    2  H   UNL     1      -8.086   4.644 -31.878  1.00  0.00     0.281 HD
HETATM    3  C   UNL     1      -6.914   2.968 -32.015  1.00  0.00     0.206 C 
HETATM    4  C   UNL     1      -7.286   2.487 -30.601  1.00  0.00     0.035 C 
HETATM    5  C   UNL     1      -6.506   3.221 -29.517  1.00  0.00     0.004 C 
HETATM    6  C   UNL     1      -6.680   4.728 -29.651  1.00  0.00     0.028 C 
HETATM    7  C   UNL     1      -6.278   5.209 -31.035  1.00  0.00     0.236 C 
ENDROOT
BRANCH   1   8
HETATM    8  C   UNL     1      -6.901   5.125 -33.463  1.00  0.00     0.337 C 
BRANCH   8   9
HETATM    9  C   UNL     1      -5.577   4.829 -34.175  1.00  0.00     0.243 C 
HETATM   10  N   UNL     1      -4.573   5.724 -33.897  1.00  0.00    -0.355 N 
HETATM   11  H   UNL     1      -4.673   6.409 -33.156  1.00  0.00     0.162 HD
HETATM   12  O   UNL     1      -5.437   3.879 -34.941  1.00  0.00    -0.272 OA
BRANCH  10  13
HETATM   13  C   UNL     1      -3.222   5.506 -34.379  1.00  0.00     0.169 C 
BRANCH  13  14
HETATM   14  C   UNL     1      -2.264   5.599 -33.229  1.00  0.00     0.006 A 
HETATM   15  C   UNL     1      -2.108   4.730 -32.157  1.00  0.00    -0.047 A 
HETATM   16  C   UNL     1      -2.900   3.483 -31.930  1.00  0.00     0.049 C 
HETATM   17  C   UNL     1      -1.079   5.186 -31.266  1.00  0.00     0.015 A 
HETATM   18  C   UNL     1      -0.510   6.371 -31.672  1.00  0.00     0.051 A 
HETATM   19  S   UNL     1      -1.209   6.953 -33.112  1.00  0.00    -0.104 SA
ENDBRANCH  13  14
ENDBRANCH  10  13
ENDBRANCH   8   9
ENDBRANCH   1   8
BRANCH   3  20
HETATM   20  C   UNL     1      -7.734   2.203 -33.095  1.00  0.00     0.157 C 
BRANCH  20  21
HETATM   21  N   UNL     1      -7.085   1.178 -33.910  1.00  0.00    -0.341 N 
HETATM   22  C   UNL     1      -6.861  -0.135 -33.576  1.00  0.00     0.320 C 
HETATM   23  N   UNL     1      -6.457  -0.879 -34.653  1.00  0.00    -0.309 N 
HETATM   24  O   UNL     1      -7.033  -0.544 -32.432  1.00  0.00    -0.247 OA
HETATM   25  H   UNL     1      -6.682  -0.516 -35.569  1.00  0.00     0.170 HD
HETATM   26  H   UNL     1      -6.846   1.445 -34.857  1.00  0.00     0.164 HD
BRANCH  23  27
HETATM   27  C   UNL     1      -6.001  -2.215 -34.627  1.00  0.00     0.036 A 
HETATM   28  C   UNL     1      -4.688  -2.442 -34.197  1.00  0.00     0.029 A 
HETATM   29  C   UNL     1      -4.175  -3.740 -34.138  1.00  0.00     0.002 A 
HETATM   30  C   UNL     1      -4.976  -4.823 -34.490  1.00  0.00     0.000 A 
HETATM   31  C   UNL     1      -6.290  -4.607 -34.899  1.00  0.00     0.002 A 
HETATM   32  C   UNL     1      -6.801  -3.307 -34.969  1.00  0.00     0.029 A 
ENDBRANCH  23  27
ENDBRANCH  20  21
ENDBRANCH   3  20
TORSDOF 7
ENDMDL
MODEL 8
REMARK VINA RESULT:      -7.7      4.174      8.754
REMARK  7 active torsions:
REMARK  status: ('A' for Active; 'I' for Inactive)
REMARK    1  A    between atoms: C_3  and  C_4 
REMARK    2  A    between atoms: C_4  and  N_5 
REMARK       I    between atoms: N_5  and  C_6 
REMARK    3  A    between atoms: C_6  and  C_7 
REMARK    4  A    between atoms: C_7  and  N_8 
REMARK    5  A    between atoms: C_10  and  C_11 
REMARK    6  A    between atoms: C_11  and  N_12 
REMARK       I    between atoms: N_12  and  C_13 
REMARK       I    between atoms: C_13  and  N_14 
REMARK    7  A    between atoms: N_14  and  C_15 
ROOT
HETATM    1  N   UNL     1      -2.838   4.871 -32.410  1.00  0.00    -0.057 N 
HETATM    2  H   UNL     1      -3.742   5.322 -32.663  1.00  0.00     0.281 HD
HETATM    3  C   UNL     1      -2.058   5.964 -31.686  1.00  0.00     0.206 C 
HETATM    4  C   UNL     1      -1.849   7.150 -32.645  1.00  0.00     0.035 C 
HETATM    5  C   UNL     1      -1.202   6.724 -33.957  1.00  0.00     0.004 C 
HETATM    6  C   UNL     1      -2.003   5.612 -34.621  1.00  0.00     0.028 C 
HETATM    7  C   UNL     1      -2.179   4.426 -33.688  1.00  0.00     0.236 C 
ENDROOT
BRANCH   1   8
HETATM    8  C   UNL     1      -3.277   3.673 -31.563  1.00  0.00     0.337 C 
BRANCH   8   9
HETATM    9  C   UNL     1      -4.713   3.187 -31.784  1.00  0.00     0.243 C 
HETATM   10  N   UNL     1      -4.827   2.140 -32.666  1.00  0.00    -0.355 N 
HETATM   11  H   UNL     1      -4.007   1.643 -32.997  1.00  0.00     0.162 HD
HETATM   12  O   UNL     1      -5.678   3.703 -31.226  1.00  0.00    -0.272 OA
BRANCH  10  13
HETATM   13  C   UNL     1      -6.098   1.474 -32.876  1.00  0.00     0.169 C 
BRANCH  13  14
HETATM   14  C   UNL     1      -5.855   0.116 -33.464  1.00  0.00     0.006 A 
HETATM   15  C   UNL     1      -6.527  -0.515 -34.503  1.00  0.00    -0.047 A 
HETATM   16  C   UNL     1      -7.677   0.061 -35.266  1.00  0.00     0.049 C 
HETATM   17  C   UNL     1      -5.984  -1.818 -34.756  1.00  0.00     0.015 A 
HETATM   18  C   UNL     1      -4.948  -2.138 -33.909  1.00  0.00     0.051 A 
HETATM   19  S   UNL     1      -4.626  -0.889 -32.797  1.00  0.00    -0.104 SA
ENDBRANCH  13  14
ENDBRANCH  10  13
ENDBRANCH   8   9
ENDBRANCH   1   8
BRANCH   3  20
HETATM   20  C   UNL     1      -2.728   6.433 -30.362  1.00  0.00     0.157 C 
BRANCH  20  21
HETATM   21  N   UNL     1      -1.968   6.403 -29.113  1.00  0.00    -0.341 N 
HETATM   22  C   UNL     1      -1.206   7.410 -28.576  1.00  0.00     0.320 C 
HETATM   23  N   UNL     1      -0.834   7.142 -27.285  1.00  0.00    -0.309 N 
HETATM   24  O   UNL     1      -0.932   8.419 -29.217  1.00  0.00    -0.247 OA
HETATM   25  H   UNL     1      -1.392   6.468 -26.779  1.00  0.00     0.170 HD
HETATM   26  H   UNL     1      -2.083   5.575 -28.540  1.00  0.00     0.164 HD
BRANCH  23  27
HETATM   27  C   UNL     1       0.071   7.889 -26.500  1.00  0.00     0.036 A 
HETATM   28  C   UNL     1      -0.462   8.871 -25.655  1.00  0.00     0.029 A 
HETATM   29  C   UNL     1       0.374   9.641 -24.845  1.00  0.00     0.002 A 
HETATM   30  C   UNL     1       1.750   9.424 -24.858  1.00  0.00     0.000 A 
HETATM   31  C   UNL     1       2.287   8.437 -25.681  1.00  0.00     0.002 A 
HETATM   32  C   UNL     1       1.450   7.672 -26.500  1.00  0.00     0.029 A 
ENDBRANCH  23  27
ENDBRANCH  20  21
ENDBRANCH   3  20
TORSDOF 7
ENDMDL
MODEL 9
REMARK VINA RESULT:      -7.5      2.590      5.757
REMARK  7 active torsions:
REMARK  status: ('A' for Active; 'I' for Inactive)
REMARK    1  A    between atoms: C_3  and  C_4 
REMARK    2  A    between atoms: C_4  and  N_5 
REMARK       I    between atoms: N_5  and  C_6 
REMARK    3  A    between atoms: C_6  and  C_7 
REMARK    4  A    between atoms: C_7  and  N_8 
REMARK    5  A    between atoms: C_10  and  C_11 
REMARK    6  A    between atoms: C_11  and  N_12 
REMARK       I    between atoms: N_12  and  C_13 
REMARK       I    between atoms: C_13  and  N_14 
REMARK    7  A    between atoms: N_14  and  C_15 
ROOT
HETATM    1  N   UNL     1      -5.164   4.203 -32.096  1.00  0.00    -0.057 N 
HETATM    2  H   UNL     1      -5.855   4.913 -32.421  1.00  0.00     0.281 HD
HETATM    3  C   UNL     1      -6.011   2.981 -31.752  1.00  0.00     0.206 C 
HETATM    4  C   UNL     1      -7.003   3.356 -30.637  1.00  0.00     0.035 C 
HETATM    5  C   UNL     1      -6.307   3.961 -29.424  1.00  0.00     0.004 C 
HETATM    6  C   UNL     1      -5.454   5.156 -29.827  1.00  0.00     0.028 C 
HETATM    7  C   UNL     1      -4.449   4.778 -30.903  1.00  0.00     0.236 C 
ENDROOT
BRANCH   1   8
HETATM    8  C   UNL     1      -4.223   4.064 -33.296  1.00  0.00     0.337 C 
BRANCH   8   9
HETATM    9  C   UNL     1      -2.941   4.902 -33.243  1.00  0.00     0.243 C 
HETATM   10  N   UNL     1      -3.123   6.234 -33.524  1.00  0.00    -0.355 N 
HETATM   11  H   UNL     1      -4.054   6.632 -33.591  1.00  0.00     0.162 HD
HETATM   12  O   UNL     1      -1.844   4.414 -32.984  1.00  0.00    -0.272 OA
BRANCH  10  13
HETATM   13  C   UNL     1      -2.037   7.185 -33.378  1.00  0.00     0.169 C 
BRANCH  13  14
HETATM   14  C   UNL     1      -1.956   7.629 -31.948  1.00  0.00     0.006 A 
HETATM   15  C   UNL     1      -0.933   7.424 -31.031  1.00  0.00    -0.047 A 
HETATM   16  C   UNL     1       0.338   6.684 -31.302  1.00  0.00     0.049 C 
HETATM   17  C   UNL     1      -1.252   8.008 -29.761  1.00  0.00     0.015 A 
HETATM   18  C   UNL     1      -2.488   8.613 -29.746  1.00  0.00     0.051 A 
HETATM   19  S   UNL     1      -3.282   8.474 -31.247  1.00  0.00    -0.104 SA
ENDBRANCH  13  14
ENDBRANCH  10  13
ENDBRANCH   8   9
ENDBRANCH   1   8
BRANCH   3  20
HETATM   20  C   UNL     1      -6.756   2.376 -32.978  1.00  0.00     0.157 C 
BRANCH  20  21
HETATM   21  N   UNL     1      -6.148   1.276 -33.726  1.00  0.00    -0.341 N 
HETATM   22  C   UNL     1      -6.280  -0.069 -33.485  1.00  0.00     0.320 C 
HETATM   23  N   UNL     1      -5.787  -0.827 -34.515  1.00  0.00    -0.309 N 
HETATM   24  O   UNL     1      -6.802  -0.489 -32.458  1.00  0.00    -0.247 OA
HETATM   25  H   UNL     1      -5.707  -0.378 -35.416  1.00  0.00     0.170 HD
HETATM   26  H   UNL     1      -5.640   1.532 -34.563  1.00  0.00     0.164 HD
BRANCH  23  27
HETATM   27  C   UNL     1      -5.629  -2.230 -34.522  1.00  0.00     0.036 A 
HETATM   28  C   UNL     1      -4.384  -2.744 -34.138  1.00  0.00     0.029 A 
HETATM   29  C   UNL     1      -4.162  -4.122 -34.114  1.00  0.00     0.002 A 
HETATM   30  C   UNL     1      -5.187  -5.000 -34.456  1.00  0.00     0.000 A 
HETATM   31  C   UNL     1      -6.434  -4.498 -34.821  1.00  0.00     0.002 A 
HETATM   32  C   UNL     1      -6.654  -3.118 -34.856  1.00  0.00     0.029 A 
ENDBRANCH  23  27
ENDBRANCH  20  21
ENDBRANCH   3  20
TORSDOF 7
ENDMDL
MODEL 10
REMARK VINA RESULT:      -7.5      2.316      5.046
REMARK  7 active torsions:
REMARK  status: ('A' for Active; 'I' for Inactive)
REMARK    1  A    between atoms: C_3  and  C_4 
REMARK    2  A    between atoms: C_4  and  N_5 
REMARK       I    between atoms: N_5  and  C_6 
REMARK    3  A    between atoms: C_6  and  C_7 
REMARK    4  A    between atoms: C_7  and  N_8 
REMARK    5  A    between atoms: C_10  and  C_11 
REMARK    6  A    between atoms: C_11  and  N_12 
REMARK       I    between atoms: N_12  and  C_13 
REMARK       I    between atoms: C_13  and  N_14 
REMARK    7  A    between atoms: N_14  and  C_15 
ROOT
HETATM    1  N   UNL     1      -4.061   4.666 -32.220  1.00  0.00    -0.057 N 
HETATM    2  H   UNL     1      -4.315   3.768 -32.683  1.00  0.00     0.281 HD
HETATM    3  C   UNL     1      -4.575   5.742 -33.171  1.00  0.00     0.206 C 
HETATM    4  C   UNL     1      -3.869   5.588 -34.530  1.00  0.00     0.035 C 
HETATM    5  C   UNL     1      -2.351   5.586 -34.396  1.00  0.00     0.004 C 
HETATM    6  C   UNL     1      -1.896   4.515 -33.414  1.00  0.00     0.028 C 
HETATM    7  C   UNL     1      -2.565   4.687 -32.060  1.00  0.00     0.236 C 
ENDROOT
BRANCH   1   8
HETATM    8  C   UNL     1      -4.765   4.564 -30.863  1.00  0.00     0.337 C 
BRANCH   8   9
HETATM    9  C   UNL     1      -5.618   3.310 -30.644  1.00  0.00     0.243 C 
HETATM   10  N   UNL     1      -5.369   2.294 -31.535  1.00  0.00    -0.355 N 
HETATM   11  H   UNL     1      -4.574   2.332 -32.163  1.00  0.00     0.162 HD
HETATM   12  O   UNL     1      -6.461   3.232 -29.754  1.00  0.00    -0.272 OA
BRANCH  10  13
HETATM   13  C   UNL     1      -5.991   0.992 -31.378  1.00  0.00     0.169 C 
BRANCH  13  14
HETATM   14  C   UNL     1      -5.039  -0.070 -31.839  1.00  0.00     0.006 A 
HETATM   15  C   UNL     1      -5.250  -1.084 -32.765  1.00  0.00    -0.047 A 
HETATM   16  C   UNL     1      -6.524  -1.325 -33.509  1.00  0.00     0.049 C 
HETATM   17  C   UNL     1      -4.078  -1.897 -32.918  1.00  0.00     0.015 A 
HETATM   18  C   UNL     1      -3.040  -1.496 -32.109  1.00  0.00     0.051 A 
HETATM   19  S   UNL     1      -3.463  -0.152 -31.152  1.00  0.00    -0.104 SA
ENDBRANCH  13  14
ENDBRANCH  10  13
ENDBRANCH   8   9
ENDBRANCH   1   8
BRANCH   3  20
HETATM   20  C   UNL     1      -6.122   5.732 -33.345  1.00  0.00     0.157 C 
BRANCH  20  21
HETATM   21  N   UNL     1      -6.791   4.523 -33.824  1.00  0.00    -0.341 N 
HETATM   22  C   UNL     1      -7.968   3.985 -33.366  1.00  0.00     0.320 C 
HETATM   23  N   UNL     1      -8.438   2.997 -34.192  1.00  0.00    -0.309 N 
HETATM   24  O   UNL     1      -8.502   4.389 -32.339  1.00  0.00    -0.247 OA
HETATM   25  H   UNL     1      -8.103   3.001 -35.145  1.00  0.00     0.170 HD
HETATM   26  H   UNL     1      -6.383   4.079 -34.638  1.00  0.00     0.164 HD
BRANCH  23  27
HETATM   27  C   UNL     1      -9.532   2.142 -33.938  1.00  0.00     0.036 A 
HETATM   28  C   UNL     1     -10.772   2.498 -34.482  1.00  0.00     0.029 A 
HETATM   29  C   UNL     1     -11.895   1.692 -34.277  1.00  0.00     0.002 A 
HETATM   30  C   UNL     1     -11.783   0.514 -33.543  1.00  0.00     0.000 A 
HETATM   31  C   UNL     1     -10.548   0.143 -33.015  1.00  0.00     0.002 A 
HETATM   32  C   UNL     1      -9.427   0.954 -33.210  1.00  0.00     0.029 A 
ENDBRANCH  23  27
ENDBRANCH  20  21
ENDBRANCH   3  20
TORSDOF 7
ENDMDL
