MODEL 1
REMARK VINA RESULT:      -8.9      0.000      0.000
REMARK  3 active torsions:
REMARK  status: ('A' for Active; 'I' for Inactive)
REMARK    1  A    between atoms: C_6  and  C_7 
REMARK       I    between atoms: C_7  and  N_8 
REMARK    2  A    between atoms: N_8  and  C_9 
REMARK    3  A    between atoms: N_12  and  C_13 
ROOT
HETATM    1  C   UNL     1      -5.126   3.240 -32.705  1.00  0.00     0.177 C 
HETATM    2  C   UNL     1      -3.616   3.529 -32.557  1.00  0.00     0.248 C 
HETATM    3  O   UNL     1      -2.807   2.629 -32.793  1.00  0.00    -0.271 OA
HETATM    4  N   UNL     1      -3.343   4.844 -32.127  1.00  0.00    -0.299 N 
HETATM    5  C   UNL     1      -4.471   5.767 -32.016  1.00  0.00     0.134 C 
HETATM    6  C   UNL     1      -5.348   5.710 -33.261  1.00  0.00     0.023 C 
HETATM    7  C   UNL     1      -5.796   4.288 -33.590  1.00  0.00     0.036 C 
ENDROOT
BRANCH   1   8
HETATM    8  N   UNL     1      -5.316   1.901 -33.241  1.00  0.00    -0.344 N 
HETATM    9  C   UNL     1      -5.715   0.846 -32.459  1.00  0.00     0.253 C 
HETATM   10  O   UNL     1      -6.029   0.948 -31.280  1.00  0.00    -0.268 OA
HETATM   11  H   UNL     1      -5.011   1.747 -34.198  1.00  0.00     0.163 HD
BRANCH   9  12
HETATM   12  C   UNL     1      -5.780  -0.462 -33.161  1.00  0.00     0.043 A 
HETATM   13  C   UNL     1      -4.637  -1.285 -33.248  1.00  0.00    -0.045 A 
HETATM   14  C   UNL     1      -4.728  -2.493 -33.960  1.00  0.00     0.014 A 
HETATM   15  C   UNL     1      -3.318  -0.913 -32.629  1.00  0.00     0.049 C 
HETATM   16  C   UNL     1      -5.933  -2.902 -34.541  1.00  0.00    -0.061 A 
HETATM   17  C   UNL     1      -6.030  -4.205 -35.281  1.00  0.00     0.048 C 
HETATM   18  C   UNL     1      -7.065  -2.090 -34.413  1.00  0.00     0.014 A 
HETATM   19  C   UNL     1      -7.004  -0.863 -33.734  1.00  0.00    -0.045 A 
HETATM   20  C   UNL     1      -8.248  -0.025 -33.620  1.00  0.00     0.049 C 
ENDBRANCH   9  12
ENDBRANCH   1   8
BRANCH   4  21
HETATM   21  C   UNL     1      -2.044   5.212 -31.736  1.00  0.00     0.154 A 
HETATM   22  N   UNL     1      -1.319   4.554 -30.827  1.00  0.00    -0.155 NA
HETATM   23  N   UNL     1      -0.171   5.232 -30.719  1.00  0.00    -0.283 N 
HETATM   24  C   UNL     1       0.841   4.780 -29.798  1.00  0.00     0.179 C 
HETATM   25  C   UNL     1      -0.106   6.314 -31.538  1.00  0.00     0.115 A 
HETATM   26  C   UNL     1      -1.305   6.335 -32.209  1.00  0.00     0.071 A 
ENDBRANCH   4  21
TORSDOF 3
ENDMDL
MODEL 2
REMARK VINA RESULT:      -8.8      0.102      1.744
REMARK  3 active torsions:
REMARK  status: ('A' for Active; 'I' for Inactive)
REMARK    1  A    between atoms: C_6  and  C_7 
REMARK       I    between atoms: C_7  and  N_8 
REMARK    2  A    between atoms: N_8  and  C_9 
REMARK    3  A    between atoms: N_12  and  C_13 
ROOT
HETATM    1  C   UNL     1      -5.096   3.305 -32.683  1.00  0.00     0.177 C 
HETATM    2  C   UNL     1      -3.583   3.585 -32.550  1.00  0.00     0.248 C 
HETATM    3  O   UNL     1      -2.782   2.688 -32.819  1.00  0.00    -0.271 OA
HETATM    4  N   UNL     1      -3.300   4.889 -32.092  1.00  0.00    -0.299 N 
HETATM    5  C   UNL     1      -4.423   5.813 -31.943  1.00  0.00     0.134 C 
HETATM    6  C   UNL     1      -5.318   5.788 -33.177  1.00  0.00     0.023 C 
HETATM    7  C   UNL     1      -5.775   4.376 -33.533  1.00  0.00     0.036 C 
ENDROOT
BRANCH   1   8
HETATM    8  N   UNL     1      -5.299   1.980 -33.248  1.00  0.00    -0.344 N 
HETATM    9  C   UNL     1      -5.714   0.913 -32.491  1.00  0.00     0.253 C 
HETATM   10  O   UNL     1      -6.033   0.994 -31.312  1.00  0.00    -0.268 OA
HETATM   11  H   UNL     1      -4.990   1.842 -34.207  1.00  0.00     0.163 HD
BRANCH   9  12
HETATM   12  C   UNL     1      -5.790  -0.379 -33.221  1.00  0.00     0.043 A 
HETATM   13  C   UNL     1      -6.987  -0.771 -33.858  1.00  0.00    -0.045 A 
HETATM   14  C   UNL     1      -7.032  -2.021 -34.499  1.00  0.00     0.014 A 
HETATM   15  C   UNL     1      -8.224   0.085 -33.863  1.00  0.00     0.049 C 
HETATM   16  C   UNL     1      -5.908  -2.852 -34.545  1.00  0.00    -0.061 A 
HETATM   17  C   UNL     1      -5.955  -4.177 -35.250  1.00  0.00     0.048 C 
HETATM   18  C   UNL     1      -4.719  -2.430 -33.938  1.00  0.00     0.014 A 
HETATM   19  C   UNL     1      -4.646  -1.201 -33.264  1.00  0.00    -0.045 A 
HETATM   20  C   UNL     1      -3.345  -0.789 -32.630  1.00  0.00     0.049 C 
ENDBRANCH   9  12
ENDBRANCH   1   8
BRANCH   4  21
HETATM   21  C   UNL     1      -1.994   5.243 -31.711  1.00  0.00     0.154 A 
HETATM   22  N   UNL     1      -1.257   4.559 -30.831  1.00  0.00    -0.155 NA
HETATM   23  N   UNL     1      -0.106   5.231 -30.723  1.00  0.00    -0.283 N 
HETATM   24  C   UNL     1       0.918   4.752 -29.828  1.00  0.00     0.179 C 
HETATM   25  C   UNL     1      -0.050   6.335 -31.512  1.00  0.00     0.115 A 
HETATM   26  C   UNL     1      -1.260   6.376 -32.165  1.00  0.00     0.071 A 
ENDBRANCH   4  21
TORSDOF 3
ENDMDL
MODEL 3
REMARK VINA RESULT:      -8.5      4.346      7.286
REMARK  3 active torsions:
REMARK  status: ('A' for Active; 'I' for Inactive)
REMARK    1  A    between atoms: C_6  and  C_7 
REMARK       I    between atoms: C_7  and  N_8 
REMARK    2  A    between atoms: N_8  and  C_9 
REMARK    3  A    between atoms: N_12  and  C_13 
ROOT
HETATM    1  C   UNL     1      -8.008   1.631 -32.238  1.00  0.00     0.177 C 
HETATM    2  C   UNL     1      -9.360   1.324 -32.920  1.00  0.00     0.248 C 
HETATM    3  O   UNL     1      -9.503   0.251 -33.509  1.00  0.00    -0.271 OA
HETATM    4  N   UNL     1     -10.294   2.373 -32.794  1.00  0.00    -0.299 N 
HETATM    5  C   UNL     1      -9.928   3.509 -31.951  1.00  0.00     0.134 C 
HETATM    6  C   UNL     1      -9.367   3.038 -30.614  1.00  0.00     0.023 C 
HETATM    7  C   UNL     1      -8.215   2.050 -30.784  1.00  0.00     0.036 C 
ENDROOT
BRANCH   1   8
HETATM    8  N   UNL     1      -7.140   0.468 -32.330  1.00  0.00    -0.344 N 
HETATM    9  C   UNL     1      -5.982   0.472 -33.067  1.00  0.00     0.253 C 
HETATM   10  O   UNL     1      -5.533   1.461 -33.631  1.00  0.00    -0.268 OA
HETATM   11  H   UNL     1      -7.495  -0.397 -31.932  1.00  0.00     0.163 HD
BRANCH   9  12
HETATM   12  C   UNL     1      -5.264  -0.829 -33.109  1.00  0.00     0.043 A 
HETATM   13  C   UNL     1      -4.225  -1.102 -32.194  1.00  0.00    -0.045 A 
HETATM   14  C   UNL     1      -3.540  -2.325 -32.296  1.00  0.00     0.014 A 
HETATM   15  C   UNL     1      -3.804  -0.130 -31.127  1.00  0.00     0.049 C 
HETATM   16  C   UNL     1      -3.899  -3.277 -33.256  1.00  0.00    -0.061 A 
HETATM   17  C   UNL     1      -3.178  -4.591 -33.347  1.00  0.00     0.048 C 
HETATM   18  C   UNL     1      -4.956  -3.003 -34.131  1.00  0.00     0.014 A 
HETATM   19  C   UNL     1      -5.643  -1.780 -34.077  1.00  0.00    -0.045 A 
HETATM   20  C   UNL     1      -6.775  -1.532 -35.037  1.00  0.00     0.049 C 
ENDBRANCH   9  12
ENDBRANCH   1   8
BRANCH   4  21
HETATM   21  C   UNL     1     -11.491   2.353 -33.531  1.00  0.00     0.154 A 
HETATM   22  N   UNL     1     -12.503   1.512 -33.299  1.00  0.00    -0.155 NA
HETATM   23  N   UNL     1     -13.426   1.792 -34.225  1.00  0.00    -0.283 N 
HETATM   24  C   UNL     1     -14.656   1.040 -34.255  1.00  0.00     0.179 C 
HETATM   25  C   UNL     1     -13.065   2.802 -35.058  1.00  0.00     0.115 A 
HETATM   26  C   UNL     1     -11.814   3.188 -34.640  1.00  0.00     0.071 A 
ENDBRANCH   4  21
TORSDOF 3
ENDMDL
MODEL 4
REMARK VINA RESULT:      -8.3      4.367      8.169
REMARK  3 active torsions:
REMARK  status: ('A' for Active; 'I' for Inactive)
REMARK    1  A    between atoms: C_6  and  C_7 
REMARK       I    between atoms: C_7  and  N_8 
REMARK    2  A    between atoms: N_8  and  C_9 
REMARK    3  A    between atoms: N_12  and  C_13 
ROOT
HETATM    1  C   UNL     1      -8.997   1.936 -34.229  1.00  0.00     0.177 C 
HETATM    2  C   UNL     1     -10.330   1.417 -33.647  1.00  0.00     0.248 C 
HETATM    3  O   UNL     1     -10.325   0.389 -32.966  1.00  0.00    -0.271 OA
HETATM    4  N   UNL     1     -11.438   2.211 -34.006  1.00  0.00    -0.299 N 
HETATM    5  C   UNL     1     -11.175   3.450 -34.735  1.00  0.00     0.134 C 
HETATM    6  C   UNL     1     -10.052   4.243 -34.077  1.00  0.00     0.023 C 
HETATM    7  C   UNL     1      -8.789   3.408 -33.882  1.00  0.00     0.036 C 
ENDROOT
BRANCH   1   8
HETATM    8  N   UNL     1      -7.898   1.121 -33.736  1.00  0.00    -0.344 N 
HETATM    9  C   UNL     1      -6.876   0.696 -34.547  1.00  0.00     0.253 C 
HETATM   10  O   UNL     1      -6.747   1.031 -35.718  1.00  0.00    -0.268 OA
HETATM   11  H   UNL     1      -7.986   0.763 -32.788  1.00  0.00     0.163 HD
BRANCH   9  12
HETATM   12  C   UNL     1      -5.883  -0.193 -33.888  1.00  0.00     0.043 A 
HETATM   13  C   UNL     1      -5.888  -1.581 -34.142  1.00  0.00    -0.045 A 
HETATM   14  C   UNL     1      -4.962  -2.393 -33.464  1.00  0.00     0.014 A 
HETATM   15  C   UNL     1      -6.855  -2.232 -35.091  1.00  0.00     0.049 C 
HETATM   16  C   UNL     1      -4.025  -1.843 -32.584  1.00  0.00    -0.061 A 
HETATM   17  C   UNL     1      -3.024  -2.713 -31.879  1.00  0.00     0.048 C 
HETATM   18  C   UNL     1      -4.013  -0.460 -32.373  1.00  0.00     0.014 A 
HETATM   19  C   UNL     1      -4.940   0.379 -33.010  1.00  0.00    -0.045 A 
HETATM   20  C   UNL     1      -4.886   1.860 -32.755  1.00  0.00     0.049 C 
ENDBRANCH   9  12
ENDBRANCH   1   8
BRANCH   4  21
HETATM   21  C   UNL     1     -12.746   1.769 -33.744  1.00  0.00     0.154 A 
HETATM   22  N   UNL     1     -13.601   2.393 -32.929  1.00  0.00    -0.155 NA
HETATM   23  N   UNL     1     -14.711   1.647 -32.928  1.00  0.00    -0.283 N 
HETATM   24  C   UNL     1     -15.839   2.047 -32.124  1.00  0.00     0.179 C 
HETATM   25  C   UNL     1     -14.625   0.552 -33.727  1.00  0.00     0.115 A 
HETATM   26  C   UNL     1     -13.363   0.596 -34.270  1.00  0.00     0.071 A 
ENDBRANCH   4  21
TORSDOF 3
ENDMDL
MODEL 5
REMARK VINA RESULT:      -8.2      1.937      2.147
REMARK  3 active torsions:
REMARK  status: ('A' for Active; 'I' for Inactive)
REMARK    1  A    between atoms: C_6  and  C_7 
REMARK       I    between atoms: C_7  and  N_8 
REMARK    2  A    between atoms: N_8  and  C_9 
REMARK    3  A    between atoms: N_12  and  C_13 
ROOT
HETATM    1  C   UNL     1      -5.684   3.132 -32.933  1.00  0.00     0.177 C 
HETATM    2  C   UNL     1      -4.449   4.055 -33.023  1.00  0.00     0.248 C 
HETATM    3  O   UNL     1      -3.337   3.551 -33.201  1.00  0.00    -0.271 OA
HETATM    4  N   UNL     1      -4.763   5.419 -32.860  1.00  0.00    -0.299 N 
HETATM    5  C   UNL     1      -6.176   5.782 -32.770  1.00  0.00     0.134 C 
HETATM    6  C   UNL     1      -6.985   5.104 -33.870  1.00  0.00     0.023 C 
HETATM    7  C   UNL     1      -6.777   3.592 -33.894  1.00  0.00     0.036 C 
ENDROOT
BRANCH   1   8
HETATM    8  N   UNL     1      -5.289   1.759 -33.207  1.00  0.00    -0.344 N 
HETATM    9  C   UNL     1      -5.908   0.685 -32.617  1.00  0.00     0.253 C 
HETATM   10  O   UNL     1      -6.889   0.774 -31.891  1.00  0.00    -0.268 OA
HETATM   11  H   UNL     1      -4.442   1.630 -33.753  1.00  0.00     0.163 HD
BRANCH   9  12
HETATM   12  C   UNL     1      -5.319  -0.637 -32.955  1.00  0.00     0.043 A 
HETATM   13  C   UNL     1      -4.208  -1.130 -32.237  1.00  0.00    -0.045 A 
HETATM   14  C   UNL     1      -3.653  -2.363 -32.617  1.00  0.00     0.014 A 
HETATM   15  C   UNL     1      -3.580  -0.380 -31.095  1.00  0.00     0.049 C 
HETATM   16  C   UNL     1      -4.206  -3.116 -33.658  1.00  0.00    -0.061 A 
HETATM   17  C   UNL     1      -3.622  -4.444 -34.045  1.00  0.00     0.048 C 
HETATM   18  C   UNL     1      -5.329  -2.628 -34.335  1.00  0.00     0.014 A 
HETATM   19  C   UNL     1      -5.893  -1.387 -34.002  1.00  0.00    -0.045 A 
HETATM   20  C   UNL     1      -7.103  -0.905 -34.755  1.00  0.00     0.049 C 
ENDBRANCH   9  12
ENDBRANCH   1   8
BRANCH   4  21
HETATM   21  C   UNL     1      -3.743   6.372 -32.700  1.00  0.00     0.154 A 
HETATM   22  N   UNL     1      -3.664   7.224 -31.673  1.00  0.00    -0.155 NA
HETATM   23  N   UNL     1      -2.582   7.974 -31.906  1.00  0.00    -0.283 N 
HETATM   24  C   UNL     1      -2.220   9.013 -30.975  1.00  0.00     0.179 C 
HETATM   25  C   UNL     1      -1.930   7.639 -33.050  1.00  0.00     0.115 A 
HETATM   26  C   UNL     1      -2.657   6.606 -33.593  1.00  0.00     0.071 A 
ENDBRANCH   4  21
TORSDOF 3
ENDMDL
MODEL 6
REMARK VINA RESULT:      -8.1      4.213      7.207
REMARK  3 active torsions:
REMARK  status: ('A' for Active; 'I' for Inactive)
REMARK    1  A    between atoms: C_6  and  C_7 
REMARK       I    between atoms: C_7  and  N_8 
REMARK    2  A    between atoms: N_8  and  C_9 
REMARK    3  A    between atoms: N_12  and  C_13 
ROOT
HETATM    1  C   UNL     1      -7.802   1.851 -32.094  1.00  0.00     0.177 C 
HETATM    2  C   UNL     1      -9.205   1.635 -32.702  1.00  0.00     0.248 C 
HETATM    3  O   UNL     1      -9.440   0.587 -33.308  1.00  0.00    -0.271 OA
HETATM    4  N   UNL     1     -10.073   2.727 -32.495  1.00  0.00    -0.299 N 
HETATM    5  C   UNL     1      -9.597   3.818 -31.646  1.00  0.00     0.134 C 
HETATM    6  C   UNL     1      -8.986   3.280 -30.357  1.00  0.00     0.023 C 
HETATM    7  C   UNL     1      -7.901   2.238 -30.620  1.00  0.00     0.036 C 
ENDROOT
BRANCH   1   8
HETATM    8  N   UNL     1      -7.004   0.647 -32.267  1.00  0.00    -0.344 N 
HETATM    9  C   UNL     1      -5.787   0.657 -32.901  1.00  0.00     0.253 C 
HETATM   10  O   UNL     1      -5.227   1.672 -33.293  1.00  0.00    -0.268 OA
HETATM   11  H   UNL     1      -7.447  -0.233 -32.016  1.00  0.00     0.163 HD
BRANCH   9  12
HETATM   12  C   UNL     1      -5.152  -0.678 -33.055  1.00  0.00     0.043 A 
HETATM   13  C   UNL     1      -5.575  -1.558 -34.074  1.00  0.00    -0.045 A 
HETATM   14  C   UNL     1      -4.981  -2.829 -34.158  1.00  0.00     0.014 A 
HETATM   15  C   UNL     1      -6.650  -1.200 -35.063  1.00  0.00     0.049 C 
HETATM   16  C   UNL     1      -3.963  -3.211 -33.278  1.00  0.00    -0.061 A 
HETATM   17  C   UNL     1      -3.316  -4.562 -33.386  1.00  0.00     0.048 C 
HETATM   18  C   UNL     1      -3.532  -2.312 -32.296  1.00  0.00     0.014 A 
HETATM   19  C   UNL     1      -4.122  -1.045 -32.165  1.00  0.00    -0.045 A 
HETATM   20  C   UNL     1      -3.624  -0.111 -31.096  1.00  0.00     0.049 C 
ENDBRANCH   9  12
ENDBRANCH   1   8
BRANCH   4  21
HETATM   21  C   UNL     1     -11.309   2.791 -33.160  1.00  0.00     0.154 A 
HETATM   22  N   UNL     1     -12.160   1.767 -33.264  1.00  0.00    -0.155 NA
HETATM   23  N   UNL     1     -13.188   2.222 -33.988  1.00  0.00    -0.283 N 
HETATM   24  C   UNL     1     -14.290   1.343 -34.294  1.00  0.00     0.179 C 
HETATM   25  C   UNL     1     -13.053   3.522 -34.358  1.00  0.00     0.115 A 
HETATM   26  C   UNL     1     -11.844   3.923 -33.841  1.00  0.00     0.071 A 
ENDBRANCH   4  21
TORSDOF 3
ENDMDL
MODEL 7
REMARK VINA RESULT:      -8.1      2.442      8.123
REMARK  3 active torsions:
REMARK  status: ('A' for Active; 'I' for Inactive)
REMARK    1  A    between atoms: C_6  and  C_7 
REMARK       I    between atoms: C_7  and  N_8 
REMARK    2  A    between atoms: N_8  and  C_9 
REMARK    3  A    between atoms: N_12  and  C_13 
ROOT
HETATM    1  C   UNL     1      -4.499   3.626 -31.256  1.00  0.00     0.177 C 
HETATM    2  C   UNL     1      -3.978   2.183 -31.432  1.00  0.00     0.248 C 
HETATM    3  O   UNL     1      -2.802   1.933 -31.156  1.00  0.00    -0.271 OA
HETATM    4  N   UNL     1      -4.955   1.298 -31.932  1.00  0.00    -0.299 N 
HETATM    5  C   UNL     1      -6.317   1.808 -32.081  1.00  0.00     0.134 C 
HETATM    6  C   UNL     1      -6.762   2.551 -30.826  1.00  0.00     0.023 C 
HETATM    7  C   UNL     1      -5.777   3.645 -30.420  1.00  0.00     0.036 C 
ENDROOT
BRANCH   1   8
HETATM    8  N   UNL     1      -3.464   4.448 -30.649  1.00  0.00    -0.344 N 
HETATM    9  C   UNL     1      -3.183   5.718 -31.087  1.00  0.00     0.253 C 
HETATM   10  O   UNL     1      -3.824   6.302 -31.952  1.00  0.00    -0.268 OA
HETATM   11  H   UNL     1      -2.861   3.993 -29.969  1.00  0.00     0.163 HD
BRANCH   9  12
HETATM   12  C   UNL     1      -2.042   6.378 -30.400  1.00  0.00     0.043 A 
HETATM   13  C   UNL     1      -0.728   6.227 -30.892  1.00  0.00    -0.045 A 
HETATM   14  C   UNL     1       0.329   6.829 -30.188  1.00  0.00     0.014 A 
HETATM   15  C   UNL     1      -0.407   5.431 -32.127  1.00  0.00     0.049 C 
HETATM   16  C   UNL     1       0.091   7.598 -29.044  1.00  0.00    -0.061 A 
HETATM   17  C   UNL     1       1.222   8.257 -28.308  1.00  0.00     0.048 C 
HETATM   18  C   UNL     1      -1.222   7.766 -28.592  1.00  0.00     0.014 A 
HETATM   19  C   UNL     1      -2.300   7.156 -29.253  1.00  0.00    -0.045 A 
HETATM   20  C   UNL     1      -3.695   7.368 -28.732  1.00  0.00     0.049 C 
ENDBRANCH   9  12
ENDBRANCH   1   8
BRANCH   4  21
HETATM   21  C   UNL     1      -4.598   0.006 -32.353  1.00  0.00     0.154 A 
HETATM   22  N   UNL     1      -3.893  -0.857 -31.616  1.00  0.00    -0.155 NA
HETATM   23  N   UNL     1      -3.741  -1.945 -32.377  1.00  0.00    -0.283 N 
HETATM   24  C   UNL     1      -3.004  -3.075 -31.869  1.00  0.00     0.179 C 
HETATM   25  C   UNL     1      -4.333  -1.838 -33.595  1.00  0.00     0.115 A 
HETATM   26  C   UNL     1      -4.896  -0.584 -33.616  1.00  0.00     0.071 A 
ENDBRANCH   4  21
TORSDOF 3
ENDMDL
MODEL 8
REMARK VINA RESULT:      -7.9      2.303      8.340
REMARK  3 active torsions:
REMARK  status: ('A' for Active; 'I' for Inactive)
REMARK    1  A    between atoms: C_6  and  C_7 
REMARK       I    between atoms: C_7  and  N_8 
REMARK    2  A    between atoms: N_8  and  C_9 
REMARK    3  A    between atoms: N_12  and  C_13 
ROOT
HETATM    1  C   UNL     1      -4.288   3.704 -31.544  1.00  0.00     0.177 C 
HETATM    2  C   UNL     1      -3.828   2.230 -31.557  1.00  0.00     0.248 C 
HETATM    3  O   UNL     1      -2.728   1.942 -31.079  1.00  0.00    -0.271 OA
HETATM    4  N   UNL     1      -4.760   1.363 -32.163  1.00  0.00    -0.299 N 
HETATM    5  C   UNL     1      -6.049   1.927 -32.559  1.00  0.00     0.134 C 
HETATM    6  C   UNL     1      -6.648   2.765 -31.435  1.00  0.00     0.023 C 
HETATM    7  C   UNL     1      -5.680   3.834 -30.932  1.00  0.00     0.036 C 
ENDROOT
BRANCH   1   8
HETATM    8  N   UNL     1      -3.319   4.512 -30.820  1.00  0.00    -0.344 N 
HETATM    9  C   UNL     1      -2.986   5.785 -31.211  1.00  0.00     0.253 C 
HETATM   10  O   UNL     1      -3.527   6.383 -32.132  1.00  0.00    -0.268 OA
HETATM   11  H   UNL     1      -2.795   4.045 -30.086  1.00  0.00     0.163 HD
BRANCH   9  12
HETATM   12  C   UNL     1      -1.921   6.429 -30.398  1.00  0.00     0.043 A 
HETATM   13  C   UNL     1      -2.255   7.204 -29.266  1.00  0.00    -0.045 A 
HETATM   14  C   UNL     1      -1.222   7.833 -28.551  1.00  0.00     0.014 A 
HETATM   15  C   UNL     1      -3.672   7.401 -28.805  1.00  0.00     0.049 C 
HETATM   16  C   UNL     1       0.118   7.670 -28.920  1.00  0.00    -0.061 A 
HETATM   17  C   UNL     1       1.219   8.327 -28.139  1.00  0.00     0.048 C 
HETATM   18  C   UNL     1       0.432   6.869 -30.024  1.00  0.00     0.014 A 
HETATM   19  C   UNL     1      -0.576   6.248 -30.779  1.00  0.00    -0.045 A 
HETATM   20  C   UNL     1      -0.190   5.394 -31.955  1.00  0.00     0.049 C 
ENDBRANCH   9  12
ENDBRANCH   1   8
BRANCH   4  21
HETATM   21  C   UNL     1      -4.414   0.032 -32.451  1.00  0.00     0.154 A 
HETATM   22  N   UNL     1      -4.744  -0.603 -33.579  1.00  0.00    -0.155 NA
HETATM   23  N   UNL     1      -4.261  -1.843 -33.452  1.00  0.00    -0.283 N 
HETATM   24  C   UNL     1      -4.462  -2.799 -34.512  1.00  0.00     0.179 C 
HETATM   25  C   UNL     1      -3.609  -2.050 -32.278  1.00  0.00     0.115 A 
HETATM   26  C   UNL     1      -3.692  -0.856 -31.602  1.00  0.00     0.071 A 
ENDBRANCH   4  21
TORSDOF 3
ENDMDL
MODEL 9
REMARK VINA RESULT:      -7.5      3.816      6.191
REMARK  3 active torsions:
REMARK  status: ('A' for Active; 'I' for Inactive)
REMARK    1  A    between atoms: C_6  and  C_7 
REMARK       I    between atoms: C_7  and  N_8 
REMARK    2  A    between atoms: N_8  and  C_9 
REMARK    3  A    between atoms: N_12  and  C_13 
ROOT
HETATM    1  C   UNL     1      -6.789   2.778 -31.507  1.00  0.00     0.177 C 
HETATM    2  C   UNL     1      -8.312   3.030 -31.473  1.00  0.00     0.248 C 
HETATM    3  O   UNL     1      -9.069   2.194 -31.972  1.00  0.00    -0.271 OA
HETATM    4  N   UNL     1      -8.658   4.254 -30.866  1.00  0.00    -0.299 N 
HETATM    5  C   UNL     1      -7.585   5.030 -30.248  1.00  0.00     0.134 C 
HETATM    6  C   UNL     1      -6.710   4.146 -29.366  1.00  0.00     0.023 C 
HETATM    7  C   UNL     1      -6.183   2.923 -30.113  1.00  0.00     0.036 C 
ENDROOT
BRANCH   1   8
HETATM    8  N   UNL     1      -6.525   1.458 -32.058  1.00  0.00    -0.344 N 
HETATM    9  C   UNL     1      -5.975   1.279 -33.303  1.00  0.00     0.253 C 
HETATM   10  O   UNL     1      -5.580   2.193 -34.016  1.00  0.00    -0.268 OA
HETATM   11  H   UNL     1      -6.889   0.665 -31.537  1.00  0.00     0.163 HD
BRANCH   9  12
HETATM   12  C   UNL     1      -5.850  -0.139 -33.732  1.00  0.00     0.043 A 
HETATM   13  C   UNL     1      -6.849  -0.735 -34.532  1.00  0.00    -0.045 A 
HETATM   14  C   UNL     1      -6.716  -2.090 -34.879  1.00  0.00     0.014 A 
HETATM   15  C   UNL     1      -8.061   0.015 -35.013  1.00  0.00     0.049 C 
HETATM   16  C   UNL     1      -5.602  -2.834 -34.478  1.00  0.00    -0.061 A 
HETATM   17  C   UNL     1      -5.454  -4.276 -34.870  1.00  0.00     0.048 C 
HETATM   18  C   UNL     1      -4.604  -2.216 -33.715  1.00  0.00     0.014 A 
HETATM   19  C   UNL     1      -4.717  -0.872 -33.326  1.00  0.00    -0.045 A 
HETATM   20  C   UNL     1      -3.618  -0.250 -32.509  1.00  0.00     0.049 C 
ENDBRANCH   9  12
ENDBRANCH   1   8
BRANCH   4  21
HETATM   21  C   UNL     1      -9.975   4.741 -30.941  1.00  0.00     0.154 A 
HETATM   22  N   UNL     1     -11.036   4.120 -30.418  1.00  0.00    -0.155 NA
HETATM   23  N   UNL     1     -12.090   4.881 -30.730  1.00  0.00    -0.283 N 
HETATM   24  C   UNL     1     -13.410   4.476 -30.314  1.00  0.00     0.179 C 
HETATM   25  C   UNL     1     -11.762   5.996 -31.433  1.00  0.00     0.115 A 
HETATM   26  C   UNL     1     -10.398   5.936 -31.592  1.00  0.00     0.071 A 
ENDBRANCH   4  21
TORSDOF 3
ENDMDL
MODEL 10
REMARK VINA RESULT:      -7.5      3.894      6.062
REMARK  3 active torsions:
REMARK  status: ('A' for Active; 'I' for Inactive)
REMARK    1  A    between atoms: C_6  and  C_7 
REMARK       I    between atoms: C_7  and  N_8 
REMARK    2  A    between atoms: N_8  and  C_9 
REMARK    3  A    between atoms: N_12  and  C_13 
ROOT
HETATM    1  C   UNL     1      -6.970   2.802 -31.510  1.00  0.00     0.177 C 
HETATM    2  C   UNL     1      -8.493   3.058 -31.555  1.00  0.00     0.248 C 
HETATM    3  O   UNL     1      -9.226   2.222 -32.087  1.00  0.00    -0.271 OA
HETATM    4  N   UNL     1      -8.865   4.287 -30.973  1.00  0.00    -0.299 N 
HETATM    5  C   UNL     1      -7.821   5.064 -30.305  1.00  0.00     0.134 C 
HETATM    6  C   UNL     1      -6.995   4.182 -29.376  1.00  0.00     0.023 C 
HETATM    7  C   UNL     1      -6.435   2.954 -30.089  1.00  0.00     0.036 C 
ENDROOT
BRANCH   1   8
HETATM    8  N   UNL     1      -6.682   1.479 -32.041  1.00  0.00    -0.344 N 
HETATM    9  C   UNL     1      -6.053   1.291 -33.246  1.00  0.00     0.253 C 
HETATM   10  O   UNL     1      -5.603   2.199 -33.932  1.00  0.00    -0.268 OA
HETATM   11  H   UNL     1      -7.088   0.691 -31.543  1.00  0.00     0.163 HD
BRANCH   9  12
HETATM   12  C   UNL     1      -5.914  -0.129 -33.663  1.00  0.00     0.043 A 
HETATM   13  C   UNL     1      -4.777  -0.877 -33.287  1.00  0.00    -0.045 A 
HETATM   14  C   UNL     1      -4.662  -2.202 -33.740  1.00  0.00     0.014 A 
HETATM   15  C   UNL     1      -3.674  -0.308 -32.438  1.00  0.00     0.049 C 
HETATM   16  C   UNL     1      -5.665  -2.792 -34.516  1.00  0.00    -0.061 A 
HETATM   17  C   UNL     1      -5.546  -4.215 -34.979  1.00  0.00     0.048 C 
HETATM   18  C   UNL     1      -6.801  -2.046 -34.849  1.00  0.00     0.014 A 
HETATM   19  C   UNL     1      -6.938  -0.711 -34.438  1.00  0.00    -0.045 A 
HETATM   20  C   UNL     1      -8.179   0.050 -34.817  1.00  0.00     0.049 C 
ENDBRANCH   9  12
ENDBRANCH   1   8
BRANCH   4  21
HETATM   21  C   UNL     1     -10.174   4.777 -31.116  1.00  0.00     0.154 A 
HETATM   22  N   UNL     1     -11.244   4.248 -30.517  1.00  0.00    -0.155 NA
HETATM   23  N   UNL     1     -12.288   4.974 -30.931  1.00  0.00    -0.283 N 
HETATM   24  C   UNL     1     -13.614   4.647 -30.467  1.00  0.00     0.179 C 
HETATM   25  C   UNL     1     -11.944   5.978 -31.779  1.00  0.00     0.115 A 
HETATM   26  C   UNL     1     -10.580   5.878 -31.925  1.00  0.00     0.071 A 
ENDBRANCH   4  21
TORSDOF 3
ENDMDL
