MODEL 1
REMARK VINA RESULT:      -9.3      0.000      0.000
REMARK  4 active torsions:
REMARK  status: ('A' for Active; 'I' for Inactive)
REMARK    1  A    between atoms: O_2  and  C_3 
REMARK    2  A    between atoms: C_4  and  N_5 
REMARK    3  A    between atoms: C_14  and  C_15 
REMARK       I    between atoms: C_15  and  N_16 
REMARK    4  A    between atoms: N_16  and  C_17 
ROOT
HETATM    1  N   UNL     1      -6.633   1.564 -32.776  1.00  0.00    -0.221 NA
HETATM    2  C   UNL     1      -6.669   0.387 -33.326  1.00  0.00     0.186 C 
HETATM    3  O   UNL     1      -5.500  -0.311 -33.604  1.00  0.00    -0.290 OA
HETATM    4  C   UNL     1      -5.531  -1.655 -34.014  1.00  0.00     0.088 A 
HETATM    5  C   UNL     1      -6.741  -2.289 -34.266  1.00  0.00    -0.001 A 
HETATM    6  C   UNL     1      -4.314  -2.320 -34.136  1.00  0.00     0.038 A 
HETATM    7  C   UNL     1      -4.311  -3.661 -34.515  1.00  0.00     0.003 A 
HETATM    8  C   UNL     1      -5.518  -4.316 -34.772  1.00  0.00     0.001 A 
HETATM    9  C   UNL     1      -6.732  -3.631 -34.651  1.00  0.00     0.014 A 
HETATM   10  C   UNL     1      -7.956  -0.258 -33.690  1.00  0.00     0.086 C 
HETATM   11  C   UNL     1      -7.972  -1.530 -34.129  1.00  0.00     0.035 C 
ENDROOT
BRANCH  10  12
HETATM   12  C   UNL     1      -9.293   0.438 -33.610  1.00  0.00     0.260 C 
HETATM   13  N   UNL     1      -9.462   1.467 -34.511  1.00  0.00    -0.323 N 
HETATM   14  H   UNL     1      -8.664   1.672 -35.118  1.00  0.00     0.169 HD
HETATM   15  O   UNL     1     -10.129   0.068 -32.789  1.00  0.00    -0.267 OA
BRANCH  13  16
HETATM   16  C   UNL     1     -10.585   2.297 -34.694  1.00  0.00     0.035 A 
HETATM   17  C   UNL     1     -11.872   1.830 -34.963  1.00  0.00     0.029 A 
HETATM   18  C   UNL     1     -12.931   2.729 -35.127  1.00  0.00     0.002 A 
HETATM   19  C   UNL     1     -12.712   4.101 -35.021  1.00  0.00     0.000 A 
HETATM   20  C   UNL     1     -11.431   4.577 -34.756  1.00  0.00     0.002 A 
HETATM   21  C   UNL     1     -10.373   3.679 -34.594  1.00  0.00     0.029 A 
ENDBRANCH  13  16
ENDBRANCH  10  12
BRANCH   1  22
HETATM   22  C   UNL     1      -5.393   2.174 -32.505  1.00  0.00     0.093 A 
HETATM   23  C   UNL     1      -5.025   3.347 -33.194  1.00  0.00     0.097 A 
HETATM   24  C   UNL     1      -3.799   3.962 -32.916  1.00  0.00     0.039 A 
HETATM   25  C   UNL     1      -2.960   3.442 -31.928  1.00  0.00     0.003 A 
HETATM   26  C   UNL     1      -3.340   2.310 -31.211  1.00  0.00     0.002 A 
HETATM   27  C   UNL     1      -4.555   1.685 -31.493  1.00  0.00     0.034 A 
BRANCH  23  28
HETATM   28  O   UNL     1      -5.913   3.799 -34.141  1.00  0.00    -0.354 OA
HETATM   29  C   UNL     1      -6.647   4.967 -33.799  1.00  0.00     0.210 C 
ENDBRANCH  23  28
ENDBRANCH   1  22
TORSDOF 4
ENDMDL
MODEL 2
REMARK VINA RESULT:      -9.1      2.223      6.170
REMARK  4 active torsions:
REMARK  status: ('A' for Active; 'I' for Inactive)
REMARK    1  A    between atoms: O_2  and  C_3 
REMARK    2  A    between atoms: C_4  and  N_5 
REMARK    3  A    between atoms: C_14  and  C_15 
REMARK       I    between atoms: C_15  and  N_16 
REMARK    4  A    between atoms: N_16  and  C_17 
ROOT
HETATM    1  N   UNL     1      -6.545   2.146 -32.718  1.00  0.00    -0.221 NA
HETATM    2  C   UNL     1      -6.040   0.969 -32.942  1.00  0.00     0.186 C 
HETATM    3  O   UNL     1      -6.843  -0.091 -33.344  1.00  0.00    -0.290 OA
HETATM    4  C   UNL     1      -6.286  -1.307 -33.776  1.00  0.00     0.088 A 
HETATM    5  C   UNL     1      -4.916  -1.523 -33.702  1.00  0.00    -0.001 A 
HETATM    6  C   UNL     1      -7.153  -2.266 -34.293  1.00  0.00     0.038 A 
HETATM    7  C   UNL     1      -6.629  -3.473 -34.754  1.00  0.00     0.003 A 
HETATM    8  C   UNL     1      -5.254  -3.707 -34.688  1.00  0.00     0.001 A 
HETATM    9  C   UNL     1      -4.398  -2.735 -34.161  1.00  0.00     0.014 A 
HETATM   10  C   UNL     1      -4.588   0.704 -32.770  1.00  0.00     0.086 C 
HETATM   11  C   UNL     1      -4.072  -0.481 -33.141  1.00  0.00     0.035 C 
ENDROOT
BRANCH  10  12
HETATM   12  C   UNL     1      -3.621   1.700 -32.179  1.00  0.00     0.260 C 
HETATM   13  N   UNL     1      -3.677   2.958 -32.737  1.00  0.00    -0.323 N 
HETATM   14  H   UNL     1      -4.340   3.083 -33.506  1.00  0.00     0.169 HD
HETATM   15  O   UNL     1      -2.871   1.360 -31.267  1.00  0.00    -0.267 OA
BRANCH  13  16
HETATM   16  C   UNL     1      -2.920   4.099 -32.405  1.00  0.00     0.035 A 
HETATM   17  C   UNL     1      -3.082   4.836 -31.231  1.00  0.00     0.029 A 
HETATM   18  C   UNL     1      -2.282   5.956 -30.983  1.00  0.00     0.002 A 
HETATM   19  C   UNL     1      -1.314   6.347 -31.905  1.00  0.00     0.000 A 
HETATM   20  C   UNL     1      -1.146   5.621 -33.081  1.00  0.00     0.002 A 
HETATM   21  C   UNL     1      -1.947   4.503 -33.330  1.00  0.00     0.029 A 
ENDBRANCH  13  16
ENDBRANCH  10  12
BRANCH   1  22
HETATM   22  C   UNL     1      -7.934   2.345 -32.828  1.00  0.00     0.093 A 
HETATM   23  C   UNL     1      -8.696   2.605 -31.671  1.00  0.00     0.097 A 
HETATM   24  C   UNL     1     -10.076   2.817 -31.779  1.00  0.00     0.039 A 
HETATM   25  C   UNL     1     -10.691   2.815 -33.033  1.00  0.00     0.003 A 
HETATM   26  C   UNL     1      -9.934   2.605 -34.184  1.00  0.00     0.002 A 
HETATM   27  C   UNL     1      -8.562   2.380 -34.081  1.00  0.00     0.034 A 
BRANCH  23  28
HETATM   28  O   UNL     1      -8.012   2.602 -30.479  1.00  0.00    -0.354 OA
HETATM   29  C   UNL     1      -7.871   3.863 -29.838  1.00  0.00     0.210 C 
ENDBRANCH  23  28
ENDBRANCH   1  22
TORSDOF 4
ENDMDL
MODEL 3
REMARK VINA RESULT:      -9.1      4.197      7.580
REMARK  4 active torsions:
REMARK  status: ('A' for Active; 'I' for Inactive)
REMARK    1  A    between atoms: O_2  and  C_3 
REMARK    2  A    between atoms: C_4  and  N_5 
REMARK    3  A    between atoms: C_14  and  C_15 
REMARK       I    between atoms: C_15  and  N_16 
REMARK    4  A    between atoms: N_16  and  C_17 
ROOT
HETATM    1  N   UNL     1      -2.636   3.322 -32.342  1.00  0.00    -0.221 NA
HETATM    2  C   UNL     1      -3.715   3.278 -31.618  1.00  0.00     0.186 C 
HETATM    3  O   UNL     1      -4.345   4.444 -31.199  1.00  0.00    -0.290 OA
HETATM    4  C   UNL     1      -5.611   4.411 -30.588  1.00  0.00     0.088 A 
HETATM    5  C   UNL     1      -6.215   3.200 -30.280  1.00  0.00    -0.001 A 
HETATM    6  C   UNL     1      -6.232   5.629 -30.327  1.00  0.00     0.038 A 
HETATM    7  C   UNL     1      -7.499   5.631 -29.746  1.00  0.00     0.003 A 
HETATM    8  C   UNL     1      -8.123   4.423 -29.429  1.00  0.00     0.001 A 
HETATM    9  C   UNL     1      -7.482   3.208 -29.693  1.00  0.00     0.014 A 
HETATM   10  C   UNL     1      -4.314   1.985 -31.199  1.00  0.00     0.086 C 
HETATM   11  C   UNL     1      -5.503   1.967 -30.571  1.00  0.00     0.035 C 
ENDROOT
BRANCH  10  12
HETATM   12  C   UNL     1      -3.657   0.646 -31.428  1.00  0.00     0.260 C 
HETATM   13  N   UNL     1      -4.416  -0.254 -32.143  1.00  0.00    -0.323 N 
HETATM   14  H   UNL     1      -5.350   0.061 -32.420  1.00  0.00     0.169 HD
HETATM   15  O   UNL     1      -2.527   0.436 -30.993  1.00  0.00    -0.267 OA
BRANCH  13  16
HETATM   16  C   UNL     1      -4.088  -1.569 -32.527  1.00  0.00     0.035 A 
HETATM   17  C   UNL     1      -3.300  -2.436 -31.768  1.00  0.00     0.029 A 
HETATM   18  C   UNL     1      -3.028  -3.729 -32.227  1.00  0.00     0.002 A 
HETATM   19  C   UNL     1      -3.542  -4.165 -33.446  1.00  0.00     0.000 A 
HETATM   20  C   UNL     1      -4.326  -3.307 -34.212  1.00  0.00     0.002 A 
HETATM   21  C   UNL     1      -4.597  -2.015 -33.754  1.00  0.00     0.029 A 
ENDBRANCH  13  16
ENDBRANCH  10  12
BRANCH   1  22
HETATM   22  C   UNL     1      -2.058   4.565 -32.665  1.00  0.00     0.093 A 
HETATM   23  C   UNL     1      -1.051   5.103 -31.838  1.00  0.00     0.097 A 
HETATM   24  C   UNL     1      -0.465   6.332 -32.165  1.00  0.00     0.039 A 
HETATM   25  C   UNL     1      -0.845   7.003 -33.329  1.00  0.00     0.003 A 
HETATM   26  C   UNL     1      -1.806   6.453 -34.174  1.00  0.00     0.002 A 
HETATM   27  C   UNL     1      -2.403   5.236 -33.846  1.00  0.00     0.034 A 
BRANCH  23  28
HETATM   28  O   UNL     1      -0.728   4.372 -30.720  1.00  0.00    -0.354 OA
HETATM   29  C   UNL     1       0.271   4.932 -29.877  1.00  0.00     0.210 C 
ENDBRANCH  23  28
ENDBRANCH   1  22
TORSDOF 4
ENDMDL
MODEL 4
REMARK VINA RESULT:      -9.0      1.678      5.793
REMARK  4 active torsions:
REMARK  status: ('A' for Active; 'I' for Inactive)
REMARK    1  A    between atoms: O_2  and  C_3 
REMARK    2  A    between atoms: C_4  and  N_5 
REMARK    3  A    between atoms: C_14  and  C_15 
REMARK       I    between atoms: C_15  and  N_16 
REMARK    4  A    between atoms: N_16  and  C_17 
ROOT
HETATM    1  N   UNL     1      -6.898   1.240 -32.976  1.00  0.00    -0.221 NA
HETATM    2  C   UNL     1      -6.271   0.115 -33.155  1.00  0.00     0.186 C 
HETATM    3  O   UNL     1      -6.939  -1.013 -33.615  1.00  0.00    -0.290 OA
HETATM    4  C   UNL     1      -6.241  -2.171 -33.997  1.00  0.00     0.088 A 
HETATM    5  C   UNL     1      -4.867  -2.260 -33.814  1.00  0.00    -0.001 A 
HETATM    6  C   UNL     1      -6.973  -3.203 -34.578  1.00  0.00     0.038 A 
HETATM    7  C   UNL     1      -6.307  -4.355 -34.991  1.00  0.00     0.003 A 
HETATM    8  C   UNL     1      -4.925  -4.463 -34.816  1.00  0.00     0.001 A 
HETATM    9  C   UNL     1      -4.206  -3.419 -34.226  1.00  0.00     0.014 A 
HETATM   10  C   UNL     1      -4.820  -0.017 -32.867  1.00  0.00     0.086 C 
HETATM   11  C   UNL     1      -4.170  -1.148 -33.192  1.00  0.00     0.035 C 
ENDROOT
BRANCH  10  12
HETATM   12  C   UNL     1      -3.998   1.062 -32.205  1.00  0.00     0.260 C 
HETATM   13  N   UNL     1      -4.191   2.328 -32.713  1.00  0.00    -0.323 N 
HETATM   14  H   UNL     1      -4.843   2.405 -33.497  1.00  0.00     0.169 HD
HETATM   15  O   UNL     1      -3.237   0.774 -31.283  1.00  0.00    -0.267 OA
BRANCH  13  16
HETATM   16  C   UNL     1      -3.588   3.536 -32.311  1.00  0.00     0.035 A 
HETATM   17  C   UNL     1      -4.061   4.344 -31.276  1.00  0.00     0.029 A 
HETATM   18  C   UNL     1      -3.395   5.528 -30.942  1.00  0.00     0.002 A 
HETATM   19  C   UNL     1      -2.251   5.912 -31.639  1.00  0.00     0.000 A 
HETATM   20  C   UNL     1      -1.773   5.114 -32.674  1.00  0.00     0.002 A 
HETATM   21  C   UNL     1      -2.439   3.932 -33.009  1.00  0.00     0.029 A 
ENDBRANCH  13  16
ENDBRANCH  10  12
BRANCH   1  22
HETATM   22  C   UNL     1      -8.287   1.312 -33.196  1.00  0.00     0.093 A 
HETATM   23  C   UNL     1      -8.832   2.427 -33.863  1.00  0.00     0.097 A 
HETATM   24  C   UNL     1     -10.211   2.494 -34.095  1.00  0.00     0.039 A 
HETATM   25  C   UNL     1     -11.040   1.440 -33.707  1.00  0.00     0.003 A 
HETATM   26  C   UNL     1     -10.500   0.314 -33.090  1.00  0.00     0.002 A 
HETATM   27  C   UNL     1      -9.129   0.248 -32.844  1.00  0.00     0.034 A 
BRANCH  23  28
HETATM   28  O   UNL     1      -7.944   3.414 -34.222  1.00  0.00    -0.354 OA
HETATM   29  C   UNL     1      -8.270   4.730 -33.794  1.00  0.00     0.210 C 
ENDBRANCH  23  28
ENDBRANCH   1  22
TORSDOF 4
ENDMDL
MODEL 5
REMARK VINA RESULT:      -8.6      1.667      6.284
REMARK  4 active torsions:
REMARK  status: ('A' for Active; 'I' for Inactive)
REMARK    1  A    between atoms: O_2  and  C_3 
REMARK    2  A    between atoms: C_4  and  N_5 
REMARK    3  A    between atoms: C_14  and  C_15 
REMARK       I    between atoms: C_15  and  N_16 
REMARK    4  A    between atoms: N_16  and  C_17 
ROOT
HETATM    1  N   UNL     1      -5.879   2.361 -33.160  1.00  0.00    -0.221 NA
HETATM    2  C   UNL     1      -7.146   2.207 -33.405  1.00  0.00     0.186 C 
HETATM    3  O   UNL     1      -7.987   3.304 -33.552  1.00  0.00    -0.290 OA
HETATM    4  C   UNL     1      -9.308   3.156 -34.008  1.00  0.00     0.088 A 
HETATM    5  C   UNL     1      -9.847   1.893 -34.214  1.00  0.00    -0.001 A 
HETATM    6  C   UNL     1     -10.036   4.316 -34.260  1.00  0.00     0.038 A 
HETATM    7  C   UNL     1     -11.341   4.205 -34.738  1.00  0.00     0.003 A 
HETATM    8  C   UNL     1     -11.901   2.943 -34.952  1.00  0.00     0.001 A 
HETATM    9  C   UNL     1     -11.157   1.788 -34.688  1.00  0.00     0.014 A 
HETATM   10  C   UNL     1      -7.752   0.856 -33.530  1.00  0.00     0.086 C 
HETATM   11  C   UNL     1      -9.033   0.727 -33.920  1.00  0.00     0.035 C 
ENDROOT
BRANCH  10  12
HETATM   12  C   UNL     1      -7.011  -0.423 -33.230  1.00  0.00     0.260 C 
HETATM   13  N   UNL     1      -6.719  -1.193 -34.335  1.00  0.00    -0.323 N 
HETATM   14  H   UNL     1      -7.055  -0.839 -35.234  1.00  0.00     0.169 HD
HETATM   15  O   UNL     1      -6.710  -0.701 -32.071  1.00  0.00    -0.267 OA
BRANCH  13  16
HETATM   16  C   UNL     1      -6.036  -2.424 -34.391  1.00  0.00     0.035 A 
HETATM   17  C   UNL     1      -4.692  -2.593 -34.059  1.00  0.00     0.029 A 
HETATM   18  C   UNL     1      -4.096  -3.856 -34.141  1.00  0.00     0.002 A 
HETATM   19  C   UNL     1      -4.841  -4.959 -34.554  1.00  0.00     0.000 A 
HETATM   20  C   UNL     1      -6.182  -4.800 -34.891  1.00  0.00     0.002 A 
HETATM   21  C   UNL     1      -6.776  -3.538 -34.810  1.00  0.00     0.029 A 
ENDBRANCH  13  16
ENDBRANCH  10  12
BRANCH   1  22
HETATM   22  C   UNL     1      -5.351   3.654 -32.984  1.00  0.00     0.093 A 
HETATM   23  C   UNL     1      -5.155   4.157 -31.682  1.00  0.00     0.097 A 
HETATM   24  C   UNL     1      -4.617   5.437 -31.503  1.00  0.00     0.039 A 
HETATM   25  C   UNL     1      -4.235   6.198 -32.609  1.00  0.00     0.003 A 
HETATM   26  C   UNL     1      -4.383   5.688 -33.897  1.00  0.00     0.002 A 
HETATM   27  C   UNL     1      -4.931   4.419 -34.081  1.00  0.00     0.034 A 
BRANCH  23  28
HETATM   28  O   UNL     1      -5.546   3.338 -30.649  1.00  0.00    -0.354 OA
HETATM   29  C   UNL     1      -6.680   3.768 -29.908  1.00  0.00     0.210 C 
ENDBRANCH  23  28
ENDBRANCH   1  22
TORSDOF 4
ENDMDL
MODEL 6
REMARK VINA RESULT:      -8.6     14.416     17.092
REMARK  4 active torsions:
REMARK  status: ('A' for Active; 'I' for Inactive)
REMARK    1  A    between atoms: O_2  and  C_3 
REMARK    2  A    between atoms: C_4  and  N_5 
REMARK    3  A    between atoms: C_14  and  C_15 
REMARK       I    between atoms: C_15  and  N_16 
REMARK    4  A    between atoms: N_16  and  C_17 
ROOT
HETATM    1  N   UNL     1      -5.510 -14.327 -36.418  1.00  0.00    -0.221 NA
HETATM    2  C   UNL     1      -6.176 -13.864 -37.433  1.00  0.00     0.186 C 
HETATM    3  O   UNL     1      -7.544 -14.080 -37.552  1.00  0.00    -0.290 OA
HETATM    4  C   UNL     1      -8.305 -13.424 -38.535  1.00  0.00     0.088 A 
HETATM    5  C   UNL     1      -7.689 -12.628 -39.491  1.00  0.00    -0.001 A 
HETATM    6  C   UNL     1      -9.687 -13.587 -38.496  1.00  0.00     0.038 A 
HETATM    7  C   UNL     1     -10.473 -12.930 -39.440  1.00  0.00     0.003 A 
HETATM    8  C   UNL     1      -9.871 -12.124 -40.410  1.00  0.00     0.001 A 
HETATM    9  C   UNL     1      -8.480 -11.975 -40.438  1.00  0.00     0.014 A 
HETATM   10  C   UNL     1      -5.507 -13.095 -38.513  1.00  0.00     0.086 C 
HETATM   11  C   UNL     1      -6.241 -12.511 -39.478  1.00  0.00     0.035 C 
ENDROOT
BRANCH  10  12
HETATM   12  C   UNL     1      -4.011 -12.925 -38.614  1.00  0.00     0.260 C 
HETATM   13  N   UNL     1      -3.316 -14.083 -38.887  1.00  0.00    -0.323 N 
HETATM   14  H   UNL     1      -3.874 -14.937 -38.964  1.00  0.00     0.169 HD
HETATM   15  O   UNL     1      -3.508 -11.813 -38.463  1.00  0.00    -0.267 OA
BRANCH  13  16
HETATM   16  C   UNL     1      -1.928 -14.256 -39.050  1.00  0.00     0.035 A 
HETATM   17  C   UNL     1      -1.278 -14.277 -40.285  1.00  0.00     0.029 A 
HETATM   18  C   UNL     1       0.108 -14.450 -40.352  1.00  0.00     0.002 A 
HETATM   19  C   UNL     1       0.855 -14.602 -39.186  1.00  0.00     0.000 A 
HETATM   20  C   UNL     1       0.216 -14.585 -37.949  1.00  0.00     0.002 A 
HETATM   21  C   UNL     1      -1.169 -14.414 -37.882  1.00  0.00     0.029 A 
ENDBRANCH  13  16
ENDBRANCH  10  12
BRANCH   1  22
HETATM   22  C   UNL     1      -6.165 -15.108 -35.446  1.00  0.00     0.093 A 
HETATM   23  C   UNL     1      -6.691 -14.491 -34.293  1.00  0.00     0.097 A 
HETATM   24  C   UNL     1      -7.355 -15.264 -33.332  1.00  0.00     0.039 A 
HETATM   25  C   UNL     1      -7.535 -16.633 -33.534  1.00  0.00     0.003 A 
HETATM   26  C   UNL     1      -7.058 -17.239 -34.694  1.00  0.00     0.002 A 
HETATM   27  C   UNL     1      -6.384 -16.477 -35.648  1.00  0.00     0.034 A 
BRANCH  23  28
HETATM   28  O   UNL     1      -6.481 -13.137 -34.178  1.00  0.00    -0.354 OA
HETATM   29  C   UNL     1      -5.552 -12.733 -33.181  1.00  0.00     0.210 C 
ENDBRANCH  23  28
ENDBRANCH   1  22
TORSDOF 4
ENDMDL
MODEL 7
REMARK VINA RESULT:      -8.5      2.018      2.491
REMARK  4 active torsions:
REMARK  status: ('A' for Active; 'I' for Inactive)
REMARK    1  A    between atoms: O_2  and  C_3 
REMARK    2  A    between atoms: C_4  and  N_5 
REMARK    3  A    between atoms: C_14  and  C_15 
REMARK       I    between atoms: C_15  and  N_16 
REMARK    4  A    between atoms: N_16  and  C_17 
ROOT
HETATM    1  N   UNL     1      -7.785   2.828 -32.326  1.00  0.00    -0.221 NA
HETATM    2  C   UNL     1      -7.496   1.738 -32.973  1.00  0.00     0.186 C 
HETATM    3  O   UNL     1      -6.208   1.214 -32.956  1.00  0.00    -0.290 OA
HETATM    4  C   UNL     1      -5.931  -0.059 -33.484  1.00  0.00     0.088 A 
HETATM    5  C   UNL     1      -6.916  -0.781 -34.144  1.00  0.00    -0.001 A 
HETATM    6  C   UNL     1      -4.647  -0.566 -33.302  1.00  0.00     0.038 A 
HETATM    7  C   UNL     1      -4.346  -1.836 -33.791  1.00  0.00     0.003 A 
HETATM    8  C   UNL     1      -5.324  -2.578 -34.457  1.00  0.00     0.001 A 
HETATM    9  C   UNL     1      -6.607  -2.050 -34.636  1.00  0.00     0.014 A 
HETATM   10  C   UNL     1      -8.522   1.011 -33.763  1.00  0.00     0.086 C 
HETATM   11  C   UNL     1      -8.231  -0.184 -34.306  1.00  0.00     0.035 C 
ENDROOT
BRANCH  10  12
HETATM   12  C   UNL     1      -9.912   1.542 -34.017  1.00  0.00     0.260 C 
HETATM   13  N   UNL     1     -10.917   0.860 -33.368  1.00  0.00    -0.323 N 
HETATM   14  H   UNL     1     -10.627   0.053 -32.808  1.00  0.00     0.169 HD
HETATM   15  O   UNL     1     -10.072   2.516 -34.750  1.00  0.00    -0.267 OA
BRANCH  13  16
HETATM   16  C   UNL     1     -12.303   1.109 -33.391  1.00  0.00     0.035 A 
HETATM   17  C   UNL     1     -12.892   2.313 -33.003  1.00  0.00     0.029 A 
HETATM   18  C   UNL     1     -14.280   2.473 -33.062  1.00  0.00     0.002 A 
HETATM   19  C   UNL     1     -15.090   1.432 -33.511  1.00  0.00     0.000 A 
HETATM   20  C   UNL     1     -14.512   0.225 -33.897  1.00  0.00     0.002 A 
HETATM   21  C   UNL     1     -13.126   0.065 -33.837  1.00  0.00     0.029 A 
ENDBRANCH  13  16
ENDBRANCH  10  12
BRANCH   1  22
HETATM   22  C   UNL     1      -6.772   3.526 -31.641  1.00  0.00     0.093 A 
HETATM   23  C   UNL     1      -5.941   4.421 -32.345  1.00  0.00     0.097 A 
HETATM   24  C   UNL     1      -4.943   5.127 -31.664  1.00  0.00     0.039 A 
HETATM   25  C   UNL     1      -4.797   4.980 -30.283  1.00  0.00     0.003 A 
HETATM   26  C   UNL     1      -5.645   4.132 -29.575  1.00  0.00     0.002 A 
HETATM   27  C   UNL     1      -6.633   3.416 -30.251  1.00  0.00     0.034 A 
BRANCH  23  28
HETATM   28  O   UNL     1      -6.160   4.516 -33.699  1.00  0.00    -0.354 OA
HETATM   29  C   UNL     1      -5.011   4.756 -34.501  1.00  0.00     0.210 C 
ENDBRANCH  23  28
ENDBRANCH   1  22
TORSDOF 4
ENDMDL
MODEL 8
REMARK VINA RESULT:      -8.5      1.971      6.405
REMARK  4 active torsions:
REMARK  status: ('A' for Active; 'I' for Inactive)
REMARK    1  A    between atoms: O_2  and  C_3 
REMARK    2  A    between atoms: C_4  and  N_5 
REMARK    3  A    between atoms: C_14  and  C_15 
REMARK       I    between atoms: C_15  and  N_16 
REMARK    4  A    between atoms: N_16  and  C_17 
ROOT
HETATM    1  N   UNL     1      -6.797   2.771 -33.488  1.00  0.00    -0.221 NA
HETATM    2  C   UNL     1      -8.038   2.385 -33.466  1.00  0.00     0.186 C 
HETATM    3  O   UNL     1      -9.014   3.144 -32.832  1.00  0.00    -0.290 OA
HETATM    4  C   UNL     1     -10.380   2.840 -32.970  1.00  0.00     0.088 A 
HETATM    5  C   UNL     1     -10.785   1.700 -33.650  1.00  0.00    -0.001 A 
HETATM    6  C   UNL     1     -11.297   3.731 -32.419  1.00  0.00     0.038 A 
HETATM    7  C   UNL     1     -12.659   3.473 -32.560  1.00  0.00     0.003 A 
HETATM    8  C   UNL     1     -13.086   2.331 -33.241  1.00  0.00     0.001 A 
HETATM    9  C   UNL     1     -12.151   1.443 -33.784  1.00  0.00     0.014 A 
HETATM   10  C   UNL     1      -8.465   1.115 -34.107  1.00  0.00     0.086 C 
HETATM   11  C   UNL     1      -9.772   0.810 -34.191  1.00  0.00     0.035 C 
ENDROOT
BRANCH  10  12
HETATM   12  C   UNL     1      -7.503   0.105 -34.682  1.00  0.00     0.260 C 
HETATM   13  N   UNL     1      -7.268  -0.990 -33.880  1.00  0.00    -0.323 N 
HETATM   14  H   UNL     1      -7.742  -0.995 -32.973  1.00  0.00     0.169 HD
HETATM   15  O   UNL     1      -7.004   0.294 -35.790  1.00  0.00    -0.267 OA
BRANCH  13  16
HETATM   16  C   UNL     1      -6.439  -2.100 -34.131  1.00  0.00     0.035 A 
HETATM   17  C   UNL     1      -5.059  -2.114 -33.922  1.00  0.00     0.029 A 
HETATM   18  C   UNL     1      -4.314  -3.266 -34.196  1.00  0.00     0.002 A 
HETATM   19  C   UNL     1      -4.942  -4.412 -34.679  1.00  0.00     0.000 A 
HETATM   20  C   UNL     1      -6.317  -4.407 -34.893  1.00  0.00     0.002 A 
HETATM   21  C   UNL     1      -7.062  -3.256 -34.621  1.00  0.00     0.029 A 
ENDBRANCH  13  16
ENDBRANCH  10  12
BRANCH   1  22
HETATM   22  C   UNL     1      -6.417   3.947 -32.813  1.00  0.00     0.093 A 
HETATM   23  C   UNL     1      -5.791   3.859 -31.554  1.00  0.00     0.097 A 
HETATM   24  C   UNL     1      -5.400   5.027 -30.888  1.00  0.00     0.039 A 
HETATM   25  C   UNL     1      -5.588   6.274 -31.487  1.00  0.00     0.003 A 
HETATM   26  C   UNL     1      -6.163   6.364 -32.752  1.00  0.00     0.002 A 
HETATM   27  C   UNL     1      -6.567   5.205 -33.415  1.00  0.00     0.034 A 
BRANCH  23  28
HETATM   28  O   UNL     1      -5.633   2.594 -31.041  1.00  0.00    -0.354 OA
HETATM   29  C   UNL     1      -6.534   2.223 -30.007  1.00  0.00     0.210 C 
ENDBRANCH  23  28
ENDBRANCH   1  22
TORSDOF 4
ENDMDL
MODEL 9
REMARK VINA RESULT:      -8.3      1.967      6.967
REMARK  4 active torsions:
REMARK  status: ('A' for Active; 'I' for Inactive)
REMARK    1  A    between atoms: O_2  and  C_3 
REMARK    2  A    between atoms: C_4  and  N_5 
REMARK    3  A    between atoms: C_14  and  C_15 
REMARK       I    between atoms: C_15  and  N_16 
REMARK    4  A    between atoms: N_16  and  C_17 
ROOT
HETATM    1  N   UNL     1      -5.633   0.775 -33.147  1.00  0.00    -0.221 NA
HETATM    2  C   UNL     1      -6.743   1.450 -33.158  1.00  0.00     0.186 C 
HETATM    3  O   UNL     1      -7.923   0.885 -33.627  1.00  0.00    -0.290 OA
HETATM    4  C   UNL     1      -9.160   1.532 -33.463  1.00  0.00     0.088 A 
HETATM    5  C   UNL     1      -9.222   2.812 -32.929  1.00  0.00    -0.001 A 
HETATM    6  C   UNL     1     -10.306   0.835 -33.836  1.00  0.00     0.038 A 
HETATM    7  C   UNL     1     -11.551   1.438 -33.662  1.00  0.00     0.003 A 
HETATM    8  C   UNL     1     -11.634   2.725 -33.126  1.00  0.00     0.001 A 
HETATM    9  C   UNL     1     -10.471   3.413 -32.762  1.00  0.00     0.014 A 
HETATM   10  C   UNL     1      -6.800   2.856 -32.680  1.00  0.00     0.086 C 
HETATM   11  C   UNL     1      -7.984   3.483 -32.573  1.00  0.00     0.035 C 
ENDROOT
BRANCH  10  12
HETATM   12  C   UNL     1      -5.579   3.659 -32.303  1.00  0.00     0.260 C 
HETATM   13  N   UNL     1      -4.699   3.891 -33.336  1.00  0.00    -0.323 N 
HETATM   14  H   UNL     1      -4.943   3.475 -34.239  1.00  0.00     0.169 HD
HETATM   15  O   UNL     1      -5.440   4.057 -31.148  1.00  0.00    -0.267 OA
BRANCH  13  16
HETATM   16  C   UNL     1      -3.486   4.606 -33.313  1.00  0.00     0.035 A 
HETATM   17  C   UNL     1      -2.392   4.273 -32.514  1.00  0.00     0.029 A 
HETATM   18  C   UNL     1      -1.223   5.040 -32.558  1.00  0.00     0.002 A 
HETATM   19  C   UNL     1      -1.139   6.146 -33.402  1.00  0.00     0.000 A 
HETATM   20  C   UNL     1      -2.227   6.489 -34.201  1.00  0.00     0.002 A 
HETATM   21  C   UNL     1      -3.395   5.723 -34.155  1.00  0.00     0.029 A 
ENDBRANCH  13  16
ENDBRANCH  10  12
BRANCH   1  22
HETATM   22  C   UNL     1      -5.603  -0.533 -33.669  1.00  0.00     0.093 A 
HETATM   23  C   UNL     1      -4.403  -1.271 -33.634  1.00  0.00     0.097 A 
HETATM   24  C   UNL     1      -4.374  -2.576 -34.140  1.00  0.00     0.039 A 
HETATM   25  C   UNL     1      -5.539  -3.163 -34.637  1.00  0.00     0.003 A 
HETATM   26  C   UNL     1      -6.738  -2.455 -34.630  1.00  0.00     0.002 A 
HETATM   27  C   UNL     1      -6.770  -1.149 -34.140  1.00  0.00     0.034 A 
BRANCH  23  28
HETATM   28  O   UNL     1      -3.306  -0.624 -33.117  1.00  0.00    -0.354 OA
HETATM   29  C   UNL     1      -2.771  -1.166 -31.917  1.00  0.00     0.210 C 
ENDBRANCH  23  28
ENDBRANCH   1  22
TORSDOF 4
ENDMDL
MODEL 10
REMARK VINA RESULT:      -8.2      3.575      7.089
REMARK  4 active torsions:
REMARK  status: ('A' for Active; 'I' for Inactive)
REMARK    1  A    between atoms: O_2  and  C_3 
REMARK    2  A    between atoms: C_4  and  N_5 
REMARK    3  A    between atoms: C_14  and  C_15 
REMARK       I    between atoms: C_15  and  N_16 
REMARK    4  A    between atoms: N_16  and  C_17 
ROOT
HETATM    1  N   UNL     1      -3.491   3.851 -31.894  1.00  0.00    -0.221 NA
HETATM    2  C   UNL     1      -4.440   4.114 -31.046  1.00  0.00     0.186 C 
HETATM    3  O   UNL     1      -4.540   5.365 -30.448  1.00  0.00    -0.290 OA
HETATM    4  C   UNL     1      -5.666   5.722 -29.686  1.00  0.00     0.088 A 
HETATM    5  C   UNL     1      -6.659   4.791 -29.412  1.00  0.00    -0.001 A 
HETATM    6  C   UNL     1      -5.751   7.039 -29.240  1.00  0.00     0.038 A 
HETATM    7  C   UNL     1      -6.867   7.433 -28.503  1.00  0.00     0.003 A 
HETATM    8  C   UNL     1      -7.876   6.510 -28.219  1.00  0.00     0.001 A 
HETATM    9  C   UNL     1      -7.772   5.190 -28.670  1.00  0.00     0.014 A 
HETATM   10  C   UNL     1      -5.451   3.092 -30.672  1.00  0.00     0.086 C 
HETATM   11  C   UNL     1      -6.499   3.433 -29.901  1.00  0.00     0.035 C 
ENDROOT
BRANCH  10  12
HETATM   12  C   UNL     1      -5.377   1.647 -31.101  1.00  0.00     0.260 C 
HETATM   13  N   UNL     1      -5.682   1.423 -32.426  1.00  0.00    -0.323 N 
HETATM   14  H   UNL     1      -5.953   2.245 -32.972  1.00  0.00     0.169 HD
HETATM   15  O   UNL     1      -5.055   0.782 -30.289  1.00  0.00    -0.267 OA
BRANCH  13  16
HETATM   16  C   UNL     1      -5.695   0.203 -33.129  1.00  0.00     0.035 A 
HETATM   17  C   UNL     1      -6.826  -0.341 -33.739  1.00  0.00     0.029 A 
HETATM   18  C   UNL     1      -6.746  -1.559 -34.421  1.00  0.00     0.002 A 
HETATM   19  C   UNL     1      -5.535  -2.243 -34.499  1.00  0.00     0.000 A 
HETATM   20  C   UNL     1      -4.401  -1.711 -33.891  1.00  0.00     0.002 A 
HETATM   21  C   UNL     1      -4.482  -0.494 -33.209  1.00  0.00     0.029 A 
ENDBRANCH  13  16
ENDBRANCH  10  12
BRANCH   1  22
HETATM   22  C   UNL     1      -2.512   4.823 -32.176  1.00  0.00     0.093 A 
HETATM   23  C   UNL     1      -2.736   5.763 -33.201  1.00  0.00     0.097 A 
HETATM   24  C   UNL     1      -1.770   6.739 -33.473  1.00  0.00     0.039 A 
HETATM   25  C   UNL     1      -0.607   6.810 -32.704  1.00  0.00     0.003 A 
HETATM   26  C   UNL     1      -0.402   5.912 -31.659  1.00  0.00     0.002 A 
HETATM   27  C   UNL     1      -1.355   4.929 -31.392  1.00  0.00     0.034 A 
BRANCH  23  28
HETATM   28  O   UNL     1      -3.911   5.631 -33.901  1.00  0.00    -0.354 OA
HETATM   29  C   UNL     1      -3.788   5.200 -35.250  1.00  0.00     0.210 C 
ENDBRANCH  23  28
ENDBRANCH   1  22
TORSDOF 4
ENDMDL
