MODEL 1
REMARK VINA RESULT:     -10.3      0.000      0.000
REMARK  9 active torsions:
REMARK  status: ('A' for Active; 'I' for Inactive)
REMARK    1  A    between atoms: O_2  and  C_3 
REMARK    2  A    between atoms: C_6  and  C_7 
REMARK    3  A    between atoms: C_7  and  C_8 
REMARK    4  A    between atoms: C_8  and  N_9 
REMARK       I    between atoms: N_9  and  C_10 
REMARK    5  A    between atoms: C_10  and  C_11 
REMARK    6  A    between atoms: C_12  and  N_13 
REMARK    7  A    between atoms: N_14  and  C_15 
REMARK    8  A    between atoms: C_18  and  S_19 
REMARK    9  A    between atoms: S_19  and  N_20 
ROOT
HETATM    1  C   UNL     1      -5.506   0.298 -31.889  1.00  0.00     0.103 C 
HETATM    2  C   UNL     1      -6.823   0.668 -31.630  1.00  0.00     0.105 C 
HETATM    3  N   UNL     1      -7.590   0.197 -32.705  1.00  0.00    -0.284 N 
HETATM    4  C   UNL     1      -6.930  -0.943 -33.155  1.00  0.00     0.166 A 
HETATM    5  C   UNL     1      -5.604  -0.834 -32.733  1.00  0.00     0.123 A 
HETATM    6  N   UNL     1      -4.664  -1.727 -33.131  1.00  0.00    -0.242 NA
HETATM    7  C   UNL     1      -5.125  -2.749 -33.865  1.00  0.00     0.086 A 
HETATM    8  C   UNL     1      -6.485  -2.866 -34.246  1.00  0.00     0.088 A 
HETATM    9  N   UNL     1      -7.413  -1.948 -33.922  1.00  0.00    -0.226 NA
HETATM   10  C   UNL     1      -4.231  -3.742 -34.249  1.00  0.00     0.034 A 
HETATM   11  C   UNL     1      -4.644  -4.851 -34.988  1.00  0.00     0.002 A 
HETATM   12  C   UNL     1      -5.977  -4.969 -35.356  1.00  0.00     0.002 A 
HETATM   13  C   UNL     1      -6.883  -3.973 -34.985  1.00  0.00     0.034 A 
ENDROOT
BRANCH   3  14
HETATM   14  C   UNL     1      -8.732   0.844 -33.303  1.00  0.00     0.042 A 
HETATM   15  C   UNL     1      -8.610   2.092 -33.936  1.00  0.00     0.031 A 
HETATM   16  C   UNL     1      -9.743   2.798 -34.363  1.00  0.00     0.027 A 
HETATM   17  C   UNL     1     -11.011   2.251 -34.172  1.00  0.00     0.074 A 
HETATM   18  C   UNL     1     -11.158   1.006 -33.571  1.00  0.00     0.027 A 
HETATM   19  C   UNL     1     -10.026   0.319 -33.125  1.00  0.00     0.031 A 
BRANCH  17  20
HETATM   20  S   UNL     1     -12.455   3.168 -34.640  1.00  0.00     0.243 S 
HETATM   21  O   UNL     1     -12.643   3.011 -36.067  1.00  0.00    -0.206 OA
HETATM   22  O   UNL     1     -13.502   2.820 -33.705  1.00  0.00    -0.206 OA
BRANCH  20  23
HETATM   23  N   UNL     1     -12.010   4.786 -34.360  1.00  0.00    -0.202 NA
HETATM   24  C   UNL     1     -12.096   5.732 -35.516  1.00  0.00     0.134 C 
HETATM   25  C   UNL     1     -13.513   6.283 -35.714  1.00  0.00     0.183 C 
HETATM   26  O   UNL     1     -14.019   6.876 -34.511  1.00  0.00    -0.389 OA
HETATM   27  C   UNL     1     -14.054   5.911 -33.451  1.00  0.00     0.183 C 
HETATM   28  C   UNL     1     -12.644   5.394 -33.145  1.00  0.00     0.134 C 
ENDBRANCH  20  23
ENDBRANCH  17  20
ENDBRANCH   3  14
BRANCH   2  29
HETATM   29  N   UNL     1      -7.318   1.399 -30.590  1.00  0.00    -0.287 NA
HETATM   30  H   UNL     1      -6.642   1.798 -29.934  1.00  0.00     0.125 HD
HETATM   31  H   UNL     1      -8.103   1.004 -30.067  1.00  0.00     0.125 HD
ENDBRANCH   2  29
BRANCH   1  32
HETATM   32  C   UNL     1      -4.309   0.922 -31.342  1.00  0.00     0.257 C 
HETATM   33  N   UNL     1      -4.276   2.293 -31.533  1.00  0.00    -0.356 N 
HETATM   34  H   UNL     1      -5.027   2.681 -32.096  1.00  0.00     0.162 HD
HETATM   35  O   UNL     1      -3.373   0.299 -30.856  1.00  0.00    -0.267 OA
BRANCH  33  36
HETATM   36  C   UNL     1      -3.032   3.034 -31.527  1.00  0.00     0.127 C 
BRANCH  36  37
HETATM   37  C   UNL     1      -2.792   3.797 -32.837  1.00  0.00     0.058 C 
BRANCH  37  38
HETATM   38  C   UNL     1      -2.538   5.277 -32.640  1.00  0.00    -0.057 A 
HETATM   39  C   UNL     1      -2.046   6.068 -33.686  1.00  0.00     0.010 A 
HETATM   40  C   UNL     1      -1.830   7.441 -33.502  1.00  0.00     0.037 A 
HETATM   41  C   UNL     1      -2.104   8.037 -32.271  1.00  0.00     0.068 A 
HETATM   42  C   UNL     1      -2.563   7.245 -31.218  1.00  0.00     0.037 A 
HETATM   43  C   UNL     1      -2.787   5.878 -31.400  1.00  0.00     0.010 A 
BRANCH  41  44
HETATM   44  O   UNL     1      -1.948   9.362 -31.972  1.00  0.00    -0.356 OA
HETATM   45  C   UNL     1      -2.567   9.816 -30.774  1.00  0.00     0.210 C 
ENDBRANCH  41  44
ENDBRANCH  37  38
ENDBRANCH  36  37
ENDBRANCH  33  36
ENDBRANCH   1  32
TORSDOF 9
ENDMDL
MODEL 2
REMARK VINA RESULT:      -9.9      2.059      2.507
REMARK  9 active torsions:
REMARK  status: ('A' for Active; 'I' for Inactive)
REMARK    1  A    between atoms: O_2  and  C_3 
REMARK    2  A    between atoms: C_6  and  C_7 
REMARK    3  A    between atoms: C_7  and  C_8 
REMARK    4  A    between atoms: C_8  and  N_9 
REMARK       I    between atoms: N_9  and  C_10 
REMARK    5  A    between atoms: C_10  and  C_11 
REMARK    6  A    between atoms: C_12  and  N_13 
REMARK    7  A    between atoms: N_14  and  C_15 
REMARK    8  A    between atoms: C_18  and  S_19 
REMARK    9  A    between atoms: S_19  and  N_20 
ROOT
HETATM    1  C   UNL     1      -5.457   1.174 -32.432  1.00  0.00     0.103 C 
HETATM    2  C   UNL     1      -6.735   1.452 -31.957  1.00  0.00     0.105 C 
HETATM    3  N   UNL     1      -7.630   0.758 -32.783  1.00  0.00    -0.284 N 
HETATM    4  C   UNL     1      -6.935  -0.368 -33.213  1.00  0.00     0.166 A 
HETATM    5  C   UNL     1      -5.576  -0.075 -33.090  1.00  0.00     0.123 A 
HETATM    6  N   UNL     1      -4.628  -0.924 -33.559  1.00  0.00    -0.242 NA
HETATM    7  C   UNL     1      -5.093  -2.081 -34.048  1.00  0.00     0.086 A 
HETATM    8  C   UNL     1      -6.476  -2.380 -34.124  1.00  0.00     0.088 A 
HETATM    9  N   UNL     1      -7.429  -1.516 -33.733  1.00  0.00    -0.226 NA
HETATM   10  C   UNL     1      -4.175  -3.031 -34.481  1.00  0.00     0.034 A 
HETATM   11  C   UNL     1      -4.584  -4.271 -34.975  1.00  0.00     0.002 A 
HETATM   12  C   UNL     1      -5.938  -4.566 -35.043  1.00  0.00     0.002 A 
HETATM   13  C   UNL     1      -6.870  -3.616 -34.621  1.00  0.00     0.034 A 
ENDROOT
BRANCH   3  14
HETATM   14  C   UNL     1      -8.936   1.200 -33.209  1.00  0.00     0.042 A 
HETATM   15  C   UNL     1      -9.164   2.537 -33.578  1.00  0.00     0.031 A 
HETATM   16  C   UNL     1     -10.462   3.005 -33.824  1.00  0.00     0.027 A 
HETATM   17  C   UNL     1     -11.544   2.131 -33.719  1.00  0.00     0.074 A 
HETATM   18  C   UNL     1     -11.342   0.798 -33.381  1.00  0.00     0.027 A 
HETATM   19  C   UNL     1     -10.048   0.343 -33.111  1.00  0.00     0.031 A 
BRANCH  17  20
HETATM   20  S   UNL     1     -13.196   2.728 -33.956  1.00  0.00     0.243 S 
HETATM   21  O   UNL     1     -13.120   4.129 -34.311  1.00  0.00    -0.206 OA
HETATM   22  O   UNL     1     -13.875   1.776 -34.808  1.00  0.00    -0.206 OA
BRANCH  20  23
HETATM   23  N   UNL     1     -13.883   2.632 -32.403  1.00  0.00    -0.202 NA
HETATM   24  C   UNL     1     -14.147   3.920 -31.687  1.00  0.00     0.134 C 
HETATM   25  C   UNL     1     -15.477   4.557 -32.104  1.00  0.00     0.183 C 
HETATM   26  O   UNL     1     -16.569   3.640 -31.954  1.00  0.00    -0.389 OA
HETATM   27  C   UNL     1     -16.357   2.470 -32.756  1.00  0.00     0.183 C 
HETATM   28  C   UNL     1     -15.084   1.738 -32.318  1.00  0.00     0.134 C 
ENDBRANCH  20  23
ENDBRANCH  17  20
ENDBRANCH   3  14
BRANCH   2  29
HETATM   29  N   UNL     1      -7.108   2.277 -30.936  1.00  0.00    -0.287 NA
HETATM   30  H   UNL     1      -6.859   1.989 -29.987  1.00  0.00     0.125 HD
HETATM   31  H   UNL     1      -8.068   2.629 -30.941  1.00  0.00     0.125 HD
ENDBRANCH   2  29
BRANCH   1  32
HETATM   32  C   UNL     1      -4.262   1.980 -32.226  1.00  0.00     0.257 C 
HETATM   33  N   UNL     1      -4.407   3.285 -32.664  1.00  0.00    -0.356 N 
HETATM   34  H   UNL     1      -5.274   3.498 -33.148  1.00  0.00     0.162 HD
HETATM   35  O   UNL     1      -3.200   1.537 -31.807  1.00  0.00    -0.267 OA
BRANCH  33  36
HETATM   36  C   UNL     1      -3.263   4.104 -33.011  1.00  0.00     0.127 C 
BRANCH  36  37
HETATM   37  C   UNL     1      -3.316   5.497 -32.366  1.00  0.00     0.058 C 
BRANCH  37  38
HETATM   38  C   UNL     1      -2.238   5.727 -31.328  1.00  0.00    -0.057 A 
HETATM   39  C   UNL     1      -2.357   6.753 -30.382  1.00  0.00     0.010 A 
HETATM   40  C   UNL     1      -1.364   6.949 -29.412  1.00  0.00     0.037 A 
HETATM   41  C   UNL     1      -0.242   6.121 -29.379  1.00  0.00     0.068 A 
HETATM   42  C   UNL     1      -0.104   5.119 -30.340  1.00  0.00     0.037 A 
HETATM   43  C   UNL     1      -1.097   4.916 -31.302  1.00  0.00     0.010 A 
BRANCH  41  44
HETATM   44  O   UNL     1       0.785   6.203 -28.479  1.00  0.00    -0.356 OA
HETATM   45  C   UNL     1       0.944   7.451 -27.815  1.00  0.00     0.210 C 
ENDBRANCH  41  44
ENDBRANCH  37  38
ENDBRANCH  36  37
ENDBRANCH  33  36
ENDBRANCH   1  32
TORSDOF 9
ENDMDL
MODEL 3
REMARK VINA RESULT:      -9.8      1.660      2.034
REMARK  9 active torsions:
REMARK  status: ('A' for Active; 'I' for Inactive)
REMARK    1  A    between atoms: O_2  and  C_3 
REMARK    2  A    between atoms: C_6  and  C_7 
REMARK    3  A    between atoms: C_7  and  C_8 
REMARK    4  A    between atoms: C_8  and  N_9 
REMARK       I    between atoms: N_9  and  C_10 
REMARK    5  A    between atoms: C_10  and  C_11 
REMARK    6  A    between atoms: C_12  and  N_13 
REMARK    7  A    between atoms: N_14  and  C_15 
REMARK    8  A    between atoms: C_18  and  S_19 
REMARK    9  A    between atoms: S_19  and  N_20 
ROOT
HETATM    1  C   UNL     1      -5.198   1.097 -32.260  1.00  0.00     0.103 C 
HETATM    2  C   UNL     1      -6.470   1.492 -31.856  1.00  0.00     0.105 C 
HETATM    3  N   UNL     1      -7.375   0.907 -32.754  1.00  0.00    -0.284 N 
HETATM    4  C   UNL     1      -6.768  -0.274 -33.169  1.00  0.00     0.166 A 
HETATM    5  C   UNL     1      -5.397  -0.120 -32.955  1.00  0.00     0.123 A 
HETATM    6  N   UNL     1      -4.510  -1.050 -33.387  1.00  0.00    -0.242 NA
HETATM    7  C   UNL     1      -5.054  -2.146 -33.933  1.00  0.00     0.086 A 
HETATM    8  C   UNL     1      -6.452  -2.304 -34.101  1.00  0.00     0.088 A 
HETATM    9  N   UNL     1      -7.339  -1.357 -33.747  1.00  0.00    -0.226 NA
HETATM   10  C   UNL     1      -4.209  -3.174 -34.333  1.00  0.00     0.034 A 
HETATM   11  C   UNL     1      -4.705  -4.357 -34.882  1.00  0.00     0.002 A 
HETATM   12  C   UNL     1      -6.074  -4.514 -35.041  1.00  0.00     0.002 A 
HETATM   13  C   UNL     1      -6.934  -3.484 -34.653  1.00  0.00     0.034 A 
ENDROOT
BRANCH   3  14
HETATM   14  C   UNL     1      -8.601   1.486 -33.248  1.00  0.00     0.042 A 
HETATM   15  C   UNL     1      -8.619   2.771 -33.816  1.00  0.00     0.031 A 
HETATM   16  C   UNL     1      -9.830   3.400 -34.136  1.00  0.00     0.027 A 
HETATM   17  C   UNL     1     -11.035   2.739 -33.905  1.00  0.00     0.074 A 
HETATM   18  C   UNL     1     -11.043   1.457 -33.367  1.00  0.00     0.027 A 
HETATM   19  C   UNL     1      -9.835   0.845 -33.026  1.00  0.00     0.031 A 
BRANCH  17  20
HETATM   20  S   UNL     1     -12.574   3.553 -34.237  1.00  0.00     0.243 S 
HETATM   21  O   UNL     1     -12.501   4.128 -35.564  1.00  0.00    -0.206 OA
HETATM   22  O   UNL     1     -13.630   2.632 -33.878  1.00  0.00    -0.206 OA
BRANCH  20  23
HETATM   23  N   UNL     1     -12.595   4.840 -33.125  1.00  0.00    -0.202 NA
HETATM   24  C   UNL     1     -13.746   5.795 -33.199  1.00  0.00     0.134 C 
HETATM   25  C   UNL     1     -14.977   5.282 -32.444  1.00  0.00     0.183 C 
HETATM   26  O   UNL     1     -14.660   4.947 -31.087  1.00  0.00    -0.389 OA
HETATM   27  C   UNL     1     -13.649   3.931 -31.043  1.00  0.00     0.183 C 
HETATM   28  C   UNL     1     -12.357   4.427 -31.704  1.00  0.00     0.134 C 
ENDBRANCH  20  23
ENDBRANCH  17  20
ENDBRANCH   3  14
BRANCH   2  29
HETATM   29  N   UNL     1      -6.824   2.331 -30.840  1.00  0.00    -0.287 NA
HETATM   30  H   UNL     1      -6.914   1.923 -29.906  1.00  0.00     0.125 HD
HETATM   31  H   UNL     1      -7.606   2.969 -31.006  1.00  0.00     0.125 HD
ENDBRANCH   2  29
BRANCH   1  32
HETATM   32  C   UNL     1      -3.945   1.776 -31.959  1.00  0.00     0.257 C 
HETATM   33  N   UNL     1      -3.889   3.061 -32.473  1.00  0.00    -0.356 N 
HETATM   34  H   UNL     1      -4.669   3.340 -33.060  1.00  0.00     0.162 HD
HETATM   35  O   UNL     1      -2.993   1.243 -31.405  1.00  0.00    -0.267 OA
BRANCH  33  36
HETATM   36  C   UNL     1      -2.627   3.725 -32.728  1.00  0.00     0.127 C 
BRANCH  36  37
HETATM   37  C   UNL     1      -2.750   5.255 -32.707  1.00  0.00     0.058 C 
BRANCH  37  38
HETATM   38  C   UNL     1      -1.833   5.925 -31.705  1.00  0.00    -0.057 A 
HETATM   39  C   UNL     1      -2.333   6.432 -30.499  1.00  0.00     0.010 A 
HETATM   40  C   UNL     1      -1.476   7.034 -29.567  1.00  0.00     0.037 A 
HETATM   41  C   UNL     1      -0.111   7.136 -29.832  1.00  0.00     0.068 A 
HETATM   42  C   UNL     1       0.386   6.662 -31.047  1.00  0.00     0.037 A 
HETATM   43  C   UNL     1      -0.465   6.053 -31.974  1.00  0.00     0.010 A 
BRANCH  41  44
HETATM   44  O   UNL     1       0.825   7.688 -29.002  1.00  0.00    -0.356 OA
HETATM   45  C   UNL     1       0.863   7.185 -27.671  1.00  0.00     0.210 C 
ENDBRANCH  41  44
ENDBRANCH  37  38
ENDBRANCH  36  37
ENDBRANCH  33  36
ENDBRANCH   1  32
TORSDOF 9
ENDMDL
MODEL 4
REMARK VINA RESULT:      -9.7      1.782      2.384
REMARK  9 active torsions:
REMARK  status: ('A' for Active; 'I' for Inactive)
REMARK    1  A    between atoms: O_2  and  C_3 
REMARK    2  A    between atoms: C_6  and  C_7 
REMARK    3  A    between atoms: C_7  and  C_8 
REMARK    4  A    between atoms: C_8  and  N_9 
REMARK       I    between atoms: N_9  and  C_10 
REMARK    5  A    between atoms: C_10  and  C_11 
REMARK    6  A    between atoms: C_12  and  N_13 
REMARK    7  A    between atoms: N_14  and  C_15 
REMARK    8  A    between atoms: C_18  and  S_19 
REMARK    9  A    between atoms: S_19  and  N_20 
ROOT
HETATM    1  C   UNL     1      -5.443   0.329 -31.901  1.00  0.00     0.103 C 
HETATM    2  C   UNL     1      -6.757   0.691 -31.621  1.00  0.00     0.105 C 
HETATM    3  N   UNL     1      -7.541   0.207 -32.678  1.00  0.00    -0.284 N 
HETATM    4  C   UNL     1      -6.880  -0.931 -33.132  1.00  0.00     0.166 A 
HETATM    5  C   UNL     1      -5.548  -0.810 -32.735  1.00  0.00     0.123 A 
HETATM    6  N   UNL     1      -4.609  -1.699 -33.145  1.00  0.00    -0.242 NA
HETATM    7  C   UNL     1      -5.076  -2.729 -33.863  1.00  0.00     0.086 A 
HETATM    8  C   UNL     1      -6.441  -2.858 -34.219  1.00  0.00     0.088 A 
HETATM    9  N   UNL     1      -7.370  -1.945 -33.883  1.00  0.00    -0.226 NA
HETATM   10  C   UNL     1      -4.182  -3.718 -34.257  1.00  0.00     0.034 A 
HETATM   11  C   UNL     1      -4.600  -4.836 -34.980  1.00  0.00     0.002 A 
HETATM   12  C   UNL     1      -5.939  -4.965 -35.323  1.00  0.00     0.002 A 
HETATM   13  C   UNL     1      -6.845  -3.973 -34.942  1.00  0.00     0.034 A 
ENDROOT
BRANCH   3  14
HETATM   14  C   UNL     1      -8.698   0.842 -33.259  1.00  0.00     0.042 A 
HETATM   15  C   UNL     1      -8.599   2.094 -33.890  1.00  0.00     0.031 A 
HETATM   16  C   UNL     1      -9.746   2.787 -34.299  1.00  0.00     0.027 A 
HETATM   17  C   UNL     1     -11.005   2.223 -34.095  1.00  0.00     0.074 A 
HETATM   18  C   UNL     1     -11.128   0.975 -33.497  1.00  0.00     0.027 A 
HETATM   19  C   UNL     1      -9.983   0.300 -33.067  1.00  0.00     0.031 A 
BRANCH  17  20
HETATM   20  S   UNL     1     -12.466   3.123 -34.542  1.00  0.00     0.243 S 
HETATM   21  O   UNL     1     -12.699   2.927 -35.957  1.00  0.00    -0.206 OA
HETATM   22  O   UNL     1     -13.481   2.799 -33.565  1.00  0.00    -0.206 OA
BRANCH  20  23
HETATM   23  N   UNL     1     -12.018   4.749 -34.319  1.00  0.00    -0.202 NA
HETATM   24  C   UNL     1     -12.084   5.650 -35.514  1.00  0.00     0.134 C 
HETATM   25  C   UNL     1     -13.495   6.198 -35.753  1.00  0.00     0.183 C 
HETATM   26  O   UNL     1     -14.015   6.840 -34.582  1.00  0.00    -0.389 OA
HETATM   27  C   UNL     1     -14.069   5.918 -33.484  1.00  0.00     0.183 C 
HETATM   28  C   UNL     1     -12.666   5.408 -33.139  1.00  0.00     0.134 C 
ENDBRANCH  20  23
ENDBRANCH  17  20
ENDBRANCH   3  14
BRANCH   2  29
HETATM   29  N   UNL     1      -7.239   1.426 -30.577  1.00  0.00    -0.287 NA
HETATM   30  H   UNL     1      -7.407   2.421 -30.744  1.00  0.00     0.125 HD
HETATM   31  H   UNL     1      -6.786   1.308 -29.668  1.00  0.00     0.125 HD
ENDBRANCH   2  29
BRANCH   1  32
HETATM   32  C   UNL     1      -4.240   0.965 -31.381  1.00  0.00     0.257 C 
HETATM   33  N   UNL     1      -4.316   2.347 -31.379  1.00  0.00    -0.356 N 
HETATM   34  H   UNL     1      -5.142   2.749 -31.813  1.00  0.00     0.162 HD
HETATM   35  O   UNL     1      -3.222   0.357 -31.073  1.00  0.00    -0.267 OA
BRANCH  33  36
HETATM   36  C   UNL     1      -3.127   3.176 -31.379  1.00  0.00     0.127 C 
BRANCH  36  37
HETATM   37  C   UNL     1      -3.257   4.396 -32.302  1.00  0.00     0.058 C 
BRANCH  37  38
HETATM   38  C   UNL     1      -4.688   4.836 -32.530  1.00  0.00    -0.057 A 
HETATM   39  C   UNL     1      -5.401   5.511 -31.531  1.00  0.00     0.010 A 
HETATM   40  C   UNL     1      -6.719   5.932 -31.754  1.00  0.00     0.037 A 
HETATM   41  C   UNL     1      -7.338   5.682 -32.979  1.00  0.00     0.068 A 
HETATM   42  C   UNL     1      -6.643   4.980 -33.964  1.00  0.00     0.037 A 
HETATM   43  C   UNL     1      -5.325   4.567 -33.747  1.00  0.00     0.010 A 
BRANCH  41  44
HETATM   44  O   UNL     1      -8.609   6.051 -33.321  1.00  0.00    -0.356 OA
HETATM   45  C   UNL     1      -9.148   7.173 -32.632  1.00  0.00     0.210 C 
ENDBRANCH  41  44
ENDBRANCH  37  38
ENDBRANCH  36  37
ENDBRANCH  33  36
ENDBRANCH   1  32
TORSDOF 9
ENDMDL
MODEL 5
REMARK VINA RESULT:      -9.5      1.948      2.385
REMARK  9 active torsions:
REMARK  status: ('A' for Active; 'I' for Inactive)
REMARK    1  A    between atoms: O_2  and  C_3 
REMARK    2  A    between atoms: C_6  and  C_7 
REMARK    3  A    between atoms: C_7  and  C_8 
REMARK    4  A    between atoms: C_8  and  N_9 
REMARK       I    between atoms: N_9  and  C_10 
REMARK    5  A    between atoms: C_10  and  C_11 
REMARK    6  A    between atoms: C_12  and  N_13 
REMARK    7  A    between atoms: N_14  and  C_15 
REMARK    8  A    between atoms: C_18  and  S_19 
REMARK    9  A    between atoms: S_19  and  N_20 
ROOT
HETATM    1  C   UNL     1      -5.036   1.972 -32.105  1.00  0.00     0.103 C 
HETATM    2  C   UNL     1      -6.248   2.421 -31.590  1.00  0.00     0.105 C 
HETATM    3  N   UNL     1      -7.255   1.874 -32.398  1.00  0.00    -0.284 N 
HETATM    4  C   UNL     1      -6.739   0.668 -32.861  1.00  0.00     0.166 A 
HETATM    5  C   UNL     1      -5.349   0.763 -32.773  1.00  0.00     0.123 A 
HETATM    6  N   UNL     1      -4.545  -0.204 -33.280  1.00  0.00    -0.242 NA
HETATM    7  C   UNL     1      -5.183  -1.276 -33.768  1.00  0.00     0.086 A 
HETATM    8  C   UNL     1      -6.596  -1.374 -33.808  1.00  0.00     0.088 A 
HETATM    9  N   UNL     1      -7.406  -0.390 -33.379  1.00  0.00    -0.226 NA
HETATM   10  C   UNL     1      -4.422  -2.340 -34.239  1.00  0.00     0.034 A 
HETATM   11  C   UNL     1      -5.016  -3.501 -34.735  1.00  0.00     0.002 A 
HETATM   12  C   UNL     1      -6.400  -3.600 -34.767  1.00  0.00     0.002 A 
HETATM   13  C   UNL     1      -7.176  -2.534 -34.307  1.00  0.00     0.034 A 
ENDROOT
BRANCH   3  14
HETATM   14  C   UNL     1      -8.495   2.505 -32.780  1.00  0.00     0.042 A 
HETATM   15  C   UNL     1      -9.558   2.625 -31.870  1.00  0.00     0.031 A 
HETATM   16  C   UNL     1     -10.817   3.079 -32.288  1.00  0.00     0.027 A 
HETATM   17  C   UNL     1     -11.017   3.431 -33.623  1.00  0.00     0.074 A 
HETATM   18  C   UNL     1      -9.974   3.345 -34.537  1.00  0.00     0.027 A 
HETATM   19  C   UNL     1      -8.729   2.868 -34.120  1.00  0.00     0.031 A 
BRANCH  17  20
HETATM   20  S   UNL     1     -12.623   3.936 -34.178  1.00  0.00     0.243 S 
HETATM   21  O   UNL     1     -12.651   3.836 -35.622  1.00  0.00    -0.206 OA
HETATM   22  O   UNL     1     -13.594   3.241 -33.361  1.00  0.00    -0.206 OA
BRANCH  20  23
HETATM   23  N   UNL     1     -12.683   5.589 -33.780  1.00  0.00    -0.202 NA
HETATM   24  C   UNL     1     -11.423   6.381 -33.941  1.00  0.00     0.134 C 
HETATM   25  C   UNL     1     -11.216   6.860 -35.383  1.00  0.00     0.183 C 
HETATM   26  O   UNL     1     -12.356   7.583 -35.865  1.00  0.00    -0.389 OA
HETATM   27  C   UNL     1     -13.528   6.757 -35.828  1.00  0.00     0.183 C 
HETATM   28  C   UNL     1     -13.838   6.325 -34.391  1.00  0.00     0.134 C 
ENDBRANCH  20  23
ENDBRANCH  17  20
ENDBRANCH   3  14
BRANCH   2  29
HETATM   29  N   UNL     1      -6.471   3.275 -30.550  1.00  0.00    -0.287 NA
HETATM   30  H   UNL     1      -5.691   3.450 -29.911  1.00  0.00     0.125 HD
HETATM   31  H   UNL     1      -7.328   3.144 -30.007  1.00  0.00     0.125 HD
ENDBRANCH   2  29
BRANCH   1  32
HETATM   32  C   UNL     1      -3.733   2.597 -31.924  1.00  0.00     0.257 C 
HETATM   33  N   UNL     1      -3.552   3.712 -32.725  1.00  0.00    -0.356 N 
HETATM   34  H   UNL     1      -4.292   3.906 -33.392  1.00  0.00     0.162 HD
HETATM   35  O   UNL     1      -2.843   2.135 -31.221  1.00  0.00    -0.267 OA
BRANCH  33  36
HETATM   36  C   UNL     1      -2.230   4.189 -33.078  1.00  0.00     0.127 C 
BRANCH  36  37
HETATM   37  C   UNL     1      -2.059   5.695 -32.830  1.00  0.00     0.058 C 
BRANCH  37  38
HETATM   38  C   UNL     1      -1.253   6.018 -31.589  1.00  0.00    -0.057 A 
HETATM   39  C   UNL     1      -1.276   7.302 -31.030  1.00  0.00     0.010 A 
HETATM   40  C   UNL     1      -0.542   7.589 -29.871  1.00  0.00     0.037 A 
HETATM   41  C   UNL     1       0.222   6.596 -29.259  1.00  0.00     0.068 A 
HETATM   42  C   UNL     1       0.274   5.325 -29.832  1.00  0.00     0.037 A 
HETATM   43  C   UNL     1      -0.464   5.033 -30.982  1.00  0.00     0.010 A 
BRANCH  41  44
HETATM   44  O   UNL     1       0.968   6.748 -28.123  1.00  0.00    -0.356 OA
HETATM   45  C   UNL     1       1.182   8.084 -27.683  1.00  0.00     0.210 C 
ENDBRANCH  41  44
ENDBRANCH  37  38
ENDBRANCH  36  37
ENDBRANCH  33  36
ENDBRANCH   1  32
TORSDOF 9
ENDMDL
MODEL 6
REMARK VINA RESULT:      -9.3      2.762      7.482
REMARK  9 active torsions:
REMARK  status: ('A' for Active; 'I' for Inactive)
REMARK    1  A    between atoms: O_2  and  C_3 
REMARK    2  A    between atoms: C_6  and  C_7 
REMARK    3  A    between atoms: C_7  and  C_8 
REMARK    4  A    between atoms: C_8  and  N_9 
REMARK       I    between atoms: N_9  and  C_10 
REMARK    5  A    between atoms: C_10  and  C_11 
REMARK    6  A    between atoms: C_12  and  N_13 
REMARK    7  A    between atoms: N_14  and  C_15 
REMARK    8  A    between atoms: C_18  and  S_19 
REMARK    9  A    between atoms: S_19  and  N_20 
ROOT
HETATM    1  C   UNL     1      -3.768   2.586 -32.019  1.00  0.00     0.103 C 
HETATM    2  C   UNL     1      -4.928   3.083 -32.606  1.00  0.00     0.105 C 
HETATM    3  N   UNL     1      -5.126   4.367 -32.077  1.00  0.00    -0.284 N 
HETATM    4  C   UNL     1      -3.852   4.846 -31.791  1.00  0.00     0.166 A 
HETATM    5  C   UNL     1      -3.022   3.733 -31.655  1.00  0.00     0.123 A 
HETATM    6  N   UNL     1      -1.737   3.859 -31.239  1.00  0.00    -0.242 NA
HETATM    7  C   UNL     1      -1.316   5.120 -31.069  1.00  0.00     0.086 A 
HETATM    8  C   UNL     1      -2.162   6.241 -31.256  1.00  0.00     0.088 A 
HETATM    9  N   UNL     1      -3.458   6.127 -31.595  1.00  0.00    -0.226 NA
HETATM   10  C   UNL     1       0.011   5.330 -30.713  1.00  0.00     0.034 A 
HETATM   11  C   UNL     1       0.529   6.615 -30.548  1.00  0.00     0.002 A 
HETATM   12  C   UNL     1      -0.297   7.714 -30.737  1.00  0.00     0.002 A 
HETATM   13  C   UNL     1      -1.635   7.515 -31.085  1.00  0.00     0.034 A 
ENDROOT
BRANCH   3  14
HETATM   14  C   UNL     1      -6.390   4.987 -31.761  1.00  0.00     0.042 A 
HETATM   15  C   UNL     1      -7.046   4.721 -30.548  1.00  0.00     0.031 A 
HETATM   16  C   UNL     1      -8.348   5.185 -30.316  1.00  0.00     0.027 A 
HETATM   17  C   UNL     1      -8.999   5.935 -31.294  1.00  0.00     0.074 A 
HETATM   18  C   UNL     1      -8.362   6.235 -32.492  1.00  0.00     0.027 A 
HETATM   19  C   UNL     1      -7.074   5.747 -32.729  1.00  0.00     0.031 A 
BRANCH  17  20
HETATM   20  S   UNL     1     -10.672   6.465 -31.041  1.00  0.00     0.243 S 
HETATM   21  O   UNL     1     -10.749   7.111 -29.748  1.00  0.00    -0.206 OA
HETATM   22  O   UNL     1     -11.089   7.150 -32.245  1.00  0.00    -0.206 OA
BRANCH  20  23
HETATM   23  N   UNL     1     -11.542   5.006 -30.935  1.00  0.00    -0.202 NA
HETATM   24  C   UNL     1     -12.973   5.090 -30.505  1.00  0.00     0.134 C 
HETATM   25  C   UNL     1     -13.913   5.423 -31.669  1.00  0.00     0.183 C 
HETATM   26  O   UNL     1     -13.745   4.508 -32.759  1.00  0.00    -0.389 OA
HETATM   27  C   UNL     1     -12.395   4.546 -33.243  1.00  0.00     0.183 C 
HETATM   28  C   UNL     1     -11.415   4.127 -32.142  1.00  0.00     0.134 C 
ENDBRANCH  20  23
ENDBRANCH  17  20
ENDBRANCH   3  14
BRANCH   2  29
HETATM   29  N   UNL     1      -5.778   2.469 -33.478  1.00  0.00    -0.287 NA
HETATM   30  H   UNL     1      -6.692   2.182 -33.117  1.00  0.00     0.125 HD
HETATM   31  H   UNL     1      -5.396   1.721 -34.061  1.00  0.00     0.125 HD
ENDBRANCH   2  29
BRANCH   1  32
HETATM   32  C   UNL     1      -3.402   1.183 -31.882  1.00  0.00     0.257 C 
HETATM   33  N   UNL     1      -3.912   0.388 -32.893  1.00  0.00    -0.356 N 
HETATM   34  H   UNL     1      -4.541   0.847 -33.546  1.00  0.00     0.162 HD
HETATM   35  O   UNL     1      -2.796   0.724 -30.921  1.00  0.00    -0.267 OA
BRANCH  33  36
HETATM   36  C   UNL     1      -4.099  -1.038 -32.721  1.00  0.00     0.127 C 
BRANCH  36  37
HETATM   37  C   UNL     1      -5.038  -1.643 -33.775  1.00  0.00     0.058 C 
BRANCH  37  38
HETATM   38  C   UNL     1      -6.366  -0.925 -33.889  1.00  0.00    -0.057 A 
HETATM   39  C   UNL     1      -7.163  -0.703 -32.759  1.00  0.00     0.010 A 
HETATM   40  C   UNL     1      -8.383  -0.021 -32.869  1.00  0.00     0.037 A 
HETATM   41  C   UNL     1      -8.818   0.446 -34.109  1.00  0.00     0.068 A 
HETATM   42  C   UNL     1      -8.042   0.197 -35.242  1.00  0.00     0.037 A 
HETATM   43  C   UNL     1      -6.822  -0.475 -35.134  1.00  0.00     0.010 A 
BRANCH  41  44
HETATM   44  O   UNL     1      -9.978   1.132 -34.343  1.00  0.00    -0.356 OA
HETATM   45  C   UNL     1     -11.098   0.769 -33.544  1.00  0.00     0.210 C 
ENDBRANCH  41  44
ENDBRANCH  37  38
ENDBRANCH  36  37
ENDBRANCH  33  36
ENDBRANCH   1  32
TORSDOF 9
ENDMDL
MODEL 7
REMARK VINA RESULT:      -9.2      3.734     10.262
REMARK  9 active torsions:
REMARK  status: ('A' for Active; 'I' for Inactive)
REMARK    1  A    between atoms: O_2  and  C_3 
REMARK    2  A    between atoms: C_6  and  C_7 
REMARK    3  A    between atoms: C_7  and  C_8 
REMARK    4  A    between atoms: C_8  and  N_9 
REMARK       I    between atoms: N_9  and  C_10 
REMARK    5  A    between atoms: C_10  and  C_11 
REMARK    6  A    between atoms: C_12  and  N_13 
REMARK    7  A    between atoms: N_14  and  C_15 
REMARK    8  A    between atoms: C_18  and  S_19 
REMARK    9  A    between atoms: S_19  and  N_20 
ROOT
HETATM    1  C   UNL     1      -7.647   3.578 -33.010  1.00  0.00     0.103 C 
HETATM    2  C   UNL     1      -6.753   4.642 -32.946  1.00  0.00     0.105 C 
HETATM    3  N   UNL     1      -5.592   4.154 -32.329  1.00  0.00    -0.284 N 
HETATM    4  C   UNL     1      -5.536   2.806 -32.668  1.00  0.00     0.166 A 
HETATM    5  C   UNL     1      -6.835   2.418 -32.998  1.00  0.00     0.123 A 
HETATM    6  N   UNL     1      -7.140   1.119 -33.244  1.00  0.00    -0.242 NA
HETATM    7  C   UNL     1      -6.096   0.280 -33.240  1.00  0.00     0.086 A 
HETATM    8  C   UNL     1      -4.776   0.701 -32.947  1.00  0.00     0.088 A 
HETATM    9  N   UNL     1      -4.471   1.971 -32.627  1.00  0.00    -0.226 NA
HETATM   10  C   UNL     1      -6.322  -1.055 -33.556  1.00  0.00     0.034 A 
HETATM   11  C   UNL     1      -5.280  -1.982 -33.601  1.00  0.00     0.002 A 
HETATM   12  C   UNL     1      -3.986  -1.568 -33.320  1.00  0.00     0.002 A 
HETATM   13  C   UNL     1      -3.747  -0.232 -32.992  1.00  0.00     0.034 A 
ENDROOT
BRANCH   3  14
HETATM   14  C   UNL     1      -4.731   4.868 -31.418  1.00  0.00     0.042 A 
HETATM   15  C   UNL     1      -5.239   5.449 -30.244  1.00  0.00     0.031 A 
HETATM   16  C   UNL     1      -4.442   6.285 -29.450  1.00  0.00     0.027 A 
HETATM   17  C   UNL     1      -3.120   6.534 -29.818  1.00  0.00     0.074 A 
HETATM   18  C   UNL     1      -2.586   5.950 -30.961  1.00  0.00     0.027 A 
HETATM   19  C   UNL     1      -3.393   5.138 -31.762  1.00  0.00     0.031 A 
BRANCH  17  20
HETATM   20  S   UNL     1      -2.125   7.647 -28.863  1.00  0.00     0.243 S 
HETATM   21  O   UNL     1      -1.754   8.759 -29.712  1.00  0.00    -0.206 OA
HETATM   22  O   UNL     1      -2.811   7.860 -27.607  1.00  0.00    -0.206 OA
BRANCH  20  23
HETATM   23  N   UNL     1      -0.713   6.753 -28.548  1.00  0.00    -0.202 NA
HETATM   24  C   UNL     1       0.577   7.295 -29.081  1.00  0.00     0.134 C 
HETATM   25  C   UNL     1       1.189   8.355 -28.158  1.00  0.00     0.183 C 
HETATM   26  O   UNL     1       1.339   7.864 -26.820  1.00  0.00    -0.389 OA
HETATM   27  C   UNL     1       0.067   7.476 -26.282  1.00  0.00     0.183 C 
HETATM   28  C   UNL     1      -0.550   6.347 -27.114  1.00  0.00     0.134 C 
ENDBRANCH  20  23
ENDBRANCH  17  20
ENDBRANCH   3  14
BRANCH   2  29
HETATM   29  N   UNL     1      -6.936   5.938 -33.330  1.00  0.00    -0.287 NA
HETATM   30  H   UNL     1      -7.655   6.475 -32.837  1.00  0.00     0.125 HD
HETATM   31  H   UNL     1      -7.000   6.129 -34.332  1.00  0.00     0.125 HD
ENDBRANCH   2  29
BRANCH   1  32
HETATM   32  C   UNL     1      -9.096   3.670 -33.130  1.00  0.00     0.257 C 
HETATM   33  N   UNL     1      -9.618   2.806 -34.077  1.00  0.00    -0.356 N 
HETATM   34  H   UNL     1      -8.940   2.287 -34.628  1.00  0.00     0.162 HD
HETATM   35  O   UNL     1      -9.781   4.495 -32.538  1.00  0.00    -0.267 OA
BRANCH  33  36
HETATM   36  C   UNL     1     -10.900   3.049 -34.705  1.00  0.00     0.127 C 
BRANCH  36  37
HETATM   37  C   UNL     1     -11.758   1.779 -34.808  1.00  0.00     0.058 C 
BRANCH  37  38
HETATM   38  C   UNL     1     -13.062   1.863 -34.045  1.00  0.00    -0.057 A 
HETATM   39  C   UNL     1     -13.195   2.711 -32.938  1.00  0.00     0.010 A 
HETATM   40  C   UNL     1     -14.412   2.799 -32.247  1.00  0.00     0.037 A 
HETATM   41  C   UNL     1     -15.507   2.038 -32.655  1.00  0.00     0.068 A 
HETATM   42  C   UNL     1     -15.369   1.167 -33.736  1.00  0.00     0.037 A 
HETATM   43  C   UNL     1     -14.160   1.085 -34.432  1.00  0.00     0.010 A 
BRANCH  41  44
HETATM   44  O   UNL     1     -16.745   2.044 -32.073  1.00  0.00    -0.356 OA
HETATM   45  C   UNL     1     -17.448   3.280 -32.100  1.00  0.00     0.210 C 
ENDBRANCH  41  44
ENDBRANCH  37  38
ENDBRANCH  36  37
ENDBRANCH  33  36
ENDBRANCH   1  32
TORSDOF 9
ENDMDL
MODEL 8
REMARK VINA RESULT:      -9.1      3.882     10.030
REMARK  9 active torsions:
REMARK  status: ('A' for Active; 'I' for Inactive)
REMARK    1  A    between atoms: O_2  and  C_3 
REMARK    2  A    between atoms: C_6  and  C_7 
REMARK    3  A    between atoms: C_7  and  C_8 
REMARK    4  A    between atoms: C_8  and  N_9 
REMARK       I    between atoms: N_9  and  C_10 
REMARK    5  A    between atoms: C_10  and  C_11 
REMARK    6  A    between atoms: C_12  and  N_13 
REMARK    7  A    between atoms: N_14  and  C_15 
REMARK    8  A    between atoms: C_18  and  S_19 
REMARK    9  A    between atoms: S_19  and  N_20 
ROOT
HETATM    1  C   UNL     1      -6.802   3.679 -33.264  1.00  0.00     0.103 C 
HETATM    2  C   UNL     1      -5.958   4.785 -33.215  1.00  0.00     0.105 C 
HETATM    3  N   UNL     1      -4.954   4.483 -32.284  1.00  0.00    -0.284 N 
HETATM    4  C   UNL     1      -4.807   3.100 -32.339  1.00  0.00     0.166 A 
HETATM    5  C   UNL     1      -5.997   2.588 -32.857  1.00  0.00     0.123 A 
HETATM    6  N   UNL     1      -6.223   1.251 -32.909  1.00  0.00    -0.242 NA
HETATM    7  C   UNL     1      -5.194   0.485 -32.523  1.00  0.00     0.086 A 
HETATM    8  C   UNL     1      -3.975   1.025 -32.041  1.00  0.00     0.088 A 
HETATM    9  N   UNL     1      -3.766   2.347 -31.913  1.00  0.00    -0.226 NA
HETATM   10  C   UNL     1      -5.327  -0.895 -32.617  1.00  0.00     0.034 A 
HETATM   11  C   UNL     1      -4.288  -1.756 -32.262  1.00  0.00     0.002 A 
HETATM   12  C   UNL     1      -3.092  -1.227 -31.796  1.00  0.00     0.002 A 
HETATM   13  C   UNL     1      -2.950   0.157 -31.687  1.00  0.00     0.034 A 
ENDROOT
BRANCH   3  14
HETATM   14  C   UNL     1      -4.323   5.398 -31.364  1.00  0.00     0.042 A 
HETATM   15  C   UNL     1      -2.983   5.785 -31.531  1.00  0.00     0.031 A 
HETATM   16  C   UNL     1      -2.321   6.533 -30.547  1.00  0.00     0.027 A 
HETATM   17  C   UNL     1      -3.004   6.915 -29.393  1.00  0.00     0.074 A 
HETATM   18  C   UNL     1      -4.338   6.567 -29.216  1.00  0.00     0.027 A 
HETATM   19  C   UNL     1      -4.984   5.799 -30.188  1.00  0.00     0.031 A 
BRANCH  17  20
HETATM   20  S   UNL     1      -2.157   7.798 -28.110  1.00  0.00     0.243 S 
HETATM   21  O   UNL     1      -1.449   6.835 -27.293  1.00  0.00    -0.206 OA
HETATM   22  O   UNL     1      -1.461   8.900 -28.739  1.00  0.00    -0.206 OA
BRANCH  20  23
HETATM   23  N   UNL     1      -3.418   8.439 -27.165  1.00  0.00    -0.202 NA
HETATM   24  C   UNL     1      -3.739   7.739 -25.881  1.00  0.00     0.134 C 
HETATM   25  C   UNL     1      -2.820   8.177 -24.734  1.00  0.00     0.183 C 
HETATM   26  O   UNL     1      -2.825   9.601 -24.571  1.00  0.00    -0.389 OA
HETATM   27  C   UNL     1      -2.383  10.246 -25.774  1.00  0.00     0.183 C 
HETATM   28  C   UNL     1      -3.324   9.918 -26.938  1.00  0.00     0.134 C 
ENDBRANCH  20  23
ENDBRANCH  17  20
ENDBRANCH   3  14
BRANCH   2  29
HETATM   29  N   UNL     1      -6.070   5.976 -33.870  1.00  0.00    -0.287 NA
HETATM   30  H   UNL     1      -6.270   6.805 -33.304  1.00  0.00     0.125 HD
HETATM   31  H   UNL     1      -6.644   5.998 -34.715  1.00  0.00     0.125 HD
ENDBRANCH   2  29
BRANCH   1  32
HETATM   32  C   UNL     1      -8.190   3.669 -33.704  1.00  0.00     0.257 C 
HETATM   33  N   UNL     1      -8.810   2.446 -33.513  1.00  0.00    -0.356 N 
HETATM   34  H   UNL     1      -8.215   1.693 -33.180  1.00  0.00     0.162 HD
HETATM   35  O   UNL     1      -8.733   4.603 -34.282  1.00  0.00    -0.267 OA
BRANCH  33  36
HETATM   36  C   UNL     1      -9.971   2.051 -34.283  1.00  0.00     0.127 C 
BRANCH  36  37
HETATM   37  C   UNL     1     -10.716   0.860 -33.663  1.00  0.00     0.058 C 
BRANCH  37  38
HETATM   38  C   UNL     1     -12.213   1.063 -33.569  1.00  0.00    -0.057 A 
HETATM   39  C   UNL     1     -13.102   0.036 -33.913  1.00  0.00     0.010 A 
HETATM   40  C   UNL     1     -14.487   0.224 -33.806  1.00  0.00     0.037 A 
HETATM   41  C   UNL     1     -14.998   1.441 -33.354  1.00  0.00     0.068 A 
HETATM   42  C   UNL     1     -14.117   2.477 -33.043  1.00  0.00     0.037 A 
HETATM   43  C   UNL     1     -12.735   2.289 -33.140  1.00  0.00     0.010 A 
BRANCH  41  44
HETATM   44  O   UNL     1     -16.322   1.741 -33.196  1.00  0.00    -0.356 OA
HETATM   45  C   UNL     1     -16.652   2.576 -32.091  1.00  0.00     0.210 C 
ENDBRANCH  41  44
ENDBRANCH  37  38
ENDBRANCH  36  37
ENDBRANCH  33  36
ENDBRANCH   1  32
TORSDOF 9
ENDMDL
MODEL 9
REMARK VINA RESULT:      -9.0      3.983     10.376
REMARK  9 active torsions:
REMARK  status: ('A' for Active; 'I' for Inactive)
REMARK    1  A    between atoms: O_2  and  C_3 
REMARK    2  A    between atoms: C_6  and  C_7 
REMARK    3  A    between atoms: C_7  and  C_8 
REMARK    4  A    between atoms: C_8  and  N_9 
REMARK       I    between atoms: N_9  and  C_10 
REMARK    5  A    between atoms: C_10  and  C_11 
REMARK    6  A    between atoms: C_12  and  N_13 
REMARK    7  A    between atoms: N_14  and  C_15 
REMARK    8  A    between atoms: C_18  and  S_19 
REMARK    9  A    between atoms: S_19  and  N_20 
ROOT
HETATM    1  C   UNL     1      -7.646   2.839 -31.605  1.00  0.00     0.103 C 
HETATM    2  C   UNL     1      -7.087   3.225 -30.391  1.00  0.00     0.105 C 
HETATM    3  N   UNL     1      -6.784   4.589 -30.503  1.00  0.00    -0.284 N 
HETATM    4  C   UNL     1      -7.727   5.101 -31.390  1.00  0.00     0.166 A 
HETATM    5  C   UNL     1      -8.194   4.027 -32.148  1.00  0.00     0.123 A 
HETATM    6  N   UNL     1      -9.028   4.219 -33.200  1.00  0.00    -0.242 NA
HETATM    7  C   UNL     1      -9.432   5.483 -33.383  1.00  0.00     0.086 A 
HETATM    8  C   UNL     1      -8.981   6.555 -32.574  1.00  0.00     0.088 A 
HETATM    9  N   UNL     1      -8.095   6.391 -31.575  1.00  0.00    -0.226 NA
HETATM   10  C   UNL     1     -10.344   5.744 -34.398  1.00  0.00     0.034 A 
HETATM   11  C   UNL     1     -10.833   7.031 -34.629  1.00  0.00     0.002 A 
HETATM   12  C   UNL     1     -10.396   8.080 -33.833  1.00  0.00     0.002 A 
HETATM   13  C   UNL     1      -9.472   7.832 -32.816  1.00  0.00     0.034 A 
ENDROOT
BRANCH   3  14
HETATM   14  C   UNL     1      -5.648   5.274 -29.936  1.00  0.00     0.042 A 
HETATM   15  C   UNL     1      -5.707   5.832 -28.647  1.00  0.00     0.031 A 
HETATM   16  C   UNL     1      -4.670   6.642 -28.165  1.00  0.00     0.027 A 
HETATM   17  C   UNL     1      -3.555   6.887 -28.966  1.00  0.00     0.074 A 
HETATM   18  C   UNL     1      -3.461   6.326 -30.234  1.00  0.00     0.027 A 
HETATM   19  C   UNL     1      -4.510   5.541 -30.720  1.00  0.00     0.031 A 
BRANCH  17  20
HETATM   20  S   UNL     1      -2.271   7.969 -28.396  1.00  0.00     0.243 S 
HETATM   21  O   UNL     1      -1.230   8.001 -29.401  1.00  0.00    -0.206 OA
HETATM   22  O   UNL     1      -2.910   9.185 -27.942  1.00  0.00    -0.206 OA
BRANCH  20  23
HETATM   23  N   UNL     1      -1.643   7.163 -27.036  1.00  0.00    -0.202 NA
HETATM   24  C   UNL     1      -0.380   6.382 -27.223  1.00  0.00     0.134 C 
HETATM   25  C   UNL     1       0.870   7.263 -27.126  1.00  0.00     0.183 C 
HETATM   26  O   UNL     1       0.893   8.012 -25.905  1.00  0.00    -0.389 OA
HETATM   27  C   UNL     1      -0.263   8.856 -25.811  1.00  0.00     0.183 C 
HETATM   28  C   UNL     1      -1.545   8.017 -25.807  1.00  0.00     0.134 C 
ENDBRANCH  20  23
ENDBRANCH  17  20
ENDBRANCH   3  14
BRANCH   2  29
HETATM   29  N   UNL     1      -6.805   2.460 -29.297  1.00  0.00    -0.287 NA
HETATM   30  H   UNL     1      -6.404   2.935 -28.484  1.00  0.00     0.125 HD
HETATM   31  H   UNL     1      -6.308   1.580 -29.452  1.00  0.00     0.125 HD
ENDBRANCH   2  29
BRANCH   1  32
HETATM   32  C   UNL     1      -7.699   1.487 -32.143  1.00  0.00     0.257 C 
HETATM   33  N   UNL     1      -7.786   1.457 -33.525  1.00  0.00    -0.356 N 
HETATM   34  H   UNL     1      -7.891   2.357 -33.984  1.00  0.00     0.162 HD
HETATM   35  O   UNL     1      -7.767   0.477 -31.454  1.00  0.00    -0.267 OA
BRANCH  33  36
HETATM   36  C   UNL     1      -8.326   0.312 -34.229  1.00  0.00     0.127 C 
BRANCH  36  37
HETATM   37  C   UNL     1      -7.361  -0.238 -35.290  1.00  0.00     0.058 C 
BRANCH  37  38
HETATM   38  C   UNL     1      -6.354  -1.226 -34.741  1.00  0.00    -0.057 A 
HETATM   39  C   UNL     1      -6.461  -2.594 -35.021  1.00  0.00     0.010 A 
HETATM   40  C   UNL     1      -5.514  -3.501 -34.525  1.00  0.00     0.037 A 
HETATM   41  C   UNL     1      -4.451  -3.049 -33.743  1.00  0.00     0.068 A 
HETATM   42  C   UNL     1      -4.360  -1.692 -33.435  1.00  0.00     0.037 A 
HETATM   43  C   UNL     1      -5.297  -0.784 -33.935  1.00  0.00     0.010 A 
BRANCH  41  44
HETATM   44  O   UNL     1      -3.461  -3.829 -33.213  1.00  0.00    -0.356 OA
HETATM   45  C   UNL     1      -3.009  -3.478 -31.910  1.00  0.00     0.210 C 
ENDBRANCH  41  44
ENDBRANCH  37  38
ENDBRANCH  36  37
ENDBRANCH  33  36
ENDBRANCH   1  32
TORSDOF 9
ENDMDL
MODEL 10
REMARK VINA RESULT:      -8.9      3.464     10.181
REMARK  9 active torsions:
REMARK  status: ('A' for Active; 'I' for Inactive)
REMARK    1  A    between atoms: O_2  and  C_3 
REMARK    2  A    between atoms: C_6  and  C_7 
REMARK    3  A    between atoms: C_7  and  C_8 
REMARK    4  A    between atoms: C_8  and  N_9 
REMARK       I    between atoms: N_9  and  C_10 
REMARK    5  A    between atoms: C_10  and  C_11 
REMARK    6  A    between atoms: C_12  and  N_13 
REMARK    7  A    between atoms: N_14  and  C_15 
REMARK    8  A    between atoms: C_18  and  S_19 
REMARK    9  A    between atoms: S_19  and  N_20 
ROOT
HETATM    1  C   UNL     1      -9.438   3.722 -33.600  1.00  0.00     0.103 C 
HETATM    2  C   UNL     1      -8.636   4.739 -34.109  1.00  0.00     0.105 C 
HETATM    3  N   UNL     1      -7.307   4.359 -33.871  1.00  0.00    -0.284 N 
HETATM    4  C   UNL     1      -7.313   2.968 -33.897  1.00  0.00     0.166 A 
HETATM    5  C   UNL     1      -8.622   2.565 -33.629  1.00  0.00     0.123 A 
HETATM    6  N   UNL     1      -8.932   1.257 -33.449  1.00  0.00    -0.242 NA
HETATM    7  C   UNL     1      -7.920   0.401 -33.643  1.00  0.00     0.086 A 
HETATM    8  C   UNL     1      -6.606   0.827 -33.959  1.00  0.00     0.088 A 
HETATM    9  N   UNL     1      -6.268   2.124 -34.066  1.00  0.00    -0.226 NA
HETATM   10  C   UNL     1      -8.180  -0.961 -33.546  1.00  0.00     0.034 A 
HETATM   11  C   UNL     1      -7.183  -1.913 -33.764  1.00  0.00     0.002 A 
HETATM   12  C   UNL     1      -5.898  -1.496 -34.080  1.00  0.00     0.002 A 
HETATM   13  C   UNL     1      -5.622  -0.130 -34.170  1.00  0.00     0.034 A 
ENDROOT
BRANCH   3  14
HETATM   14  C   UNL     1      -6.207   5.227 -33.526  1.00  0.00     0.042 A 
HETATM   15  C   UNL     1      -4.985   5.157 -34.215  1.00  0.00     0.031 A 
HETATM   16  C   UNL     1      -3.865   5.875 -33.771  1.00  0.00     0.027 A 
HETATM   17  C   UNL     1      -3.967   6.683 -32.638  1.00  0.00     0.074 A 
HETATM   18  C   UNL     1      -5.172   6.788 -31.954  1.00  0.00     0.027 A 
HETATM   19  C   UNL     1      -6.277   6.051 -32.387  1.00  0.00     0.031 A 
BRANCH  17  20
HETATM   20  S   UNL     1      -2.539   7.536 -32.025  1.00  0.00     0.243 S 
HETATM   21  O   UNL     1      -1.531   7.530 -33.063  1.00  0.00    -0.206 OA
HETATM   22  O   UNL     1      -3.003   8.775 -31.439  1.00  0.00    -0.206 OA
BRANCH  20  23
HETATM   23  N   UNL     1      -1.983   6.534 -30.768  1.00  0.00    -0.202 NA
HETATM   24  C   UNL     1      -0.705   5.788 -30.999  1.00  0.00     0.134 C 
HETATM   25  C   UNL     1       0.531   6.644 -30.699  1.00  0.00     0.183 C 
HETATM   26  O   UNL     1       0.479   7.200 -29.379  1.00  0.00    -0.389 OA
HETATM   27  C   UNL     1      -0.687   8.021 -29.226  1.00  0.00     0.183 C 
HETATM   28  C   UNL     1      -1.961   7.192 -29.421  1.00  0.00     0.134 C 
ENDBRANCH  20  23
ENDBRANCH  17  20
ENDBRANCH   3  14
BRANCH   2  29
HETATM   29  N   UNL     1      -9.010   5.921 -34.678  1.00  0.00    -0.287 NA
HETATM   30  H   UNL     1      -9.523   6.582 -34.089  1.00  0.00     0.125 HD
HETATM   31  H   UNL     1      -9.447   5.883 -35.601  1.00  0.00     0.125 HD
ENDBRANCH   2  29
BRANCH   1  32
HETATM   32  C   UNL     1     -10.832   3.840 -33.195  1.00  0.00     0.257 C 
HETATM   33  N   UNL     1     -11.622   2.805 -33.665  1.00  0.00    -0.356 N 
HETATM   34  H   UNL     1     -11.169   2.150 -34.296  1.00  0.00     0.162 HD
HETATM   35  O   UNL     1     -11.291   4.802 -32.592  1.00  0.00    -0.267 OA
BRANCH  33  36
HETATM   36  C   UNL     1     -13.056   2.948 -33.813  1.00  0.00     0.127 C 
BRANCH  36  37
HETATM   37  C   UNL     1     -13.838   2.255 -32.688  1.00  0.00     0.058 C 
BRANCH  37  38
HETATM   38  C   UNL     1     -15.127   2.960 -32.321  1.00  0.00    -0.057 A 
HETATM   39  C   UNL     1     -15.133   4.321 -31.988  1.00  0.00     0.010 A 
HETATM   40  C   UNL     1     -16.332   4.972 -31.666  1.00  0.00     0.037 A 
HETATM   41  C   UNL     1     -17.537   4.269 -31.674  1.00  0.00     0.068 A 
HETATM   42  C   UNL     1     -17.530   2.907 -31.973  1.00  0.00     0.037 A 
HETATM   43  C   UNL     1     -16.337   2.257 -32.302  1.00  0.00     0.010 A 
BRANCH  41  44
HETATM   44  O   UNL     1     -18.768   4.793 -31.392  1.00  0.00    -0.356 OA
HETATM   45  C   UNL     1     -19.061   5.012 -30.017  1.00  0.00     0.210 C 
ENDBRANCH  41  44
ENDBRANCH  37  38
ENDBRANCH  36  37
ENDBRANCH  33  36
ENDBRANCH   1  32
TORSDOF 9
ENDMDL
