MODEL 1
REMARK VINA RESULT:      -7.9      0.000      0.000
REMARK  2 active torsions:
REMARK  status: ('A' for Active; 'I' for Inactive)
REMARK    1  A    between atoms: C_6  and  N_7 
REMARK       I    between atoms: N_7  and  C_8 
REMARK       I    between atoms: C_8  and  N_9 
REMARK    2  A    between atoms: N_9  and  C_10 
ROOT
HETATM    1  N   UNL     1      -4.285  -1.193 -33.588  1.00  0.00    -0.306 N 
HETATM    2  C   UNL     1      -5.180  -0.176 -33.473  1.00  0.00     0.321 C 
HETATM    3  N   UNL     1      -6.504  -0.458 -33.594  1.00  0.00    -0.338 N 
HETATM    4  O   UNL     1      -4.778   0.933 -33.127  1.00  0.00    -0.247 OA
HETATM    5  H   UNL     1      -3.392  -0.905 -33.202  1.00  0.00     0.171 HD
HETATM    6  H   UNL     1      -6.736  -1.203 -34.234  1.00  0.00     0.164 HD
ENDROOT
BRANCH   3   7
HETATM    7  C   UNL     1      -7.557   0.519 -33.345  1.00  0.00     0.092 C 
HETATM    8  C   UNL     1      -8.658   0.472 -34.444  1.00  0.00     0.084 C 
HETATM    9  C   UNL     1      -9.807   1.290 -34.019  1.00  0.00     0.034 A 
HETATM   10  C   UNL     1     -10.031   1.759 -32.744  1.00  0.00     0.033 A 
HETATM   11  N   UNL     1     -10.876   1.714 -34.780  1.00  0.00    -0.354 N 
HETATM   12  N   UNL     1     -11.221   2.454 -32.794  1.00  0.00    -0.354 N 
HETATM   13  C   UNL     1      -9.136   1.562 -31.588  1.00  0.00     0.061 C 
HETATM   14  H   UNL     1     -11.662   2.923 -32.006  1.00  0.00     0.166 HD
HETATM   15  C   UNL     1     -11.733   2.414 -34.029  1.00  0.00     0.180 A 
HETATM   16  C   UNL     1      -8.133   0.431 -31.901  1.00  0.00     0.031 C 
HETATM   17  H   UNL     1     -11.011   1.510 -35.768  1.00  0.00     0.166 HD
ENDBRANCH   3   7
BRANCH   1  18
HETATM   18  C   UNL     1      -4.447  -2.579 -33.815  1.00  0.00     0.077 A 
HETATM   19  C   UNL     1      -3.790  -3.640 -33.189  1.00  0.00     0.152 A 
HETATM   20  N   UNL     1      -3.955  -4.945 -33.509  1.00  0.00    -0.247 NA
HETATM   21 CL   UNL     1      -2.797  -3.465 -31.789  1.00  0.00    -0.060 Cl
HETATM   22  C   UNL     1      -4.855  -5.228 -34.472  1.00  0.00     0.118 A 
HETATM   23  C   UNL     1      -5.610  -4.265 -35.114  1.00  0.00     0.022 A 
HETATM   24  C   UNL     1      -5.411  -2.929 -34.770  1.00  0.00     0.034 A 
ENDBRANCH   1  18
TORSDOF 2
ENDMDL
MODEL 2
REMARK VINA RESULT:      -7.9      3.090      7.490
REMARK  2 active torsions:
REMARK  status: ('A' for Active; 'I' for Inactive)
REMARK    1  A    between atoms: C_6  and  N_7 
REMARK       I    between atoms: N_7  and  C_8 
REMARK       I    between atoms: C_8  and  N_9 
REMARK    2  A    between atoms: N_9  and  C_10 
ROOT
HETATM    1  N   UNL     1     -10.562   1.685 -32.566  1.00  0.00    -0.306 N 
HETATM    2  C   UNL     1      -9.468   0.907 -32.344  1.00  0.00     0.321 C 
HETATM    3  N   UNL     1      -8.823   0.372 -33.413  1.00  0.00    -0.338 N 
HETATM    4  O   UNL     1      -9.017   0.829 -31.203  1.00  0.00    -0.247 OA
HETATM    5  H   UNL     1     -10.762   2.235 -31.737  1.00  0.00     0.171 HD
HETATM    6  H   UNL     1      -9.408   0.128 -34.200  1.00  0.00     0.164 HD
ENDROOT
BRANCH   3   7
HETATM    7  C   UNL     1      -7.562  -0.351 -33.308  1.00  0.00     0.092 C 
HETATM    8  C   UNL     1      -7.543  -1.613 -34.219  1.00  0.00     0.084 C 
HETATM    9  C   UNL     1      -6.176  -2.160 -34.267  1.00  0.00     0.034 A 
HETATM   10  C   UNL     1      -5.036  -1.509 -33.853  1.00  0.00     0.033 A 
HETATM   11  N   UNL     1      -5.768  -3.387 -34.749  1.00  0.00    -0.354 N 
HETATM   12  N   UNL     1      -3.991  -2.375 -34.095  1.00  0.00    -0.354 N 
HETATM   13  C   UNL     1      -4.987  -0.165 -33.247  1.00  0.00     0.061 C 
HETATM   14  H   UNL     1      -3.010  -2.185 -33.897  1.00  0.00     0.166 HD
HETATM   15  C   UNL     1      -4.440  -3.508 -34.648  1.00  0.00     0.180 A 
HETATM   16  C   UNL     1      -6.321   0.566 -33.511  1.00  0.00     0.031 C 
HETATM   17  H   UNL     1      -6.382  -4.095 -35.146  1.00  0.00     0.166 HD
ENDBRANCH   3   7
BRANCH   1  18
HETATM   18  C   UNL     1     -11.213   2.088 -33.753  1.00  0.00     0.077 A 
HETATM   19  C   UNL     1     -12.238   1.434 -34.442  1.00  0.00     0.152 A 
HETATM   20  N   UNL     1     -12.768   1.854 -35.615  1.00  0.00    -0.247 NA
HETATM   21 CL   UNL     1     -13.109   0.083 -33.814  1.00  0.00    -0.060 Cl
HETATM   22  C   UNL     1     -12.296   3.011 -36.119  1.00  0.00     0.118 A 
HETATM   23  C   UNL     1     -11.331   3.776 -35.491  1.00  0.00     0.022 A 
HETATM   24  C   UNL     1     -10.796   3.313 -34.290  1.00  0.00     0.034 A 
ENDBRANCH   1  18
TORSDOF 2
ENDMDL
MODEL 3
REMARK VINA RESULT:      -7.8      9.167     10.997
REMARK  2 active torsions:
REMARK  status: ('A' for Active; 'I' for Inactive)
REMARK    1  A    between atoms: C_6  and  N_7 
REMARK       I    between atoms: N_7  and  C_8 
REMARK       I    between atoms: C_8  and  N_9 
REMARK    2  A    between atoms: N_9  and  C_10 
ROOT
HETATM    1  N   UNL     1       0.757   5.648 -28.483  1.00  0.00    -0.306 N 
HETATM    2  C   UNL     1       0.254   5.211 -29.668  1.00  0.00     0.321 C 
HETATM    3  N   UNL     1      -0.682   5.968 -30.297  1.00  0.00    -0.338 N 
HETATM    4  O   UNL     1       0.761   4.225 -30.201  1.00  0.00    -0.247 OA
HETATM    5  H   UNL     1       1.621   5.157 -28.278  1.00  0.00     0.171 HD
HETATM    6  H   UNL     1      -1.311   6.478 -29.692  1.00  0.00     0.164 HD
ENDROOT
BRANCH   3   7
HETATM    7  C   UNL     1      -1.182   5.678 -31.635  1.00  0.00     0.092 C 
HETATM    8  C   UNL     1      -2.698   5.324 -31.620  1.00  0.00     0.084 C 
HETATM    9  C   UNL     1      -3.203   5.285 -33.003  1.00  0.00     0.034 A 
HETATM   10  C   UNL     1      -2.555   5.785 -34.109  1.00  0.00     0.033 A 
HETATM   11  N   UNL     1      -4.406   4.783 -33.454  1.00  0.00    -0.354 N 
HETATM   12  N   UNL     1      -3.390   5.555 -35.181  1.00  0.00    -0.354 N 
HETATM   13  C   UNL     1      -1.217   6.408 -34.111  1.00  0.00     0.061 C 
HETATM   14  H   UNL     1      -3.194   5.811 -36.147  1.00  0.00     0.166 HD
HETATM   15  C   UNL     1      -4.516   4.956 -34.776  1.00  0.00     0.180 A 
HETATM   16  C   UNL     1      -0.825   6.787 -32.667  1.00  0.00     0.031 C 
HETATM   17  H   UNL     1      -5.123   4.360 -32.868  1.00  0.00     0.166 HD
ENDBRANCH   3   7
BRANCH   1  18
HETATM   18  C   UNL     1       0.500   6.805 -27.713  1.00  0.00     0.077 A 
HETATM   19  C   UNL     1      -0.352   6.940 -26.613  1.00  0.00     0.152 A 
HETATM   20  N   UNL     1      -0.594   8.104 -25.966  1.00  0.00    -0.247 NA
HETATM   21 CL   UNL     1      -1.090   5.610 -25.800  1.00  0.00    -0.060 Cl
HETATM   22  C   UNL     1       0.074   9.192 -26.395  1.00  0.00     0.118 A 
HETATM   23  C   UNL     1       0.990   9.163 -27.429  1.00  0.00     0.022 A 
HETATM   24  C   UNL     1       1.212   7.953 -28.084  1.00  0.00     0.034 A 
ENDBRANCH   1  18
TORSDOF 2
ENDMDL
MODEL 4
REMARK VINA RESULT:      -7.5      4.414      5.809
REMARK  2 active torsions:
REMARK  status: ('A' for Active; 'I' for Inactive)
REMARK    1  A    between atoms: C_6  and  N_7 
REMARK       I    between atoms: N_7  and  C_8 
REMARK       I    between atoms: C_8  and  N_9 
REMARK    2  A    between atoms: N_9  and  C_10 
ROOT
HETATM    1  N   UNL     1      -5.815   0.084 -31.686  1.00  0.00    -0.306 N 
HETATM    2  C   UNL     1      -5.374   1.364 -31.566  1.00  0.00     0.321 C 
HETATM    3  N   UNL     1      -4.636   1.896 -32.576  1.00  0.00    -0.338 N 
HETATM    4  O   UNL     1      -5.772   2.044 -30.621  1.00  0.00    -0.247 OA
HETATM    5  H   UNL     1      -6.567  -0.081 -31.025  1.00  0.00     0.171 HD
HETATM    6  H   UNL     1      -4.037   1.248 -33.067  1.00  0.00     0.164 HD
ENDROOT
BRANCH   3   7
HETATM    7  C   UNL     1      -4.236   3.297 -32.625  1.00  0.00     0.092 C 
HETATM    8  C   UNL     1      -2.695   3.451 -32.777  1.00  0.00     0.084 C 
HETATM    9  C   UNL     1      -2.372   4.858 -33.070  1.00  0.00     0.034 A 
HETATM   10  C   UNL     1      -3.271   5.823 -33.465  1.00  0.00     0.033 A 
HETATM   11  N   UNL     1      -1.137   5.471 -33.039  1.00  0.00    -0.354 N 
HETATM   12  N   UNL     1      -2.540   6.978 -33.646  1.00  0.00    -0.354 N 
HETATM   13  C   UNL     1      -4.725   5.628 -33.621  1.00  0.00     0.061 C 
HETATM   14  H   UNL     1      -2.921   7.875 -33.941  1.00  0.00     0.166 HD
HETATM   15  C   UNL     1      -1.245   6.755 -33.396  1.00  0.00     0.180 A 
HETATM   16  C   UNL     1      -5.038   4.117 -33.677  1.00  0.00     0.031 C 
HETATM   17  H   UNL     1      -0.260   5.012 -32.800  1.00  0.00     0.166 HD
ENDBRANCH   3   7
BRANCH   1  18
HETATM   18  C   UNL     1      -5.665  -0.879 -32.711  1.00  0.00     0.077 A 
HETATM   19  C   UNL     1      -4.547  -1.666 -33.000  1.00  0.00     0.152 A 
HETATM   20  N   UNL     1      -4.458  -2.523 -34.044  1.00  0.00    -0.247 NA
HETATM   21 CL   UNL     1      -3.171  -1.798 -31.967  1.00  0.00    -0.060 Cl
HETATM   22  C   UNL     1      -5.549  -2.650 -34.825  1.00  0.00     0.118 A 
HETATM   23  C   UNL     1      -6.732  -1.972 -34.595  1.00  0.00     0.022 A 
HETATM   24  C   UNL     1      -6.790  -1.088 -33.519  1.00  0.00     0.034 A 
ENDBRANCH   1  18
TORSDOF 2
ENDMDL
MODEL 5
REMARK VINA RESULT:      -7.5      5.251      7.319
REMARK  2 active torsions:
REMARK  status: ('A' for Active; 'I' for Inactive)
REMARK    1  A    between atoms: C_6  and  N_7 
REMARK       I    between atoms: N_7  and  C_8 
REMARK       I    between atoms: C_8  and  N_9 
REMARK    2  A    between atoms: N_9  and  C_10 
ROOT
HETATM    1  N   UNL     1      -6.795   2.860 -34.128  1.00  0.00    -0.306 N 
HETATM    2  C   UNL     1      -5.908   3.837 -33.799  1.00  0.00     0.321 C 
HETATM    3  N   UNL     1      -4.785   3.494 -33.115  1.00  0.00    -0.338 N 
HETATM    4  O   UNL     1      -6.078   4.969 -34.249  1.00  0.00    -0.247 OA
HETATM    5  H   UNL     1      -7.414   3.194 -34.859  1.00  0.00     0.171 HD
HETATM    6  H   UNL     1      -4.886   2.728 -32.465  1.00  0.00     0.164 HD
ENDROOT
BRANCH   3   7
HETATM    7  C   UNL     1      -3.699   4.425 -32.839  1.00  0.00     0.092 C 
HETATM    8  C   UNL     1      -3.030   4.139 -31.463  1.00  0.00     0.084 C 
HETATM    9  C   UNL     1      -1.796   4.935 -31.345  1.00  0.00     0.034 A 
HETATM   10  C   UNL     1      -1.153   5.577 -32.379  1.00  0.00     0.033 A 
HETATM   11  N   UNL     1      -1.039   5.167 -30.216  1.00  0.00    -0.354 N 
HETATM   12  N   UNL     1      -0.041   6.177 -31.827  1.00  0.00    -0.354 N 
HETATM   13  C   UNL     1      -1.612   5.619 -33.781  1.00  0.00     0.061 C 
HETATM   14  H   UNL     1       0.644   6.731 -32.337  1.00  0.00     0.166 HD
HETATM   15  C   UNL     1       0.028   5.916 -30.517  1.00  0.00     0.180 A 
HETATM   16  C   UNL     1      -2.674   4.522 -34.007  1.00  0.00     0.031 C 
HETATM   17  H   UNL     1      -1.245   4.806 -29.287  1.00  0.00     0.166 HD
ENDBRANCH   3   7
BRANCH   1  18
HETATM   18  C   UNL     1      -6.796   1.465 -33.900  1.00  0.00     0.077 A 
HETATM   19  C   UNL     1      -6.756   0.789 -32.678  1.00  0.00     0.152 A 
HETATM   20  N   UNL     1      -6.695  -0.557 -32.544  1.00  0.00    -0.247 NA
HETATM   21 CL   UNL     1      -6.959   1.557 -31.147  1.00  0.00    -0.060 Cl
HETATM   22  C   UNL     1      -6.720  -1.285 -33.678  1.00  0.00     0.118 A 
HETATM   23  C   UNL     1      -6.825  -0.727 -34.938  1.00  0.00     0.022 A 
HETATM   24  C   UNL     1      -6.876   0.662 -35.045  1.00  0.00     0.034 A 
ENDBRANCH   1  18
TORSDOF 2
ENDMDL
MODEL 6
REMARK VINA RESULT:      -7.4      2.204      2.701
REMARK  2 active torsions:
REMARK  status: ('A' for Active; 'I' for Inactive)
REMARK    1  A    between atoms: C_6  and  N_7 
REMARK       I    between atoms: N_7  and  C_8 
REMARK       I    between atoms: C_8  and  N_9 
REMARK    2  A    between atoms: N_9  and  C_10 
ROOT
HETATM    1  N   UNL     1      -3.876  -1.846 -33.933  1.00  0.00    -0.306 N 
HETATM    2  C   UNL     1      -4.157  -0.692 -33.271  1.00  0.00     0.321 C 
HETATM    3  N   UNL     1      -5.440  -0.456 -32.889  1.00  0.00    -0.338 N 
HETATM    4  O   UNL     1      -3.227   0.030 -32.915  1.00  0.00    -0.247 OA
HETATM    5  H   UNL     1      -2.878  -2.023 -33.900  1.00  0.00     0.171 HD
HETATM    6  H   UNL     1      -6.153  -0.815 -33.507  1.00  0.00     0.164 HD
ENDROOT
BRANCH   3   7
HETATM    7  C   UNL     1      -5.832   0.669 -32.050  1.00  0.00     0.092 C 
HETATM    8  C   UNL     1      -7.228   1.229 -32.450  1.00  0.00     0.084 C 
HETATM    9  C   UNL     1      -7.682   2.186 -31.428  1.00  0.00     0.034 A 
HETATM   10  C   UNL     1      -7.140   2.336 -30.171  1.00  0.00     0.033 A 
HETATM   11  N   UNL     1      -8.730   3.080 -31.505  1.00  0.00    -0.354 N 
HETATM   12  N   UNL     1      -7.878   3.320 -29.549  1.00  0.00    -0.354 N 
HETATM   13  C   UNL     1      -5.979   1.595 -29.643  1.00  0.00     0.061 C 
HETATM   14  H   UNL     1      -7.725   3.662 -28.603  1.00  0.00     0.166 HD
HETATM   15  C   UNL     1      -8.848   3.760 -30.360  1.00  0.00     0.180 A 
HETATM   16  C   UNL     1      -5.713   0.358 -30.529  1.00  0.00     0.031 C 
HETATM   17  H   UNL     1      -9.344   3.195 -32.309  1.00  0.00     0.166 HD
ENDBRANCH   3   7
BRANCH   1  18
HETATM   18  C   UNL     1      -4.689  -2.931 -34.333  1.00  0.00     0.077 A 
HETATM   19  C   UNL     1      -4.418  -4.298 -34.229  1.00  0.00     0.152 A 
HETATM   20  N   UNL     1      -5.223  -5.281 -34.697  1.00  0.00    -0.247 NA
HETATM   21 CL   UNL     1      -3.098  -4.951 -33.331  1.00  0.00    -0.060 Cl
HETATM   22  C   UNL     1      -6.387  -4.900 -35.259  1.00  0.00     0.118 A 
HETATM   23  C   UNL     1      -6.790  -3.581 -35.356  1.00  0.00     0.022 A 
HETATM   24  C   UNL     1      -5.935  -2.591 -34.876  1.00  0.00     0.034 A 
ENDBRANCH   1  18
TORSDOF 2
ENDMDL
MODEL 7
REMARK VINA RESULT:      -7.1      1.926      2.769
REMARK  2 active torsions:
REMARK  status: ('A' for Active; 'I' for Inactive)
REMARK    1  A    between atoms: C_6  and  N_7 
REMARK       I    between atoms: N_7  and  C_8 
REMARK       I    between atoms: C_8  and  N_9 
REMARK    2  A    between atoms: N_9  and  C_10 
ROOT
HETATM    1  N   UNL     1      -6.820  -0.291 -32.641  1.00  0.00    -0.306 N 
HETATM    2  C   UNL     1      -7.907   0.500 -32.847  1.00  0.00     0.321 C 
HETATM    3  N   UNL     1      -8.596   0.369 -34.011  1.00  0.00    -0.338 N 
HETATM    4  O   UNL     1      -8.314   1.203 -31.924  1.00  0.00    -0.247 OA
HETATM    5  H   UNL     1      -6.585  -0.296 -31.654  1.00  0.00     0.171 HD
HETATM    6  H   UNL     1      -8.043   0.128 -34.822  1.00  0.00     0.164 HD
ENDROOT
BRANCH   3   7
HETATM    7  C   UNL     1      -9.854   1.054 -34.279  1.00  0.00     0.092 C 
HETATM    8  C   UNL     1     -10.994   0.553 -33.345  1.00  0.00     0.084 C 
HETATM    9  C   UNL     1     -12.162   1.439 -33.483  1.00  0.00     0.034 A 
HETATM   10  C   UNL     1     -12.163   2.681 -34.077  1.00  0.00     0.033 A 
HETATM   11  N   UNL     1     -13.448   1.226 -33.031  1.00  0.00    -0.354 N 
HETATM   12  N   UNL     1     -13.452   3.158 -33.966  1.00  0.00    -0.354 N 
HETATM   13  C   UNL     1     -11.003   3.324 -34.722  1.00  0.00     0.061 C 
HETATM   14  H   UNL     1     -13.777   4.059 -34.311  1.00  0.00     0.166 HD
HETATM   15  C   UNL     1     -14.223   2.276 -33.322  1.00  0.00     0.180 A 
HETATM   16  C   UNL     1      -9.709   2.604 -34.287  1.00  0.00     0.031 C 
HETATM   17  H   UNL     1     -13.764   0.399 -32.528  1.00  0.00     0.166 HD
ENDBRANCH   3   7
BRANCH   1  18
HETATM   18  C   UNL     1      -6.214  -1.294 -33.431  1.00  0.00     0.077 A 
HETATM   19  C   UNL     1      -4.856  -1.476 -33.706  1.00  0.00     0.152 A 
HETATM   20  N   UNL     1      -4.358  -2.429 -34.528  1.00  0.00    -0.247 NA
HETATM   21 CL   UNL     1      -3.590  -0.627 -32.898  1.00  0.00    -0.060 Cl
HETATM   22  C   UNL     1      -5.242  -3.283 -35.079  1.00  0.00     0.118 A 
HETATM   23  C   UNL     1      -6.601  -3.240 -34.828  1.00  0.00     0.022 A 
HETATM   24  C   UNL     1      -7.086  -2.241 -33.985  1.00  0.00     0.034 A 
ENDBRANCH   1  18
TORSDOF 2
ENDMDL
MODEL 8
REMARK VINA RESULT:      -7.1      3.867      7.988
REMARK  2 active torsions:
REMARK  status: ('A' for Active; 'I' for Inactive)
REMARK    1  A    between atoms: C_6  and  N_7 
REMARK       I    between atoms: N_7  and  C_8 
REMARK       I    between atoms: C_8  and  N_9 
REMARK    2  A    between atoms: N_9  and  C_10 
ROOT
HETATM    1  N   UNL     1     -11.494   3.521 -33.937  1.00  0.00    -0.306 N 
HETATM    2  C   UNL     1     -10.181   3.167 -33.926  1.00  0.00     0.321 C 
HETATM    3  N   UNL     1      -9.856   1.883 -33.624  1.00  0.00    -0.338 N 
HETATM    4  O   UNL     1      -9.345   3.975 -34.325  1.00  0.00    -0.247 OA
HETATM    5  H   UNL     1     -11.607   4.393 -34.443  1.00  0.00     0.171 HD
HETATM    6  H   UNL     1     -10.461   1.424 -32.958  1.00  0.00     0.164 HD
ENDROOT
BRANCH   3   7
HETATM    7  C   UNL     1      -8.502   1.354 -33.724  1.00  0.00     0.092 C 
HETATM    8  C   UNL     1      -8.017   0.751 -32.374  1.00  0.00     0.084 C 
HETATM    9  C   UNL     1      -6.759   0.016 -32.592  1.00  0.00     0.034 A 
HETATM   10  C   UNL     1      -6.251  -0.361 -33.814  1.00  0.00     0.033 A 
HETATM   11  N   UNL     1      -5.876  -0.457 -31.644  1.00  0.00    -0.354 N 
HETATM   12  N   UNL     1      -5.078  -1.037 -33.551  1.00  0.00    -0.354 N 
HETATM   13  C   UNL     1      -6.854  -0.056 -35.126  1.00  0.00     0.061 C 
HETATM   14  H   UNL     1      -4.463  -1.445 -34.252  1.00  0.00     0.166 HD
HETATM   15  C   UNL     1      -4.862  -1.100 -32.232  1.00  0.00     0.180 A 
HETATM   16  C   UNL     1      -8.321   0.382 -34.927  1.00  0.00     0.031 C 
HETATM   17  H   UNL     1      -5.985  -0.354 -30.637  1.00  0.00     0.166 HD
ENDBRANCH   3   7
BRANCH   1  18
HETATM   18  C   UNL     1     -12.677   2.787 -33.690  1.00  0.00     0.077 A 
HETATM   19  C   UNL     1     -13.523   2.859 -32.580  1.00  0.00     0.152 A 
HETATM   20  N   UNL     1     -14.607   2.073 -32.386  1.00  0.00    -0.247 NA
HETATM   21 CL   UNL     1     -13.419   4.084 -31.370  1.00  0.00    -0.060 Cl
HETATM   22  C   UNL     1     -14.905   1.192 -33.362  1.00  0.00     0.118 A 
HETATM   23  C   UNL     1     -14.178   1.079 -34.532  1.00  0.00     0.022 A 
HETATM   24  C   UNL     1     -13.061   1.895 -34.699  1.00  0.00     0.034 A 
ENDBRANCH   1  18
TORSDOF 2
ENDMDL
MODEL 9
REMARK VINA RESULT:      -7.1     13.485     16.166
REMARK  2 active torsions:
REMARK  status: ('A' for Active; 'I' for Inactive)
REMARK    1  A    between atoms: C_6  and  N_7 
REMARK       I    between atoms: N_7  and  C_8 
REMARK       I    between atoms: C_8  and  N_9 
REMARK    2  A    between atoms: N_9  and  C_10 
ROOT
HETATM    1  N   UNL     1      -5.834 -12.699 -37.716  1.00  0.00    -0.306 N 
HETATM    2  C   UNL     1      -4.480 -12.776 -37.817  1.00  0.00     0.321 C 
HETATM    3  N   UNL     1      -3.943 -13.596 -38.758  1.00  0.00    -0.338 N 
HETATM    4  O   UNL     1      -3.790 -12.002 -37.156  1.00  0.00    -0.247 OA
HETATM    5  H   UNL     1      -6.089 -11.867 -37.196  1.00  0.00     0.171 HD
HETATM    6  H   UNL     1      -4.466 -14.437 -38.955  1.00  0.00     0.164 HD
ENDROOT
BRANCH   3   7
HETATM    7  C   UNL     1      -2.517 -13.649 -39.056  1.00  0.00     0.092 C 
HETATM    8  C   UNL     1      -1.736 -14.478 -37.995  1.00  0.00     0.084 C 
HETATM    9  C   UNL     1      -0.361 -14.708 -38.471  1.00  0.00     0.034 A 
HETATM   10  C   UNL     1       0.085 -14.516 -39.759  1.00  0.00     0.033 A 
HETATM   11  N   UNL     1       0.719 -15.177 -37.753  1.00  0.00    -0.354 N 
HETATM   12  N   UNL     1       1.418 -14.869 -39.759  1.00  0.00    -0.354 N 
HETATM   13  C   UNL     1      -0.724 -14.004 -40.880  1.00  0.00     0.061 C 
HETATM   14  H   UNL     1       2.035 -14.839 -40.569  1.00  0.00     0.166 HD
HETATM   15  C   UNL     1       1.793 -15.279 -38.543  1.00  0.00     0.180 A 
HETATM   16  C   UNL     1      -2.222 -14.097 -40.518  1.00  0.00     0.031 C 
HETATM   17  H   UNL     1       0.703 -15.432 -36.767  1.00  0.00     0.166 HD
ENDBRANCH   3   7
BRANCH   1  18
HETATM   18  C   UNL     1      -6.875 -13.329 -38.434  1.00  0.00     0.077 A 
HETATM   19  C   UNL     1      -7.323 -13.053 -39.728  1.00  0.00     0.152 A 
HETATM   20  N   UNL     1      -8.375 -13.661 -40.326  1.00  0.00    -0.247 NA
HETATM   21 CL   UNL     1      -6.494 -12.018 -40.832  1.00  0.00    -0.060 Cl
HETATM   22  C   UNL     1      -8.997 -14.631 -39.627  1.00  0.00     0.118 A 
HETATM   23  C   UNL     1      -8.600 -15.034 -38.366  1.00  0.00     0.022 A 
HETATM   24  C   UNL     1      -7.520 -14.382 -37.772  1.00  0.00     0.034 A 
ENDBRANCH   1  18
TORSDOF 2
ENDMDL
MODEL 10
REMARK VINA RESULT:      -7.1      3.462      8.028
REMARK  2 active torsions:
REMARK  status: ('A' for Active; 'I' for Inactive)
REMARK    1  A    between atoms: C_6  and  N_7 
REMARK       I    between atoms: N_7  and  C_8 
REMARK       I    between atoms: C_8  and  N_9 
REMARK    2  A    between atoms: N_9  and  C_10 
ROOT
HETATM    1  N   UNL     1     -11.633   2.954 -33.583  1.00  0.00    -0.306 N 
HETATM    2  C   UNL     1     -10.425   2.364 -33.376  1.00  0.00     0.321 C 
HETATM    3  N   UNL     1     -10.356   1.299 -32.534  1.00  0.00    -0.338 N 
HETATM    4  O   UNL     1      -9.466   2.719 -34.059  1.00  0.00    -0.247 OA
HETATM    5  H   UNL     1     -11.595   3.523 -34.421  1.00  0.00     0.171 HD
HETATM    6  H   UNL     1     -10.998   1.316 -31.755  1.00  0.00     0.164 HD
ENDROOT
BRANCH   3   7
HETATM    7  C   UNL     1      -9.152   0.500 -32.350  1.00  0.00     0.092 C 
HETATM    8  C   UNL     1      -8.611  -0.049 -33.703  1.00  0.00     0.084 C 
HETATM    9  C   UNL     1      -7.274  -0.630 -33.494  1.00  0.00     0.034 A 
HETATM   10  C   UNL     1      -6.483  -0.446 -32.383  1.00  0.00     0.033 A 
HETATM   11  N   UNL     1      -6.551  -1.429 -34.355  1.00  0.00    -0.354 N 
HETATM   12  N   UNL     1      -5.320  -1.149 -32.618  1.00  0.00    -0.354 N 
HETATM   13  C   UNL     1      -6.853   0.331 -31.185  1.00  0.00     0.061 C 
HETATM   14  H   UNL     1      -4.529  -1.210 -31.980  1.00  0.00     0.166 HD
HETATM   15  C   UNL     1      -5.364  -1.734 -33.821  1.00  0.00     0.180 A 
HETATM   16  C   UNL     1      -8.064   1.232 -31.511  1.00  0.00     0.031 C 
HETATM   17  H   UNL     1      -6.861  -1.729 -35.278  1.00  0.00     0.166 HD
ENDBRANCH   3   7
BRANCH   1  18
HETATM   18  C   UNL     1     -12.924   2.673 -33.079  1.00  0.00     0.077 A 
HETATM   19  C   UNL     1     -13.774   1.617 -33.419  1.00  0.00     0.152 A 
HETATM   20  N   UNL     1     -15.028   1.453 -32.937  1.00  0.00    -0.247 NA
HETATM   21 CL   UNL     1     -13.290   0.262 -34.371  1.00  0.00    -0.060 Cl
HETATM   22  C   UNL     1     -15.457   2.354 -32.031  1.00  0.00     0.118 A 
HETATM   23  C   UNL     1     -14.680   3.400 -31.572  1.00  0.00     0.022 A 
HETATM   24  C   UNL     1     -13.396   3.551 -32.094  1.00  0.00     0.034 A 
ENDBRANCH   1  18
TORSDOF 2
ENDMDL
