MODEL 1
REMARK VINA RESULT:      -9.6      0.000      0.000
REMARK  5 active torsions:
REMARK  status: ('A' for Active; 'I' for Inactive)
REMARK    1  A    between atoms: C_8  and  N_9 
REMARK    2  A    between atoms: C_12  and  N_13 
REMARK    3  A    between atoms: N_13  and  C_15 
REMARK    4  A    between atoms: C_15  and  C_16 
REMARK    5  A    between atoms: C_17  and  C_18 
ROOT
HETATM    1  N   UNL     1      -6.980   1.359 -31.365  1.00  0.00    -0.067 N 
HETATM    2  H   UNL     1      -6.725   1.979 -32.143  1.00  0.00     0.280 HD
HETATM    3  C   UNL     1      -8.332   1.826 -30.869  1.00  0.00     0.270 C 
ENDROOT
BRANCH   1   4
HETATM    4  C   UNL     1      -5.859   1.371 -30.307  1.00  0.00     0.190 C 
HETATM    5  C   UNL     1      -4.568   0.745 -30.862  1.00  0.00     0.048 C 
HETATM    6  C   UNL     1      -3.799   1.677 -31.798  1.00  0.00     0.099 C 
HETATM    7  N   UNL     1      -3.562   2.958 -31.120  1.00  0.00    -0.268 NA
HETATM    8  C   UNL     1      -4.780   3.659 -30.698  1.00  0.00     0.099 C 
HETATM    9  C   UNL     1      -5.552   2.764 -29.733  1.00  0.00     0.048 C 
BRANCH   7  10
HETATM   10  C   UNL     1      -2.590   3.767 -31.728  1.00  0.00     0.109 A 
HETATM   11  N   UNL     1      -1.630   4.333 -30.974  1.00  0.00    -0.224 NA
HETATM   12  C   UNL     1      -0.747   5.167 -31.579  1.00  0.00     0.102 A 
HETATM   13  N   UNL     1      -0.790   5.459 -32.886  1.00  0.00    -0.348 N 
HETATM   14  C   UNL     1       0.294   5.827 -30.731  1.00  0.00     0.091 C 
HETATM   15  C   UNL     1      -1.733   4.910 -33.666  1.00  0.00     0.009 A 
HETATM   16  H   UNL     1      -0.110   6.109 -33.276  1.00  0.00     0.167 HD
HETATM   17  C   UNL     1      -1.773   5.263 -35.117  1.00  0.00     0.068 C 
HETATM   18  C   UNL     1      -2.664   4.044 -33.089  1.00  0.00     0.069 A 
ENDBRANCH   7  10
ENDBRANCH   1   4
BRANCH   1  19
HETATM   19  C   UNL     1      -7.131  -0.041 -31.990  1.00  0.00     0.277 C 
BRANCH  19  20
HETATM   20  C   UNL     1      -7.511  -0.026 -33.425  1.00  0.00     0.016 A 
HETATM   21  C   UNL     1      -7.133  -0.913 -34.485  1.00  0.00     0.099 A 
HETATM   22  N   UNL     1      -7.612  -0.469 -35.655  1.00  0.00    -0.174 NA
HETATM   23  N   UNL     1      -8.395   0.570 -35.353  1.00  0.00    -0.288 N 
HETATM   24  H   UNL     1      -8.920   1.017 -36.103  1.00  0.00     0.188 HD
HETATM   25  C   UNL     1      -8.338   0.904 -34.034  1.00  0.00     0.120 A 
BRANCH  21  26
HETATM   26  C   UNL     1      -6.306  -2.119 -34.470  1.00  0.00     0.034 A 
HETATM   27  C   UNL     1      -4.955  -2.090 -34.113  1.00  0.00     0.129 A 
HETATM   28  F   UNL     1      -4.350  -0.931 -33.817  1.00  0.00    -0.205 F 
HETATM   29  C   UNL     1      -4.195  -3.257 -34.043  1.00  0.00     0.043 A 
HETATM   30  C   UNL     1      -4.787  -4.487 -34.326  1.00  0.00     0.003 A 
HETATM   31  C   UNL     1      -6.134  -4.541 -34.679  1.00  0.00     0.001 A 
HETATM   32  C   UNL     1      -6.888  -3.366 -34.748  1.00  0.00     0.017 A 
ENDBRANCH  21  26
ENDBRANCH  19  20
ENDBRANCH   1  19
TORSDOF 5
ENDMDL
MODEL 2
REMARK VINA RESULT:      -9.1      3.349      7.280
REMARK  5 active torsions:
REMARK  status: ('A' for Active; 'I' for Inactive)
REMARK    1  A    between atoms: C_8  and  N_9 
REMARK    2  A    between atoms: C_12  and  N_13 
REMARK    3  A    between atoms: N_13  and  C_15 
REMARK    4  A    between atoms: C_15  and  C_16 
REMARK    5  A    between atoms: C_17  and  C_18 
ROOT
HETATM    1  N   UNL     1      -7.380   0.624 -31.386  1.00  0.00    -0.067 N 
HETATM    2  H   UNL     1      -8.239   0.253 -30.965  1.00  0.00     0.280 HD
HETATM    3  C   UNL     1      -6.974   1.821 -30.552  1.00  0.00     0.270 C 
ENDROOT
BRANCH   1   4
HETATM    4  C   UNL     1      -7.625   0.924 -32.879  1.00  0.00     0.190 C 
HETATM    5  C   UNL     1      -8.674  -0.032 -33.470  1.00  0.00     0.048 C 
HETATM    6  C   UNL     1     -10.109   0.329 -33.082  1.00  0.00     0.099 C 
HETATM    7  N   UNL     1     -10.364   1.734 -33.427  1.00  0.00    -0.268 NA
HETATM    8  C   UNL     1      -9.472   2.695 -32.770  1.00  0.00     0.099 C 
HETATM    9  C   UNL     1      -8.032   2.379 -33.168  1.00  0.00     0.048 C 
BRANCH   7  10
HETATM   10  C   UNL     1     -11.721   2.092 -33.437  1.00  0.00     0.109 A 
HETATM   11  N   UNL     1     -12.102   3.266 -32.902  1.00  0.00    -0.224 NA
HETATM   12  C   UNL     1     -13.428   3.553 -32.863  1.00  0.00     0.102 A 
HETATM   13  N   UNL     1     -14.373   2.722 -33.323  1.00  0.00    -0.348 N 
HETATM   14  C   UNL     1     -13.852   4.841 -32.231  1.00  0.00     0.091 C 
HETATM   15  C   UNL     1     -14.026   1.545 -33.864  1.00  0.00     0.009 A 
HETATM   16  H   UNL     1     -15.354   2.987 -33.245  1.00  0.00     0.167 HD
HETATM   17  C   UNL     1     -15.097   0.626 -34.354  1.00  0.00     0.068 C 
HETATM   18  C   UNL     1     -12.673   1.205 -33.928  1.00  0.00     0.069 A 
ENDBRANCH   7  10
ENDBRANCH   1   4
BRANCH   1  19
HETATM   19  C   UNL     1      -6.327  -0.487 -31.216  1.00  0.00     0.277 C 
BRANCH  19  20
HETATM   20  C   UNL     1      -5.061  -0.239 -31.951  1.00  0.00     0.016 A 
HETATM   21  C   UNL     1      -4.445  -0.995 -33.001  1.00  0.00     0.099 A 
HETATM   22  N   UNL     1      -3.246  -0.479 -33.303  1.00  0.00    -0.174 NA
HETATM   23  N   UNL     1      -3.150   0.649 -32.595  1.00  0.00    -0.288 N 
HETATM   24  H   UNL     1      -2.333   1.241 -32.732  1.00  0.00     0.188 HD
HETATM   25  C   UNL     1      -4.193   0.819 -31.736  1.00  0.00     0.120 A 
BRANCH  21  26
HETATM   26  C   UNL     1      -4.893  -2.201 -33.698  1.00  0.00     0.034 A 
HETATM   27  C   UNL     1      -4.227  -3.423 -33.571  1.00  0.00     0.129 A 
HETATM   28  F   UNL     1      -3.111  -3.521 -32.836  1.00  0.00    -0.205 F 
HETATM   29  C   UNL     1      -4.703  -4.578 -34.192  1.00  0.00     0.043 A 
HETATM   30  C   UNL     1      -5.870  -4.526 -34.950  1.00  0.00     0.003 A 
HETATM   31  C   UNL     1      -6.554  -3.320 -35.087  1.00  0.00     0.001 A 
HETATM   32  C   UNL     1      -6.070  -2.166 -34.463  1.00  0.00     0.017 A 
ENDBRANCH  21  26
ENDBRANCH  19  20
ENDBRANCH   1  19
TORSDOF 5
ENDMDL
MODEL 3
REMARK VINA RESULT:      -9.0      3.259      7.249
REMARK  5 active torsions:
REMARK  status: ('A' for Active; 'I' for Inactive)
REMARK    1  A    between atoms: C_8  and  N_9 
REMARK    2  A    between atoms: C_12  and  N_13 
REMARK    3  A    between atoms: N_13  and  C_15 
REMARK    4  A    between atoms: C_15  and  C_16 
REMARK    5  A    between atoms: C_17  and  C_18 
ROOT
HETATM    1  N   UNL     1      -6.504   3.751 -32.426  1.00  0.00    -0.067 N 
HETATM    2  H   UNL     1      -7.205   3.546 -31.704  1.00  0.00     0.280 HD
HETATM    3  C   UNL     1      -5.783   5.006 -31.982  1.00  0.00     0.270 C 
ENDROOT
BRANCH   1   4
HETATM    4  C   UNL     1      -7.194   3.850 -33.801  1.00  0.00     0.190 C 
HETATM    5  C   UNL     1      -7.707   2.475 -34.262  1.00  0.00     0.048 C 
HETATM    6  C   UNL     1      -8.994   2.042 -33.561  1.00  0.00     0.099 C 
HETATM    7  N   UNL     1     -10.003   3.100 -33.705  1.00  0.00    -0.268 NA
HETATM    8  C   UNL     1      -9.609   4.398 -33.148  1.00  0.00     0.099 C 
HETATM    9  C   UNL     1      -8.342   4.872 -33.856  1.00  0.00     0.048 C 
BRANCH   7  10
HETATM   10  C   UNL     1     -11.314   2.698 -33.407  1.00  0.00     0.109 A 
HETATM   11  N   UNL     1     -12.119   3.520 -32.711  1.00  0.00    -0.224 NA
HETATM   12  C   UNL     1     -13.357   3.075 -32.377  1.00  0.00     0.102 A 
HETATM   13  N   UNL     1     -13.810   1.856 -32.699  1.00  0.00    -0.348 N 
HETATM   14  C   UNL     1     -14.236   3.976 -31.569  1.00  0.00     0.091 C 
HETATM   15  C   UNL     1     -13.033   1.012 -33.394  1.00  0.00     0.009 A 
HETATM   16  H   UNL     1     -14.743   1.573 -32.401  1.00  0.00     0.167 HD
HETATM   17  C   UNL     1     -13.552  -0.348 -33.727  1.00  0.00     0.068 C 
HETATM   18  C   UNL     1     -11.751   1.426 -33.762  1.00  0.00     0.069 A 
ENDBRANCH   7  10
ENDBRANCH   1   4
BRANCH   1  19
HETATM   19  C   UNL     1      -5.520   2.567 -32.390  1.00  0.00     0.277 C 
BRANCH  19  20
HETATM   20  C   UNL     1      -5.817   1.565 -31.335  1.00  0.00     0.016 A 
HETATM   21  C   UNL     1      -5.952   0.141 -31.431  1.00  0.00     0.099 A 
HETATM   22  N   UNL     1      -6.338  -0.369 -30.254  1.00  0.00    -0.174 NA
HETATM   23  N   UNL     1      -6.305   0.649 -29.391  1.00  0.00    -0.288 N 
HETATM   24  H   UNL     1      -6.499   0.461 -28.409  1.00  0.00     0.188 HD
HETATM   25  C   UNL     1      -6.039   1.840 -29.995  1.00  0.00     0.120 A 
BRANCH  21  26
HETATM   26  C   UNL     1      -5.793  -0.757 -32.575  1.00  0.00     0.034 A 
HETATM   27  C   UNL     1      -4.596  -1.433 -32.827  1.00  0.00     0.129 A 
HETATM   28  F   UNL     1      -3.523  -1.240 -32.048  1.00  0.00    -0.205 F 
HETATM   29  C   UNL     1      -4.479  -2.334 -33.885  1.00  0.00     0.043 A 
HETATM   30  C   UNL     1      -5.575  -2.580 -34.711  1.00  0.00     0.003 A 
HETATM   31  C   UNL     1      -6.780  -1.921 -34.475  1.00  0.00     0.001 A 
HETATM   32  C   UNL     1      -6.889  -1.018 -33.413  1.00  0.00     0.017 A 
ENDBRANCH  21  26
ENDBRANCH  19  20
ENDBRANCH   1  19
TORSDOF 5
ENDMDL
MODEL 4
REMARK VINA RESULT:      -9.0      3.733      8.522
REMARK  5 active torsions:
REMARK  status: ('A' for Active; 'I' for Inactive)
REMARK    1  A    between atoms: C_8  and  N_9 
REMARK    2  A    between atoms: C_12  and  N_13 
REMARK    3  A    between atoms: N_13  and  C_15 
REMARK    4  A    between atoms: C_15  and  C_16 
REMARK    5  A    between atoms: C_17  and  C_18 
ROOT
HETATM    1  N   UNL     1      -2.486   6.811 -28.132  1.00  0.00    -0.067 N 
HETATM    2  H   UNL     1      -2.535   5.790 -28.229  1.00  0.00     0.280 HD
HETATM    3  C   UNL     1      -2.196   7.090 -26.672  1.00  0.00     0.270 C 
ENDROOT
BRANCH   1   4
HETATM    4  C   UNL     1      -3.786   7.443 -28.669  1.00  0.00     0.190 C 
HETATM    5  C   UNL     1      -4.007   7.082 -30.147  1.00  0.00     0.048 C 
HETATM    6  C   UNL     1      -4.524   5.657 -30.351  1.00  0.00     0.099 C 
HETATM    7  N   UNL     1      -5.728   5.458 -29.533  1.00  0.00    -0.268 NA
HETATM    8  C   UNL     1      -5.526   5.655 -28.094  1.00  0.00     0.099 C 
HETATM    9  C   UNL     1      -5.041   7.083 -27.857  1.00  0.00     0.048 C 
BRANCH   7  10
HETATM   10  C   UNL     1      -6.485   4.329 -29.879  1.00  0.00     0.109 A 
HETATM   11  N   UNL     1      -7.813   4.448 -30.055  1.00  0.00    -0.224 NA
HETATM   12  C   UNL     1      -8.529   3.325 -30.319  1.00  0.00     0.102 A 
HETATM   13  N   UNL     1      -7.978   2.107 -30.404  1.00  0.00    -0.348 N 
HETATM   14  C   UNL     1     -10.012   3.454 -30.475  1.00  0.00     0.091 C 
HETATM   15  C   UNL     1      -6.657   1.954 -30.235  1.00  0.00     0.009 A 
HETATM   16  H   UNL     1      -8.574   1.300 -30.584  1.00  0.00     0.167 HD
HETATM   17  C   UNL     1      -6.067   0.584 -30.316  1.00  0.00     0.068 C 
HETATM   18  C   UNL     1      -5.878   3.080 -29.963  1.00  0.00     0.069 A 
ENDBRANCH   7  10
ENDBRANCH   1   4
BRANCH   1  19
HETATM   19  C   UNL     1      -1.274   7.246 -28.977  1.00  0.00     0.277 C 
BRANCH  19  20
HETATM   20  C   UNL     1      -0.367   6.132 -29.353  1.00  0.00     0.016 A 
HETATM   21  C   UNL     1      -0.235   5.436 -30.599  1.00  0.00     0.099 A 
HETATM   22  N   UNL     1       0.626   4.418 -30.473  1.00  0.00    -0.174 NA
HETATM   23  N   UNL     1       1.149   4.537 -29.250  1.00  0.00    -0.288 N 
HETATM   24  H   UNL     1       1.888   3.894 -28.972  1.00  0.00     0.188 HD
HETATM   25  C   UNL     1       0.558   5.524 -28.521  1.00  0.00     0.120 A 
BRANCH  21  26
HETATM   26  C   UNL     1      -0.909   5.639 -31.882  1.00  0.00     0.034 A 
HETATM   27  C   UNL     1      -1.859   4.739 -32.373  1.00  0.00     0.129 A 
HETATM   28  F   UNL     1      -2.151   3.618 -31.700  1.00  0.00    -0.205 F 
HETATM   29  C   UNL     1      -2.538   4.978 -33.567  1.00  0.00     0.043 A 
HETATM   30  C   UNL     1      -2.279   6.140 -34.291  1.00  0.00     0.003 A 
HETATM   31  C   UNL     1      -1.340   7.055 -33.818  1.00  0.00     0.001 A 
HETATM   32  C   UNL     1      -0.662   6.807 -32.621  1.00  0.00     0.017 A 
ENDBRANCH  21  26
ENDBRANCH  19  20
ENDBRANCH   1  19
TORSDOF 5
ENDMDL
MODEL 5
REMARK VINA RESULT:      -8.8      4.022      8.525
REMARK  5 active torsions:
REMARK  status: ('A' for Active; 'I' for Inactive)
REMARK    1  A    between atoms: C_8  and  N_9 
REMARK    2  A    between atoms: C_12  and  N_13 
REMARK    3  A    between atoms: N_13  and  C_15 
REMARK    4  A    between atoms: C_15  and  C_16 
REMARK    5  A    between atoms: C_17  and  C_18 
ROOT
HETATM    1  N   UNL     1      -2.518   6.822 -28.132  1.00  0.00    -0.067 N 
HETATM    2  H   UNL     1      -2.561   5.802 -28.239  1.00  0.00     0.280 HD
HETATM    3  C   UNL     1      -2.247   7.091 -26.667  1.00  0.00     0.270 C 
ENDROOT
BRANCH   1   4
HETATM    4  C   UNL     1      -3.814   7.453 -28.680  1.00  0.00     0.190 C 
HETATM    5  C   UNL     1      -4.060   7.032 -30.139  1.00  0.00     0.048 C 
HETATM    6  C   UNL     1      -4.602   5.609 -30.276  1.00  0.00     0.099 C 
HETATM    7  N   UNL     1      -5.798   5.465 -29.436  1.00  0.00    -0.268 NA
HETATM    8  C   UNL     1      -5.575   5.719 -28.009  1.00  0.00     0.099 C 
HETATM    9  C   UNL     1      -5.065   7.148 -27.839  1.00  0.00     0.048 C 
BRANCH   7  10
HETATM   10  C   UNL     1      -6.578   4.334 -29.725  1.00  0.00     0.109 A 
HETATM   11  N   UNL     1      -5.985   3.134 -29.858  1.00  0.00    -0.224 NA
HETATM   12  C   UNL     1      -6.755   2.073 -30.207  1.00  0.00     0.102 A 
HETATM   13  N   UNL     1      -8.073   2.165 -30.433  1.00  0.00    -0.348 N 
HETATM   14  C   UNL     1      -6.087   0.747 -30.393  1.00  0.00     0.091 C 
HETATM   15  C   UNL     1      -8.695   3.346 -30.307  1.00  0.00     0.009 A 
HETATM   16  H   UNL     1      -8.592   1.334 -30.713  1.00  0.00     0.167 HD
HETATM   17  C   UNL     1     -10.161   3.429 -30.581  1.00  0.00     0.068 C 
HETATM   18  C   UNL     1      -7.944   4.468 -29.948  1.00  0.00     0.069 A 
ENDBRANCH   7  10
ENDBRANCH   1   4
BRANCH   1  19
HETATM   19  C   UNL     1      -1.298   7.270 -28.959  1.00  0.00     0.277 C 
BRANCH  19  20
HETATM   20  C   UNL     1      -0.397   6.159 -29.359  1.00  0.00     0.016 A 
HETATM   21  C   UNL     1      -0.329   5.429 -30.590  1.00  0.00     0.099 A 
HETATM   22  N   UNL     1       0.555   4.428 -30.487  1.00  0.00    -0.174 NA
HETATM   23  N   UNL     1       1.149   4.591 -29.303  1.00  0.00    -0.288 N 
HETATM   24  H   UNL     1       1.915   3.968 -29.053  1.00  0.00     0.188 HD
HETATM   25  C   UNL     1       0.587   5.590 -28.568  1.00  0.00     0.120 A 
BRANCH  21  26
HETATM   26  C   UNL     1      -1.083   5.584 -31.834  1.00  0.00     0.034 A 
HETATM   27  C   UNL     1      -1.056   6.768 -32.577  1.00  0.00     0.129 A 
HETATM   28  F   UNL     1      -0.369   7.833 -32.142  1.00  0.00    -0.205 F 
HETATM   29  C   UNL     1      -1.729   6.878 -33.793  1.00  0.00     0.043 A 
HETATM   30  C   UNL     1      -2.441   5.790 -34.293  1.00  0.00     0.003 A 
HETATM   31  C   UNL     1      -2.477   4.598 -33.572  1.00  0.00     0.001 A 
HETATM   32  C   UNL     1      -1.801   4.495 -32.353  1.00  0.00     0.017 A 
ENDBRANCH  21  26
ENDBRANCH  19  20
ENDBRANCH   1  19
TORSDOF 5
ENDMDL
MODEL 6
REMARK VINA RESULT:      -8.8      3.540      6.964
REMARK  5 active torsions:
REMARK  status: ('A' for Active; 'I' for Inactive)
REMARK    1  A    between atoms: C_8  and  N_9 
REMARK    2  A    between atoms: C_12  and  N_13 
REMARK    3  A    between atoms: N_13  and  C_15 
REMARK    4  A    between atoms: C_15  and  C_16 
REMARK    5  A    between atoms: C_17  and  C_18 
ROOT
HETATM    1  N   UNL     1      -6.457   0.595 -32.303  1.00  0.00    -0.067 N 
HETATM    2  H   UNL     1      -7.174   0.102 -32.847  1.00  0.00     0.280 HD
HETATM    3  C   UNL     1      -6.264  -0.195 -31.026  1.00  0.00     0.270 C 
ENDROOT
BRANCH   1   4
HETATM    4  C   UNL     1      -6.881   2.064 -32.101  1.00  0.00     0.190 C 
HETATM    5  C   UNL     1      -7.070   2.775 -33.452  1.00  0.00     0.048 C 
HETATM    6  C   UNL     1      -8.381   2.411 -34.149  1.00  0.00     0.099 C 
HETATM    7  N   UNL     1      -9.500   2.641 -33.226  1.00  0.00    -0.268 NA
HETATM    8  C   UNL     1      -9.431   1.870 -31.980  1.00  0.00     0.099 C 
HETATM    9  C   UNL     1      -8.146   2.240 -31.245  1.00  0.00     0.048 C 
BRANCH   7  10
HETATM   10  C   UNL     1     -10.762   2.671 -33.838  1.00  0.00     0.109 A 
HETATM   11  N   UNL     1     -11.179   3.796 -34.448  1.00  0.00    -0.224 NA
HETATM   12  C   UNL     1     -12.432   3.817 -34.969  1.00  0.00     0.102 A 
HETATM   13  N   UNL     1     -13.274   2.778 -34.897  1.00  0.00    -0.348 N 
HETATM   14  C   UNL     1     -12.907   5.082 -35.611  1.00  0.00     0.091 C 
HETATM   15  C   UNL     1     -12.890   1.641 -34.298  1.00  0.00     0.009 A 
HETATM   16  H   UNL     1     -14.210   2.864 -35.290  1.00  0.00     0.167 HD
HETATM   17  C   UNL     1     -13.851   0.501 -34.214  1.00  0.00     0.068 C 
HETATM   18  C   UNL     1     -11.608   1.571 -33.748  1.00  0.00     0.069 A 
ENDBRANCH   7  10
ENDBRANCH   1   4
BRANCH   1  19
HETATM   19  C   UNL     1      -5.171   0.507 -33.147  1.00  0.00     0.277 C 
BRANCH  19  20
HETATM   20  C   UNL     1      -4.155  -0.431 -32.606  1.00  0.00     0.016 A 
HETATM   21  C   UNL     1      -3.993  -1.838 -32.828  1.00  0.00     0.099 A 
HETATM   22  N   UNL     1      -3.013  -2.320 -32.052  1.00  0.00    -0.174 NA
HETATM   23  N   UNL     1      -2.458  -1.255 -31.468  1.00  0.00    -0.288 N 
HETATM   24  H   UNL     1      -1.637  -1.395 -30.883  1.00  0.00     0.188 HD
HETATM   25  C   UNL     1      -3.131  -0.101 -31.734  1.00  0.00     0.120 A 
BRANCH  21  26
HETATM   26  C   UNL     1      -4.739  -2.761 -33.684  1.00  0.00     0.034 A 
HETATM   27  C   UNL     1      -4.269  -4.044 -33.979  1.00  0.00     0.129 A 
HETATM   28  F   UNL     1      -3.080  -4.459 -33.523  1.00  0.00    -0.205 F 
HETATM   29  C   UNL     1      -5.021  -4.935 -34.745  1.00  0.00     0.043 A 
HETATM   30  C   UNL     1      -6.272  -4.552 -35.224  1.00  0.00     0.003 A 
HETATM   31  C   UNL     1      -6.763  -3.280 -34.938  1.00  0.00     0.001 A 
HETATM   32  C   UNL     1      -6.003  -2.392 -34.171  1.00  0.00     0.017 A 
ENDBRANCH  21  26
ENDBRANCH  19  20
ENDBRANCH   1  19
TORSDOF 5
ENDMDL
MODEL 7
REMARK VINA RESULT:      -8.8      1.574      2.243
REMARK  5 active torsions:
REMARK  status: ('A' for Active; 'I' for Inactive)
REMARK    1  A    between atoms: C_8  and  N_9 
REMARK    2  A    between atoms: C_12  and  N_13 
REMARK    3  A    between atoms: N_13  and  C_15 
REMARK    4  A    between atoms: C_15  and  C_16 
REMARK    5  A    between atoms: C_17  and  C_18 
ROOT
HETATM    1  N   UNL     1      -6.078   1.225 -31.497  1.00  0.00    -0.067 N 
HETATM    2  H   UNL     1      -6.794   1.951 -31.373  1.00  0.00     0.280 HD
HETATM    3  C   UNL     1      -5.448   1.006 -30.138  1.00  0.00     0.270 C 
ENDROOT
BRANCH   1   4
HETATM    4  C   UNL     1      -5.097   1.651 -32.608  1.00  0.00     0.190 C 
HETATM    5  C   UNL     1      -5.418   3.067 -33.115  1.00  0.00     0.048 C 
HETATM    6  C   UNL     1      -4.946   4.171 -32.168  1.00  0.00     0.099 C 
HETATM    7  N   UNL     1      -3.518   3.982 -31.879  1.00  0.00    -0.268 NA
HETATM    8  C   UNL     1      -3.187   2.694 -31.260  1.00  0.00     0.099 C 
HETATM    9  C   UNL     1      -3.616   1.572 -32.201  1.00  0.00     0.048 C 
BRANCH   7  10
HETATM   10  C   UNL     1      -2.889   5.098 -31.306  1.00  0.00     0.109 A 
HETATM   11  N   UNL     1      -3.625   6.008 -30.643  1.00  0.00    -0.224 NA
HETATM   12  C   UNL     1      -2.998   7.112 -30.162  1.00  0.00     0.102 A 
HETATM   13  N   UNL     1      -1.689   7.341 -30.322  1.00  0.00    -0.348 N 
HETATM   14  C   UNL     1      -3.826   8.142 -29.460  1.00  0.00     0.091 C 
HETATM   15  C   UNL     1      -0.926   6.453 -30.976  1.00  0.00     0.009 A 
HETATM   16  H   UNL     1      -1.282   8.200 -29.954  1.00  0.00     0.167 HD
HETATM   17  C   UNL     1       0.529   6.737 -31.159  1.00  0.00     0.068 C 
HETATM   18  C   UNL     1      -1.525   5.300 -31.489  1.00  0.00     0.069 A 
ENDBRANCH   7  10
ENDBRANCH   1   4
BRANCH   1  19
HETATM   19  C   UNL     1      -6.849  -0.046 -31.903  1.00  0.00     0.277 C 
BRANCH  19  20
HETATM   20  C   UNL     1      -7.393  -0.008 -33.284  1.00  0.00     0.016 A 
HETATM   21  C   UNL     1      -7.169  -0.900 -34.383  1.00  0.00     0.099 A 
HETATM   22  N   UNL     1      -7.766  -0.432 -35.488  1.00  0.00    -0.174 NA
HETATM   23  N   UNL     1      -8.473   0.630 -35.094  1.00  0.00    -0.288 N 
HETATM   24  H   UNL     1      -9.067   1.098 -35.777  1.00  0.00     0.188 HD
HETATM   25  C   UNL     1      -8.253   0.952 -33.790  1.00  0.00     0.120 A 
BRANCH  21  26
HETATM   26  C   UNL     1      -6.386  -2.132 -34.469  1.00  0.00     0.034 A 
HETATM   27  C   UNL     1      -5.006  -2.153 -34.247  1.00  0.00     0.129 A 
HETATM   28  F   UNL     1      -4.336  -1.020 -33.996  1.00  0.00    -0.205 F 
HETATM   29  C   UNL     1      -4.283  -3.345 -34.271  1.00  0.00     0.043 A 
HETATM   30  C   UNL     1      -4.942  -4.550 -34.511  1.00  0.00     0.003 A 
HETATM   31  C   UNL     1      -6.318  -4.554 -34.728  1.00  0.00     0.001 A 
HETATM   32  C   UNL     1      -7.035  -3.355 -34.705  1.00  0.00     0.017 A 
ENDBRANCH  21  26
ENDBRANCH  19  20
ENDBRANCH   1  19
TORSDOF 5
ENDMDL
MODEL 8
REMARK VINA RESULT:      -8.6      2.951      6.807
REMARK  5 active torsions:
REMARK  status: ('A' for Active; 'I' for Inactive)
REMARK    1  A    between atoms: C_8  and  N_9 
REMARK    2  A    between atoms: C_12  and  N_13 
REMARK    3  A    between atoms: N_13  and  C_15 
REMARK    4  A    between atoms: C_15  and  C_16 
REMARK    5  A    between atoms: C_17  and  C_18 
ROOT
HETATM    1  N   UNL     1      -5.224   3.793 -32.342  1.00  0.00    -0.067 N 
HETATM    2  H   UNL     1      -5.896   3.852 -31.568  1.00  0.00     0.280 HD
HETATM    3  C   UNL     1      -4.088   4.733 -31.999  1.00  0.00     0.270 C 
ENDROOT
BRANCH   1   4
HETATM    4  C   UNL     1      -5.942   4.100 -33.673  1.00  0.00     0.190 C 
HETATM    5  C   UNL     1      -6.597   2.834 -34.251  1.00  0.00     0.048 C 
HETATM    6  C   UNL     1      -7.899   2.452 -33.548  1.00  0.00     0.099 C 
HETATM    7  N   UNL     1      -8.805   3.608 -33.544  1.00  0.00    -0.268 NA
HETATM    8  C   UNL     1      -8.272   4.797 -32.873  1.00  0.00     0.099 C 
HETATM    9  C   UNL     1      -6.987   5.224 -33.577  1.00  0.00     0.048 C 
BRANCH   7  10
HETATM   10  C   UNL     1     -10.139   3.299 -33.238  1.00  0.00     0.109 A 
HETATM   11  N   UNL     1     -10.833   2.476 -34.044  1.00  0.00    -0.224 NA
HETATM   12  C   UNL     1     -12.142   2.254 -33.762  1.00  0.00     0.102 A 
HETATM   13  N   UNL     1     -12.776   2.820 -32.726  1.00  0.00    -0.348 N 
HETATM   14  C   UNL     1     -12.921   1.368 -34.682  1.00  0.00     0.091 C 
HETATM   15  C   UNL     1     -12.113   3.644 -31.902  1.00  0.00     0.009 A 
HETATM   16  H   UNL     1     -13.766   2.628 -32.580  1.00  0.00     0.167 HD
HETATM   17  C   UNL     1     -12.844   4.279 -30.765  1.00  0.00     0.068 C 
HETATM   18  C   UNL     1     -10.764   3.903 -32.151  1.00  0.00     0.069 A 
ENDBRANCH   7  10
ENDBRANCH   1   4
BRANCH   1  19
HETATM   19  C   UNL     1      -4.701   2.345 -32.322  1.00  0.00     0.277 C 
BRANCH  19  20
HETATM   20  C   UNL     1      -5.356   1.479 -31.310  1.00  0.00     0.016 A 
HETATM   21  C   UNL     1      -5.823   0.128 -31.420  1.00  0.00     0.099 A 
HETATM   22  N   UNL     1      -6.458  -0.236 -30.298  1.00  0.00    -0.174 NA
HETATM   23  N   UNL     1      -6.280   0.770 -29.439  1.00  0.00    -0.288 N 
HETATM   24  H   UNL     1      -6.628   0.665 -28.488  1.00  0.00     0.188 HD
HETATM   25  C   UNL     1      -5.661   1.841 -30.008  1.00  0.00     0.120 A 
BRANCH  21  26
HETATM   26  C   UNL     1      -5.754  -0.818 -32.534  1.00  0.00     0.034 A 
HETATM   27  C   UNL     1      -6.872  -1.130 -33.314  1.00  0.00     0.129 A 
HETATM   28  F   UNL     1      -8.071  -0.605 -33.032  1.00  0.00    -0.205 F 
HETATM   29  C   UNL     1      -6.776  -1.985 -34.411  1.00  0.00     0.043 A 
HETATM   30  C   UNL     1      -5.544  -2.540 -34.752  1.00  0.00     0.003 A 
HETATM   31  C   UNL     1      -4.416  -2.238 -33.993  1.00  0.00     0.001 A 
HETATM   32  C   UNL     1      -4.519  -1.381 -32.893  1.00  0.00     0.017 A 
ENDBRANCH  21  26
ENDBRANCH  19  20
ENDBRANCH   1  19
TORSDOF 5
ENDMDL
MODEL 9
REMARK VINA RESULT:      -8.5      2.700      7.996
REMARK  5 active torsions:
REMARK  status: ('A' for Active; 'I' for Inactive)
REMARK    1  A    between atoms: C_8  and  N_9 
REMARK    2  A    between atoms: C_12  and  N_13 
REMARK    3  A    between atoms: N_13  and  C_15 
REMARK    4  A    between atoms: C_15  and  C_16 
REMARK    5  A    between atoms: C_17  and  C_18 
ROOT
HETATM    1  N   UNL     1      -4.484   5.301 -31.425  1.00  0.00    -0.067 N 
HETATM    2  H   UNL     1      -3.750   4.589 -31.513  1.00  0.00     0.280 HD
HETATM    3  C   UNL     1      -4.159   6.105 -30.185  1.00  0.00     0.270 C 
ENDROOT
BRANCH   1   4
HETATM    4  C   UNL     1      -5.867   4.617 -31.413  1.00  0.00     0.190 C 
HETATM    5  C   UNL     1      -6.256   4.133 -32.820  1.00  0.00     0.048 C 
HETATM    6  C   UNL     1      -5.539   2.849 -33.238  1.00  0.00     0.099 C 
HETATM    7  N   UNL     1      -5.745   1.823 -32.208  1.00  0.00    -0.268 NA
HETATM    8  C   UNL     1      -5.257   2.190 -30.875  1.00  0.00     0.099 C 
HETATM    9  C   UNL     1      -5.982   3.452 -30.417  1.00  0.00     0.048 C 
BRANCH   7  10
HETATM   10  C   UNL     1      -5.434   0.517 -32.618  1.00  0.00     0.109 A 
HETATM   11  N   UNL     1      -6.249  -0.123 -33.476  1.00  0.00    -0.224 NA
HETATM   12  C   UNL     1      -5.959  -1.409 -33.797  1.00  0.00     0.102 A 
HETATM   13  N   UNL     1      -4.908  -2.072 -33.297  1.00  0.00    -0.348 N 
HETATM   14  C   UNL     1      -6.889  -2.132 -34.720  1.00  0.00     0.091 C 
HETATM   15  C   UNL     1      -4.075  -1.463 -32.441  1.00  0.00     0.009 A 
HETATM   16  H   UNL     1      -4.757  -3.045 -33.562  1.00  0.00     0.167 HD
HETATM   17  C   UNL     1      -2.920  -2.227 -31.881  1.00  0.00     0.068 C 
HETATM   18  C   UNL     1      -4.331  -0.138 -32.080  1.00  0.00     0.069 A 
ENDBRANCH   7  10
ENDBRANCH   1   4
BRANCH   1  19
HETATM   19  C   UNL     1      -4.329   6.203 -32.664  1.00  0.00     0.277 C 
BRANCH  19  20
HETATM   20  C   UNL     1      -3.219   5.807 -33.567  1.00  0.00     0.016 A 
HETATM   21  C   UNL     1      -1.807   5.775 -33.326  1.00  0.00     0.099 A 
HETATM   22  N   UNL     1      -1.151   5.464 -34.453  1.00  0.00    -0.174 NA
HETATM   23  N   UNL     1      -2.095   5.156 -35.346  1.00  0.00    -0.288 N 
HETATM   24  H   UNL     1      -1.805   4.818 -36.262  1.00  0.00     0.188 HD
HETATM   25  C   UNL     1      -3.353   5.384 -34.879  1.00  0.00     0.120 A 
BRANCH  21  26
HETATM   26  C   UNL     1      -1.037   6.070 -32.117  1.00  0.00     0.034 A 
HETATM   27  C   UNL     1      -0.987   7.353 -31.564  1.00  0.00     0.129 A 
HETATM   28  F   UNL     1      -1.608   8.380 -32.158  1.00  0.00    -0.205 F 
HETATM   29  C   UNL     1      -0.300   7.606 -30.377  1.00  0.00     0.043 A 
HETATM   30  C   UNL     1       0.346   6.564 -29.715  1.00  0.00     0.003 A 
HETATM   31  C   UNL     1       0.304   5.276 -30.245  1.00  0.00     0.001 A 
HETATM   32  C   UNL     1      -0.385   5.030 -31.436  1.00  0.00     0.017 A 
ENDBRANCH  21  26
ENDBRANCH  19  20
ENDBRANCH   1  19
TORSDOF 5
ENDMDL
MODEL 10
REMARK VINA RESULT:      -8.5     15.647     17.577
REMARK  5 active torsions:
REMARK  status: ('A' for Active; 'I' for Inactive)
REMARK    1  A    between atoms: C_8  and  N_9 
REMARK    2  A    between atoms: C_12  and  N_13 
REMARK    3  A    between atoms: N_13  and  C_15 
REMARK    4  A    between atoms: C_15  and  C_16 
REMARK    5  A    between atoms: C_17  and  C_18 
ROOT
HETATM    1  N   UNL     1      -4.955 -15.032 -36.417  1.00  0.00    -0.067 N 
HETATM    2  H   UNL     1      -5.069 -15.244 -37.415  1.00  0.00     0.280 HD
HETATM    3  C   UNL     1      -4.043 -16.100 -35.851  1.00  0.00     0.270 C 
ENDROOT
BRANCH   1   4
HETATM    4  C   UNL     1      -6.341 -14.940 -35.748  1.00  0.00     0.190 C 
HETATM    5  C   UNL     1      -6.958 -13.545 -35.942  1.00  0.00     0.048 C 
HETATM    6  C   UNL     1      -7.534 -13.327 -37.342  1.00  0.00     0.099 C 
HETATM    7  N   UNL     1      -8.475 -14.411 -37.652  1.00  0.00    -0.268 NA
HETATM    8  C   UNL     1      -7.890 -15.755 -37.617  1.00  0.00     0.099 C 
HETATM    9  C   UNL     1      -7.337 -16.014 -36.218  1.00  0.00     0.048 C 
BRANCH   7  10
HETATM   10  C   UNL     1      -9.316 -14.156 -38.746  1.00  0.00     0.109 A 
HETATM   11  N   UNL     1      -9.709 -15.173 -39.533  1.00  0.00    -0.224 NA
HETATM   12  C   UNL     1     -10.463 -14.886 -40.625  1.00  0.00     0.102 A 
HETATM   13  N   UNL     1     -10.825 -13.640 -40.959  1.00  0.00    -0.348 N 
HETATM   14  C   UNL     1     -10.866 -16.014 -41.521  1.00  0.00     0.091 C 
HETATM   15  C   UNL     1     -10.451 -12.604 -40.195  1.00  0.00     0.009 A 
HETATM   16  H   UNL     1     -11.375 -13.488 -41.804  1.00  0.00     0.167 HD
HETATM   17  C   UNL     1     -10.851 -11.222 -40.596  1.00  0.00     0.068 C 
HETATM   18  C   UNL     1      -9.675 -12.849 -39.060  1.00  0.00     0.069 A 
ENDBRANCH   7  10
ENDBRANCH   1   4
BRANCH   1  19
HETATM   19  C   UNL     1      -4.231 -13.674 -36.366  1.00  0.00     0.277 C 
BRANCH  19  20
HETATM   20  C   UNL     1      -3.232 -13.480 -37.447  1.00  0.00     0.016 A 
HETATM   21  C   UNL     1      -3.414 -13.423 -38.867  1.00  0.00     0.099 A 
HETATM   22  N   UNL     1      -2.227 -13.349 -39.485  1.00  0.00    -0.174 NA
HETATM   23  N   UNL     1      -1.323 -13.207 -38.513  1.00  0.00    -0.288 N 
HETATM   24  H   UNL     1      -0.349 -13.060 -38.773  1.00  0.00     0.188 HD
HETATM   25  C   UNL     1      -1.867 -13.320 -37.270  1.00  0.00     0.120 A 
BRANCH  21  26
HETATM   26  C   UNL     1      -4.631 -13.488 -39.676  1.00  0.00     0.034 A 
HETATM   27  C   UNL     1      -5.266 -12.339 -40.157  1.00  0.00     0.129 A 
HETATM   28  F   UNL     1      -4.804 -11.121 -39.846  1.00  0.00    -0.205 F 
HETATM   29  C   UNL     1      -6.390 -12.420 -40.979  1.00  0.00     0.043 A 
HETATM   30  C   UNL     1      -6.894 -13.667 -41.343  1.00  0.00     0.003 A 
HETATM   31  C   UNL     1      -6.274 -14.826 -40.880  1.00  0.00     0.001 A 
HETATM   32  C   UNL     1      -5.149 -14.737 -40.055  1.00  0.00     0.017 A 
ENDBRANCH  21  26
ENDBRANCH  19  20
ENDBRANCH   1  19
TORSDOF 5
ENDMDL
