MODEL 1
REMARK VINA RESULT:      -9.0      0.000      0.000
REMARK  5 active torsions:
REMARK  status: ('A' for Active; 'I' for Inactive)
REMARK    1  A    between atoms: C_3  and  N_4 
REMARK       I    between atoms: N_4  and  C_5 
REMARK    2  A    between atoms: C_5  and  C_6 
REMARK    3  A    between atoms: C_14  and  C_15 
REMARK    4  A    between atoms: C_21  and  O_22 
REMARK    5  A    between atoms: C_24  and  O_25 
ROOT
HETATM    1  N   UNL     1      -8.150   0.593 -32.842  1.00  0.00    -0.322 N 
HETATM    2  C   UNL     1      -7.257   0.489 -33.897  1.00  0.00     0.257 C 
HETATM    3  O   UNL     1      -7.273   1.111 -34.951  1.00  0.00    -0.267 OA
HETATM    4  H   UNL     1      -8.080  -0.128 -32.134  1.00  0.00     0.169 HD
ENDROOT
BRANCH   2   5
HETATM    5  C   UNL     1      -6.185  -0.519 -33.703  1.00  0.00     0.046 A 
HETATM    6  C   UNL     1      -5.091  -0.318 -32.826  1.00  0.00     0.008 A 
HETATM    7  C   UNL     1      -4.116  -1.333 -32.819  1.00  0.00     0.068 A 
HETATM    8  C   UNL     1      -4.925   0.790 -31.951  1.00  0.00     0.015 A 
HETATM    9  C   UNL     1      -2.992  -1.179 -32.019  1.00  0.00     0.032 A 
HETATM   10  N   UNL     1      -4.227  -2.459 -33.543  1.00  0.00    -0.252 NA
HETATM   11  C   UNL     1      -2.813  -0.063 -31.199  1.00  0.00     0.002 A 
HETATM   12  C   UNL     1      -3.790   0.919 -31.154  1.00  0.00     0.001 A 
HETATM   13  C   UNL     1      -5.326  -2.660 -34.308  1.00  0.00     0.039 A 
HETATM   14  C   UNL     1      -6.319  -1.705 -34.425  1.00  0.00     0.045 A 
BRANCH  13  15
HETATM   15  C   UNL     1      -5.455  -3.997 -35.011  1.00  0.00     0.029 C 
HETATM   16  C   UNL     1      -4.679  -5.087 -34.270  1.00  0.00     0.016 C 
HETATM   17  C   UNL     1      -6.928  -4.381 -35.156  1.00  0.00     0.016 C 
ENDBRANCH  13  15
ENDBRANCH   2   5
BRANCH   1  18
HETATM   18  C   UNL     1      -9.377   1.295 -32.879  1.00  0.00     0.043 A 
HETATM   19  C   UNL     1      -9.594   2.571 -32.341  1.00  0.00    -0.032 A 
HETATM   20  C   UNL     1      -8.592   3.318 -31.505  1.00  0.00     0.050 C 
HETATM   21  C   UNL     1     -10.849   3.186 -32.540  1.00  0.00     0.048 A 
HETATM   22  C   UNL     1     -11.886   2.537 -33.218  1.00  0.00     0.102 A 
HETATM   23  C   UNL     1     -11.677   1.237 -33.700  1.00  0.00     0.103 A 
HETATM   24  C   UNL     1     -10.440   0.617 -33.499  1.00  0.00     0.069 A 
BRANCH  22  25
HETATM   25  O   UNL     1     -13.124   3.079 -33.453  1.00  0.00    -0.353 OA
HETATM   26  C   UNL     1     -13.985   3.266 -32.339  1.00  0.00     0.210 C 
ENDBRANCH  22  25
BRANCH  23  27
HETATM   27  O   UNL     1     -12.737   0.642 -34.342  1.00  0.00    -0.353 OA
HETATM   28  C   UNL     1     -13.444  -0.360 -33.626  1.00  0.00     0.210 C 
ENDBRANCH  23  27
ENDBRANCH   1  18
TORSDOF 5
ENDMDL
MODEL 2
REMARK VINA RESULT:      -8.2      1.433      2.463
REMARK  5 active torsions:
REMARK  status: ('A' for Active; 'I' for Inactive)
REMARK    1  A    between atoms: C_3  and  N_4 
REMARK       I    between atoms: N_4  and  C_5 
REMARK    2  A    between atoms: C_5  and  C_6 
REMARK    3  A    between atoms: C_14  and  C_15 
REMARK    4  A    between atoms: C_21  and  O_22 
REMARK    5  A    between atoms: C_24  and  O_25 
ROOT
HETATM    1  N   UNL     1      -7.632   1.099 -33.280  1.00  0.00    -0.322 N 
HETATM    2  C   UNL     1      -6.976   0.518 -34.354  1.00  0.00     0.257 C 
HETATM    3  O   UNL     1      -7.143   0.749 -35.544  1.00  0.00    -0.267 OA
HETATM    4  H   UNL     1      -7.488   0.653 -32.383  1.00  0.00     0.169 HD
ENDROOT
BRANCH   2   5
HETATM    5  C   UNL     1      -5.977  -0.516 -33.982  1.00  0.00     0.046 A 
HETATM    6  C   UNL     1      -4.965  -0.295 -33.017  1.00  0.00     0.008 A 
HETATM    7  C   UNL     1      -4.046  -1.346 -32.840  1.00  0.00     0.068 A 
HETATM    8  C   UNL     1      -4.831   0.868 -32.210  1.00  0.00     0.015 A 
HETATM    9  C   UNL     1      -2.999  -1.179 -31.945  1.00  0.00     0.032 A 
HETATM   10  N   UNL     1      -4.142  -2.518 -33.489  1.00  0.00    -0.252 NA
HETATM   11  C   UNL     1      -2.846  -0.013 -31.191  1.00  0.00     0.002 A 
HETATM   12  C   UNL     1      -3.774   1.009 -31.314  1.00  0.00     0.001 A 
HETATM   13  C   UNL     1      -5.170  -2.730 -34.345  1.00  0.00     0.039 A 
HETATM   14  C   UNL     1      -6.099  -1.746 -34.628  1.00  0.00     0.045 A 
BRANCH  13  15
HETATM   15  C   UNL     1      -5.295  -4.110 -34.960  1.00  0.00     0.029 C 
HETATM   16  C   UNL     1      -4.551  -5.155 -34.128  1.00  0.00     0.016 C 
HETATM   17  C   UNL     1      -6.768  -4.489 -35.119  1.00  0.00     0.016 C 
ENDBRANCH  13  15
ENDBRANCH   2   5
BRANCH   1  18
HETATM   18  C   UNL     1      -8.777   1.924 -33.375  1.00  0.00     0.043 A 
HETATM   19  C   UNL     1     -10.100   1.494 -33.205  1.00  0.00    -0.032 A 
HETATM   20  C   UNL     1     -10.507   0.054 -33.052  1.00  0.00     0.050 C 
HETATM   21  C   UNL     1     -11.135   2.453 -33.234  1.00  0.00     0.048 A 
HETATM   22  C   UNL     1     -10.875   3.807 -33.470  1.00  0.00     0.102 A 
HETATM   23  C   UNL     1      -9.553   4.218 -33.698  1.00  0.00     0.103 A 
HETATM   24  C   UNL     1      -8.523   3.272 -33.680  1.00  0.00     0.069 A 
BRANCH  22  25
HETATM   25  O   UNL     1     -11.829   4.791 -33.502  1.00  0.00    -0.353 OA
HETATM   26  C   UNL     1     -12.478   5.122 -32.283  1.00  0.00     0.210 C 
ENDBRANCH  22  25
BRANCH  23  27
HETATM   27  O   UNL     1      -9.360   5.557 -33.942  1.00  0.00    -0.353 OA
HETATM   28  C   UNL     1      -8.625   6.289 -32.971  1.00  0.00     0.210 C 
ENDBRANCH  23  27
ENDBRANCH   1  18
TORSDOF 5
ENDMDL
MODEL 3
REMARK VINA RESULT:      -8.2      2.378      7.574
REMARK  5 active torsions:
REMARK  status: ('A' for Active; 'I' for Inactive)
REMARK    1  A    between atoms: C_3  and  N_4 
REMARK       I    between atoms: N_4  and  C_5 
REMARK    2  A    between atoms: C_5  and  C_6 
REMARK    3  A    between atoms: C_14  and  C_15 
REMARK    4  A    between atoms: C_21  and  O_22 
REMARK    5  A    between atoms: C_24  and  O_25 
ROOT
HETATM    1  N   UNL     1      -7.400   0.584 -33.904  1.00  0.00    -0.322 N 
HETATM    2  C   UNL     1      -8.357   0.880 -32.946  1.00  0.00     0.257 C 
HETATM    3  O   UNL     1      -8.332   0.600 -31.755  1.00  0.00    -0.267 OA
HETATM    4  H   UNL     1      -7.678   0.738 -34.866  1.00  0.00     0.169 HD
ENDROOT
BRANCH   2   5
HETATM    5  C   UNL     1      -9.548   1.601 -33.463  1.00  0.00     0.046 A 
HETATM    6  C   UNL     1      -9.533   2.982 -33.776  1.00  0.00     0.008 A 
HETATM    7  C   UNL     1     -10.765   3.533 -34.175  1.00  0.00     0.068 A 
HETATM    8  C   UNL     1      -8.389   3.825 -33.748  1.00  0.00     0.015 A 
HETATM    9  C   UNL     1     -10.836   4.892 -34.450  1.00  0.00     0.032 A 
HETATM   10  N   UNL     1     -11.882   2.801 -34.318  1.00  0.00    -0.252 NA
HETATM   11  C   UNL     1      -9.716   5.723 -34.372  1.00  0.00     0.002 A 
HETATM   12  C   UNL     1      -8.485   5.185 -34.034  1.00  0.00     0.001 A 
HETATM   13  C   UNL     1     -11.844   1.466 -34.092  1.00  0.00     0.039 A 
HETATM   14  C   UNL     1     -10.697   0.833 -33.649  1.00  0.00     0.045 A 
BRANCH  13  15
HETATM   15  C   UNL     1     -13.101   0.671 -34.381  1.00  0.00     0.029 C 
HETATM   16  C   UNL     1     -13.135  -0.625 -33.570  1.00  0.00     0.016 C 
HETATM   17  C   UNL     1     -14.342   1.520 -34.100  1.00  0.00     0.016 C 
ENDBRANCH  13  15
ENDBRANCH   2   5
BRANCH   1  18
HETATM   18  C   UNL     1      -6.305  -0.290 -33.718  1.00  0.00     0.043 A 
HETATM   19  C   UNL     1      -5.155   0.001 -32.971  1.00  0.00    -0.032 A 
HETATM   20  C   UNL     1      -4.848   1.353 -32.386  1.00  0.00     0.050 C 
HETATM   21  C   UNL     1      -4.185  -1.009 -32.795  1.00  0.00     0.048 A 
HETATM   22  C   UNL     1      -4.325  -2.271 -33.381  1.00  0.00     0.102 A 
HETATM   23  C   UNL     1      -5.450  -2.533 -34.175  1.00  0.00     0.103 A 
HETATM   24  C   UNL     1      -6.411  -1.534 -34.363  1.00  0.00     0.069 A 
BRANCH  22  25
HETATM   25  O   UNL     1      -3.428  -3.299 -33.244  1.00  0.00    -0.353 OA
HETATM   26  C   UNL     1      -2.963  -3.600 -31.936  1.00  0.00     0.210 C 
ENDBRANCH  22  25
BRANCH  23  27
HETATM   27  O   UNL     1      -5.526  -3.784 -34.740  1.00  0.00    -0.353 OA
HETATM   28  C   UNL     1      -6.824  -4.330 -34.926  1.00  0.00     0.210 C 
ENDBRANCH  23  27
ENDBRANCH   1  18
TORSDOF 5
ENDMDL
MODEL 4
REMARK VINA RESULT:      -8.2      2.269      7.525
REMARK  5 active torsions:
REMARK  status: ('A' for Active; 'I' for Inactive)
REMARK    1  A    between atoms: C_3  and  N_4 
REMARK       I    between atoms: N_4  and  C_5 
REMARK    2  A    between atoms: C_5  and  C_6 
REMARK    3  A    between atoms: C_14  and  C_15 
REMARK    4  A    between atoms: C_21  and  O_22 
REMARK    5  A    between atoms: C_24  and  O_25 
ROOT
HETATM    1  N   UNL     1      -7.211   0.459 -33.460  1.00  0.00    -0.322 N 
HETATM    2  C   UNL     1      -8.038   0.541 -32.351  1.00  0.00     0.257 C 
HETATM    3  O   UNL     1      -7.917  -0.046 -31.285  1.00  0.00    -0.267 OA
HETATM    4  H   UNL     1      -7.571   0.878 -34.309  1.00  0.00     0.169 HD
ENDROOT
BRANCH   2   5
HETATM    5  C   UNL     1      -9.211   1.436 -32.519  1.00  0.00     0.046 A 
HETATM    6  C   UNL     1      -9.366   2.643 -31.795  1.00  0.00     0.008 A 
HETATM    7  C   UNL     1     -10.573   3.335 -32.007  1.00  0.00     0.068 A 
HETATM    8  C   UNL     1      -8.404   3.210 -30.916  1.00  0.00     0.015 A 
HETATM    9  C   UNL     1     -10.813   4.501 -31.294  1.00  0.00     0.032 A 
HETATM   10  N   UNL     1     -11.505   2.927 -32.884  1.00  0.00    -0.252 NA
HETATM   11  C   UNL     1      -9.882   5.026 -30.395  1.00  0.00     0.002 A 
HETATM   12  C   UNL     1      -8.666   4.385 -30.216  1.00  0.00     0.001 A 
HETATM   13  C   UNL     1     -11.290   1.813 -33.624  1.00  0.00     0.039 A 
HETATM   14  C   UNL     1     -10.161   1.033 -33.458  1.00  0.00     0.045 A 
BRANCH  13  15
HETATM   15  C   UNL     1     -12.321   1.464 -34.679  1.00  0.00     0.029 C 
HETATM   16  C   UNL     1     -13.422   0.573 -34.103  1.00  0.00     0.016 C 
HETATM   17  C   UNL     1     -12.914   2.739 -35.283  1.00  0.00     0.016 C 
ENDBRANCH  13  15
ENDBRANCH   2   5
BRANCH   1  18
HETATM   18  C   UNL     1      -6.178  -0.491 -33.637  1.00  0.00     0.043 A 
HETATM   19  C   UNL     1      -4.928  -0.454 -33.005  1.00  0.00    -0.032 A 
HETATM   20  C   UNL     1      -4.442   0.693 -32.162  1.00  0.00     0.050 C 
HETATM   21  C   UNL     1      -4.033  -1.526 -33.207  1.00  0.00     0.048 A 
HETATM   22  C   UNL     1      -4.347  -2.595 -34.052  1.00  0.00     0.102 A 
HETATM   23  C   UNL     1      -5.576  -2.593 -34.727  1.00  0.00     0.103 A 
HETATM   24  C   UNL     1      -6.465  -1.529 -34.539  1.00  0.00     0.069 A 
BRANCH  22  25
HETATM   25  O   UNL     1      -3.529  -3.671 -34.287  1.00  0.00    -0.353 OA
HETATM   26  C   UNL     1      -3.440  -4.665 -33.277  1.00  0.00     0.210 C 
ENDBRANCH  22  25
BRANCH  23  27
HETATM   27  O   UNL     1      -5.823  -3.659 -35.558  1.00  0.00    -0.353 OA
HETATM   28  C   UNL     1      -6.804  -4.594 -35.133  1.00  0.00     0.210 C 
ENDBRANCH  23  27
ENDBRANCH   1  18
TORSDOF 5
ENDMDL
MODEL 5
REMARK VINA RESULT:      -8.0      2.361      4.451
REMARK  5 active torsions:
REMARK  status: ('A' for Active; 'I' for Inactive)
REMARK    1  A    between atoms: C_3  and  N_4 
REMARK       I    between atoms: N_4  and  C_5 
REMARK    2  A    between atoms: C_5  and  C_6 
REMARK    3  A    between atoms: C_14  and  C_15 
REMARK    4  A    between atoms: C_21  and  O_22 
REMARK    5  A    between atoms: C_24  and  O_25 
ROOT
HETATM    1  N   UNL     1      -8.403   2.184 -33.504  1.00  0.00    -0.322 N 
HETATM    2  C   UNL     1      -7.307   1.658 -34.169  1.00  0.00     0.257 C 
HETATM    3  O   UNL     1      -7.300   1.053 -35.232  1.00  0.00    -0.267 OA
HETATM    4  H   UNL     1      -8.235   2.492 -32.554  1.00  0.00     0.169 HD
ENDROOT
BRANCH   2   5
HETATM    5  C   UNL     1      -6.010   1.850 -33.472  1.00  0.00     0.046 A 
HETATM    6  C   UNL     1      -5.215   0.769 -33.017  1.00  0.00     0.008 A 
HETATM    7  C   UNL     1      -4.056   1.120 -32.301  1.00  0.00     0.068 A 
HETATM    8  C   UNL     1      -5.478  -0.608 -33.253  1.00  0.00     0.015 A 
HETATM    9  C   UNL     1      -3.256   0.111 -31.784  1.00  0.00     0.032 A 
HETATM   10  N   UNL     1      -3.675   2.392 -32.103  1.00  0.00    -0.252 NA
HETATM   11  C   UNL     1      -3.548  -1.241 -31.978  1.00  0.00     0.002 A 
HETATM   12  C   UNL     1      -4.656  -1.602 -32.728  1.00  0.00     0.001 A 
HETATM   13  C   UNL     1      -4.413   3.403 -32.623  1.00  0.00     0.039 A 
HETATM   14  C   UNL     1      -5.595   3.170 -33.300  1.00  0.00     0.045 A 
BRANCH  13  15
HETATM   15  C   UNL     1      -3.875   4.812 -32.470  1.00  0.00     0.029 C 
HETATM   16  C   UNL     1      -2.361   4.804 -32.252  1.00  0.00     0.016 C 
HETATM   17  C   UNL     1      -4.244   5.656 -33.690  1.00  0.00     0.016 C 
ENDBRANCH  13  15
ENDBRANCH   2   5
BRANCH   1  18
HETATM   18  C   UNL     1      -9.755   1.931 -33.834  1.00  0.00     0.043 A 
HETATM   19  C   UNL     1     -10.505   0.835 -33.385  1.00  0.00    -0.032 A 
HETATM   20  C   UNL     1      -9.932  -0.320 -32.611  1.00  0.00     0.050 C 
HETATM   21  C   UNL     1     -11.874   0.765 -33.721  1.00  0.00     0.048 A 
HETATM   22  C   UNL     1     -12.483   1.737 -34.522  1.00  0.00     0.102 A 
HETATM   23  C   UNL     1     -11.710   2.798 -35.015  1.00  0.00     0.103 A 
HETATM   24  C   UNL     1     -10.350   2.868 -34.695  1.00  0.00     0.069 A 
BRANCH  22  25
HETATM   25  O   UNL     1     -13.807   1.736 -34.879  1.00  0.00    -0.353 OA
HETATM   26  C   UNL     1     -14.673   0.838 -34.200  1.00  0.00     0.210 C 
ENDBRANCH  22  25
BRANCH  23  27
HETATM   27  O   UNL     1     -12.358   3.712 -35.811  1.00  0.00    -0.353 OA
HETATM   28  C   UNL     1     -12.411   5.052 -35.342  1.00  0.00     0.210 C 
ENDBRANCH  23  27
ENDBRANCH   1  18
TORSDOF 5
ENDMDL
MODEL 6
REMARK VINA RESULT:      -8.0      4.091      7.874
REMARK  5 active torsions:
REMARK  status: ('A' for Active; 'I' for Inactive)
REMARK    1  A    between atoms: C_3  and  N_4 
REMARK       I    between atoms: N_4  and  C_5 
REMARK    2  A    between atoms: C_5  and  C_6 
REMARK    3  A    between atoms: C_14  and  C_15 
REMARK    4  A    between atoms: C_21  and  O_22 
REMARK    5  A    between atoms: C_24  and  O_25 
ROOT
HETATM    1  N   UNL     1      -4.430   0.954 -32.870  1.00  0.00    -0.322 N 
HETATM    2  C   UNL     1      -4.339   1.291 -31.529  1.00  0.00     0.257 C 
HETATM    3  O   UNL     1      -4.396   0.540 -30.565  1.00  0.00    -0.267 OA
HETATM    4  H   UNL     1      -4.541   1.729 -33.512  1.00  0.00     0.169 HD
ENDROOT
BRANCH   2   5
HETATM    5  C   UNL     1      -4.177   2.744 -31.266  1.00  0.00     0.046 A 
HETATM    6  C   UNL     1      -5.183   3.530 -30.653  1.00  0.00     0.008 A 
HETATM    7  C   UNL     1      -4.908   4.907 -30.552  1.00  0.00     0.068 A 
HETATM    8  C   UNL     1      -6.405   3.040 -30.118  1.00  0.00     0.015 A 
HETATM    9  C   UNL     1      -5.870   5.745 -30.006  1.00  0.00     0.032 A 
HETATM   10  N   UNL     1      -3.745   5.451 -30.947  1.00  0.00    -0.252 NA
HETATM   11  C   UNL     1      -7.089   5.262 -29.527  1.00  0.00     0.002 A 
HETATM   12  C   UNL     1      -7.352   3.902 -29.570  1.00  0.00     0.001 A 
HETATM   13  C   UNL     1      -2.770   4.659 -31.452  1.00  0.00     0.039 A 
HETATM   14  C   UNL     1      -2.955   3.303 -31.641  1.00  0.00     0.045 A 
BRANCH  13  15
HETATM   15  C   UNL     1      -1.438   5.309 -31.772  1.00  0.00     0.029 C 
HETATM   16  C   UNL     1      -1.616   6.782 -32.142  1.00  0.00     0.016 C 
HETATM   17  C   UNL     1      -0.476   5.157 -30.592  1.00  0.00     0.016 C 
ENDBRANCH  13  15
ENDBRANCH   2   5
BRANCH   1  18
HETATM   18  C   UNL     1      -4.820  -0.312 -33.367  1.00  0.00     0.043 A 
HETATM   19  C   UNL     1      -5.924  -0.549 -34.196  1.00  0.00    -0.032 A 
HETATM   20  C   UNL     1      -6.952   0.490 -34.553  1.00  0.00     0.050 C 
HETATM   21  C   UNL     1      -6.133  -1.854 -34.692  1.00  0.00     0.048 A 
HETATM   22  C   UNL     1      -5.293  -2.916 -34.341  1.00  0.00     0.102 A 
HETATM   23  C   UNL     1      -4.226  -2.679 -33.462  1.00  0.00     0.103 A 
HETATM   24  C   UNL     1      -4.018  -1.391 -32.959  1.00  0.00     0.069 A 
BRANCH  22  25
HETATM   25  O   UNL     1      -5.432  -4.203 -34.792  1.00  0.00    -0.353 OA
HETATM   26  C   UNL     1      -6.660  -4.556 -35.412  1.00  0.00     0.210 C 
ENDBRANCH  22  25
BRANCH  23  27
HETATM   27  O   UNL     1      -3.445  -3.763 -33.139  1.00  0.00    -0.353 OA
HETATM   28  C   UNL     1      -2.931  -3.815 -31.815  1.00  0.00     0.210 C 
ENDBRANCH  23  27
ENDBRANCH   1  18
TORSDOF 5
ENDMDL
MODEL 7
REMARK VINA RESULT:      -7.9      2.360      8.172
REMARK  5 active torsions:
REMARK  status: ('A' for Active; 'I' for Inactive)
REMARK    1  A    between atoms: C_3  and  N_4 
REMARK       I    between atoms: N_4  and  C_5 
REMARK    2  A    between atoms: C_5  and  C_6 
REMARK    3  A    between atoms: C_14  and  C_15 
REMARK    4  A    between atoms: C_21  and  O_22 
REMARK    5  A    between atoms: C_24  and  O_25 
ROOT
HETATM    1  N   UNL     1      -7.577   0.842 -33.877  1.00  0.00    -0.322 N 
HETATM    2  C   UNL     1      -8.590   0.959 -32.939  1.00  0.00     0.257 C 
HETATM    3  O   UNL     1      -8.657   0.420 -31.843  1.00  0.00    -0.267 OA
HETATM    4  H   UNL     1      -7.782   1.217 -34.796  1.00  0.00     0.169 HD
ENDROOT
BRANCH   2   5
HETATM    5  C   UNL     1      -9.721   1.827 -33.355  1.00  0.00     0.046 A 
HETATM    6  C   UNL     1     -11.031   1.333 -33.566  1.00  0.00     0.008 A 
HETATM    7  C   UNL     1     -11.971   2.268 -34.039  1.00  0.00     0.068 A 
HETATM    8  C   UNL     1     -11.465   0.003 -33.312  1.00  0.00     0.015 A 
HETATM    9  C   UNL     1     -13.262   1.842 -34.314  1.00  0.00     0.032 A 
HETATM   10  N   UNL     1     -11.680   3.566 -34.225  1.00  0.00    -0.252 NA
HETATM   11  C   UNL     1     -13.668   0.522 -34.107  1.00  0.00     0.002 A 
HETATM   12  C   UNL     1     -12.770  -0.398 -33.591  1.00  0.00     0.001 A 
HETATM   13  C   UNL     1     -10.439   4.025 -33.935  1.00  0.00     0.039 A 
HETATM   14  C   UNL     1      -9.429   3.182 -33.512  1.00  0.00     0.045 A 
BRANCH  13  15
HETATM   15  C   UNL     1     -10.201   5.518 -34.052  1.00  0.00     0.029 C 
HETATM   16  C   UNL     1     -10.208   5.965 -35.515  1.00  0.00     0.016 C 
HETATM   17  C   UNL     1     -11.246   6.288 -33.243  1.00  0.00     0.016 C 
ENDBRANCH  13  15
ENDBRANCH   2   5
BRANCH   1  18
HETATM   18  C   UNL     1      -6.522  -0.098 -33.824  1.00  0.00     0.043 A 
HETATM   19  C   UNL     1      -5.363   0.031 -33.047  1.00  0.00    -0.032 A 
HETATM   20  C   UNL     1      -4.998   1.268 -32.272  1.00  0.00     0.050 C 
HETATM   21  C   UNL     1      -4.439  -1.036 -33.022  1.00  0.00     0.048 A 
HETATM   22  C   UNL     1      -4.633  -2.192 -33.784  1.00  0.00     0.102 A 
HETATM   23  C   UNL     1      -5.767  -2.286 -34.605  1.00  0.00     0.103 A 
HETATM   24  C   UNL     1      -6.681  -1.229 -34.642  1.00  0.00     0.069 A 
BRANCH  22  25
HETATM   25  O   UNL     1      -3.783  -3.268 -33.801  1.00  0.00    -0.353 OA
HETATM   26  C   UNL     1      -3.353  -3.789 -32.552  1.00  0.00     0.210 C 
ENDBRANCH  22  25
BRANCH  23  27
HETATM   27  O   UNL     1      -5.896  -3.437 -35.345  1.00  0.00    -0.353 OA
HETATM   28  C   UNL     1      -6.817  -4.409 -34.871  1.00  0.00     0.210 C 
ENDBRANCH  23  27
ENDBRANCH   1  18
TORSDOF 5
ENDMDL
MODEL 8
REMARK VINA RESULT:      -7.8      2.564      8.068
REMARK  5 active torsions:
REMARK  status: ('A' for Active; 'I' for Inactive)
REMARK    1  A    between atoms: C_3  and  N_4 
REMARK       I    between atoms: N_4  and  C_5 
REMARK    2  A    between atoms: C_5  and  C_6 
REMARK    3  A    between atoms: C_14  and  C_15 
REMARK    4  A    between atoms: C_21  and  O_22 
REMARK    5  A    between atoms: C_24  and  O_25 
ROOT
HETATM    1  N   UNL     1      -6.379   0.610 -32.544  1.00  0.00    -0.322 N 
HETATM    2  C   UNL     1      -7.144   0.676 -31.390  1.00  0.00     0.257 C 
HETATM    3  O   UNL     1      -7.119  -0.086 -30.434  1.00  0.00    -0.267 OA
HETATM    4  H   UNL     1      -6.667   1.221 -33.299  1.00  0.00     0.169 HD
ENDROOT
BRANCH   2   5
HETATM    5  C   UNL     1      -8.113   1.801 -31.355  1.00  0.00     0.046 A 
HETATM    6  C   UNL     1      -9.329   1.792 -32.081  1.00  0.00     0.008 A 
HETATM    7  C   UNL     1     -10.096   2.969 -32.007  1.00  0.00     0.068 A 
HETATM    8  C   UNL     1      -9.833   0.697 -32.835  1.00  0.00     0.015 A 
HETATM    9  C   UNL     1     -11.276   3.048 -32.734  1.00  0.00     0.032 A 
HETATM   10  N   UNL     1      -9.748   4.022 -31.251  1.00  0.00    -0.252 NA
HETATM   11  C   UNL     1     -11.741   1.985 -33.512  1.00  0.00     0.002 A 
HETATM   12  C   UNL     1     -11.024   0.800 -33.551  1.00  0.00     0.001 A 
HETATM   13  C   UNL     1      -8.622   3.969 -30.501  1.00  0.00     0.039 A 
HETATM   14  C   UNL     1      -7.771   2.880 -30.539  1.00  0.00     0.045 A 
BRANCH  13  15
HETATM   15  C   UNL     1      -8.339   5.138 -29.578  1.00  0.00     0.029 C 
HETATM   16  C   UNL     1      -6.914   5.659 -29.768  1.00  0.00     0.016 C 
HETATM   17  C   UNL     1      -9.361   6.253 -29.806  1.00  0.00     0.016 C 
ENDBRANCH  13  15
ENDBRANCH   2   5
BRANCH   1  18
HETATM   18  C   UNL     1      -5.568  -0.485 -32.921  1.00  0.00     0.043 A 
HETATM   19  C   UNL     1      -4.347  -0.829 -32.326  1.00  0.00    -0.032 A 
HETATM   20  C   UNL     1      -3.642   0.011 -31.297  1.00  0.00     0.050 C 
HETATM   21  C   UNL     1      -3.695  -2.008 -32.746  1.00  0.00     0.048 A 
HETATM   22  C   UNL     1      -4.215  -2.811 -33.767  1.00  0.00     0.102 A 
HETATM   23  C   UNL     1      -5.406  -2.425 -34.398  1.00  0.00     0.103 A 
HETATM   24  C   UNL     1      -6.053  -1.253 -33.993  1.00  0.00     0.069 A 
BRANCH  22  25
HETATM   25  O   UNL     1      -3.639  -3.971 -34.218  1.00  0.00    -0.353 OA
HETATM   26  C   UNL     1      -3.507  -5.044 -33.297  1.00  0.00     0.210 C 
ENDBRANCH  22  25
BRANCH  23  27
HETATM   27  O   UNL     1      -5.860  -3.242 -35.405  1.00  0.00    -0.353 OA
HETATM   28  C   UNL     1      -6.796  -4.249 -35.047  1.00  0.00     0.210 C 
ENDBRANCH  23  27
ENDBRANCH   1  18
TORSDOF 5
ENDMDL
MODEL 9
REMARK VINA RESULT:      -7.7      3.578      7.600
REMARK  5 active torsions:
REMARK  status: ('A' for Active; 'I' for Inactive)
REMARK    1  A    between atoms: C_3  and  N_4 
REMARK       I    between atoms: N_4  and  C_5 
REMARK    2  A    between atoms: C_5  and  C_6 
REMARK    3  A    between atoms: C_14  and  C_15 
REMARK    4  A    between atoms: C_21  and  O_22 
REMARK    5  A    between atoms: C_24  and  O_25 
ROOT
HETATM    1  N   UNL     1      -5.336   1.257 -32.855  1.00  0.00    -0.322 N 
HETATM    2  C   UNL     1      -5.423   1.537 -31.501  1.00  0.00     0.257 C 
HETATM    3  O   UNL     1      -5.462   0.738 -30.575  1.00  0.00    -0.267 OA
HETATM    4  H   UNL     1      -5.497   2.040 -33.478  1.00  0.00     0.169 HD
ENDROOT
BRANCH   2   5
HETATM    5  C   UNL     1      -5.501   2.983 -31.172  1.00  0.00     0.046 A 
HETATM    6  C   UNL     1      -4.375   3.841 -31.210  1.00  0.00     0.008 A 
HETATM    7  C   UNL     1      -4.598   5.165 -30.790  1.00  0.00     0.068 A 
HETATM    8  C   UNL     1      -3.075   3.481 -31.661  1.00  0.00     0.015 A 
HETATM    9  C   UNL     1      -3.528   6.048 -30.755  1.00  0.00     0.032 A 
HETATM   10  N   UNL     1      -5.808   5.624 -30.431  1.00  0.00    -0.252 NA
HETATM   11  C   UNL     1      -2.244   5.673 -31.154  1.00  0.00     0.002 A 
HETATM   12  C   UNL     1      -2.019   4.388 -31.622  1.00  0.00     0.001 A 
HETATM   13  C   UNL     1      -6.883   4.801 -30.485  1.00  0.00     0.039 A 
HETATM   14  C   UNL     1      -6.765   3.469 -30.837  1.00  0.00     0.045 A 
BRANCH  13  15
HETATM   15  C   UNL     1      -8.241   5.402 -30.182  1.00  0.00     0.029 C 
HETATM   16  C   UNL     1      -9.349   4.356 -30.314  1.00  0.00     0.016 C 
HETATM   17  C   UNL     1      -8.245   6.025 -28.785  1.00  0.00     0.016 C 
ENDBRANCH  13  15
ENDBRANCH   2   5
BRANCH   1  18
HETATM   18  C   UNL     1      -5.488  -0.025 -33.434  1.00  0.00     0.043 A 
HETATM   19  C   UNL     1      -6.475  -0.381 -34.362  1.00  0.00    -0.032 A 
HETATM   20  C   UNL     1      -7.618   0.511 -34.763  1.00  0.00     0.050 C 
HETATM   21  C   UNL     1      -6.443  -1.674 -34.926  1.00  0.00     0.048 A 
HETATM   22  C   UNL     1      -5.480  -2.616 -34.547  1.00  0.00     0.102 A 
HETATM   23  C   UNL     1      -4.533  -2.269 -33.573  1.00  0.00     0.103 A 
HETATM   24  C   UNL     1      -4.564  -0.992 -33.003  1.00  0.00     0.069 A 
BRANCH  22  25
HETATM   25  O   UNL     1      -5.385  -3.884 -35.059  1.00  0.00    -0.353 OA
HETATM   26  C   UNL     1      -6.594  -4.563 -35.370  1.00  0.00     0.210 C 
ENDBRANCH  22  25
BRANCH  23  27
HETATM   27  O   UNL     1      -3.623  -3.240 -33.228  1.00  0.00    -0.353 OA
HETATM   28  C   UNL     1      -3.060  -3.162 -31.926  1.00  0.00     0.210 C 
ENDBRANCH  23  27
ENDBRANCH   1  18
TORSDOF 5
ENDMDL
MODEL 10
REMARK VINA RESULT:      -7.7      3.919      7.388
REMARK  5 active torsions:
REMARK  status: ('A' for Active; 'I' for Inactive)
REMARK    1  A    between atoms: C_3  and  N_4 
REMARK       I    between atoms: N_4  and  C_5 
REMARK    2  A    between atoms: C_5  and  C_6 
REMARK    3  A    between atoms: C_14  and  C_15 
REMARK    4  A    between atoms: C_21  and  O_22 
REMARK    5  A    between atoms: C_24  and  O_25 
ROOT
HETATM    1  N   UNL     1      -5.292   3.165 -32.303  1.00  0.00    -0.322 N 
HETATM    2  C   UNL     1      -5.369   1.910 -31.719  1.00  0.00     0.257 C 
HETATM    3  O   UNL     1      -4.763   1.507 -30.735  1.00  0.00    -0.267 OA
HETATM    4  H   UNL     1      -5.730   3.254 -33.212  1.00  0.00     0.169 HD
ENDROOT
BRANCH   2   5
HETATM    5  C   UNL     1      -6.285   0.964 -32.405  1.00  0.00     0.046 A 
HETATM    6  C   UNL     1      -5.832  -0.219 -33.040  1.00  0.00     0.008 A 
HETATM    7  C   UNL     1      -6.814  -0.965 -33.717  1.00  0.00     0.068 A 
HETATM    8  C   UNL     1      -4.499  -0.711 -33.018  1.00  0.00     0.015 A 
HETATM    9  C   UNL     1      -6.433  -2.110 -34.403  1.00  0.00     0.032 A 
HETATM   10  N   UNL     1      -8.115  -0.630 -33.720  1.00  0.00    -0.252 NA
HETATM   11  C   UNL     1      -5.112  -2.561 -34.417  1.00  0.00     0.002 A 
HETATM   12  C   UNL     1      -4.143  -1.867 -33.709  1.00  0.00     0.001 A 
HETATM   13  C   UNL     1      -8.529   0.461 -33.033  1.00  0.00     0.039 A 
HETATM   14  C   UNL     1      -7.640   1.291 -32.376  1.00  0.00     0.045 A 
BRANCH  13  15
HETATM   15  C   UNL     1     -10.021   0.727 -32.975  1.00  0.00     0.029 C 
HETATM   16  C   UNL     1     -10.490   1.515 -34.199  1.00  0.00     0.016 C 
HETATM   17  C   UNL     1     -10.789  -0.590 -32.849  1.00  0.00     0.016 C 
ENDBRANCH  13  15
ENDBRANCH   2   5
BRANCH   1  18
HETATM   18  C   UNL     1      -4.330   4.152 -31.988  1.00  0.00     0.043 A 
HETATM   19  C   UNL     1      -4.402   5.035 -30.902  1.00  0.00    -0.032 A 
HETATM   20  C   UNL     1      -5.598   5.167 -29.999  1.00  0.00     0.050 C 
HETATM   21  C   UNL     1      -3.317   5.904 -30.660  1.00  0.00     0.048 A 
HETATM   22  C   UNL     1      -2.198   5.932 -31.499  1.00  0.00     0.102 A 
HETATM   23  C   UNL     1      -2.162   5.087 -32.617  1.00  0.00     0.103 A 
HETATM   24  C   UNL     1      -3.238   4.230 -32.869  1.00  0.00     0.069 A 
BRANCH  22  25
HETATM   25  O   UNL     1      -1.107   6.743 -31.317  1.00  0.00    -0.353 OA
HETATM   26  C   UNL     1      -0.292   6.508 -30.178  1.00  0.00     0.210 C 
ENDBRANCH  22  25
BRANCH  23  27
HETATM   27  O   UNL     1      -1.046   5.171 -33.415  1.00  0.00    -0.353 OA
HETATM   28  C   UNL     1      -1.257   5.462 -34.789  1.00  0.00     0.210 C 
ENDBRANCH  23  27
ENDBRANCH   1  18
TORSDOF 5
ENDMDL
