MODEL 1
REMARK VINA RESULT:      -9.4      0.000      0.000
REMARK  6 active torsions:
REMARK  status: ('A' for Active; 'I' for Inactive)
REMARK    1  A    between atoms: C_4  and  C_5 
REMARK    2  A    between atoms: C_5  and  C_6 
REMARK    3  A    between atoms: C_6  and  N_7 
REMARK    4  A    between atoms: C_16  and  C_17 
REMARK    5  A    between atoms: C_24  and  C_25 
REMARK    6  A    between atoms: C_24  and  C_29 
ROOT
HETATM    1  N   UNL     1      -4.657   0.891 -31.834  1.00  0.00    -0.284 N 
HETATM    2  C   UNL     1      -3.400   1.238 -31.342  1.00  0.00     0.331 A 
HETATM    3  O   UNL     1      -2.507   0.432 -31.109  1.00  0.00    -0.246 OA
HETATM    4  N   UNL     1      -3.197   2.565 -31.118  1.00  0.00    -0.275 N 
HETATM    5  C   UNL     1      -4.102   3.545 -31.323  1.00  0.00     0.262 A 
HETATM    6  O   UNL     1      -3.877   4.719 -31.081  1.00  0.00    -0.267 OA
HETATM    7  C   UNL     1      -5.413   3.147 -31.847  1.00  0.00     0.100 A 
HETATM    8  C   UNL     1      -5.640   1.841 -32.054  1.00  0.00     0.128 A 
HETATM    9  N   UNL     1      -6.877   1.446 -32.497  1.00  0.00    -0.326 N 
HETATM   10  C   UNL     1      -7.864   2.286 -32.721  1.00  0.00     0.138 A 
HETATM   11  N   UNL     1      -7.730   3.578 -32.553  1.00  0.00    -0.345 N 
HETATM   12  H   UNL     1      -8.531   4.188 -32.728  1.00  0.00     0.163 HD
HETATM   13  C   UNL     1      -6.413   4.245 -32.130  1.00  0.00     0.264 A 
HETATM   14  H   UNL     1      -2.288   2.822 -30.751  1.00  0.00     0.173 HD
HETATM   15  H   UNL     1      -7.105   0.468 -32.653  1.00  0.00     0.169 HD
ENDROOT
BRANCH   1  16
HETATM   16  C   UNL     1      -4.848  -0.542 -32.094  1.00  0.00     0.140 C 
BRANCH  16  17
HETATM   17  C   UNL     1      -4.334  -0.956 -33.482  1.00  0.00     0.059 C 
BRANCH  17  18
HETATM   18  C   UNL     1      -4.949  -2.242 -33.972  1.00  0.00    -0.057 A 
HETATM   19  C   UNL     1      -4.208  -3.435 -33.964  1.00  0.00     0.007 A 
HETATM   20  C   UNL     1      -4.780  -4.630 -34.400  1.00  0.00     0.001 A 
HETATM   21  C   UNL     1      -6.103  -4.654 -34.832  1.00  0.00     0.000 A 
HETATM   22  C   UNL     1      -6.856  -3.481 -34.825  1.00  0.00     0.001 A 
HETATM   23  C   UNL     1      -6.284  -2.281 -34.397  1.00  0.00     0.007 A 
ENDBRANCH  17  18
ENDBRANCH  16  17
ENDBRANCH   1  16
BRANCH  13  24
HETATM   24  C   UNL     1      -5.995   5.161 -33.285  1.00  0.00     0.426 C 
HETATM   25  F   UNL     1      -5.345   4.417 -34.220  1.00  0.00    -0.168 F 
HETATM   26  F   UNL     1      -7.096   5.658 -33.900  1.00  0.00    -0.168 F 
HETATM   27  F   UNL     1      -5.199   6.185 -32.962  1.00  0.00    -0.168 F 
ENDBRANCH  13  24
BRANCH  13  28
HETATM   28  C   UNL     1      -6.748   5.167 -30.950  1.00  0.00     0.426 C 
HETATM   29  F   UNL     1      -6.704   4.458 -29.794  1.00  0.00    -0.168 F 
HETATM   30  F   UNL     1      -5.987   6.256 -30.811  1.00  0.00    -0.168 F 
HETATM   31  F   UNL     1      -8.036   5.588 -31.079  1.00  0.00    -0.168 F 
ENDBRANCH  13  28
BRANCH  10  32
HETATM   32  C   UNL     1      -9.120   1.714 -33.164  1.00  0.00     0.118 A 
HETATM   33  O   UNL     1      -9.871   2.286 -34.156  1.00  0.00    -0.319 OA
HETATM   34  C   UNL     1     -10.979   1.521 -34.322  1.00  0.00     0.142 A 
HETATM   35  C   UNL     1     -10.959   0.458 -33.451  1.00  0.00     0.027 A 
HETATM   36  C   UNL     1      -9.760   0.579 -32.702  1.00  0.00     0.043 A 
ENDBRANCH  10  32
TORSDOF 6
ENDMDL
MODEL 2
REMARK VINA RESULT:      -9.3      1.807      2.282
REMARK  6 active torsions:
REMARK  status: ('A' for Active; 'I' for Inactive)
REMARK    1  A    between atoms: C_4  and  C_5 
REMARK    2  A    between atoms: C_5  and  C_6 
REMARK    3  A    between atoms: C_6  and  N_7 
REMARK    4  A    between atoms: C_16  and  C_17 
REMARK    5  A    between atoms: C_24  and  C_25 
REMARK    6  A    between atoms: C_24  and  C_29 
ROOT
HETATM    1  N   UNL     1      -5.319   0.807 -32.395  1.00  0.00    -0.284 N 
HETATM    2  C   UNL     1      -4.146   0.342 -31.804  1.00  0.00     0.331 A 
HETATM    3  O   UNL     1      -3.929  -0.835 -31.540  1.00  0.00    -0.246 OA
HETATM    4  N   UNL     1      -3.212   1.288 -31.515  1.00  0.00    -0.275 N 
HETATM    5  C   UNL     1      -3.337   2.613 -31.745  1.00  0.00     0.262 A 
HETATM    6  O   UNL     1      -2.478   3.424 -31.444  1.00  0.00    -0.267 OA
HETATM    7  C   UNL     1      -4.581   3.069 -32.374  1.00  0.00     0.100 A 
HETATM    8  C   UNL     1      -5.523   2.154 -32.646  1.00  0.00     0.128 A 
HETATM    9  N   UNL     1      -6.713   2.568 -33.189  1.00  0.00    -0.326 N 
HETATM   10  C   UNL     1      -6.986   3.829 -33.449  1.00  0.00     0.138 A 
HETATM   11  N   UNL     1      -6.123   4.788 -33.222  1.00  0.00    -0.345 N 
HETATM   12  H   UNL     1      -6.388   5.753 -33.429  1.00  0.00     0.163 HD
HETATM   13  C   UNL     1      -4.706   4.544 -32.683  1.00  0.00     0.264 A 
HETATM   14  H   UNL     1      -2.360   0.958 -31.077  1.00  0.00     0.173 HD
HETATM   15  H   UNL     1      -7.465   1.917 -33.397  1.00  0.00     0.169 HD
ENDROOT
BRANCH   1  16
HETATM   16  C   UNL     1      -6.304  -0.233 -32.723  1.00  0.00     0.140 C 
BRANCH  16  17
HETATM   17  C   UNL     1      -6.205  -0.689 -34.187  1.00  0.00     0.059 C 
BRANCH  17  18
HETATM   18  C   UNL     1      -5.875  -2.154 -34.321  1.00  0.00    -0.057 A 
HETATM   19  C   UNL     1      -6.868  -3.078 -34.683  1.00  0.00     0.007 A 
HETATM   20  C   UNL     1      -6.561  -4.431 -34.826  1.00  0.00     0.001 A 
HETATM   21  C   UNL     1      -5.257  -4.876 -34.628  1.00  0.00     0.000 A 
HETATM   22  C   UNL     1      -4.258  -3.966 -34.290  1.00  0.00     0.001 A 
HETATM   23  C   UNL     1      -4.563  -2.612 -34.138  1.00  0.00     0.007 A 
ENDBRANCH  17  18
ENDBRANCH  16  17
ENDBRANCH   1  16
BRANCH  13  24
HETATM   24  C   UNL     1      -3.736   5.018 -33.771  1.00  0.00     0.426 C 
HETATM   25  F   UNL     1      -4.286   4.762 -34.989  1.00  0.00    -0.168 F 
HETATM   26  F   UNL     1      -3.589   6.364 -33.701  1.00  0.00    -0.168 F 
HETATM   27  F   UNL     1      -2.521   4.462 -33.754  1.00  0.00    -0.168 F 
ENDBRANCH  13  24
BRANCH  13  28
HETATM   28  C   UNL     1      -4.519   5.496 -31.495  1.00  0.00     0.426 C 
HETATM   29  F   UNL     1      -4.951   4.894 -30.358  1.00  0.00    -0.168 F 
HETATM   30  F   UNL     1      -3.282   5.954 -31.289  1.00  0.00    -0.168 F 
HETATM   31  F   UNL     1      -5.326   6.578 -31.674  1.00  0.00    -0.168 F 
ENDBRANCH  13  28
BRANCH  10  32
HETATM   32  C   UNL     1      -8.296   4.112 -33.999  1.00  0.00     0.118 A 
HETATM   33  O   UNL     1      -8.618   5.339 -34.517  1.00  0.00    -0.319 OA
HETATM   34  C   UNL     1      -9.908   5.280 -34.934  1.00  0.00     0.142 A 
HETATM   35  C   UNL     1     -10.430   4.032 -34.694  1.00  0.00     0.027 A 
HETATM   36  C   UNL     1      -9.392   3.275 -34.092  1.00  0.00     0.043 A 
ENDBRANCH  10  32
TORSDOF 6
ENDMDL
MODEL 3
REMARK VINA RESULT:      -9.0      2.267      4.546
REMARK  6 active torsions:
REMARK  status: ('A' for Active; 'I' for Inactive)
REMARK    1  A    between atoms: C_4  and  C_5 
REMARK    2  A    between atoms: C_5  and  C_6 
REMARK    3  A    between atoms: C_6  and  N_7 
REMARK    4  A    between atoms: C_16  and  C_17 
REMARK    5  A    between atoms: C_24  and  C_25 
REMARK    6  A    between atoms: C_24  and  C_29 
ROOT
HETATM    1  N   UNL     1      -7.484   1.135 -33.178  1.00  0.00    -0.284 N 
HETATM    2  C   UNL     1      -8.673   0.588 -32.699  1.00  0.00     0.331 A 
HETATM    3  O   UNL     1      -9.167  -0.453 -33.114  1.00  0.00    -0.246 OA
HETATM    4  N   UNL     1      -9.293   1.290 -31.711  1.00  0.00    -0.275 N 
HETATM    5  C   UNL     1      -8.857   2.452 -31.180  1.00  0.00     0.262 A 
HETATM    6  O   UNL     1      -9.465   3.055 -30.311  1.00  0.00    -0.267 OA
HETATM    7  C   UNL     1      -7.600   2.997 -31.702  1.00  0.00     0.100 A 
HETATM    8  C   UNL     1      -6.985   2.332 -32.691  1.00  0.00     0.128 A 
HETATM    9  N   UNL     1      -5.834   2.853 -33.226  1.00  0.00    -0.326 N 
HETATM   10  C   UNL     1      -5.302   3.987 -32.823  1.00  0.00     0.138 A 
HETATM   11  N   UNL     1      -5.829   4.699 -31.859  1.00  0.00    -0.345 N 
HETATM   12  H   UNL     1      -5.386   5.580 -31.592  1.00  0.00     0.163 HD
HETATM   13  C   UNL     1      -7.078   4.271 -31.074  1.00  0.00     0.264 A 
HETATM   14  H   UNL     1     -10.163   0.902 -31.365  1.00  0.00     0.173 HD
HETATM   15  H   UNL     1      -5.340   2.396 -33.988  1.00  0.00     0.169 HD
ENDROOT
BRANCH   1  16
HETATM   16  C   UNL     1      -6.817   0.350 -34.226  1.00  0.00     0.140 C 
BRANCH  16  17
HETATM   17  C   UNL     1      -5.599  -0.418 -33.691  1.00  0.00     0.059 C 
BRANCH  17  18
HETATM   18  C   UNL     1      -5.623  -1.880 -34.058  1.00  0.00    -0.057 A 
HETATM   19  C   UNL     1      -6.801  -2.476 -34.535  1.00  0.00     0.007 A 
HETATM   20  C   UNL     1      -6.821  -3.825 -34.893  1.00  0.00     0.001 A 
HETATM   21  C   UNL     1      -5.662  -4.590 -34.795  1.00  0.00     0.000 A 
HETATM   22  C   UNL     1      -4.482  -4.005 -34.343  1.00  0.00     0.001 A 
HETATM   23  C   UNL     1      -4.459  -2.658 -33.977  1.00  0.00     0.007 A 
ENDBRANCH  17  18
ENDBRANCH  16  17
ENDBRANCH   1  16
BRANCH  13  24
HETATM   24  C   UNL     1      -6.639   4.091 -29.617  1.00  0.00     0.426 C 
HETATM   25  F   UNL     1      -6.218   2.809 -29.443  1.00  0.00    -0.168 F 
HETATM   26  F   UNL     1      -5.565   4.876 -29.360  1.00  0.00    -0.168 F 
HETATM   27  F   UNL     1      -7.570   4.338 -28.691  1.00  0.00    -0.168 F 
ENDBRANCH  13  24
BRANCH  13  28
HETATM   28  C   UNL     1      -8.038   5.467 -31.089  1.00  0.00     0.426 C 
HETATM   29  F   UNL     1      -8.753   5.461 -32.243  1.00  0.00    -0.168 F 
HETATM   30  F   UNL     1      -8.886   5.562 -30.063  1.00  0.00    -0.168 F 
HETATM   31  F   UNL     1      -7.303   6.613 -31.114  1.00  0.00    -0.168 F 
ENDBRANCH  13  28
BRANCH  10  32
HETATM   32  C   UNL     1      -4.097   4.419 -33.502  1.00  0.00     0.118 A 
HETATM   33  O   UNL     1      -4.136   5.146 -34.662  1.00  0.00    -0.319 OA
HETATM   34  C   UNL     1      -2.854   5.377 -35.043  1.00  0.00     0.142 A 
HETATM   35  C   UNL     1      -1.981   4.810 -34.146  1.00  0.00     0.027 A 
HETATM   36  C   UNL     1      -2.780   4.191 -33.149  1.00  0.00     0.043 A 
ENDBRANCH  10  32
TORSDOF 6
ENDMDL
MODEL 4
REMARK VINA RESULT:      -8.8      3.077      6.678
REMARK  6 active torsions:
REMARK  status: ('A' for Active; 'I' for Inactive)
REMARK    1  A    between atoms: C_4  and  C_5 
REMARK    2  A    between atoms: C_5  and  C_6 
REMARK    3  A    between atoms: C_6  and  N_7 
REMARK    4  A    between atoms: C_16  and  C_17 
REMARK    5  A    between atoms: C_24  and  C_25 
REMARK    6  A    between atoms: C_24  and  C_29 
ROOT
HETATM    1  N   UNL     1      -5.045   3.106 -31.919  1.00  0.00    -0.284 N 
HETATM    2  C   UNL     1      -5.731   4.314 -31.814  1.00  0.00     0.331 A 
HETATM    3  O   UNL     1      -5.225   5.361 -31.428  1.00  0.00    -0.246 OA
HETATM    4  N   UNL     1      -7.044   4.283 -32.170  1.00  0.00    -0.275 N 
HETATM    5  C   UNL     1      -7.718   3.194 -32.597  1.00  0.00     0.262 A 
HETATM    6  O   UNL     1      -8.904   3.216 -32.880  1.00  0.00    -0.267 OA
HETATM    7  C   UNL     1      -6.966   1.940 -32.702  1.00  0.00     0.100 A 
HETATM    8  C   UNL     1      -5.675   1.945 -32.335  1.00  0.00     0.128 A 
HETATM    9  N   UNL     1      -4.969   0.769 -32.380  1.00  0.00    -0.326 N 
HETATM   10  C   UNL     1      -5.498  -0.375 -32.756  1.00  0.00     0.138 A 
HETATM   11  N   UNL     1      -6.747  -0.472 -33.137  1.00  0.00    -0.345 N 
HETATM   12  H   UNL     1      -7.115  -1.386 -33.408  1.00  0.00     0.163 HD
HETATM   13  C   UNL     1      -7.700   0.728 -33.231  1.00  0.00     0.264 A 
HETATM   14  H   UNL     1      -7.551   5.157 -32.087  1.00  0.00     0.173 HD
HETATM   15  H   UNL     1      -3.994   0.717 -32.095  1.00  0.00     0.169 HD
ENDROOT
BRANCH   1  16
HETATM   16  C   UNL     1      -3.623   3.166 -31.555  1.00  0.00     0.140 C 
BRANCH  16  17
HETATM   17  C   UNL     1      -2.728   3.503 -32.757  1.00  0.00     0.059 C 
BRANCH  17  18
HETATM   18  C   UNL     1      -1.882   4.730 -32.530  1.00  0.00    -0.057 A 
HETATM   19  C   UNL     1      -1.727   5.687 -33.545  1.00  0.00     0.007 A 
HETATM   20  C   UNL     1      -0.959   6.832 -33.331  1.00  0.00     0.001 A 
HETATM   21  C   UNL     1      -0.353   7.045 -32.096  1.00  0.00     0.000 A 
HETATM   22  C   UNL     1      -0.518   6.114 -31.073  1.00  0.00     0.001 A 
HETATM   23  C   UNL     1      -1.278   4.962 -31.286  1.00  0.00     0.007 A 
ENDBRANCH  17  18
ENDBRANCH  16  17
ENDBRANCH   1  16
BRANCH  13  24
HETATM   24  C   UNL     1      -8.097   0.858 -34.706  1.00  0.00     0.426 C 
HETATM   25  F   UNL     1      -7.168   1.623 -35.342  1.00  0.00    -0.168 F 
HETATM   26  F   UNL     1      -8.054  -0.358 -35.303  1.00  0.00    -0.168 F 
HETATM   27  F   UNL     1      -9.295   1.400 -34.944  1.00  0.00    -0.168 F 
ENDBRANCH  13  24
BRANCH  13  28
HETATM   28  C   UNL     1      -8.976   0.336 -32.476  1.00  0.00     0.426 C 
HETATM   29  F   UNL     1      -8.731   0.331 -31.142  1.00  0.00    -0.168 F 
HETATM   30  F   UNL     1     -10.058   1.083 -32.707  1.00  0.00    -0.168 F 
HETATM   31  F   UNL     1      -9.295  -0.948 -32.800  1.00  0.00    -0.168 F 
ENDBRANCH  13  28
BRANCH  10  32
HETATM   32  C   UNL     1      -4.630  -1.535 -32.726  1.00  0.00     0.118 A 
HETATM   33  O   UNL     1      -3.737  -1.750 -31.711  1.00  0.00    -0.319 OA
HETATM   34  C   UNL     1      -3.077  -2.904 -31.986  1.00  0.00     0.142 A 
HETATM   35  C   UNL     1      -3.529  -3.442 -33.166  1.00  0.00     0.027 A 
HETATM   36  C   UNL     1      -4.533  -2.562 -33.647  1.00  0.00     0.043 A 
ENDBRANCH  10  32
TORSDOF 6
ENDMDL
MODEL 5
REMARK VINA RESULT:      -8.7      3.556      6.307
REMARK  6 active torsions:
REMARK  status: ('A' for Active; 'I' for Inactive)
REMARK    1  A    between atoms: C_4  and  C_5 
REMARK    2  A    between atoms: C_5  and  C_6 
REMARK    3  A    between atoms: C_6  and  N_7 
REMARK    4  A    between atoms: C_16  and  C_17 
REMARK    5  A    between atoms: C_24  and  C_25 
REMARK    6  A    between atoms: C_24  and  C_29 
ROOT
HETATM    1  N   UNL     1      -5.012   3.290 -32.391  1.00  0.00    -0.284 N 
HETATM    2  C   UNL     1      -3.890   2.507 -32.124  1.00  0.00     0.331 A 
HETATM    3  O   UNL     1      -2.862   2.932 -31.610  1.00  0.00    -0.246 OA
HETATM    4  N   UNL     1      -3.985   1.196 -32.474  1.00  0.00    -0.275 N 
HETATM    5  C   UNL     1      -5.055   0.612 -33.056  1.00  0.00     0.262 A 
HETATM    6  O   UNL     1      -5.079  -0.565 -33.373  1.00  0.00    -0.267 OA
HETATM    7  C   UNL     1      -6.220   1.462 -33.318  1.00  0.00     0.100 A 
HETATM    8  C   UNL     1      -6.139   2.763 -33.000  1.00  0.00     0.128 A 
HETATM    9  N   UNL     1      -7.202   3.583 -33.283  1.00  0.00    -0.326 N 
HETATM   10  C   UNL     1      -8.302   3.160 -33.866  1.00  0.00     0.138 A 
HETATM   11  N   UNL     1      -8.472   1.907 -34.206  1.00  0.00    -0.345 N 
HETATM   12  H   UNL     1      -9.340   1.630 -34.668  1.00  0.00     0.163 HD
HETATM   13  C   UNL     1      -7.442   0.804 -33.920  1.00  0.00     0.264 A 
HETATM   14  H   UNL     1      -3.169   0.623 -32.291  1.00  0.00     0.173 HD
HETATM   15  H   UNL     1      -7.182   4.579 -33.078  1.00  0.00     0.169 HD
ENDROOT
BRANCH   1  16
HETATM   16  C   UNL     1      -4.899   4.697 -31.982  1.00  0.00     0.140 C 
BRANCH  16  17
HETATM   17  C   UNL     1      -4.787   5.646 -33.185  1.00  0.00     0.059 C 
BRANCH  17  18
HETATM   18  C   UNL     1      -3.357   5.931 -33.572  1.00  0.00    -0.057 A 
HETATM   19  C   UNL     1      -2.644   6.967 -32.949  1.00  0.00     0.007 A 
HETATM   20  C   UNL     1      -1.315   7.222 -33.292  1.00  0.00     0.001 A 
HETATM   21  C   UNL     1      -0.678   6.434 -34.247  1.00  0.00     0.000 A 
HETATM   22  C   UNL     1      -1.369   5.389 -34.856  1.00  0.00     0.001 A 
HETATM   23  C   UNL     1      -2.701   5.136 -34.522  1.00  0.00     0.007 A 
ENDBRANCH  17  18
ENDBRANCH  16  17
ENDBRANCH   1  16
BRANCH  13  24
HETATM   24  C   UNL     1      -8.119  -0.194 -32.974  1.00  0.00     0.426 C 
HETATM   25  F   UNL     1      -7.751   0.096 -31.697  1.00  0.00    -0.168 F 
HETATM   26  F   UNL     1      -9.464  -0.034 -33.022  1.00  0.00    -0.168 F 
HETATM   27  F   UNL     1      -7.843  -1.483 -33.189  1.00  0.00    -0.168 F 
ENDBRANCH  13  24
BRANCH  13  28
HETATM   28  C   UNL     1      -7.218   0.059 -35.242  1.00  0.00     0.426 C 
HETATM   29  F   UNL     1      -6.553   0.863 -36.109  1.00  0.00    -0.168 F 
HETATM   30  F   UNL     1      -6.576  -1.109 -35.166  1.00  0.00    -0.168 F 
HETATM   31  F   UNL     1      -8.430  -0.183 -35.815  1.00  0.00    -0.168 F 
ENDBRANCH  13  28
BRANCH  10  32
HETATM   32  C   UNL     1      -9.327   4.152 -34.122  1.00  0.00     0.118 A 
HETATM   33  O   UNL     1      -9.046   5.350 -34.723  1.00  0.00    -0.319 OA
HETATM   34  C   UNL     1     -10.207   6.048 -34.804  1.00  0.00     0.142 A 
HETATM   35  C   UNL     1     -11.240   5.319 -34.266  1.00  0.00     0.027 A 
HETATM   36  C   UNL     1     -10.676   4.094 -33.825  1.00  0.00     0.043 A 
ENDBRANCH  10  32
TORSDOF 6
ENDMDL
MODEL 6
REMARK VINA RESULT:      -8.6     15.571     17.574
REMARK  6 active torsions:
REMARK  status: ('A' for Active; 'I' for Inactive)
REMARK    1  A    between atoms: C_4  and  C_5 
REMARK    2  A    between atoms: C_5  and  C_6 
REMARK    3  A    between atoms: C_6  and  N_7 
REMARK    4  A    between atoms: C_16  and  C_17 
REMARK    5  A    between atoms: C_24  and  C_25 
REMARK    6  A    between atoms: C_24  and  C_29 
ROOT
HETATM    1  N   UNL     1      -6.235 -12.678 -38.974  1.00  0.00    -0.284 N 
HETATM    2  C   UNL     1      -6.081 -12.576 -40.356  1.00  0.00     0.331 A 
HETATM    3  O   UNL     1      -6.935 -12.126 -41.111  1.00  0.00    -0.246 OA
HETATM    4  N   UNL     1      -4.895 -13.019 -40.855  1.00  0.00    -0.275 N 
HETATM    5  C   UNL     1      -3.884 -13.545 -40.130  1.00  0.00     0.262 A 
HETATM    6  O   UNL     1      -2.849 -13.951 -40.631  1.00  0.00    -0.267 OA
HETATM    7  C   UNL     1      -4.076 -13.633 -38.679  1.00  0.00     0.100 A 
HETATM    8  C   UNL     1      -5.247 -13.222 -38.170  1.00  0.00     0.128 A 
HETATM    9  N   UNL     1      -5.462 -13.342 -36.821  1.00  0.00    -0.326 N 
HETATM   10  C   UNL     1      -4.578 -13.854 -35.993  1.00  0.00     0.138 A 
HETATM   11  N   UNL     1      -3.406 -14.275 -36.400  1.00  0.00    -0.345 N 
HETATM   12  H   UNL     1      -2.758 -14.677 -35.720  1.00  0.00     0.163 HD
HETATM   13  C   UNL     1      -2.927 -14.171 -37.856  1.00  0.00     0.264 A 
HETATM   14  H   UNL     1      -4.781 -12.956 -41.860  1.00  0.00     0.173 HD
HETATM   15  H   UNL     1      -6.339 -13.062 -36.389  1.00  0.00     0.169 HD
ENDROOT
BRANCH   1  16
HETATM   16  C   UNL     1      -7.512 -12.171 -38.453  1.00  0.00     0.140 C 
BRANCH  16  17
HETATM   17  C   UNL     1      -8.432 -13.301 -37.966  1.00  0.00     0.059 C 
BRANCH  17  18
HETATM   18  C   UNL     1      -9.375 -13.788 -39.037  1.00  0.00    -0.057 A 
HETATM   19  C   UNL     1     -10.347 -12.928 -39.575  1.00  0.00     0.007 A 
HETATM   20  C   UNL     1     -11.209 -13.370 -40.579  1.00  0.00     0.001 A 
HETATM   21  C   UNL     1     -11.101 -14.667 -41.071  1.00  0.00     0.000 A 
HETATM   22  C   UNL     1     -10.127 -15.523 -40.561  1.00  0.00     0.001 A 
HETATM   23  C   UNL     1      -9.267 -15.088 -39.550  1.00  0.00     0.007 A 
ENDBRANCH  17  18
ENDBRANCH  16  17
ENDBRANCH   1  16
BRANCH  13  24
HETATM   24  C   UNL     1      -1.703 -13.250 -37.850  1.00  0.00     0.426 C 
HETATM   25  F   UNL     1      -2.128 -11.958 -37.908  1.00  0.00    -0.168 F 
HETATM   26  F   UNL     1      -1.038 -13.374 -36.675  1.00  0.00    -0.168 F 
HETATM   27  F   UNL     1      -0.830 -13.430 -38.846  1.00  0.00    -0.168 F 
ENDBRANCH  13  24
BRANCH  13  28
HETATM   28  C   UNL     1      -2.416 -15.563 -38.249  1.00  0.00     0.426 C 
HETATM   29  F   UNL     1      -3.454 -16.325 -38.676  1.00  0.00    -0.168 F 
HETATM   30  F   UNL     1      -1.452 -15.604 -39.172  1.00  0.00    -0.168 F 
HETATM   31  F   UNL     1      -1.935 -16.180 -37.135  1.00  0.00    -0.168 F 
ENDBRANCH  13  28
BRANCH  10  32
HETATM   32  C   UNL     1      -4.961 -13.937 -34.598  1.00  0.00     0.118 A 
HETATM   33  O   UNL     1      -4.823 -15.091 -33.873  1.00  0.00    -0.319 OA
HETATM   34  C   UNL     1      -5.279 -14.842 -32.619  1.00  0.00     0.142 A 
HETATM   35  C   UNL     1      -5.712 -13.542 -32.519  1.00  0.00     0.027 A 
HETATM   36  C   UNL     1      -5.507 -12.954 -33.794  1.00  0.00     0.043 A 
ENDBRANCH  10  32
TORSDOF 6
ENDMDL
MODEL 7
REMARK VINA RESULT:      -8.5      2.541      5.159
REMARK  6 active torsions:
REMARK  status: ('A' for Active; 'I' for Inactive)
REMARK    1  A    between atoms: C_4  and  C_5 
REMARK    2  A    between atoms: C_5  and  C_6 
REMARK    3  A    between atoms: C_6  and  N_7 
REMARK    4  A    between atoms: C_16  and  C_17 
REMARK    5  A    between atoms: C_24  and  C_25 
REMARK    6  A    between atoms: C_24  and  C_29 
ROOT
HETATM    1  N   UNL     1      -5.165   1.528 -30.718  1.00  0.00    -0.284 N 
HETATM    2  C   UNL     1      -6.378   0.903 -30.435  1.00  0.00     0.331 A 
HETATM    3  O   UNL     1      -6.552  -0.310 -30.474  1.00  0.00    -0.246 OA
HETATM    4  N   UNL     1      -7.408   1.728 -30.103  1.00  0.00    -0.275 N 
HETATM    5  C   UNL     1      -7.346   3.076 -30.038  1.00  0.00     0.262 A 
HETATM    6  O   UNL     1      -8.308   3.772 -29.760  1.00  0.00    -0.267 OA
HETATM    7  C   UNL     1      -6.054   3.702 -30.336  1.00  0.00     0.100 A 
HETATM    8  C   UNL     1      -5.032   2.906 -30.686  1.00  0.00     0.128 A 
HETATM    9  N   UNL     1      -3.829   3.478 -31.016  1.00  0.00    -0.326 N 
HETATM   10  C   UNL     1      -3.626   4.778 -31.017  1.00  0.00     0.138 A 
HETATM   11  N   UNL     1      -4.564   5.629 -30.682  1.00  0.00    -0.345 N 
HETATM   12  H   UNL     1      -4.361   6.630 -30.712  1.00  0.00     0.163 HD
HETATM   13  C   UNL     1      -5.963   5.206 -30.212  1.00  0.00     0.264 A 
HETATM   14  H   UNL     1      -8.295   1.280 -29.906  1.00  0.00     0.173 HD
HETATM   15  H   UNL     1      -3.030   2.920 -31.305  1.00  0.00     0.169 HD
ENDROOT
BRANCH   1  16
HETATM   16  C   UNL     1      -4.060   0.618 -31.049  1.00  0.00     0.140 C 
BRANCH  16  17
HETATM   17  C   UNL     1      -3.753   0.598 -32.554  1.00  0.00     0.059 C 
BRANCH  17  18
HETATM   18  C   UNL     1      -4.567  -0.428 -33.302  1.00  0.00    -0.057 A 
HETATM   19  C   UNL     1      -5.759  -0.060 -33.947  1.00  0.00     0.007 A 
HETATM   20  C   UNL     1      -6.504  -1.003 -34.655  1.00  0.00     0.001 A 
HETATM   21  C   UNL     1      -6.061  -2.319 -34.744  1.00  0.00     0.000 A 
HETATM   22  C   UNL     1      -4.869  -2.692 -34.126  1.00  0.00     0.001 A 
HETATM   23  C   UNL     1      -4.124  -1.753 -33.409  1.00  0.00     0.007 A 
ENDBRANCH  17  18
ENDBRANCH  16  17
ENDBRANCH   1  16
BRANCH  13  24
HETATM   24  C   UNL     1      -6.111   5.705 -28.771  1.00  0.00     0.426 C 
HETATM   25  F   UNL     1      -5.332   4.936 -27.961  1.00  0.00    -0.168 F 
HETATM   26  F   UNL     1      -5.627   6.967 -28.668  1.00  0.00    -0.168 F 
HETATM   27  F   UNL     1      -7.349   5.689 -28.270  1.00  0.00    -0.168 F 
ENDBRANCH  13  24
BRANCH  13  28
HETATM   28  C   UNL     1      -6.968   6.009 -31.049  1.00  0.00     0.426 C 
HETATM   29  F   UNL     1      -7.274   5.318 -32.176  1.00  0.00    -0.168 F 
HETATM   30  F   UNL     1      -8.105   6.356 -30.442  1.00  0.00    -0.168 F 
HETATM   31  F   UNL     1      -6.366   7.156 -31.468  1.00  0.00    -0.168 F 
ENDBRANCH  13  28
BRANCH  10  32
HETATM   32  C   UNL     1      -2.308   5.231 -31.413  1.00  0.00     0.118 A 
HETATM   33  O   UNL     1      -1.167   4.582 -31.022  1.00  0.00    -0.319 OA
HETATM   34  C   UNL     1      -0.113   5.259 -31.544  1.00  0.00     0.142 A 
HETATM   35  C   UNL     1      -0.553   6.339 -32.270  1.00  0.00     0.027 A 
HETATM   36  C   UNL     1      -1.969   6.324 -32.188  1.00  0.00     0.043 A 
ENDBRANCH  10  32
TORSDOF 6
ENDMDL
MODEL 8
REMARK VINA RESULT:      -8.3     16.058     18.164
REMARK  6 active torsions:
REMARK  status: ('A' for Active; 'I' for Inactive)
REMARK    1  A    between atoms: C_4  and  C_5 
REMARK    2  A    between atoms: C_5  and  C_6 
REMARK    3  A    between atoms: C_6  and  N_7 
REMARK    4  A    between atoms: C_16  and  C_17 
REMARK    5  A    between atoms: C_24  and  C_25 
REMARK    6  A    between atoms: C_24  and  C_29 
ROOT
HETATM    1  N   UNL     1      -4.657 -13.873 -41.074  1.00  0.00    -0.284 N 
HETATM    2  C   UNL     1      -3.931 -14.131 -42.236  1.00  0.00     0.331 A 
HETATM    3  O   UNL     1      -4.376 -13.991 -43.369  1.00  0.00    -0.246 OA
HETATM    4  N   UNL     1      -2.655 -14.566 -42.053  1.00  0.00    -0.275 N 
HETATM    5  C   UNL     1      -2.056 -14.771 -40.861  1.00  0.00     0.262 A 
HETATM    6  O   UNL     1      -0.915 -15.186 -40.753  1.00  0.00    -0.267 OA
HETATM    7  C   UNL     1      -2.845 -14.484 -39.658  1.00  0.00     0.100 A 
HETATM    8  C   UNL     1      -4.113 -14.076 -39.816  1.00  0.00     0.128 A 
HETATM    9  N   UNL     1      -4.881 -13.850 -38.702  1.00  0.00    -0.326 N 
HETATM   10  C   UNL     1      -4.440 -14.027 -37.476  1.00  0.00     0.138 A 
HETATM   11  N   UNL     1      -3.215 -14.417 -37.226  1.00  0.00    -0.345 N 
HETATM   12  H   UNL     1      -2.924 -14.552 -36.256  1.00  0.00     0.163 HD
HETATM   13  C   UNL     1      -2.164 -14.660 -38.319  1.00  0.00     0.264 A 
HETATM   14  H   UNL     1      -2.125 -14.764 -42.894  1.00  0.00     0.173 HD
HETATM   15  H   UNL     1      -5.852 -13.557 -38.769  1.00  0.00     0.169 HD
ENDROOT
BRANCH   1  16
HETATM   16  C   UNL     1      -6.024 -13.380 -41.292  1.00  0.00     0.140 C 
BRANCH  16  17
HETATM   17  C   UNL     1      -7.085 -14.441 -40.961  1.00  0.00     0.059 C 
BRANCH  17  18
HETATM   18  C   UNL     1      -8.438 -13.842 -40.672  1.00  0.00    -0.057 A 
HETATM   19  C   UNL     1      -8.555 -12.495 -40.293  1.00  0.00     0.007 A 
HETATM   20  C   UNL     1      -9.808 -11.934 -40.042  1.00  0.00     0.001 A 
HETATM   21  C   UNL     1     -10.959 -12.704 -40.184  1.00  0.00     0.000 A 
HETATM   22  C   UNL     1     -10.857 -14.036 -40.580  1.00  0.00     0.001 A 
HETATM   23  C   UNL     1      -9.605 -14.604 -40.824  1.00  0.00     0.007 A 
ENDBRANCH  17  18
ENDBRANCH  16  17
ENDBRANCH   1  16
BRANCH  13  24
HETATM   24  C   UNL     1      -1.038 -13.649 -38.077  1.00  0.00     0.426 C 
HETATM   25  F   UNL     1      -1.329 -12.501 -38.748  1.00  0.00    -0.168 F 
HETATM   26  F   UNL     1      -0.994 -13.314 -36.763  1.00  0.00    -0.168 F 
HETATM   27  F   UNL     1       0.185 -14.034 -38.451  1.00  0.00    -0.168 F 
ENDBRANCH  13  24
BRANCH  13  28
HETATM   28  C   UNL     1      -1.562 -16.045 -38.050  1.00  0.00     0.426 C 
HETATM   29  F   UNL     1      -2.357 -16.999 -38.596  1.00  0.00    -0.168 F 
HETATM   30  F   UNL     1      -0.311 -16.242 -38.471  1.00  0.00    -0.168 F 
HETATM   31  F   UNL     1      -1.578 -16.272 -36.707  1.00  0.00    -0.168 F 
ENDBRANCH  13  28
BRANCH  10  32
HETATM   32  C   UNL     1      -5.379 -13.771 -36.402  1.00  0.00     0.118 A 
HETATM   33  O   UNL     1      -4.967 -13.500 -35.124  1.00  0.00    -0.319 OA
HETATM   34  C   UNL     1      -6.079 -13.323 -34.366  1.00  0.00     0.142 A 
HETATM   35  C   UNL     1      -7.208 -13.474 -35.134  1.00  0.00     0.027 A 
HETATM   36  C   UNL     1      -6.761 -13.762 -36.449  1.00  0.00     0.043 A 
ENDBRANCH  10  32
TORSDOF 6
ENDMDL
MODEL 9
REMARK VINA RESULT:      -8.3     16.111     18.236
REMARK  6 active torsions:
REMARK  status: ('A' for Active; 'I' for Inactive)
REMARK    1  A    between atoms: C_4  and  C_5 
REMARK    2  A    between atoms: C_5  and  C_6 
REMARK    3  A    between atoms: C_6  and  N_7 
REMARK    4  A    between atoms: C_16  and  C_17 
REMARK    5  A    between atoms: C_24  and  C_25 
REMARK    6  A    between atoms: C_24  and  C_29 
ROOT
HETATM    1  N   UNL     1      -5.312 -14.168 -37.176  1.00  0.00    -0.284 N 
HETATM    2  C   UNL     1      -4.991 -13.900 -35.846  1.00  0.00     0.331 A 
HETATM    3  O   UNL     1      -5.820 -13.708 -34.965  1.00  0.00    -0.246 OA
HETATM    4  N   UNL     1      -3.663 -13.856 -35.554  1.00  0.00    -0.275 N 
HETATM    5  C   UNL     1      -2.657 -14.038 -36.436  1.00  0.00     0.262 A 
HETATM    6  O   UNL     1      -1.480 -13.963 -36.126  1.00  0.00    -0.267 OA
HETATM    7  C   UNL     1      -3.028 -14.324 -37.825  1.00  0.00     0.100 A 
HETATM    8  C   UNL     1      -4.333 -14.350 -38.138  1.00  0.00     0.128 A 
HETATM    9  N   UNL     1      -4.698 -14.567 -39.443  1.00  0.00    -0.326 N 
HETATM   10  C   UNL     1      -3.828 -14.740 -40.415  1.00  0.00     0.138 A 
HETATM   11  N   UNL     1      -2.536 -14.737 -40.201  1.00  0.00    -0.345 N 
HETATM   12  H   UNL     1      -1.901 -14.863 -40.991  1.00  0.00     0.163 HD
HETATM   13  C   UNL     1      -1.908 -14.582 -38.808  1.00  0.00     0.264 A 
HETATM   14  H   UNL     1      -3.423 -13.653 -34.591  1.00  0.00     0.173 HD
HETATM   15  H   UNL     1      -5.672 -14.578 -39.734  1.00  0.00     0.169 HD
ENDROOT
BRANCH   1  16
HETATM   16  C   UNL     1      -6.751 -14.237 -37.466  1.00  0.00     0.140 C 
BRANCH  16  17
HETATM   17  C   UNL     1      -7.286 -12.931 -38.072  1.00  0.00     0.059 C 
BRANCH  17  18
HETATM   18  C   UNL     1      -8.533 -13.138 -38.895  1.00  0.00    -0.057 A 
HETATM   19  C   UNL     1      -9.156 -12.051 -39.528  1.00  0.00     0.007 A 
HETATM   20  C   UNL     1     -10.300 -12.242 -40.306  1.00  0.00     0.001 A 
HETATM   21  C   UNL     1     -10.823 -13.521 -40.475  1.00  0.00     0.000 A 
HETATM   22  C   UNL     1     -10.200 -14.611 -39.869  1.00  0.00     0.001 A 
HETATM   23  C   UNL     1      -9.061 -14.422 -39.084  1.00  0.00     0.007 A 
ENDBRANCH  17  18
ENDBRANCH  16  17
ENDBRANCH   1  16
BRANCH  13  24
HETATM   24  C   UNL     1      -1.143 -15.879 -38.525  1.00  0.00     0.426 C 
HETATM   25  F   UNL     1      -2.033 -16.840 -38.157  1.00  0.00    -0.168 F 
HETATM   26  F   UNL     1      -0.557 -16.326 -39.663  1.00  0.00    -0.168 F 
HETATM   27  F   UNL     1      -0.208 -15.811 -37.573  1.00  0.00    -0.168 F 
ENDBRANCH  13  24
BRANCH  13  28
HETATM   28  C   UNL     1      -0.851 -13.476 -38.924  1.00  0.00     0.426 C 
HETATM   29  F   UNL     1      -1.356 -12.312 -38.443  1.00  0.00    -0.168 F 
HETATM   30  F   UNL     1       0.322 -13.709 -38.329  1.00  0.00    -0.168 F 
HETATM   31  F   UNL     1      -0.598 -13.254 -40.244  1.00  0.00    -0.168 F 
ENDBRANCH  13  28
BRANCH  10  32
HETATM   32  C   UNL     1      -4.368 -14.934 -41.745  1.00  0.00     0.118 A 
HETATM   33  O   UNL     1      -3.788 -14.376 -42.854  1.00  0.00    -0.319 OA
HETATM   34  C   UNL     1      -4.535 -14.734 -43.929  1.00  0.00     0.142 A 
HETATM   35  C   UNL     1      -5.592 -15.519 -43.535  1.00  0.00     0.027 A 
HETATM   36  C   UNL     1      -5.487 -15.651 -42.126  1.00  0.00     0.043 A 
ENDBRANCH  10  32
TORSDOF 6
ENDMDL
MODEL 10
REMARK VINA RESULT:      -8.1     15.956     18.217
REMARK  6 active torsions:
REMARK  status: ('A' for Active; 'I' for Inactive)
REMARK    1  A    between atoms: C_4  and  C_5 
REMARK    2  A    between atoms: C_5  and  C_6 
REMARK    3  A    between atoms: C_6  and  N_7 
REMARK    4  A    between atoms: C_16  and  C_17 
REMARK    5  A    between atoms: C_24  and  C_25 
REMARK    6  A    between atoms: C_24  and  C_29 
ROOT
HETATM    1  N   UNL     1      -4.420 -14.194 -36.971  1.00  0.00    -0.284 N 
HETATM    2  C   UNL     1      -5.199 -13.609 -35.974  1.00  0.00     0.331 A 
HETATM    3  O   UNL     1      -4.843 -13.486 -34.808  1.00  0.00    -0.246 OA
HETATM    4  N   UNL     1      -6.424 -13.163 -36.363  1.00  0.00    -0.275 N 
HETATM    5  C   UNL     1      -6.934 -13.252 -37.611  1.00  0.00     0.262 A 
HETATM    6  O   UNL     1      -8.051 -12.858 -37.901  1.00  0.00    -0.267 OA
HETATM    7  C   UNL     1      -6.087 -13.867 -38.637  1.00  0.00     0.100 A 
HETATM    8  C   UNL     1      -4.884 -14.332 -38.269  1.00  0.00     0.128 A 
HETATM    9  N   UNL     1      -4.098 -14.955 -39.206  1.00  0.00    -0.326 N 
HETATM   10  C   UNL     1      -4.470 -15.132 -40.455  1.00  0.00     0.138 A 
HETATM   11  N   UNL     1      -5.624 -14.705 -40.904  1.00  0.00    -0.345 N 
HETATM   12  H   UNL     1      -5.873 -14.878 -41.880  1.00  0.00     0.163 HD
HETATM   13  C   UNL     1      -6.630 -13.921 -40.048  1.00  0.00     0.264 A 
HETATM   14  H   UNL     1      -6.999 -12.745 -35.641  1.00  0.00     0.173 HD
HETATM   15  H   UNL     1      -3.187 -15.340 -38.973  1.00  0.00     0.169 HD
ENDROOT
BRANCH   1  16
HETATM   16  C   UNL     1      -3.091 -14.644 -36.537  1.00  0.00     0.140 C 
BRANCH  16  17
HETATM   17  C   UNL     1      -1.995 -13.616 -36.856  1.00  0.00     0.059 C 
BRANCH  17  18
HETATM   18  C   UNL     1      -1.057 -14.080 -37.942  1.00  0.00    -0.057 A 
HETATM   19  C   UNL     1      -0.127 -15.101 -37.692  1.00  0.00     0.007 A 
HETATM   20  C   UNL     1       0.729 -15.545 -38.701  1.00  0.00     0.001 A 
HETATM   21  C   UNL     1       0.654 -14.989 -39.974  1.00  0.00     0.000 A 
HETATM   22  C   UNL     1      -0.280 -13.990 -40.241  1.00  0.00     0.001 A 
HETATM   23  C   UNL     1      -1.133 -13.537 -39.232  1.00  0.00     0.007 A 
ENDBRANCH  17  18
ENDBRANCH  16  17
ENDBRANCH   1  16
BRANCH  13  24
HETATM   24  C   UNL     1      -6.772 -12.539 -40.695  1.00  0.00     0.426 C 
HETATM   25  F   UNL     1      -5.834 -11.709 -40.162  1.00  0.00    -0.168 F 
HETATM   26  F   UNL     1      -6.494 -12.619 -42.019  1.00  0.00    -0.168 F 
HETATM   27  F   UNL     1      -7.960 -11.945 -40.552  1.00  0.00    -0.168 F 
ENDBRANCH  13  24
BRANCH  13  28
HETATM   28  C   UNL     1      -7.986 -14.616 -40.218  1.00  0.00     0.426 C 
HETATM   29  F   UNL     1      -8.083 -15.645 -39.338  1.00  0.00    -0.168 F 
HETATM   30  F   UNL     1      -9.070 -13.846 -40.092  1.00  0.00    -0.168 F 
HETATM   31  F   UNL     1      -8.034 -15.181 -41.456  1.00  0.00    -0.168 F 
ENDBRANCH  13  28
BRANCH  10  32
HETATM   32  C   UNL     1      -3.541 -15.830 -41.319  1.00  0.00     0.118 A 
HETATM   33  O   UNL     1      -3.570 -15.693 -42.682  1.00  0.00    -0.319 OA
HETATM   34  C   UNL     1      -2.589 -16.479 -43.193  1.00  0.00     0.142 A 
HETATM   35  C   UNL     1      -1.921 -17.125 -42.181  1.00  0.00     0.027 A 
HETATM   36  C   UNL     1      -2.531 -16.708 -40.970  1.00  0.00     0.043 A 
ENDBRANCH  10  32
TORSDOF 6
ENDMDL
