MODEL 1
REMARK VINA RESULT:      -8.9      0.000      0.000
REMARK  3 active torsions:
REMARK  status: ('A' for Active; 'I' for Inactive)
REMARK    1  A    between atoms: C_7  and  C_8 
REMARK    2  A    between atoms: N_9  and  C_11 
REMARK    3  A    between atoms: C_11  and  C_12 
ROOT
HETATM    1  C   UNL     1      -7.536   1.592 -32.692  1.00  0.00     0.238 C 
HETATM    2  N   UNL     1      -6.572   2.665 -32.220  1.00  0.00    -0.056 N 
HETATM    3  H   UNL     1      -6.037   2.227 -31.462  1.00  0.00     0.281 HD
HETATM    4  C   UNL     1      -7.272   3.859 -31.608  1.00  0.00     0.236 C 
HETATM    5  C   UNL     1      -8.144   3.422 -30.444  1.00  0.00     0.028 C 
HETATM    6  C   UNL     1      -9.178   2.411 -30.910  1.00  0.00     0.004 C 
HETATM    7  C   UNL     1      -8.493   1.211 -31.544  1.00  0.00     0.040 C 
ENDROOT
BRANCH   2   8
HETATM    8  C   UNL     1      -5.523   3.084 -33.244  1.00  0.00     0.295 C 
BRANCH   8   9
HETATM    9  C   UNL     1      -4.187   3.387 -32.690  1.00  0.00     0.077 A 
HETATM   10  N   UNL     1      -3.301   4.333 -33.180  1.00  0.00    -0.155 N 
HETATM   11  C   UNL     1      -2.201   4.350 -32.317  1.00  0.00     0.732 A 
HETATM   12  C   UNL     1      -3.366   5.171 -34.289  1.00  0.00     0.117 A 
HETATM   13  N   UNL     1      -1.184   5.239 -32.489  1.00  0.00    -0.074 NA
HETATM   14  N   UNL     1      -2.323   3.413 -31.403  1.00  0.00    -0.072 NA
HETATM   15  C   UNL     1      -1.262   6.014 -33.525  1.00  0.00     0.138 A 
HETATM   16  C   UNL     1      -2.368   6.035 -34.523  1.00  0.00     0.038 A 
HETATM   17  C   UNL     1      -3.498   2.780 -31.658  1.00  0.00     0.164 A 
ENDBRANCH   8   9
ENDBRANCH   2   8
BRANCH   1  18
HETATM   18  C   UNL     1      -6.824   0.351 -33.136  1.00  0.00     0.041 A 
HETATM   19  N   UNL     1      -7.471  -0.642 -33.842  1.00  0.00    -0.357 N 
HETATM   20  C   UNL     1      -6.612  -1.686 -34.099  1.00  0.00     0.042 A 
HETATM   21  H   UNL     1      -8.443  -0.641 -34.126  1.00  0.00     0.166 HD
HETATM   22  C   UNL     1      -5.389  -1.372 -33.513  1.00  0.00    -0.008 A 
HETATM   23  C   UNL     1      -6.832  -2.888 -34.782  1.00  0.00     0.030 A 
HETATM   24  C   UNL     1      -4.330  -2.296 -33.604  1.00  0.00     0.014 A 
HETATM   25  C   UNL     1      -5.535  -0.100 -32.900  1.00  0.00     0.040 A 
HETATM   26  C   UNL     1      -4.534  -3.502 -34.283  1.00  0.00     0.001 A 
HETATM   27  C   UNL     1      -5.768  -3.791 -34.863  1.00  0.00     0.002 A 
ENDBRANCH   1  18
TORSDOF 3
ENDMDL
MODEL 2
REMARK VINA RESULT:      -8.8      1.453      2.133
REMARK  3 active torsions:
REMARK  status: ('A' for Active; 'I' for Inactive)
REMARK    1  A    between atoms: C_7  and  C_8 
REMARK    2  A    between atoms: N_9  and  C_11 
REMARK    3  A    between atoms: C_11  and  C_12 
ROOT
HETATM    1  C   UNL     1      -5.787   2.264 -32.148  1.00  0.00     0.238 C 
HETATM    2  N   UNL     1      -4.537   2.869 -31.535  1.00  0.00    -0.056 N 
HETATM    3  H   UNL     1      -4.232   2.190 -30.829  1.00  0.00     0.281 HD
HETATM    4  C   UNL     1      -4.808   4.159 -30.792  1.00  0.00     0.236 C 
HETATM    5  C   UNL     1      -5.842   3.934 -29.703  1.00  0.00     0.028 C 
HETATM    6  C   UNL     1      -7.136   3.411 -30.303  1.00  0.00     0.004 C 
HETATM    7  C   UNL     1      -6.879   2.123 -31.069  1.00  0.00     0.040 C 
ENDROOT
BRANCH   2   8
HETATM    8  C   UNL     1      -3.351   2.999 -32.486  1.00  0.00     0.295 C 
BRANCH   8   9
HETATM    9  C   UNL     1      -3.248   4.293 -33.191  1.00  0.00     0.077 A 
HETATM   10  N   UNL     1      -2.320   5.288 -32.929  1.00  0.00    -0.155 N 
HETATM   11  C   UNL     1      -2.522   6.297 -33.875  1.00  0.00     0.732 A 
HETATM   12  C   UNL     1      -1.327   5.392 -31.959  1.00  0.00     0.117 A 
HETATM   13  N   UNL     1      -1.709   7.388 -33.928  1.00  0.00    -0.074 NA
HETATM   14  N   UNL     1      -3.568   6.020 -34.621  1.00  0.00    -0.072 NA
HETATM   15  C   UNL     1      -0.788   7.466 -33.020  1.00  0.00     0.138 A 
HETATM   16  C   UNL     1      -0.527   6.467 -31.946  1.00  0.00     0.038 A 
HETATM   17  C   UNL     1      -4.055   4.833 -34.174  1.00  0.00     0.164 A 
ENDBRANCH   8   9
ENDBRANCH   2   8
BRANCH   1  18
HETATM   18  C   UNL     1      -5.528   0.908 -32.729  1.00  0.00     0.041 A 
HETATM   19  N   UNL     1      -6.403   0.324 -33.623  1.00  0.00    -0.357 N 
HETATM   20  C   UNL     1      -5.960  -0.929 -33.980  1.00  0.00     0.042 A 
HETATM   21  H   UNL     1      -7.266   0.727 -33.969  1.00  0.00     0.166 HD
HETATM   22  C   UNL     1      -4.788  -1.173 -33.271  1.00  0.00    -0.008 A 
HETATM   23  C   UNL     1      -6.520  -1.868 -34.854  1.00  0.00     0.030 A 
HETATM   24  C   UNL     1      -4.136  -2.411 -33.432  1.00  0.00     0.014 A 
HETATM   25  C   UNL     1      -4.532  -0.022 -32.479  1.00  0.00     0.040 A 
HETATM   26  C   UNL     1      -4.683  -3.361 -34.302  1.00  0.00     0.001 A 
HETATM   27  C   UNL     1      -5.857  -3.090 -35.001  1.00  0.00     0.002 A 
ENDBRANCH   1  18
TORSDOF 3
ENDMDL
MODEL 3
REMARK VINA RESULT:      -8.7      3.196      5.117
REMARK  3 active torsions:
REMARK  status: ('A' for Active; 'I' for Inactive)
REMARK    1  A    between atoms: C_7  and  C_8 
REMARK    2  A    between atoms: N_9  and  C_11 
REMARK    3  A    between atoms: C_11  and  C_12 
ROOT
HETATM    1  C   UNL     1     -11.985   1.610 -33.878  1.00  0.00     0.238 C 
HETATM    2  N   UNL     1     -12.226   2.679 -32.828  1.00  0.00    -0.056 N 
HETATM    3  H   UNL     1     -12.035   2.219 -31.931  1.00  0.00     0.281 HD
HETATM    4  C   UNL     1     -13.667   3.138 -32.770  1.00  0.00     0.236 C 
HETATM    5  C   UNL     1     -14.586   1.958 -32.504  1.00  0.00     0.028 C 
HETATM    6  C   UNL     1     -14.429   0.910 -33.593  1.00  0.00     0.004 C 
HETATM    7  C   UNL     1     -12.982   0.451 -33.677  1.00  0.00     0.040 C 
ENDROOT
BRANCH   2   8
HETATM    8  C   UNL     1     -11.256   3.856 -32.873  1.00  0.00     0.295 C 
BRANCH   8   9
HETATM    9  C   UNL     1     -10.095   3.752 -31.966  1.00  0.00     0.077 A 
HETATM   10  N   UNL     1      -8.764   3.839 -32.339  1.00  0.00    -0.155 N 
HETATM   11  C   UNL     1      -8.004   3.772 -31.168  1.00  0.00     0.732 A 
HETATM   12  C   UNL     1      -8.162   3.973 -33.587  1.00  0.00     0.117 A 
HETATM   13  N   UNL     1      -6.650   3.907 -31.197  1.00  0.00    -0.074 NA
HETATM   14  N   UNL     1      -8.782   3.553 -30.131  1.00  0.00    -0.072 NA
HETATM   15  C   UNL     1      -6.106   4.035 -32.366  1.00  0.00     0.138 A 
HETATM   16  C   UNL     1      -6.827   4.069 -33.669  1.00  0.00     0.038 A 
HETATM   17  C   UNL     1     -10.051   3.477 -30.613  1.00  0.00     0.164 A 
ENDBRANCH   8   9
ENDBRANCH   2   8
BRANCH   1  18
HETATM   18  C   UNL     1     -10.598   1.050 -33.804  1.00  0.00     0.041 A 
HETATM   19  N   UNL     1      -9.727   1.129 -34.871  1.00  0.00    -0.357 N 
HETATM   20  C   UNL     1      -8.535   0.514 -34.565  1.00  0.00     0.042 A 
HETATM   21  H   UNL     1      -9.917   1.553 -35.772  1.00  0.00     0.166 HD
HETATM   22  C   UNL     1      -8.653  -0.005 -33.279  1.00  0.00    -0.008 A 
HETATM   23  C   UNL     1      -7.377   0.359 -35.336  1.00  0.00     0.030 A 
HETATM   24  C   UNL     1      -7.571  -0.716 -32.727  1.00  0.00     0.014 A 
HETATM   25  C   UNL     1      -9.954   0.325 -32.815  1.00  0.00     0.040 A 
HETATM   26  C   UNL     1      -6.406  -0.881 -33.484  1.00  0.00     0.001 A 
HETATM   27  C   UNL     1      -6.313  -0.350 -34.769  1.00  0.00     0.002 A 
ENDBRANCH   1  18
TORSDOF 3
ENDMDL
MODEL 4
REMARK VINA RESULT:      -8.6      2.326      5.542
REMARK  3 active torsions:
REMARK  status: ('A' for Active; 'I' for Inactive)
REMARK    1  A    between atoms: C_7  and  C_8 
REMARK    2  A    between atoms: N_9  and  C_11 
REMARK    3  A    between atoms: C_11  and  C_12 
ROOT
HETATM    1  C   UNL     1      -4.385   1.374 -31.523  1.00  0.00     0.238 C 
HETATM    2  N   UNL     1      -5.757   2.002 -31.685  1.00  0.00    -0.056 N 
HETATM    3  H   UNL     1      -5.927   2.012 -32.697  1.00  0.00     0.281 HD
HETATM    4  C   UNL     1      -5.801   3.447 -31.234  1.00  0.00     0.236 C 
HETATM    5  C   UNL     1      -4.779   4.270 -31.999  1.00  0.00     0.028 C 
HETATM    6  C   UNL     1      -3.383   3.713 -31.780  1.00  0.00     0.004 C 
HETATM    7  C   UNL     1      -3.324   2.256 -32.211  1.00  0.00     0.040 C 
ENDROOT
BRANCH   2   8
HETATM    8  C   UNL     1      -6.910   1.190 -31.105  1.00  0.00     0.295 C 
BRANCH   8   9
HETATM    9  C   UNL     1      -8.126   1.134 -31.943  1.00  0.00     0.077 A 
HETATM   10  N   UNL     1      -9.198   2.008 -31.878  1.00  0.00    -0.155 N 
HETATM   11  C   UNL     1     -10.086   1.646 -32.894  1.00  0.00     0.732 A 
HETATM   12  C   UNL     1      -9.465   3.079 -31.029  1.00  0.00     0.117 A 
HETATM   13  N   UNL     1     -11.213   2.370 -33.138  1.00  0.00    -0.074 NA
HETATM   14  N   UNL     1      -9.667   0.557 -33.499  1.00  0.00    -0.072 NA
HETATM   15  C   UNL     1     -11.444   3.365 -32.341  1.00  0.00     0.138 A 
HETATM   16  C   UNL     1     -10.583   3.797 -31.205  1.00  0.00     0.038 A 
HETATM   17  C   UNL     1      -8.507   0.200 -32.888  1.00  0.00     0.164 A 
ENDBRANCH   8   9
ENDBRANCH   2   8
BRANCH   1  18
HETATM   18  C   UNL     1      -4.318   0.006 -32.129  1.00  0.00     0.041 A 
HETATM   19  N   UNL     1      -3.633  -1.025 -31.518  1.00  0.00    -0.357 N 
HETATM   20  C   UNL     1      -3.692  -2.164 -32.287  1.00  0.00     0.042 A 
HETATM   21  H   UNL     1      -3.130  -0.974 -30.640  1.00  0.00     0.166 HD
HETATM   22  C   UNL     1      -4.404  -1.850 -33.441  1.00  0.00    -0.008 A 
HETATM   23  C   UNL     1      -3.150  -3.434 -32.060  1.00  0.00     0.030 A 
HETATM   24  C   UNL     1      -4.588  -2.842 -34.422  1.00  0.00     0.014 A 
HETATM   25  C   UNL     1      -4.781  -0.484 -33.339  1.00  0.00     0.040 A 
HETATM   26  C   UNL     1      -4.053  -4.118 -34.211  1.00  0.00     0.001 A 
HETATM   27  C   UNL     1      -3.345  -4.406 -33.046  1.00  0.00     0.002 A 
ENDBRANCH   1  18
TORSDOF 3
ENDMDL
MODEL 5
REMARK VINA RESULT:      -8.4      3.402      5.623
REMARK  3 active torsions:
REMARK  status: ('A' for Active; 'I' for Inactive)
REMARK    1  A    between atoms: C_7  and  C_8 
REMARK    2  A    between atoms: N_9  and  C_11 
REMARK    3  A    between atoms: C_11  and  C_12 
ROOT
HETATM    1  C   UNL     1      -7.460   1.213 -31.953  1.00  0.00     0.238 C 
HETATM    2  N   UNL     1      -7.542   2.453 -32.825  1.00  0.00    -0.056 N 
HETATM    3  H   UNL     1      -6.569   2.681 -33.054  1.00  0.00     0.281 HD
HETATM    4  C   UNL     1      -8.098   3.655 -32.092  1.00  0.00     0.236 C 
HETATM    5  C   UNL     1      -7.257   3.960 -30.865  1.00  0.00     0.028 C 
HETATM    6  C   UNL     1      -7.233   2.762 -29.930  1.00  0.00     0.004 C 
HETATM    7  C   UNL     1      -6.694   1.540 -30.655  1.00  0.00     0.040 C 
ENDROOT
BRANCH   2   8
HETATM    8  C   UNL     1      -8.221   2.247 -34.175  1.00  0.00     0.295 C 
BRANCH   8   9
HETATM    9  C   UNL     1      -9.694   2.140 -34.131  1.00  0.00     0.077 A 
HETATM   10  N   UNL     1     -10.590   3.120 -34.523  1.00  0.00    -0.155 N 
HETATM   11  C   UNL     1     -11.872   2.579 -34.396  1.00  0.00     0.732 A 
HETATM   12  C   UNL     1     -10.394   4.421 -34.978  1.00  0.00     0.117 A 
HETATM   13  N   UNL     1     -12.975   3.279 -34.780  1.00  0.00    -0.074 NA
HETATM   14  N   UNL     1     -11.810   1.379 -33.863  1.00  0.00    -0.072 NA
HETATM   15  C   UNL     1     -12.774   4.487 -35.205  1.00  0.00     0.138 A 
HETATM   16  C   UNL     1     -11.454   5.164 -35.330  1.00  0.00     0.038 A 
HETATM   17  C   UNL     1     -10.493   1.126 -33.640  1.00  0.00     0.164 A 
ENDBRANCH   8   9
ENDBRANCH   2   8
BRANCH   1  18
HETATM   18  C   UNL     1      -6.753   0.087 -32.641  1.00  0.00     0.041 A 
HETATM   19  N   UNL     1      -7.442  -0.865 -33.367  1.00  0.00    -0.357 N 
HETATM   20  C   UNL     1      -6.574  -1.807 -33.868  1.00  0.00     0.042 A 
HETATM   21  H   UNL     1      -8.444  -0.903 -33.508  1.00  0.00     0.166 HD
HETATM   22  C   UNL     1      -5.297  -1.474 -33.426  1.00  0.00    -0.008 A 
HETATM   23  C   UNL     1      -6.826  -2.936 -34.656  1.00  0.00     0.030 A 
HETATM   24  C   UNL     1      -4.214  -2.301 -33.779  1.00  0.00     0.014 A 
HETATM   25  C   UNL     1      -5.421  -0.293 -32.647  1.00  0.00     0.040 A 
HETATM   26  C   UNL     1      -4.448  -3.434 -34.565  1.00  0.00     0.001 A 
HETATM   27  C   UNL     1      -5.736  -3.744 -34.996  1.00  0.00     0.002 A 
ENDBRANCH   1  18
TORSDOF 3
ENDMDL
MODEL 6
REMARK VINA RESULT:      -8.3      3.460      6.170
REMARK  3 active torsions:
REMARK  status: ('A' for Active; 'I' for Inactive)
REMARK    1  A    between atoms: C_7  and  C_8 
REMARK    2  A    between atoms: N_9  and  C_11 
REMARK    3  A    between atoms: C_11  and  C_12 
ROOT
HETATM    1  C   UNL     1      -7.869   1.429 -32.001  1.00  0.00     0.238 C 
HETATM    2  N   UNL     1      -7.792   2.671 -32.871  1.00  0.00    -0.056 N 
HETATM    3  H   UNL     1      -6.795   2.783 -33.087  1.00  0.00     0.281 HD
HETATM    4  C   UNL     1      -8.210   3.929 -32.141  1.00  0.00     0.236 C 
HETATM    5  C   UNL     1      -7.355   4.131 -30.902  1.00  0.00     0.028 C 
HETATM    6  C   UNL     1      -7.485   2.937 -29.972  1.00  0.00     0.004 C 
HETATM    7  C   UNL     1      -7.086   1.660 -30.693  1.00  0.00     0.040 C 
ENDROOT
BRANCH   2   8
HETATM    8  C   UNL     1      -8.472   2.549 -34.230  1.00  0.00     0.295 C 
BRANCH   8   9
HETATM    9  C   UNL     1      -9.852   3.073 -34.294  1.00  0.00     0.077 A 
HETATM   10  N   UNL     1     -11.008   2.343 -34.070  1.00  0.00    -0.155 N 
HETATM   11  C   UNL     1     -12.079   3.237 -34.149  1.00  0.00     0.732 A 
HETATM   12  C   UNL     1     -11.209   0.992 -33.804  1.00  0.00     0.117 A 
HETATM   13  N   UNL     1     -13.355   2.833 -33.897  1.00  0.00    -0.074 NA
HETATM   14  N   UNL     1     -11.653   4.430 -34.500  1.00  0.00    -0.072 NA
HETATM   15  C   UNL     1     -13.524   1.573 -33.647  1.00  0.00     0.138 A 
HETATM   16  C   UNL     1     -12.453   0.540 -33.589  1.00  0.00     0.038 A 
HETATM   17  C   UNL     1     -10.307   4.327 -34.652  1.00  0.00     0.164 A 
ENDBRANCH   8   9
ENDBRANCH   2   8
BRANCH   1  18
HETATM   18  C   UNL     1      -7.291   0.228 -32.685  1.00  0.00     0.041 A 
HETATM   19  N   UNL     1      -5.932  -0.013 -32.700  1.00  0.00    -0.357 N 
HETATM   20  C   UNL     1      -5.655  -1.154 -33.417  1.00  0.00     0.042 A 
HETATM   21  H   UNL     1      -5.216   0.561 -32.272  1.00  0.00     0.166 HD
HETATM   22  C   UNL     1      -6.863  -1.642 -33.906  1.00  0.00    -0.008 A 
HETATM   23  C   UNL     1      -4.429  -1.773 -33.688  1.00  0.00     0.030 A 
HETATM   24  C   UNL     1      -6.859  -2.800 -34.706  1.00  0.00     0.014 A 
HETATM   25  C   UNL     1      -7.882  -0.762 -33.453  1.00  0.00     0.040 A 
HETATM   26  C   UNL     1      -5.642  -3.431 -34.987  1.00  0.00     0.001 A 
HETATM   27  C   UNL     1      -4.446  -2.923 -34.484  1.00  0.00     0.002 A 
ENDBRANCH   1  18
TORSDOF 3
ENDMDL
MODEL 7
REMARK VINA RESULT:      -8.2     15.826     17.287
REMARK  3 active torsions:
REMARK  status: ('A' for Active; 'I' for Inactive)
REMARK    1  A    between atoms: C_7  and  C_8 
REMARK    2  A    between atoms: N_9  and  C_11 
REMARK    3  A    between atoms: C_11  and  C_12 
ROOT
HETATM    1  C   UNL     1      -6.146 -13.648 -36.273  1.00  0.00     0.238 C 
HETATM    2  N   UNL     1      -4.754 -13.822 -36.854  1.00  0.00    -0.056 N 
HETATM    3  H   UNL     1      -4.782 -14.720 -37.348  1.00  0.00     0.281 HD
HETATM    4  C   UNL     1      -3.684 -13.955 -35.792  1.00  0.00     0.236 C 
HETATM    5  C   UNL     1      -3.993 -15.125 -34.874  1.00  0.00     0.028 C 
HETATM    6  C   UNL     1      -5.346 -14.931 -34.211  1.00  0.00     0.004 C 
HETATM    7  C   UNL     1      -6.432 -14.778 -35.263  1.00  0.00     0.040 C 
ENDROOT
BRANCH   2   8
HETATM    8  C   UNL     1      -4.371 -12.803 -37.923  1.00  0.00     0.295 C 
BRANCH   8   9
HETATM    9  C   UNL     1      -3.695 -13.362 -39.112  1.00  0.00     0.077 A 
HETATM   10  N   UNL     1      -4.289 -13.619 -40.337  1.00  0.00    -0.155 N 
HETATM   11  C   UNL     1      -3.280 -14.060 -41.198  1.00  0.00     0.732 A 
HETATM   12  C   UNL     1      -5.608 -13.500 -40.766  1.00  0.00     0.117 A 
HETATM   13  N   UNL     1      -3.537 -14.323 -42.509  1.00  0.00    -0.074 NA
HETATM   14  N   UNL     1      -2.145 -14.179 -40.547  1.00  0.00    -0.072 NA
HETATM   15  C   UNL     1      -4.769 -14.205 -42.892  1.00  0.00     0.138 A 
HETATM   16  C   UNL     1      -5.916 -13.788 -42.038  1.00  0.00     0.038 A 
HETATM   17  C   UNL     1      -2.399 -13.816 -39.262  1.00  0.00     0.164 A 
ENDBRANCH   8   9
ENDBRANCH   2   8
BRANCH   1  18
HETATM   18  C   UNL     1      -7.206 -13.690 -37.331  1.00  0.00     0.041 A 
HETATM   19  N   UNL     1      -7.665 -12.540 -37.941  1.00  0.00    -0.357 N 
HETATM   20  C   UNL     1      -8.657 -12.840 -38.846  1.00  0.00     0.042 A 
HETATM   21  H   UNL     1      -7.353 -11.595 -37.754  1.00  0.00     0.166 HD
HETATM   22  C   UNL     1      -8.866 -14.215 -38.794  1.00  0.00    -0.008 A 
HETATM   23  C   UNL     1      -9.397 -11.998 -39.685  1.00  0.00     0.030 A 
HETATM   24  C   UNL     1      -9.859 -14.787 -39.611  1.00  0.00     0.014 A 
HETATM   25  C   UNL     1      -7.961 -14.737 -37.832  1.00  0.00     0.040 A 
HETATM   26  C   UNL     1     -10.608 -13.960 -40.455  1.00  0.00     0.001 A 
HETATM   27  C   UNL     1     -10.378 -12.586 -40.489  1.00  0.00     0.002 A 
ENDBRANCH   1  18
TORSDOF 3
ENDMDL
MODEL 8
REMARK VINA RESULT:      -8.1      2.030      4.352
REMARK  3 active torsions:
REMARK  status: ('A' for Active; 'I' for Inactive)
REMARK    1  A    between atoms: C_7  and  C_8 
REMARK    2  A    between atoms: N_9  and  C_11 
REMARK    3  A    between atoms: C_11  and  C_12 
ROOT
HETATM    1  C   UNL     1      -6.049   0.569 -32.228  1.00  0.00     0.238 C 
HETATM    2  N   UNL     1      -4.955   1.517 -32.682  1.00  0.00    -0.056 N 
HETATM    3  H   UNL     1      -5.002   1.507 -33.706  1.00  0.00     0.281 HD
HETATM    4  C   UNL     1      -3.567   1.037 -32.316  1.00  0.00     0.236 C 
HETATM    5  C   UNL     1      -3.313  -0.340 -32.906  1.00  0.00     0.028 C 
HETATM    6  C   UNL     1      -4.345  -1.331 -32.395  1.00  0.00     0.004 C 
HETATM    7  C   UNL     1      -5.747  -0.855 -32.738  1.00  0.00     0.040 C 
ENDROOT
BRANCH   2   8
HETATM    8  C   UNL     1      -5.169   2.978 -32.299  1.00  0.00     0.295 C 
BRANCH   8   9
HETATM    9  C   UNL     1      -4.584   3.966 -33.229  1.00  0.00     0.077 A 
HETATM   10  N   UNL     1      -3.342   4.567 -33.099  1.00  0.00    -0.155 N 
HETATM   11  C   UNL     1      -3.152   5.364 -34.230  1.00  0.00     0.732 A 
HETATM   12  C   UNL     1      -2.375   4.480 -32.101  1.00  0.00     0.117 A 
HETATM   13  N   UNL     1      -1.982   6.031 -34.434  1.00  0.00    -0.074 NA
HETATM   14  N   UNL     1      -4.232   5.359 -34.979  1.00  0.00    -0.072 NA
HETATM   15  C   UNL     1      -1.091   5.936 -33.498  1.00  0.00     0.138 A 
HETATM   16  C   UNL     1      -1.223   5.152 -32.239  1.00  0.00     0.038 A 
HETATM   17  C   UNL     1      -5.133   4.562 -34.348  1.00  0.00     0.164 A 
ENDBRANCH   8   9
ENDBRANCH   2   8
BRANCH   1  18
HETATM   18  C   UNL     1      -7.395   0.974 -32.745  1.00  0.00     0.041 A 
HETATM   19  N   UNL     1      -8.515   0.195 -32.536  1.00  0.00    -0.357 N 
HETATM   20  C   UNL     1      -9.614   0.765 -33.137  1.00  0.00     0.042 A 
HETATM   21  H   UNL     1      -8.550  -0.685 -32.036  1.00  0.00     0.166 HD
HETATM   22  C   UNL     1      -9.185   1.922 -33.779  1.00  0.00    -0.008 A 
HETATM   23  C   UNL     1     -10.944   0.330 -33.180  1.00  0.00     0.030 A 
HETATM   24  C   UNL     1     -10.117   2.689 -34.503  1.00  0.00     0.014 A 
HETATM   25  C   UNL     1      -7.789   2.038 -33.539  1.00  0.00     0.040 A 
HETATM   26  C   UNL     1     -11.451   2.268 -34.556  1.00  0.00     0.001 A 
HETATM   27  C   UNL     1     -11.855   1.106 -33.903  1.00  0.00     0.002 A 
ENDBRANCH   1  18
TORSDOF 3
ENDMDL
MODEL 9
REMARK VINA RESULT:      -8.1      2.291      5.574
REMARK  3 active torsions:
REMARK  status: ('A' for Active; 'I' for Inactive)
REMARK    1  A    between atoms: C_7  and  C_8 
REMARK    2  A    between atoms: N_9  and  C_11 
REMARK    3  A    between atoms: C_11  and  C_12 
ROOT
HETATM    1  C   UNL     1      -4.837   1.508 -31.916  1.00  0.00     0.238 C 
HETATM    2  N   UNL     1      -5.837   2.597 -32.257  1.00  0.00    -0.056 N 
HETATM    3  H   UNL     1      -5.794   2.687 -33.279  1.00  0.00     0.281 HD
HETATM    4  C   UNL     1      -5.453   3.950 -31.697  1.00  0.00     0.236 C 
HETATM    5  C   UNL     1      -4.078   4.357 -32.197  1.00  0.00     0.028 C 
HETATM    6  C   UNL     1      -3.041   3.325 -31.789  1.00  0.00     0.004 C 
HETATM    7  C   UNL     1      -3.420   1.955 -32.329  1.00  0.00     0.040 C 
ENDROOT
BRANCH   2   8
HETATM    8  C   UNL     1      -7.293   2.252 -31.960  1.00  0.00     0.295 C 
BRANCH   8   9
HETATM    9  C   UNL     1      -8.278   2.792 -32.920  1.00  0.00     0.077 A 
HETATM   10  N   UNL     1      -9.458   2.177 -33.303  1.00  0.00    -0.155 N 
HETATM   11  C   UNL     1     -10.124   3.062 -34.156  1.00  0.00     0.732 A 
HETATM   12  C   UNL     1     -10.000   0.936 -32.980  1.00  0.00     0.117 A 
HETATM   13  N   UNL     1     -11.362   2.774 -34.645  1.00  0.00    -0.074 NA
HETATM   14  N   UNL     1      -9.380   4.121 -34.385  1.00  0.00    -0.072 NA
HETATM   15  C   UNL     1     -11.852   1.617 -34.331  1.00  0.00     0.138 A 
HETATM   16  C   UNL     1     -11.198   0.591 -33.471  1.00  0.00     0.038 A 
HETATM   17  C   UNL     1      -8.228   3.939 -33.688  1.00  0.00     0.164 A 
ENDBRANCH   8   9
ENDBRANCH   2   8
BRANCH   1  18
HETATM   18  C   UNL     1      -5.144   0.222 -32.619  1.00  0.00     0.041 A 
HETATM   19  N   UNL     1      -4.196  -0.772 -32.757  1.00  0.00    -0.357 N 
HETATM   20  C   UNL     1      -4.712  -1.832 -33.467  1.00  0.00     0.042 A 
HETATM   21  H   UNL     1      -3.243  -0.744 -32.416  1.00  0.00     0.166 HD
HETATM   22  C   UNL     1      -6.014  -1.498 -33.826  1.00  0.00    -0.008 A 
HETATM   23  C   UNL     1      -4.117  -3.043 -33.838  1.00  0.00     0.030 A 
HETATM   24  C   UNL     1      -6.767  -2.408 -34.592  1.00  0.00     0.014 A 
HETATM   25  C   UNL     1      -6.272  -0.203 -33.301  1.00  0.00     0.040 A 
HETATM   26  C   UNL     1      -6.187  -3.624 -34.970  1.00  0.00     0.001 A 
HETATM   27  C   UNL     1      -4.881  -3.934 -34.597  1.00  0.00     0.002 A 
ENDBRANCH   1  18
TORSDOF 3
ENDMDL
MODEL 10
REMARK VINA RESULT:      -8.1     15.086     16.778
REMARK  3 active torsions:
REMARK  status: ('A' for Active; 'I' for Inactive)
REMARK    1  A    between atoms: C_7  and  C_8 
REMARK    2  A    between atoms: N_9  and  C_11 
REMARK    3  A    between atoms: C_11  and  C_12 
ROOT
HETATM    1  C   UNL     1      -7.909 -14.273 -38.215  1.00  0.00     0.238 C 
HETATM    2  N   UNL     1      -6.888 -13.639 -39.142  1.00  0.00    -0.056 N 
HETATM    3  H   UNL     1      -6.673 -12.729 -38.719  1.00  0.00     0.281 HD
HETATM    4  C   UNL     1      -7.442 -13.345 -40.519  1.00  0.00     0.236 C 
HETATM    5  C   UNL     1      -8.657 -12.439 -40.417  1.00  0.00     0.028 C 
HETATM    6  C   UNL     1      -9.732 -13.091 -39.565  1.00  0.00     0.004 C 
HETATM    7  C   UNL     1      -9.187 -13.410 -38.182  1.00  0.00     0.040 C 
ENDROOT
BRANCH   2   8
HETATM    8  C   UNL     1      -5.546 -14.361 -39.212  1.00  0.00     0.295 C 
BRANCH   8   9
HETATM    9  C   UNL     1      -4.373 -13.551 -38.821  1.00  0.00     0.077 A 
HETATM   10  N   UNL     1      -3.064 -13.999 -38.753  1.00  0.00    -0.155 N 
HETATM   11  C   UNL     1      -2.270 -12.896 -38.426  1.00  0.00     0.732 A 
HETATM   12  C   UNL     1      -2.509 -15.260 -38.951  1.00  0.00     0.117 A 
HETATM   13  N   UNL     1      -0.914 -12.999 -38.359  1.00  0.00    -0.074 NA
HETATM   14  N   UNL     1      -3.022 -11.843 -38.198  1.00  0.00    -0.072 NA
HETATM   15  C   UNL     1      -0.413 -14.179 -38.550  1.00  0.00     0.138 A 
HETATM   16  C   UNL     1      -1.182 -15.418 -38.855  1.00  0.00     0.038 A 
HETATM   17  C   UNL     1      -4.308 -12.245 -38.375  1.00  0.00     0.164 A 
ENDBRANCH   8   9
ENDBRANCH   2   8
BRANCH   1  18
HETATM   18  C   UNL     1      -7.395 -14.398 -36.813  1.00  0.00     0.041 A 
HETATM   19  N   UNL     1      -7.035 -13.290 -36.072  1.00  0.00    -0.357 N 
HETATM   20  C   UNL     1      -6.565 -13.672 -34.837  1.00  0.00     0.042 A 
HETATM   21  H   UNL     1      -7.080 -12.325 -36.375  1.00  0.00     0.166 HD
HETATM   22  C   UNL     1      -6.589 -15.062 -34.794  1.00  0.00    -0.008 A 
HETATM   23  C   UNL     1      -6.099 -12.894 -33.771  1.00  0.00     0.030 A 
HETATM   24  C   UNL     1      -6.126 -15.719 -33.637  1.00  0.00     0.014 A 
HETATM   25  C   UNL     1      -7.098 -15.509 -36.042  1.00  0.00     0.040 A 
HETATM   26  C   UNL     1      -5.657 -14.956 -32.562  1.00  0.00     0.001 A 
HETATM   27  C   UNL     1      -5.645 -13.564 -32.631  1.00  0.00     0.002 A 
ENDBRANCH   1  18
TORSDOF 3
ENDMDL
