MODEL 1
REMARK VINA RESULT:      -9.2      0.000      0.000
REMARK  5 active torsions:
REMARK  status: ('A' for Active; 'I' for Inactive)
REMARK    1  A    between atoms: C_4  and  N_5 
REMARK       I    between atoms: N_5  and  C_6 
REMARK       I    between atoms: C_6  and  N_7 
REMARK    2  A    between atoms: N_7  and  C_8 
REMARK    3  A    between atoms: C_8  and  C_9 
REMARK       I    between atoms: C_9  and  N_10 
REMARK    4  A    between atoms: N_10  and  C_11 
REMARK    5  A    between atoms: C_13  and  C_14 
ROOT
HETATM    1  C   UNL     1      -7.292   1.376 -31.408  1.00  0.00     0.239 C 
HETATM    2  N   UNL     1      -7.989   0.947 -32.524  1.00  0.00    -0.326 N 
HETATM    3  O   UNL     1      -7.279   2.514 -30.945  1.00  0.00    -0.271 OA
HETATM    4  H   UNL     1      -7.736   0.015 -32.861  1.00  0.00     0.169 HD
ENDROOT
BRANCH   1   5
HETATM    5  C   UNL     1      -6.550   0.230 -30.701  1.00  0.00     0.227 C 
BRANCH   5   6
HETATM    6  N   UNL     1      -5.791  -0.662 -31.562  1.00  0.00    -0.334 N 
HETATM    7  C   UNL     1      -4.701  -0.218 -32.239  1.00  0.00     0.321 C 
HETATM    8  N   UNL     1      -4.153  -1.033 -33.179  1.00  0.00    -0.309 N 
HETATM    9  O   UNL     1      -4.235   0.908 -32.064  1.00  0.00    -0.247 OA
HETATM   10  H   UNL     1      -3.454  -0.536 -33.719  1.00  0.00     0.170 HD
HETATM   11  H   UNL     1      -6.365  -1.274 -32.123  1.00  0.00     0.164 HD
BRANCH   8  12
HETATM   12  C   UNL     1      -4.389  -2.368 -33.563  1.00  0.00     0.036 A 
HETATM   13  C   UNL     1      -5.423  -2.789 -34.404  1.00  0.00     0.036 A 
HETATM   14  C   UNL     1      -5.538  -4.137 -34.789  1.00  0.00    -0.060 A 
HETATM   15  C   UNL     1      -6.646  -4.578 -35.700  1.00  0.00     0.048 C 
HETATM   16  C   UNL     1      -4.643  -5.077 -34.268  1.00  0.00     0.007 A 
HETATM   17  C   UNL     1      -3.644  -4.678 -33.387  1.00  0.00     0.003 A 
HETATM   18  C   UNL     1      -3.521  -3.332 -33.035  1.00  0.00     0.029 A 
ENDBRANCH   8  12
ENDBRANCH   5   6
ENDBRANCH   1   5
BRANCH   2  19
HETATM   19  C   UNL     1      -8.977   1.634 -33.253  1.00  0.00     0.035 A 
HETATM   20  C   UNL     1     -10.224   1.002 -33.386  1.00  0.00     0.042 A 
HETATM   21  C   UNL     1     -11.301   1.637 -34.025  1.00  0.00    -0.021 A 
HETATM   22  C   UNL     1     -11.098   2.911 -34.568  1.00  0.00     0.012 A 
HETATM   23  C   UNL     1      -9.856   3.538 -34.458  1.00  0.00     0.003 A 
HETATM   24  C   UNL     1      -8.802   2.904 -33.796  1.00  0.00     0.029 A 
BRANCH  21  25
HETATM   25  C   UNL     1     -12.611   1.008 -34.108  1.00  0.00     0.010 A 
HETATM   26  C   UNL     1     -13.847   1.497 -34.597  1.00  0.00     0.152 A 
HETATM   27  N   UNL     1     -14.844   0.618 -34.466  1.00  0.00    -0.187 NA
HETATM   28  N   UNL     1     -14.253  -0.439 -33.888  1.00  0.00    -0.289 N 
HETATM   29  H   UNL     1     -14.822  -1.251 -33.674  1.00  0.00     0.188 HD
HETATM   30  C   UNL     1     -12.922  -0.256 -33.652  1.00  0.00     0.123 A 
ENDBRANCH  21  25
ENDBRANCH   2  19
TORSDOF 5
ENDMDL
MODEL 2
REMARK VINA RESULT:      -9.1      4.913      8.378
REMARK  5 active torsions:
REMARK  status: ('A' for Active; 'I' for Inactive)
REMARK    1  A    between atoms: C_4  and  N_5 
REMARK       I    between atoms: N_5  and  C_6 
REMARK       I    between atoms: C_6  and  N_7 
REMARK    2  A    between atoms: N_7  and  C_8 
REMARK    3  A    between atoms: C_8  and  C_9 
REMARK       I    between atoms: C_9  and  N_10 
REMARK    4  A    between atoms: N_10  and  C_11 
REMARK    5  A    between atoms: C_13  and  C_14 
ROOT
HETATM    1  C   UNL     1      -5.768   2.426 -32.253  1.00  0.00     0.239 C 
HETATM    2  N   UNL     1      -5.256   1.535 -33.179  1.00  0.00    -0.326 N 
HETATM    3  O   UNL     1      -6.005   2.198 -31.070  1.00  0.00    -0.271 OA
HETATM    4  H   UNL     1      -5.297   1.849 -34.152  1.00  0.00     0.169 HD
ENDROOT
BRANCH   1   5
HETATM    5  C   UNL     1      -5.955   3.837 -32.835  1.00  0.00     0.227 C 
BRANCH   5   6
HETATM    6  N   UNL     1      -4.754   4.651 -32.926  1.00  0.00    -0.334 N 
HETATM    7  C   UNL     1      -4.228   4.985 -34.133  1.00  0.00     0.321 C 
HETATM    8  N   UNL     1      -3.001   5.573 -34.158  1.00  0.00    -0.309 N 
HETATM    9  O   UNL     1      -4.800   4.724 -35.191  1.00  0.00    -0.247 OA
HETATM   10  H   UNL     1      -2.652   5.627 -35.108  1.00  0.00     0.170 HD
HETATM   11  H   UNL     1      -4.043   4.407 -32.254  1.00  0.00     0.164 HD
BRANCH   8  12
HETATM   12  C   UNL     1      -2.138   6.060 -33.157  1.00  0.00     0.036 A 
HETATM   13  C   UNL     1      -1.172   5.299 -32.492  1.00  0.00     0.036 A 
HETATM   14  C   UNL     1      -0.307   5.891 -31.555  1.00  0.00    -0.060 A 
HETATM   15  C   UNL     1       0.734   5.069 -30.852  1.00  0.00     0.048 C 
HETATM   16  C   UNL     1      -0.461   7.244 -31.238  1.00  0.00     0.007 A 
HETATM   17  C   UNL     1      -1.454   7.998 -31.854  1.00  0.00     0.003 A 
HETATM   18  C   UNL     1      -2.289   7.407 -32.805  1.00  0.00     0.029 A 
ENDBRANCH   8  12
ENDBRANCH   5   6
ENDBRANCH   1   5
BRANCH   2  19
HETATM   19  C   UNL     1      -4.712   0.257 -32.953  1.00  0.00     0.035 A 
HETATM   20  C   UNL     1      -5.347  -0.825 -33.584  1.00  0.00     0.042 A 
HETATM   21  C   UNL     1      -4.835  -2.130 -33.488  1.00  0.00    -0.021 A 
HETATM   22  C   UNL     1      -3.689  -2.342 -32.712  1.00  0.00     0.012 A 
HETATM   23  C   UNL     1      -3.064  -1.275 -32.065  1.00  0.00     0.003 A 
HETATM   24  C   UNL     1      -3.570   0.021 -32.192  1.00  0.00     0.029 A 
BRANCH  21  25
HETATM   25  C   UNL     1      -5.457  -3.241 -34.192  1.00  0.00     0.010 A 
HETATM   26  C   UNL     1      -4.948  -4.511 -34.555  1.00  0.00     0.152 A 
HETATM   27  N   UNL     1      -5.828  -5.250 -35.237  1.00  0.00    -0.187 NA
HETATM   28  N   UNL     1      -6.905  -4.455 -35.319  1.00  0.00    -0.289 N 
HETATM   29  H   UNL     1      -7.722  -4.800 -35.811  1.00  0.00     0.188 HD
HETATM   30  C   UNL     1      -6.734  -3.244 -34.713  1.00  0.00     0.123 A 
ENDBRANCH  21  25
ENDBRANCH   2  19
TORSDOF 5
ENDMDL
MODEL 3
REMARK VINA RESULT:      -9.0      5.341      8.529
REMARK  5 active torsions:
REMARK  status: ('A' for Active; 'I' for Inactive)
REMARK    1  A    between atoms: C_4  and  N_5 
REMARK       I    between atoms: N_5  and  C_6 
REMARK       I    between atoms: C_6  and  N_7 
REMARK    2  A    between atoms: N_7  and  C_8 
REMARK    3  A    between atoms: C_8  and  C_9 
REMARK       I    between atoms: C_9  and  N_10 
REMARK    4  A    between atoms: N_10  and  C_11 
REMARK    5  A    between atoms: C_13  and  C_14 
ROOT
HETATM    1  C   UNL     1      -4.953   2.627 -32.095  1.00  0.00     0.239 C 
HETATM    2  N   UNL     1      -5.510   1.361 -32.109  1.00  0.00    -0.326 N 
HETATM    3  O   UNL     1      -4.656   3.309 -33.073  1.00  0.00    -0.271 OA
HETATM    4  H   UNL     1      -5.518   0.880 -31.206  1.00  0.00     0.169 HD
ENDROOT
BRANCH   1   5
HETATM    5  C   UNL     1      -4.795   3.185 -30.671  1.00  0.00     0.227 C 
BRANCH   5   6
HETATM    6  N   UNL     1      -3.957   4.366 -30.540  1.00  0.00    -0.334 N 
HETATM    7  C   UNL     1      -4.508   5.602 -30.423  1.00  0.00     0.321 C 
HETATM    8  N   UNL     1      -3.685   6.682 -30.507  1.00  0.00    -0.309 N 
HETATM    9  O   UNL     1      -5.721   5.769 -30.298  1.00  0.00    -0.247 OA
HETATM   10  H   UNL     1      -4.225   7.537 -30.564  1.00  0.00     0.170 HD
HETATM   11  H   UNL     1      -3.150   4.364 -31.146  1.00  0.00     0.164 HD
BRANCH   8  12
HETATM   12  C   UNL     1      -2.286   6.833 -30.572  1.00  0.00     0.036 A 
HETATM   13  C   UNL     1      -1.463   7.154 -29.489  1.00  0.00     0.036 A 
HETATM   14  C   UNL     1      -0.066   7.215 -29.636  1.00  0.00    -0.060 A 
HETATM   15  C   UNL     1       0.810   7.551 -28.465  1.00  0.00     0.048 C 
HETATM   16  C   UNL     1       0.499   7.015 -30.899  1.00  0.00     0.007 A 
HETATM   17  C   UNL     1      -0.314   6.748 -31.995  1.00  0.00     0.003 A 
HETATM   18  C   UNL     1      -1.698   6.662 -31.832  1.00  0.00     0.029 A 
ENDBRANCH   8  12
ENDBRANCH   5   6
ENDBRANCH   1   5
BRANCH   2  19
HETATM   19  C   UNL     1      -6.042   0.653 -33.203  1.00  0.00     0.035 A 
HETATM   20  C   UNL     1      -5.608  -0.671 -33.375  1.00  0.00     0.042 A 
HETATM   21  C   UNL     1      -6.140  -1.488 -34.386  1.00  0.00    -0.021 A 
HETATM   22  C   UNL     1      -7.092  -0.942 -35.255  1.00  0.00     0.012 A 
HETATM   23  C   UNL     1      -7.513   0.380 -35.103  1.00  0.00     0.003 A 
HETATM   24  C   UNL     1      -6.995   1.171 -34.076  1.00  0.00     0.029 A 
BRANCH  21  25
HETATM   25  C   UNL     1      -5.736  -2.879 -34.526  1.00  0.00     0.010 A 
HETATM   26  C   UNL     1      -6.451  -4.012 -34.984  1.00  0.00     0.152 A 
HETATM   27  N   UNL     1      -5.736  -5.139 -34.928  1.00  0.00    -0.187 NA
HETATM   28  N   UNL     1      -4.558  -4.735 -34.428  1.00  0.00    -0.289 N 
HETATM   29  H   UNL     1      -3.834  -5.430 -34.280  1.00  0.00     0.188 HD
HETATM   30  C   UNL     1      -4.508  -3.396 -34.169  1.00  0.00     0.123 A 
ENDBRANCH  21  25
ENDBRANCH   2  19
TORSDOF 5
ENDMDL
MODEL 4
REMARK VINA RESULT:      -9.0      5.096      8.446
REMARK  5 active torsions:
REMARK  status: ('A' for Active; 'I' for Inactive)
REMARK    1  A    between atoms: C_4  and  N_5 
REMARK       I    between atoms: N_5  and  C_6 
REMARK       I    between atoms: C_6  and  N_7 
REMARK    2  A    between atoms: N_7  and  C_8 
REMARK    3  A    between atoms: C_8  and  C_9 
REMARK       I    between atoms: C_9  and  N_10 
REMARK    4  A    between atoms: N_10  and  C_11 
REMARK    5  A    between atoms: C_13  and  C_14 
ROOT
HETATM    1  C   UNL     1      -3.600   1.760 -31.675  1.00  0.00     0.239 C 
HETATM    2  N   UNL     1      -3.666   2.861 -32.510  1.00  0.00    -0.326 N 
HETATM    3  O   UNL     1      -2.635   1.409 -31.001  1.00  0.00    -0.271 OA
HETATM    4  H   UNL     1      -4.484   2.891 -33.125  1.00  0.00     0.169 HD
ENDROOT
BRANCH   1   5
HETATM    5  C   UNL     1      -4.937   1.005 -31.588  1.00  0.00     0.227 C 
BRANCH   5   6
HETATM    6  N   UNL     1      -5.161  -0.008 -32.606  1.00  0.00    -0.334 N 
HETATM    7  C   UNL     1      -5.823   0.290 -33.753  1.00  0.00     0.321 C 
HETATM    8  N   UNL     1      -6.179  -0.734 -34.574  1.00  0.00    -0.309 N 
HETATM    9  O   UNL     1      -6.153   1.441 -34.038  1.00  0.00    -0.247 OA
HETATM   10  H   UNL     1      -6.799  -0.406 -35.306  1.00  0.00     0.170 HD
HETATM   11  H   UNL     1      -5.426  -0.908 -32.235  1.00  0.00     0.164 HD
BRANCH   8  12
HETATM   12  C   UNL     1      -5.902  -2.116 -34.578  1.00  0.00     0.036 A 
HETATM   13  C   UNL     1      -4.680  -2.689 -34.215  1.00  0.00     0.036 A 
HETATM   14  C   UNL     1      -4.519  -4.085 -34.182  1.00  0.00    -0.060 A 
HETATM   15  C   UNL     1      -3.205  -4.692 -33.782  1.00  0.00     0.048 C 
HETATM   16  C   UNL     1      -5.576  -4.907 -34.583  1.00  0.00     0.007 A 
HETATM   17  C   UNL     1      -6.779  -4.346 -34.998  1.00  0.00     0.003 A 
HETATM   18  C   UNL     1      -6.939  -2.959 -34.998  1.00  0.00     0.029 A 
ENDBRANCH   8  12
ENDBRANCH   5   6
ENDBRANCH   1   5
BRANCH   2  19
HETATM   19  C   UNL     1      -2.750   3.922 -32.630  1.00  0.00     0.035 A 
HETATM   20  C   UNL     1      -2.177   4.406 -31.443  1.00  0.00     0.042 A 
HETATM   21  C   UNL     1      -1.192   5.407 -31.461  1.00  0.00    -0.021 A 
HETATM   22  C   UNL     1      -0.813   5.948 -32.695  1.00  0.00     0.012 A 
HETATM   23  C   UNL     1      -1.391   5.486 -33.879  1.00  0.00     0.003 A 
HETATM   24  C   UNL     1      -2.350   4.472 -33.846  1.00  0.00     0.029 A 
BRANCH  21  25
HETATM   25  C   UNL     1      -0.555   5.864 -30.236  1.00  0.00     0.010 A 
HETATM   26  C   UNL     1      -0.680   7.082 -29.523  1.00  0.00     0.152 A 
HETATM   27  N   UNL     1       0.110   7.140 -28.448  1.00  0.00    -0.187 NA
HETATM   28  N   UNL     1       0.750   5.961 -28.467  1.00  0.00    -0.289 N 
HETATM   29  H   UNL     1       1.427   5.769 -27.737  1.00  0.00     0.188 HD
HETATM   30  C   UNL     1       0.390   5.165 -29.515  1.00  0.00     0.123 A 
ENDBRANCH  21  25
ENDBRANCH   2  19
TORSDOF 5
ENDMDL
MODEL 5
REMARK VINA RESULT:      -8.8      4.821      8.403
REMARK  5 active torsions:
REMARK  status: ('A' for Active; 'I' for Inactive)
REMARK    1  A    between atoms: C_4  and  N_5 
REMARK       I    between atoms: N_5  and  C_6 
REMARK       I    between atoms: C_6  and  N_7 
REMARK    2  A    between atoms: N_7  and  C_8 
REMARK    3  A    between atoms: C_8  and  C_9 
REMARK       I    between atoms: C_9  and  N_10 
REMARK    4  A    between atoms: N_10  and  C_11 
REMARK    5  A    between atoms: C_13  and  C_14 
ROOT
HETATM    1  C   UNL     1      -6.504   3.180 -32.386  1.00  0.00     0.239 C 
HETATM    2  N   UNL     1      -6.657   2.597 -33.631  1.00  0.00    -0.326 N 
HETATM    3  O   UNL     1      -6.419   2.597 -31.308  1.00  0.00    -0.271 OA
HETATM    4  H   UNL     1      -6.891   3.245 -34.388  1.00  0.00     0.169 HD
ENDROOT
BRANCH   1   5
HETATM    5  C   UNL     1      -6.360   4.709 -32.466  1.00  0.00     0.227 C 
BRANCH   5   6
HETATM    6  N   UNL     1      -5.012   5.210 -32.680  1.00  0.00    -0.334 N 
HETATM    7  C   UNL     1      -4.428   5.139 -33.904  1.00  0.00     0.321 C 
HETATM    8  N   UNL     1      -3.104   5.434 -34.001  1.00  0.00    -0.309 N 
HETATM    9  O   UNL     1      -5.044   4.769 -34.903  1.00  0.00    -0.247 OA
HETATM   10  H   UNL     1      -2.752   5.195 -34.921  1.00  0.00     0.170 HD
HETATM   11  H   UNL     1      -4.369   4.982 -31.937  1.00  0.00     0.164 HD
BRANCH   8  12
HETATM   12  C   UNL     1      -2.154   5.946 -33.095  1.00  0.00     0.036 A 
HETATM   13  C   UNL     1      -1.231   5.176 -32.382  1.00  0.00     0.036 A 
HETATM   14  C   UNL     1      -0.273   5.784 -31.551  1.00  0.00    -0.060 A 
HETATM   15  C   UNL     1       0.721   4.950 -30.796  1.00  0.00     0.048 C 
HETATM   16  C   UNL     1      -0.289   7.172 -31.388  1.00  0.00     0.007 A 
HETATM   17  C   UNL     1      -1.238   7.943 -32.051  1.00  0.00     0.003 A 
HETATM   18  C   UNL     1      -2.166   7.333 -32.896  1.00  0.00     0.029 A 
ENDBRANCH   8  12
ENDBRANCH   5   6
ENDBRANCH   1   5
BRANCH   2  19
HETATM   19  C   UNL     1      -6.553   1.237 -33.977  1.00  0.00     0.035 A 
HETATM   20  C   UNL     1      -5.514   0.507 -33.377  1.00  0.00     0.042 A 
HETATM   21  C   UNL     1      -5.373  -0.874 -33.592  1.00  0.00    -0.021 A 
HETATM   22  C   UNL     1      -6.272  -1.511 -34.456  1.00  0.00     0.012 A 
HETATM   23  C   UNL     1      -7.295  -0.788 -35.072  1.00  0.00     0.003 A 
HETATM   24  C   UNL     1      -7.439   0.580 -34.827  1.00  0.00     0.029 A 
BRANCH  21  25
HETATM   25  C   UNL     1      -4.335  -1.642 -32.922  1.00  0.00     0.010 A 
HETATM   26  C   UNL     1      -3.973  -3.007 -33.032  1.00  0.00     0.152 A 
HETATM   27  N   UNL     1      -2.976  -3.350 -32.212  1.00  0.00    -0.187 NA
HETATM   28  N   UNL     1      -2.695  -2.207 -31.568  1.00  0.00    -0.289 N 
HETATM   29  H   UNL     1      -1.961  -2.216 -30.869  1.00  0.00     0.188 HD
HETATM   30  C   UNL     1      -3.480  -1.159 -31.954  1.00  0.00     0.123 A 
ENDBRANCH  21  25
ENDBRANCH   2  19
TORSDOF 5
ENDMDL
MODEL 6
REMARK VINA RESULT:      -8.6      4.462      8.142
REMARK  5 active torsions:
REMARK  status: ('A' for Active; 'I' for Inactive)
REMARK    1  A    between atoms: C_4  and  N_5 
REMARK       I    between atoms: N_5  and  C_6 
REMARK       I    between atoms: C_6  and  N_7 
REMARK    2  A    between atoms: N_7  and  C_8 
REMARK    3  A    between atoms: C_8  and  C_9 
REMARK       I    between atoms: C_9  and  N_10 
REMARK    4  A    between atoms: N_10  and  C_11 
REMARK    5  A    between atoms: C_13  and  C_14 
ROOT
HETATM    1  C   UNL     1      -7.448   2.928 -32.009  1.00  0.00     0.239 C 
HETATM    2  N   UNL     1      -6.752   2.605 -33.160  1.00  0.00    -0.326 N 
HETATM    3  O   UNL     1      -8.165   2.178 -31.351  1.00  0.00    -0.271 OA
HETATM    4  H   UNL     1      -6.357   3.401 -33.667  1.00  0.00     0.169 HD
ENDROOT
BRANCH   1   5
HETATM    5  C   UNL     1      -7.177   4.367 -31.542  1.00  0.00     0.227 C 
BRANCH   5   6
HETATM    6  N   UNL     1      -5.789   4.798 -31.583  1.00  0.00    -0.334 N 
HETATM    7  C   UNL     1      -5.015   4.765 -30.468  1.00  0.00     0.321 C 
HETATM    8  N   UNL     1      -3.795   5.364 -30.515  1.00  0.00    -0.309 N 
HETATM    9  O   UNL     1      -5.406   4.262 -29.414  1.00  0.00    -0.247 OA
HETATM   10  H   UNL     1      -3.385   5.411 -29.589  1.00  0.00     0.170 HD
HETATM   11  H   UNL     1      -5.636   5.632 -32.129  1.00  0.00     0.164 HD
BRANCH   8  12
HETATM   12  C   UNL     1      -3.039   5.946 -31.551  1.00  0.00     0.036 A 
HETATM   13  C   UNL     1      -2.582   5.271 -32.687  1.00  0.00     0.036 A 
HETATM   14  C   UNL     1      -1.894   5.955 -33.705  1.00  0.00    -0.060 A 
HETATM   15  C   UNL     1      -1.415   5.224 -34.925  1.00  0.00     0.048 C 
HETATM   16  C   UNL     1      -1.606   7.314 -33.545  1.00  0.00     0.007 A 
HETATM   17  C   UNL     1      -2.009   7.983 -32.394  1.00  0.00     0.003 A 
HETATM   18  C   UNL     1      -2.718   7.302 -31.403  1.00  0.00     0.029 A 
ENDBRANCH   8  12
ENDBRANCH   5   6
ENDBRANCH   1   5
BRANCH   2  19
HETATM   19  C   UNL     1      -6.539   1.333 -33.723  1.00  0.00     0.035 A 
HETATM   20  C   UNL     1      -5.546   0.533 -33.133  1.00  0.00     0.042 A 
HETATM   21  C   UNL     1      -5.312  -0.781 -33.568  1.00  0.00    -0.021 A 
HETATM   22  C   UNL     1      -6.067  -1.275 -34.638  1.00  0.00     0.012 A 
HETATM   23  C   UNL     1      -7.042  -0.480 -35.244  1.00  0.00     0.003 A 
HETATM   24  C   UNL     1      -7.281   0.816 -34.782  1.00  0.00     0.029 A 
BRANCH  21  25
HETATM   25  C   UNL     1      -4.326  -1.630 -32.916  1.00  0.00     0.010 A 
HETATM   26  C   UNL     1      -4.010  -2.998 -33.102  1.00  0.00     0.152 A 
HETATM   27  N   UNL     1      -3.056  -3.430 -32.273  1.00  0.00    -0.187 NA
HETATM   28  N   UNL     1      -2.757  -2.342 -31.548  1.00  0.00    -0.289 N 
HETATM   29  H   UNL     1      -2.048  -2.424 -30.827  1.00  0.00     0.188 HD
HETATM   30  C   UNL     1      -3.489  -1.242 -31.890  1.00  0.00     0.123 A 
ENDBRANCH  21  25
ENDBRANCH   2  19
TORSDOF 5
ENDMDL
MODEL 7
REMARK VINA RESULT:      -8.5      4.900      8.304
REMARK  5 active torsions:
REMARK  status: ('A' for Active; 'I' for Inactive)
REMARK    1  A    between atoms: C_4  and  N_5 
REMARK       I    between atoms: N_5  and  C_6 
REMARK       I    between atoms: C_6  and  N_7 
REMARK    2  A    between atoms: N_7  and  C_8 
REMARK    3  A    between atoms: C_8  and  C_9 
REMARK       I    between atoms: C_9  and  N_10 
REMARK    4  A    between atoms: N_10  and  C_11 
REMARK    5  A    between atoms: C_13  and  C_14 
ROOT
HETATM    1  C   UNL     1      -6.217   4.770 -33.444  1.00  0.00     0.239 C 
HETATM    2  N   UNL     1      -5.003   4.118 -33.566  1.00  0.00    -0.326 N 
HETATM    3  O   UNL     1      -6.389   5.956 -33.173  1.00  0.00    -0.271 OA
HETATM    4  H   UNL     1      -5.061   3.098 -33.617  1.00  0.00     0.169 HD
ENDROOT
BRANCH   1   5
HETATM    5  C   UNL     1      -7.410   3.857 -33.772  1.00  0.00     0.227 C 
BRANCH   5   6
HETATM    6  N   UNL     1      -7.190   2.432 -33.587  1.00  0.00    -0.334 N 
HETATM    7  C   UNL     1      -8.043   1.686 -32.839  1.00  0.00     0.321 C 
HETATM    8  N   UNL     1      -7.682   0.411 -32.534  1.00  0.00    -0.309 N 
HETATM    9  O   UNL     1      -9.094   2.145 -32.391  1.00  0.00    -0.247 OA
HETATM   10  H   UNL     1      -8.315   0.015 -31.848  1.00  0.00     0.170 HD
HETATM   11  H   UNL     1      -6.225   2.186 -33.425  1.00  0.00     0.164 HD
BRANCH   8  12
HETATM   12  C   UNL     1      -6.616  -0.419 -32.935  1.00  0.00     0.036 A 
HETATM   13  C   UNL     1      -5.392  -0.529 -32.270  1.00  0.00     0.036 A 
HETATM   14  C   UNL     1      -4.412  -1.438 -32.707  1.00  0.00    -0.060 A 
HETATM   15  C   UNL     1      -3.104  -1.557 -31.980  1.00  0.00     0.048 C 
HETATM   16  C   UNL     1      -4.643  -2.192 -33.861  1.00  0.00     0.007 A 
HETATM   17  C   UNL     1      -5.836  -2.051 -34.562  1.00  0.00     0.003 A 
HETATM   18  C   UNL     1      -6.814  -1.167 -34.103  1.00  0.00     0.029 A 
ENDBRANCH   8  12
ENDBRANCH   5   6
ENDBRANCH   1   5
BRANCH   2  19
HETATM   19  C   UNL     1      -3.712   4.678 -33.609  1.00  0.00     0.035 A 
HETATM   20  C   UNL     1      -3.080   4.913 -32.377  1.00  0.00     0.042 A 
HETATM   21  C   UNL     1      -1.762   5.393 -32.313  1.00  0.00    -0.021 A 
HETATM   22  C   UNL     1      -1.093   5.672 -33.511  1.00  0.00     0.012 A 
HETATM   23  C   UNL     1      -1.721   5.460 -34.739  1.00  0.00     0.003 A 
HETATM   24  C   UNL     1      -3.023   4.957 -34.787  1.00  0.00     0.029 A 
BRANCH  21  25
HETATM   25  C   UNL     1      -1.085   5.578 -31.038  1.00  0.00     0.010 A 
HETATM   26  C   UNL     1       0.148   5.072 -30.558  1.00  0.00     0.152 A 
HETATM   27  N   UNL     1       0.411   5.443 -29.303  1.00  0.00    -0.187 NA
HETATM   28  N   UNL     1      -0.655   6.186 -28.968  1.00  0.00    -0.289 N 
HETATM   29  H   UNL     1      -0.691   6.582 -28.034  1.00  0.00     0.188 HD
HETATM   30  C   UNL     1      -1.577   6.295 -29.967  1.00  0.00     0.123 A 
ENDBRANCH  21  25
ENDBRANCH   2  19
TORSDOF 5
ENDMDL
MODEL 8
REMARK VINA RESULT:      -8.3      6.081      8.228
REMARK  5 active torsions:
REMARK  status: ('A' for Active; 'I' for Inactive)
REMARK    1  A    between atoms: C_4  and  N_5 
REMARK       I    between atoms: N_5  and  C_6 
REMARK       I    between atoms: C_6  and  N_7 
REMARK    2  A    between atoms: N_7  and  C_8 
REMARK    3  A    between atoms: C_8  and  C_9 
REMARK       I    between atoms: C_9  and  N_10 
REMARK    4  A    between atoms: N_10  and  C_11 
REMARK    5  A    between atoms: C_13  and  C_14 
ROOT
HETATM    1  C   UNL     1      -4.310   4.988 -33.540  1.00  0.00     0.239 C 
HETATM    2  N   UNL     1      -4.392   4.098 -32.484  1.00  0.00    -0.326 N 
HETATM    3  O   UNL     1      -4.536   4.745 -34.723  1.00  0.00    -0.271 OA
HETATM    4  H   UNL     1      -3.994   4.431 -31.603  1.00  0.00     0.169 HD
ENDROOT
BRANCH   1   5
HETATM    5  C   UNL     1      -3.969   6.415 -33.080  1.00  0.00     0.227 C 
BRANCH   5   6
HETATM    6  N   UNL     1      -2.697   6.575 -32.395  1.00  0.00    -0.334 N 
HETATM    7  C   UNL     1      -1.637   7.152 -33.018  1.00  0.00     0.321 C 
HETATM    8  N   UNL     1      -0.423   7.094 -32.407  1.00  0.00    -0.309 N 
HETATM    9  O   UNL     1      -1.734   7.672 -34.130  1.00  0.00    -0.247 OA
HETATM   10  H   UNL     1       0.307   7.414 -33.033  1.00  0.00     0.170 HD
HETATM   11  H   UNL     1      -2.426   5.774 -31.845  1.00  0.00     0.164 HD
BRANCH   8  12
HETATM   12  C   UNL     1       0.005   6.651 -31.140  1.00  0.00     0.036 A 
HETATM   13  C   UNL     1       0.112   7.458 -30.003  1.00  0.00     0.036 A 
HETATM   14  C   UNL     1       0.482   6.911 -28.762  1.00  0.00    -0.060 A 
HETATM   15  C   UNL     1       0.585   7.783 -27.545  1.00  0.00     0.048 C 
HETATM   16  C   UNL     1       0.810   5.555 -28.681  1.00  0.00     0.007 A 
HETATM   17  C   UNL     1       0.759   4.754 -29.817  1.00  0.00     0.003 A 
HETATM   18  C   UNL     1       0.362   5.301 -31.039  1.00  0.00     0.029 A 
ENDBRANCH   8  12
ENDBRANCH   5   6
ENDBRANCH   1   5
BRANCH   2  19
HETATM   19  C   UNL     1      -4.932   2.798 -32.478  1.00  0.00     0.035 A 
HETATM   20  C   UNL     1      -6.330   2.689 -32.551  1.00  0.00     0.042 A 
HETATM   21  C   UNL     1      -6.963   1.438 -32.633  1.00  0.00    -0.021 A 
HETATM   22  C   UNL     1      -6.169   0.285 -32.602  1.00  0.00     0.012 A 
HETATM   23  C   UNL     1      -4.780   0.384 -32.510  1.00  0.00     0.003 A 
HETATM   24  C   UNL     1      -4.164   1.636 -32.456  1.00  0.00     0.029 A 
BRANCH  21  25
HETATM   25  C   UNL     1      -8.407   1.328 -32.770  1.00  0.00     0.010 A 
HETATM   26  C   UNL     1      -9.386   2.299 -33.094  1.00  0.00     0.152 A 
HETATM   27  N   UNL     1     -10.629   1.809 -33.085  1.00  0.00    -0.187 NA
HETATM   28  N   UNL     1     -10.454   0.522 -32.751  1.00  0.00    -0.289 N 
HETATM   29  H   UNL     1     -11.274  -0.070 -32.669  1.00  0.00     0.188 HD
HETATM   30  C   UNL     1      -9.147   0.185 -32.550  1.00  0.00     0.123 A 
ENDBRANCH  21  25
ENDBRANCH   2  19
TORSDOF 5
ENDMDL
MODEL 9
REMARK VINA RESULT:      -8.3      7.530     10.302
REMARK  5 active torsions:
REMARK  status: ('A' for Active; 'I' for Inactive)
REMARK    1  A    between atoms: C_4  and  N_5 
REMARK       I    between atoms: N_5  and  C_6 
REMARK       I    between atoms: C_6  and  N_7 
REMARK    2  A    between atoms: N_7  and  C_8 
REMARK    3  A    between atoms: C_8  and  C_9 
REMARK       I    between atoms: C_9  and  N_10 
REMARK    4  A    between atoms: N_10  and  C_11 
REMARK    5  A    between atoms: C_13  and  C_14 
ROOT
HETATM    1  C   UNL     1      -1.708   6.686 -32.472  1.00  0.00     0.239 C 
HETATM    2  N   UNL     1      -1.956   5.377 -32.844  1.00  0.00    -0.326 N 
HETATM    3  O   UNL     1      -2.519   7.609 -32.453  1.00  0.00    -0.271 OA
HETATM    4  H   UNL     1      -1.123   4.796 -32.970  1.00  0.00     0.169 HD
ENDROOT
BRANCH   1   5
HETATM    5  C   UNL     1      -0.267   6.894 -31.978  1.00  0.00     0.227 C 
BRANCH   5   6
HETATM    6  N   UNL     1      -0.069   6.803 -30.541  1.00  0.00    -0.334 N 
HETATM    7  C   UNL     1       0.000   5.596 -29.922  1.00  0.00     0.321 C 
HETATM    8  N   UNL     1      -0.016   5.570 -28.562  1.00  0.00    -0.309 N 
HETATM    9  O   UNL     1       0.022   4.538 -30.551  1.00  0.00    -0.247 OA
HETATM   10  H   UNL     1      -0.120   4.620 -28.225  1.00  0.00     0.170 HD
HETATM   11  H   UNL     1      -0.604   7.473 -30.011  1.00  0.00     0.164 HD
BRANCH   8  12
HETATM   12  C   UNL     1       0.036   6.571 -27.572  1.00  0.00     0.036 A 
HETATM   13  C   UNL     1       1.211   7.122 -27.051  1.00  0.00     0.036 A 
HETATM   14  C   UNL     1       1.163   8.169 -26.113  1.00  0.00    -0.060 A 
HETATM   15  C   UNL     1       2.429   8.761 -25.567  1.00  0.00     0.048 C 
HETATM   16  C   UNL     1      -0.077   8.617 -25.649  1.00  0.00     0.007 A 
HETATM   17  C   UNL     1      -1.251   8.039 -26.120  1.00  0.00     0.003 A 
HETATM   18  C   UNL     1      -1.193   7.020 -27.073  1.00  0.00     0.029 A 
ENDBRANCH   8  12
ENDBRANCH   5   6
ENDBRANCH   1   5
BRANCH   2  19
HETATM   19  C   UNL     1      -3.197   4.758 -33.086  1.00  0.00     0.035 A 
HETATM   20  C   UNL     1      -3.651   3.844 -32.121  1.00  0.00     0.042 A 
HETATM   21  C   UNL     1      -4.912   3.235 -32.229  1.00  0.00    -0.021 A 
HETATM   22  C   UNL     1      -5.703   3.528 -33.346  1.00  0.00     0.012 A 
HETATM   23  C   UNL     1      -5.250   4.420 -34.320  1.00  0.00     0.003 A 
HETATM   24  C   UNL     1      -4.005   5.039 -34.185  1.00  0.00     0.029 A 
BRANCH  21  25
HETATM   25  C   UNL     1      -5.408   2.335 -31.198  1.00  0.00     0.010 A 
HETATM   26  C   UNL     1      -5.304   0.929 -31.065  1.00  0.00     0.152 A 
HETATM   27  N   UNL     1      -5.932   0.460 -29.983  1.00  0.00    -0.187 NA
HETATM   28  N   UNL     1      -6.447   1.563 -29.419  1.00  0.00    -0.289 N 
HETATM   29  H   UNL     1      -6.989   1.460 -28.568  1.00  0.00     0.188 HD
HETATM   30  C   UNL     1      -6.164   2.707 -30.107  1.00  0.00     0.123 A 
ENDBRANCH  21  25
ENDBRANCH   2  19
TORSDOF 5
ENDMDL
MODEL 10
REMARK VINA RESULT:      -8.2      6.148      9.238
REMARK  5 active torsions:
REMARK  status: ('A' for Active; 'I' for Inactive)
REMARK    1  A    between atoms: C_4  and  N_5 
REMARK       I    between atoms: N_5  and  C_6 
REMARK       I    between atoms: C_6  and  N_7 
REMARK    2  A    between atoms: N_7  and  C_8 
REMARK    3  A    between atoms: C_8  and  C_9 
REMARK       I    between atoms: C_9  and  N_10 
REMARK    4  A    between atoms: N_10  and  C_11 
REMARK    5  A    between atoms: C_13  and  C_14 
ROOT
HETATM    1  C   UNL     1      -3.274   3.278 -32.327  1.00  0.00     0.239 C 
HETATM    2  N   UNL     1      -4.547   2.971 -32.774  1.00  0.00    -0.326 N 
HETATM    3  O   UNL     1      -2.668   2.731 -31.410  1.00  0.00    -0.271 OA
HETATM    4  H   UNL     1      -4.955   3.650 -33.423  1.00  0.00     0.169 HD
ENDROOT
BRANCH   1   5
HETATM    5  C   UNL     1      -2.603   4.375 -33.170  1.00  0.00     0.227 C 
BRANCH   5   6
HETATM    6  N   UNL     1      -2.256   5.596 -32.463  1.00  0.00    -0.334 N 
HETATM    7  C   UNL     1      -1.902   6.718 -33.142  1.00  0.00     0.321 C 
HETATM    8  N   UNL     1      -1.396   7.764 -32.434  1.00  0.00    -0.309 N 
HETATM    9  O   UNL     1      -1.975   6.792 -34.368  1.00  0.00    -0.247 OA
HETATM   10  H   UNL     1      -1.025   8.471 -33.059  1.00  0.00     0.170 HD
HETATM   11  H   UNL     1      -1.682   5.447 -31.647  1.00  0.00     0.164 HD
BRANCH   8  12
HETATM   12  C   UNL     1      -1.252   8.025 -31.057  1.00  0.00     0.036 A 
HETATM   13  C   UNL     1      -0.274   7.462 -30.233  1.00  0.00     0.036 A 
HETATM   14  C   UNL     1      -0.164   7.837 -28.882  1.00  0.00    -0.060 A 
HETATM   15  C   UNL     1       0.895   7.234 -28.007  1.00  0.00     0.048 C 
HETATM   16  C   UNL     1      -1.089   8.736 -28.343  1.00  0.00     0.007 A 
HETATM   17  C   UNL     1      -2.100   9.261 -29.141  1.00  0.00     0.003 A 
HETATM   18  C   UNL     1      -2.182   8.904 -30.489  1.00  0.00     0.029 A 
ENDBRANCH   8  12
ENDBRANCH   5   6
ENDBRANCH   1   5
BRANCH   2  19
HETATM   19  C   UNL     1      -5.348   1.865 -32.436  1.00  0.00     0.035 A 
HETATM   20  C   UNL     1      -5.249   0.732 -33.260  1.00  0.00     0.042 A 
HETATM   21  C   UNL     1      -5.944  -0.451 -32.962  1.00  0.00    -0.021 A 
HETATM   22  C   UNL     1      -6.779  -0.471 -31.838  1.00  0.00     0.012 A 
HETATM   23  C   UNL     1      -6.898   0.658 -31.025  1.00  0.00     0.003 A 
HETATM   24  C   UNL     1      -6.179   1.818 -31.319  1.00  0.00     0.029 A 
BRANCH  21  25
HETATM   25  C   UNL     1      -5.793  -1.645 -33.781  1.00  0.00     0.010 A 
HETATM   26  C   UNL     1      -6.758  -2.460 -34.420  1.00  0.00     0.152 A 
HETATM   27  N   UNL     1      -6.220  -3.503 -35.058  1.00  0.00    -0.187 NA
HETATM   28  N   UNL     1      -4.906  -3.364 -34.827  1.00  0.00    -0.289 N 
HETATM   29  H   UNL     1      -4.274  -4.058 -35.212  1.00  0.00     0.188 HD
HETATM   30  C   UNL     1      -4.599  -2.272 -34.068  1.00  0.00     0.123 A 
ENDBRANCH  21  25
ENDBRANCH   2  19
TORSDOF 5
ENDMDL
