MODEL 1
REMARK VINA RESULT:      -8.1      0.000      0.000
REMARK  5 active torsions:
REMARK  status: ('A' for Active; 'I' for Inactive)
REMARK    1  A    between atoms: C_3  and  N_4 
REMARK       I    between atoms: N_4  and  C_5 
REMARK       I    between atoms: C_5  and  N_6 
REMARK    2  A    between atoms: N_6  and  C_7 
REMARK    3  A    between atoms: C_7  and  C_8 
REMARK    4  A    between atoms: C_8  and  O_9 
REMARK    5  A    between atoms: O_9  and  C_10 
ROOT
HETATM    1  N   UNL     1      -4.094  -1.386 -33.747  1.00  0.00    -0.307 N 
HETATM    2  C   UNL     1      -4.252  -0.698 -32.565  1.00  0.00     0.320 C 
HETATM    3  N   UNL     1      -3.345   0.338 -32.483  1.00  0.00    -0.340 N 
HETATM    4  O   UNL     1      -5.099  -0.901 -31.706  1.00  0.00    -0.247 OA
HETATM    5  H   UNL     1      -3.746  -0.793 -34.487  1.00  0.00     0.170 HD
HETATM    6  H   UNL     1      -2.476   0.231 -32.988  1.00  0.00     0.164 HD
ENDROOT
BRANCH   3   7
HETATM    7  C   UNL     1      -3.317   1.232 -31.336  1.00  0.00     0.156 C 
BRANCH   7   8
HETATM    8  C   UNL     1      -3.583   2.707 -31.695  1.00  0.00     0.142 C 
HETATM    9  C   UNL     1      -4.682   3.326 -30.835  1.00  0.00     0.042 C 
BRANCH   8  10
HETATM   10  O   UNL     1      -2.395   3.488 -31.484  1.00  0.00    -0.345 OA
BRANCH  10  11
HETATM   11  C   UNL     1      -2.216   4.639 -32.200  1.00  0.00     0.070 A 
HETATM   12  C   UNL     1      -2.140   5.934 -31.685  1.00  0.00     0.060 A 
HETATM   13  C   UNL     1      -1.968   7.016 -32.551  1.00  0.00     0.036 A 
HETATM   14 CL   UNL     1      -1.880   8.612 -31.908  1.00  0.00    -0.084 Cl
HETATM   15  C   UNL     1      -1.871   6.824 -33.927  1.00  0.00     0.024 A 
HETATM   16  C   UNL     1      -1.950   5.534 -34.445  1.00  0.00     0.004 A 
HETATM   17  C   UNL     1      -2.123   4.450 -33.582  1.00  0.00     0.037 A 
ENDBRANCH  10  11
ENDBRANCH   8  10
ENDBRANCH   7   8
ENDBRANCH   3   7
BRANCH   1  18
HETATM   18  C   UNL     1      -4.841  -2.515 -34.161  1.00  0.00     0.059 A 
HETATM   19  C   UNL     1      -6.157  -2.505 -34.648  1.00  0.00    -0.032 A 
HETATM   20  C   UNL     1      -7.032  -1.287 -34.727  1.00  0.00     0.050 C 
HETATM   21  C   UNL     1      -6.718  -3.724 -35.069  1.00  0.00     0.028 A 
HETATM   22  C   UNL     1      -5.992  -4.897 -34.934  1.00  0.00     0.117 A 
HETATM   23  N   UNL     1      -4.757  -4.949 -34.406  1.00  0.00    -0.271 NA
HETATM   24  C   UNL     1      -4.219  -3.763 -34.036  1.00  0.00     0.146 A 
ENDBRANCH   1  18
TORSDOF 5
ENDMDL
MODEL 2
REMARK VINA RESULT:      -7.8      3.623      8.874
REMARK  5 active torsions:
REMARK  status: ('A' for Active; 'I' for Inactive)
REMARK    1  A    between atoms: C_3  and  N_4 
REMARK       I    between atoms: N_4  and  C_5 
REMARK       I    between atoms: C_5  and  N_6 
REMARK    2  A    between atoms: N_6  and  C_7 
REMARK    3  A    between atoms: C_7  and  C_8 
REMARK    4  A    between atoms: C_8  and  O_9 
REMARK    5  A    between atoms: O_9  and  C_10 
ROOT
HETATM    1  N   UNL     1      -3.749   4.253 -32.813  1.00  0.00    -0.307 N 
HETATM    2  C   UNL     1      -3.493   3.123 -32.070  1.00  0.00     0.320 C 
HETATM    3  N   UNL     1      -4.420   2.141 -32.349  1.00  0.00    -0.340 N 
HETATM    4  O   UNL     1      -2.556   2.946 -31.305  1.00  0.00    -0.247 OA
HETATM    5  H   UNL     1      -4.191   4.035 -33.695  1.00  0.00     0.170 HD
HETATM    6  H   UNL     1      -5.333   2.443 -32.661  1.00  0.00     0.164 HD
ENDROOT
BRANCH   3   7
HETATM    7  C   UNL     1      -4.359   0.836 -31.707  1.00  0.00     0.156 C 
BRANCH   7   8
HETATM    8  C   UNL     1      -5.538  -0.087 -32.070  1.00  0.00     0.142 C 
HETATM    9  C   UNL     1      -6.893   0.562 -31.790  1.00  0.00     0.042 C 
BRANCH   8  10
HETATM   10  O   UNL     1      -5.505  -0.401 -33.472  1.00  0.00    -0.345 OA
BRANCH  10  11
HETATM   11  C   UNL     1      -5.470  -1.710 -33.862  1.00  0.00     0.070 A 
HETATM   12  C   UNL     1      -4.396  -2.590 -33.723  1.00  0.00     0.060 A 
HETATM   13  C   UNL     1      -4.509  -3.903 -34.186  1.00  0.00     0.036 A 
HETATM   14 CL   UNL     1      -3.176  -4.982 -34.015  1.00  0.00    -0.084 Cl
HETATM   15  C   UNL     1      -5.681  -4.351 -34.789  1.00  0.00     0.024 A 
HETATM   16  C   UNL     1      -6.754  -3.476 -34.933  1.00  0.00     0.004 A 
HETATM   17  C   UNL     1      -6.644  -2.162 -34.472  1.00  0.00     0.037 A 
ENDBRANCH  10  11
ENDBRANCH   8  10
ENDBRANCH   7   8
ENDBRANCH   3   7
BRANCH   1  18
HETATM   18  C   UNL     1      -3.013   5.462 -32.775  1.00  0.00     0.059 A 
HETATM   19  C   UNL     1      -2.060   5.881 -33.715  1.00  0.00    -0.032 A 
HETATM   20  C   UNL     1      -1.594   5.064 -34.886  1.00  0.00     0.050 C 
HETATM   21  C   UNL     1      -1.469   7.146 -33.542  1.00  0.00     0.028 A 
HETATM   22  C   UNL     1      -1.790   7.908 -32.430  1.00  0.00     0.117 A 
HETATM   23  N   UNL     1      -2.645   7.503 -31.475  1.00  0.00    -0.271 NA
HETATM   24  C   UNL     1      -3.229   6.297 -31.673  1.00  0.00     0.146 A 
ENDBRANCH   1  18
TORSDOF 5
ENDMDL
MODEL 3
REMARK VINA RESULT:      -7.6      3.056      4.487
REMARK  5 active torsions:
REMARK  status: ('A' for Active; 'I' for Inactive)
REMARK    1  A    between atoms: C_3  and  N_4 
REMARK       I    between atoms: N_4  and  C_5 
REMARK       I    between atoms: C_5  and  N_6 
REMARK    2  A    between atoms: N_6  and  C_7 
REMARK    3  A    between atoms: C_7  and  C_8 
REMARK    4  A    between atoms: C_8  and  O_9 
REMARK    5  A    between atoms: O_9  and  C_10 
ROOT
HETATM    1  N   UNL     1      -4.139  -1.262 -33.733  1.00  0.00    -0.307 N 
HETATM    2  C   UNL     1      -4.267  -0.618 -32.523  1.00  0.00     0.320 C 
HETATM    3  N   UNL     1      -3.432   0.478 -32.468  1.00  0.00    -0.340 N 
HETATM    4  O   UNL     1      -5.040  -0.904 -31.619  1.00  0.00    -0.247 OA
HETATM    5  H   UNL     1      -3.883  -0.626 -34.475  1.00  0.00     0.170 HD
HETATM    6  H   UNL     1      -2.593   0.447 -33.030  1.00  0.00     0.164 HD
ENDROOT
BRANCH   3   7
HETATM    7  C   UNL     1      -3.392   1.342 -31.297  1.00  0.00     0.156 C 
BRANCH   7   8
HETATM    8  C   UNL     1      -3.942   2.758 -31.556  1.00  0.00     0.142 C 
HETATM    9  C   UNL     1      -2.888   3.693 -32.148  1.00  0.00     0.042 C 
BRANCH   8  10
HETATM   10  O   UNL     1      -5.027   2.701 -32.497  1.00  0.00    -0.345 OA
BRANCH  10  11
HETATM   11  C   UNL     1      -6.303   2.536 -32.035  1.00  0.00     0.070 A 
HETATM   12  C   UNL     1      -7.265   1.662 -32.545  1.00  0.00     0.060 A 
HETATM   13  C   UNL     1      -8.537   1.617 -31.969  1.00  0.00     0.036 A 
HETATM   14 CL   UNL     1      -9.720   0.540 -32.608  1.00  0.00    -0.084 Cl
HETATM   15  C   UNL     1      -8.864   2.434 -30.890  1.00  0.00     0.024 A 
HETATM   16  C   UNL     1      -7.908   3.309 -30.380  1.00  0.00     0.004 A 
HETATM   17  C   UNL     1      -6.636   3.358 -30.954  1.00  0.00     0.037 A 
ENDBRANCH  10  11
ENDBRANCH   8  10
ENDBRANCH   7   8
ENDBRANCH   3   7
BRANCH   1  18
HETATM   18  C   UNL     1      -4.830  -2.431 -34.134  1.00  0.00     0.059 A 
HETATM   19  C   UNL     1      -6.143  -2.491 -34.623  1.00  0.00    -0.032 A 
HETATM   20  C   UNL     1      -7.076  -1.317 -34.720  1.00  0.00     0.050 C 
HETATM   21  C   UNL     1      -6.644  -3.740 -35.029  1.00  0.00     0.028 A 
HETATM   22  C   UNL     1      -5.863  -4.875 -34.877  1.00  0.00     0.117 A 
HETATM   23  N   UNL     1      -4.629  -4.861 -34.345  1.00  0.00    -0.271 NA
HETATM   24  C   UNL     1      -4.150  -3.646 -33.990  1.00  0.00     0.146 A 
ENDBRANCH   1  18
TORSDOF 5
ENDMDL
MODEL 4
REMARK VINA RESULT:      -7.6      3.930      8.738
REMARK  5 active torsions:
REMARK  status: ('A' for Active; 'I' for Inactive)
REMARK    1  A    between atoms: C_3  and  N_4 
REMARK       I    between atoms: N_4  and  C_5 
REMARK       I    between atoms: C_5  and  N_6 
REMARK    2  A    between atoms: N_6  and  C_7 
REMARK    3  A    between atoms: C_7  and  C_8 
REMARK    4  A    between atoms: C_8  and  O_9 
REMARK    5  A    between atoms: O_9  and  C_10 
ROOT
HETATM    1  N   UNL     1      -2.861   3.693 -32.209  1.00  0.00    -0.307 N 
HETATM    2  C   UNL     1      -4.212   3.689 -32.473  1.00  0.00     0.320 C 
HETATM    3  N   UNL     1      -4.725   2.415 -32.353  1.00  0.00    -0.340 N 
HETATM    4  O   UNL     1      -4.912   4.660 -32.725  1.00  0.00    -0.247 OA
HETATM    5  H   UNL     1      -2.600   2.968 -31.556  1.00  0.00     0.170 HD
HETATM    6  H   UNL     1      -4.092   1.645 -32.522  1.00  0.00     0.164 HD
ENDROOT
BRANCH   3   7
HETATM    7  C   UNL     1      -6.139   2.143 -32.563  1.00  0.00     0.156 C 
BRANCH   7   8
HETATM    8  C   UNL     1      -6.525   0.669 -32.337  1.00  0.00     0.142 C 
HETATM    9  C   UNL     1      -7.780   0.521 -31.478  1.00  0.00     0.042 C 
BRANCH   8  10
HETATM   10  O   UNL     1      -6.801   0.033 -33.596  1.00  0.00    -0.345 OA
BRANCH  10  11
HETATM   11  C   UNL     1      -6.178  -1.145 -33.899  1.00  0.00     0.070 A 
HETATM   12  C   UNL     1      -6.739  -2.233 -34.570  1.00  0.00     0.060 A 
HETATM   13  C   UNL     1      -5.974  -3.380 -34.796  1.00  0.00     0.036 A 
HETATM   14 CL   UNL     1      -6.676  -4.720 -35.620  1.00  0.00    -0.084 Cl
HETATM   15  C   UNL     1      -4.654  -3.457 -34.359  1.00  0.00     0.024 A 
HETATM   16  C   UNL     1      -4.091  -2.375 -33.687  1.00  0.00     0.004 A 
HETATM   17  C   UNL     1      -4.854  -1.227 -33.458  1.00  0.00     0.037 A 
ENDBRANCH  10  11
ENDBRANCH   8  10
ENDBRANCH   7   8
ENDBRANCH   3   7
BRANCH   1  18
HETATM   18  C   UNL     1      -2.005   4.820 -32.252  1.00  0.00     0.059 A 
HETATM   19  C   UNL     1      -1.568   5.485 -33.407  1.00  0.00    -0.032 A 
HETATM   20  C   UNL     1      -1.870   5.049 -34.813  1.00  0.00     0.050 C 
HETATM   21  C   UNL     1      -0.763   6.627 -33.251  1.00  0.00     0.028 A 
HETATM   22  C   UNL     1      -0.374   7.025 -31.982  1.00  0.00     0.117 A 
HETATM   23  N   UNL     1      -0.717   6.368 -30.861  1.00  0.00    -0.271 NA
HETATM   24  C   UNL     1      -1.519   5.290 -31.026  1.00  0.00     0.146 A 
ENDBRANCH   1  18
TORSDOF 5
ENDMDL
MODEL 5
REMARK VINA RESULT:      -7.3      2.875      4.157
REMARK  5 active torsions:
REMARK  status: ('A' for Active; 'I' for Inactive)
REMARK    1  A    between atoms: C_3  and  N_4 
REMARK       I    between atoms: N_4  and  C_5 
REMARK       I    between atoms: C_5  and  N_6 
REMARK    2  A    between atoms: N_6  and  C_7 
REMARK    3  A    between atoms: C_7  and  C_8 
REMARK    4  A    between atoms: C_8  and  O_9 
REMARK    5  A    between atoms: O_9  and  C_10 
ROOT
HETATM    1  N   UNL     1      -5.937  -1.650 -34.932  1.00  0.00    -0.307 N 
HETATM    2  C   UNL     1      -6.900  -0.941 -34.249  1.00  0.00     0.320 C 
HETATM    3  N   UNL     1      -7.345   0.123 -35.006  1.00  0.00    -0.340 N 
HETATM    4  O   UNL     1      -7.370  -1.212 -33.153  1.00  0.00    -0.247 OA
HETATM    5  H   UNL     1      -6.065  -1.597 -35.932  1.00  0.00     0.170 HD
HETATM    6  H   UNL     1      -6.699   0.510 -35.680  1.00  0.00     0.164 HD
ENDROOT
BRANCH   3   7
HETATM    7  C   UNL     1      -8.381   1.020 -34.517  1.00  0.00     0.156 C 
BRANCH   7   8
HETATM    8  C   UNL     1      -7.832   2.326 -33.912  1.00  0.00     0.142 C 
HETATM    9  C   UNL     1      -8.879   3.438 -33.879  1.00  0.00     0.042 C 
BRANCH   8  10
HETATM   10  O   UNL     1      -7.414   2.103 -32.555  1.00  0.00    -0.345 OA
BRANCH  10  11
HETATM   11  C   UNL     1      -6.080   2.114 -32.256  1.00  0.00     0.070 A 
HETATM   12  C   UNL     1      -5.117   2.972 -32.788  1.00  0.00     0.060 A 
HETATM   13  C   UNL     1      -3.783   2.851 -32.391  1.00  0.00     0.036 A 
HETATM   14 CL   UNL     1      -2.599   3.910 -33.057  1.00  0.00    -0.084 Cl
HETATM   15  C   UNL     1      -3.396   1.882 -31.469  1.00  0.00     0.024 A 
HETATM   16  C   UNL     1      -4.354   1.022 -30.937  1.00  0.00     0.004 A 
HETATM   17  C   UNL     1      -5.688   1.140 -31.333  1.00  0.00     0.037 A 
ENDBRANCH  10  11
ENDBRANCH   8  10
ENDBRANCH   7   8
ENDBRANCH   3   7
BRANCH   1  18
HETATM   18  C   UNL     1      -5.249  -2.793 -34.458  1.00  0.00     0.059 A 
HETATM   19  C   UNL     1      -5.545  -4.128 -34.772  1.00  0.00    -0.032 A 
HETATM   20  C   UNL     1      -6.712  -4.573 -35.604  1.00  0.00     0.050 C 
HETATM   21  C   UNL     1      -4.710  -5.132 -34.250  1.00  0.00     0.028 A 
HETATM   22  C   UNL     1      -3.671  -4.789 -33.400  1.00  0.00     0.117 A 
HETATM   23  N   UNL     1      -3.406  -3.527 -33.023  1.00  0.00    -0.271 NA
HETATM   24  C   UNL     1      -4.199  -2.569 -33.560  1.00  0.00     0.146 A 
ENDBRANCH   1  18
TORSDOF 5
ENDMDL
MODEL 6
REMARK VINA RESULT:      -7.2      3.481      8.407
REMARK  5 active torsions:
REMARK  status: ('A' for Active; 'I' for Inactive)
REMARK    1  A    between atoms: C_3  and  N_4 
REMARK       I    between atoms: N_4  and  C_5 
REMARK       I    between atoms: C_5  and  N_6 
REMARK    2  A    between atoms: N_6  and  C_7 
REMARK    3  A    between atoms: C_7  and  C_8 
REMARK    4  A    between atoms: C_8  and  O_9 
REMARK    5  A    between atoms: O_9  and  C_10 
ROOT
HETATM    1  N   UNL     1      -3.191   3.942 -32.389  1.00  0.00    -0.307 N 
HETATM    2  C   UNL     1      -4.508   3.950 -32.789  1.00  0.00     0.320 C 
HETATM    3  N   UNL     1      -5.051   2.686 -32.690  1.00  0.00    -0.340 N 
HETATM    4  O   UNL     1      -5.163   4.924 -33.134  1.00  0.00    -0.247 OA
HETATM    5  H   UNL     1      -3.009   3.230 -31.696  1.00  0.00     0.170 HD
HETATM    6  H   UNL     1      -4.418   1.904 -32.776  1.00  0.00     0.164 HD
ENDROOT
BRANCH   3   7
HETATM    7  C   UNL     1      -6.442   2.430 -33.036  1.00  0.00     0.156 C 
BRANCH   7   8
HETATM    8  C   UNL     1      -7.046   1.217 -32.303  1.00  0.00     0.142 C 
HETATM    9  C   UNL     1      -8.374   1.549 -31.625  1.00  0.00     0.042 C 
BRANCH   8  10
HETATM   10  O   UNL     1      -7.306   0.156 -33.237  1.00  0.00    -0.345 OA
BRANCH  10  11
HETATM   11  C   UNL     1      -6.360  -0.812 -33.428  1.00  0.00     0.070 A 
HETATM   12  C   UNL     1      -5.257  -1.068 -32.613  1.00  0.00     0.060 A 
HETATM   13  C   UNL     1      -4.367  -2.091 -32.950  1.00  0.00     0.036 A 
HETATM   14 CL   UNL     1      -3.004  -2.396 -31.941  1.00  0.00    -0.084 Cl
HETATM   15  C   UNL     1      -4.563  -2.863 -34.092  1.00  0.00     0.024 A 
HETATM   16  C   UNL     1      -5.661  -2.610 -34.909  1.00  0.00     0.004 A 
HETATM   17  C   UNL     1      -6.552  -1.587 -34.576  1.00  0.00     0.037 A 
ENDBRANCH  10  11
ENDBRANCH   8  10
ENDBRANCH   7   8
ENDBRANCH   3   7
BRANCH   1  18
HETATM   18  C   UNL     1      -2.316   5.055 -32.373  1.00  0.00     0.059 A 
HETATM   19  C   UNL     1      -1.688   5.632 -33.487  1.00  0.00    -0.032 A 
HETATM   20  C   UNL     1      -1.772   5.100 -34.889  1.00  0.00     0.050 C 
HETATM   21  C   UNL     1      -0.895   6.775 -33.284  1.00  0.00     0.028 A 
HETATM   22  C   UNL     1      -0.704   7.259 -31.999  1.00  0.00     0.117 A 
HETATM   23  N   UNL     1      -1.233   6.686 -30.904  1.00  0.00    -0.271 NA
HETATM   24  C   UNL     1      -2.020   5.606 -31.121  1.00  0.00     0.146 A 
ENDBRANCH   1  18
TORSDOF 5
ENDMDL
MODEL 7
REMARK VINA RESULT:      -7.2      5.183      7.130
REMARK  5 active torsions:
REMARK  status: ('A' for Active; 'I' for Inactive)
REMARK    1  A    between atoms: C_3  and  N_4 
REMARK       I    between atoms: N_4  and  C_5 
REMARK       I    between atoms: C_5  and  N_6 
REMARK    2  A    between atoms: N_6  and  C_7 
REMARK    3  A    between atoms: C_7  and  C_8 
REMARK    4  A    between atoms: C_8  and  O_9 
REMARK    5  A    between atoms: O_9  and  C_10 
ROOT
HETATM    1  N   UNL     1      -5.525  -1.336 -34.394  1.00  0.00    -0.307 N 
HETATM    2  C   UNL     1      -6.066  -0.461 -33.479  1.00  0.00     0.320 C 
HETATM    3  N   UNL     1      -6.443   0.713 -34.097  1.00  0.00    -0.340 N 
HETATM    4  O   UNL     1      -6.262  -0.673 -32.290  1.00  0.00    -0.247 OA
HETATM    5  H   UNL     1      -5.911  -1.205 -35.318  1.00  0.00     0.170 HD
HETATM    6  H   UNL     1      -5.940   0.976 -34.933  1.00  0.00     0.164 HD
ENDROOT
BRANCH   3   7
HETATM    7  C   UNL     1      -7.063   1.797 -33.350  1.00  0.00     0.156 C 
BRANCH   7   8
HETATM    8  C   UNL     1      -8.560   1.573 -33.064  1.00  0.00     0.142 C 
HETATM    9  C   UNL     1      -8.929   1.879 -31.614  1.00  0.00     0.042 C 
BRANCH   8  10
HETATM   10  O   UNL     1      -9.355   2.440 -33.891  1.00  0.00    -0.345 OA
BRANCH  10  11
HETATM   11  C   UNL     1     -10.674   2.143 -34.096  1.00  0.00     0.070 A 
HETATM   12  C   UNL     1     -11.328   0.968 -33.724  1.00  0.00     0.060 A 
HETATM   13  C   UNL     1     -12.685   0.807 -34.016  1.00  0.00     0.036 A 
HETATM   14 CL   UNL     1     -13.485  -0.649 -33.558  1.00  0.00    -0.084 Cl
HETATM   15  C   UNL     1     -13.399   1.804 -34.676  1.00  0.00     0.024 A 
HETATM   16  C   UNL     1     -12.749   2.976 -35.051  1.00  0.00     0.004 A 
HETATM   17  C   UNL     1     -11.392   3.140 -34.762  1.00  0.00     0.037 A 
ENDBRANCH  10  11
ENDBRANCH   8  10
ENDBRANCH   7   8
ENDBRANCH   3   7
BRANCH   1  18
HETATM   18  C   UNL     1      -5.017  -2.628 -34.115  1.00  0.00     0.059 A 
HETATM   19  C   UNL     1      -5.535  -3.842 -34.592  1.00  0.00    -0.032 A 
HETATM   20  C   UNL     1      -6.782  -3.976 -35.417  1.00  0.00     0.050 C 
HETATM   21  C   UNL     1      -4.860  -5.029 -34.255  1.00  0.00     0.028 A 
HETATM   22  C   UNL     1      -3.755  -4.977 -33.419  1.00  0.00     0.117 A 
HETATM   23  N   UNL     1      -3.279  -3.838 -32.888  1.00  0.00    -0.271 NA
HETATM   24  C   UNL     1      -3.920  -2.702 -33.249  1.00  0.00     0.146 A 
ENDBRANCH   1  18
TORSDOF 5
ENDMDL
MODEL 8
REMARK VINA RESULT:      -7.1      4.432      5.825
REMARK  5 active torsions:
REMARK  status: ('A' for Active; 'I' for Inactive)
REMARK    1  A    between atoms: C_3  and  N_4 
REMARK       I    between atoms: N_4  and  C_5 
REMARK       I    between atoms: C_5  and  N_6 
REMARK    2  A    between atoms: N_6  and  C_7 
REMARK    3  A    between atoms: C_7  and  C_8 
REMARK    4  A    between atoms: C_8  and  O_9 
REMARK    5  A    between atoms: O_9  and  C_10 
ROOT
HETATM    1  N   UNL     1      -4.824  -0.362 -32.918  1.00  0.00    -0.307 N 
HETATM    2  C   UNL     1      -5.439   0.033 -31.752  1.00  0.00     0.320 C 
HETATM    3  N   UNL     1      -5.317   1.396 -31.578  1.00  0.00    -0.340 N 
HETATM    4  O   UNL     1      -6.069  -0.676 -30.979  1.00  0.00    -0.247 OA
HETATM    5  H   UNL     1      -4.834   0.366 -33.618  1.00  0.00     0.170 HD
HETATM    6  H   UNL     1      -4.515   1.844 -31.999  1.00  0.00     0.164 HD
ENDROOT
BRANCH   3   7
HETATM    7  C   UNL     1      -5.901   2.069 -30.427  1.00  0.00     0.156 C 
BRANCH   7   8
HETATM    8  C   UNL     1      -7.393   2.408 -30.602  1.00  0.00     0.142 C 
HETATM    9  C   UNL     1      -7.797   3.668 -29.839  1.00  0.00     0.042 C 
BRANCH   8  10
HETATM   10  O   UNL     1      -7.686   2.645 -31.989  1.00  0.00    -0.345 OA
BRANCH  10  11
HETATM   11  C   UNL     1      -8.810   2.093 -32.538  1.00  0.00     0.070 A 
HETATM   12  C   UNL     1      -9.758   2.749 -33.324  1.00  0.00     0.060 A 
HETATM   13  C   UNL     1     -10.867   2.048 -33.805  1.00  0.00     0.036 A 
HETATM   14 CL   UNL     1     -12.036   2.866 -34.771  1.00  0.00    -0.084 Cl
HETATM   15  C   UNL     1     -11.044   0.699 -33.508  1.00  0.00     0.024 A 
HETATM   16  C   UNL     1     -10.102   0.041 -32.721  1.00  0.00     0.004 A 
HETATM   17  C   UNL     1      -8.993   0.740 -32.239  1.00  0.00     0.037 A 
ENDBRANCH  10  11
ENDBRANCH   8  10
ENDBRANCH   7   8
ENDBRANCH   3   7
BRANCH   1  18
HETATM   18  C   UNL     1      -4.738  -1.687 -33.409  1.00  0.00     0.059 A 
HETATM   19  C   UNL     1      -5.582  -2.273 -34.365  1.00  0.00    -0.032 A 
HETATM   20  C   UNL     1      -6.787  -1.608 -34.967  1.00  0.00     0.050 C 
HETATM   21  C   UNL     1      -5.306  -3.590 -34.775  1.00  0.00     0.028 A 
HETATM   22  C   UNL     1      -4.263  -4.288 -34.188  1.00  0.00     0.117 A 
HETATM   23  N   UNL     1      -3.482  -3.780 -33.219  1.00  0.00    -0.271 NA
HETATM   24  C   UNL     1      -3.741  -2.500 -32.859  1.00  0.00     0.146 A 
ENDBRANCH   1  18
TORSDOF 5
ENDMDL
MODEL 9
REMARK VINA RESULT:      -6.9      3.763      5.668
REMARK  5 active torsions:
REMARK  status: ('A' for Active; 'I' for Inactive)
REMARK    1  A    between atoms: C_3  and  N_4 
REMARK       I    between atoms: N_4  and  C_5 
REMARK       I    between atoms: C_5  and  N_6 
REMARK    2  A    between atoms: N_6  and  C_7 
REMARK    3  A    between atoms: C_7  and  C_8 
REMARK    4  A    between atoms: C_8  and  O_9 
REMARK    5  A    between atoms: O_9  and  C_10 
ROOT
HETATM    1  N   UNL     1      -3.695   3.030 -30.800  1.00  0.00    -0.307 N 
HETATM    2  C   UNL     1      -2.874   3.619 -31.735  1.00  0.00     0.320 C 
HETATM    3  N   UNL     1      -2.015   4.513 -31.130  1.00  0.00    -0.340 N 
HETATM    4  O   UNL     1      -2.833   3.374 -32.933  1.00  0.00    -0.247 OA
HETATM    5  H   UNL     1      -3.252   2.965 -29.894  1.00  0.00     0.170 HD
HETATM    6  H   UNL     1      -2.327   4.943 -30.270  1.00  0.00     0.164 HD
ENDROOT
BRANCH   3   7
HETATM    7  C   UNL     1      -1.028   5.256 -31.900  1.00  0.00     0.156 C 
BRANCH   7   8
HETATM    8  C   UNL     1      -0.778   6.681 -31.372  1.00  0.00     0.142 C 
HETATM    9  C   UNL     1      -1.383   7.752 -32.277  1.00  0.00     0.042 C 
BRANCH   8  10
HETATM   10  O   UNL     1      -1.380   6.839 -30.076  1.00  0.00    -0.345 OA
BRANCH  10  11
HETATM   11  C   UNL     1      -0.802   7.684 -29.170  1.00  0.00     0.070 A 
HETATM   12  C   UNL     1      -1.431   8.724 -28.485  1.00  0.00     0.060 A 
HETATM   13  C   UNL     1      -0.698   9.513 -27.595  1.00  0.00     0.036 A 
HETATM   14 CL   UNL     1      -1.481  10.800 -26.758  1.00  0.00    -0.084 Cl
HETATM   15  C   UNL     1       0.657   9.278 -27.379  1.00  0.00     0.024 A 
HETATM   16  C   UNL     1       1.290   8.243 -28.062  1.00  0.00     0.004 A 
HETATM   17  C   UNL     1       0.561   7.453 -28.954  1.00  0.00     0.037 A 
ENDBRANCH  10  11
ENDBRANCH   8  10
ENDBRANCH   7   8
ENDBRANCH   3   7
BRANCH   1  18
HETATM   18  C   UNL     1      -4.707   2.076 -31.061  1.00  0.00     0.059 A 
HETATM   19  C   UNL     1      -4.528   0.690 -31.184  1.00  0.00    -0.032 A 
HETATM   20  C   UNL     1      -3.199  -0.009 -31.146  1.00  0.00     0.050 C 
HETATM   21  C   UNL     1      -5.666  -0.111 -31.387  1.00  0.00     0.028 A 
HETATM   22  C   UNL     1      -6.910   0.485 -31.524  1.00  0.00     0.117 A 
HETATM   23  N   UNL     1      -7.104   1.815 -31.482  1.00  0.00    -0.271 NA
HETATM   24  C   UNL     1      -6.004   2.568 -31.253  1.00  0.00     0.146 A 
ENDBRANCH   1  18
TORSDOF 5
ENDMDL
MODEL 10
REMARK VINA RESULT:      -6.9     15.448     17.210
REMARK  5 active torsions:
REMARK  status: ('A' for Active; 'I' for Inactive)
REMARK    1  A    between atoms: C_3  and  N_4 
REMARK       I    between atoms: N_4  and  C_5 
REMARK       I    between atoms: C_5  and  N_6 
REMARK    2  A    between atoms: N_6  and  C_7 
REMARK    3  A    between atoms: C_7  and  C_8 
REMARK    4  A    between atoms: C_8  and  O_9 
REMARK    5  A    between atoms: O_9  and  C_10 
ROOT
HETATM    1  N   UNL     1      -6.400 -13.168 -35.906  1.00  0.00    -0.307 N 
HETATM    2  C   UNL     1      -5.552 -13.252 -36.987  1.00  0.00     0.320 C 
HETATM    3  N   UNL     1      -5.993 -12.440 -38.011  1.00  0.00    -0.340 N 
HETATM    4  O   UNL     1      -4.512 -13.892 -37.056  1.00  0.00    -0.247 OA
HETATM    5  H   UNL     1      -6.851 -12.266 -35.846  1.00  0.00     0.170 HD
HETATM    6  H   UNL     1      -6.985 -12.253 -38.057  1.00  0.00     0.164 HD
ENDROOT
BRANCH   3   7
HETATM    7  C   UNL     1      -5.259 -12.333 -39.263  1.00  0.00     0.156 C 
BRANCH   7   8
HETATM    8  C   UNL     1      -6.033 -12.874 -40.481  1.00  0.00     0.142 C 
HETATM    9  C   UNL     1      -5.111 -13.507 -41.521  1.00  0.00     0.042 C 
BRANCH   8  10
HETATM   10  O   UNL     1      -6.958 -13.892 -40.064  1.00  0.00    -0.345 OA
BRANCH  10  11
HETATM   11  C   UNL     1      -8.299 -13.684 -40.230  1.00  0.00     0.070 A 
HETATM   12  C   UNL     1      -8.949 -12.450 -40.273  1.00  0.00     0.060 A 
HETATM   13  C   UNL     1     -10.336 -12.401 -40.436  1.00  0.00     0.036 A 
HETATM   14 CL   UNL     1     -11.132 -10.874 -40.483  1.00  0.00    -0.084 Cl
HETATM   15  C   UNL     1     -11.084 -13.570 -40.556  1.00  0.00     0.024 A 
HETATM   16  C   UNL     1     -10.440 -14.803 -40.510  1.00  0.00     0.004 A 
HETATM   17  C   UNL     1      -9.054 -14.855 -40.346  1.00  0.00     0.037 A 
ENDBRANCH  10  11
ENDBRANCH   8  10
ENDBRANCH   7   8
ENDBRANCH   3   7
BRANCH   1  18
HETATM   18  C   UNL     1      -6.268 -13.873 -34.685  1.00  0.00     0.059 A 
HETATM   19  C   UNL     1      -6.616 -15.214 -34.461  1.00  0.00    -0.032 A 
HETATM   20  C   UNL     1      -7.278 -16.108 -35.471  1.00  0.00     0.050 C 
HETATM   21  C   UNL     1      -6.358 -15.763 -33.193  1.00  0.00     0.028 A 
HETATM   22  C   UNL     1      -5.834 -14.962 -32.191  1.00  0.00     0.117 A 
HETATM   23  N   UNL     1      -5.557 -13.657 -32.353  1.00  0.00    -0.271 NA
HETATM   24  C   UNL     1      -5.781 -13.152 -33.589  1.00  0.00     0.146 A 
ENDBRANCH   1  18
TORSDOF 5
ENDMDL
