MODEL 1
REMARK VINA RESULT:      -8.6      0.000      0.000
REMARK  6 active torsions:
REMARK  status: ('A' for Active; 'I' for Inactive)
REMARK    1  A    between atoms: C_4  and  C_5 
REMARK    2  A    between atoms: C_5  and  C_6 
REMARK    3  A    between atoms: C_7  and  N_8 
REMARK       I    between atoms: N_8  and  C_9 
REMARK    4  A    between atoms: C_9  and  C_10 
REMARK    5  A    between atoms: C_15  and  C_16 
REMARK       I    between atoms: C_16  and  N_17 
REMARK    6  A    between atoms: N_17  and  C_18 
ROOT
HETATM    1  N   UNL     1      -4.610   0.439 -33.043  1.00  0.00    -0.321 N 
HETATM    2  C   UNL     1      -5.031   0.955 -31.837  1.00  0.00     0.277 C 
HETATM    3  O   UNL     1      -5.821   0.432 -31.063  1.00  0.00    -0.266 OA
HETATM    4  H   UNL     1      -3.757   0.885 -33.380  1.00  0.00     0.169 HD
ENDROOT
BRANCH   2   5
HETATM    5  C   UNL     1      -4.370   2.225 -31.532  1.00  0.00     0.158 A 
HETATM    6  N   UNL     1      -2.991   2.358 -31.692  1.00  0.00    -0.236 NA
HETATM    7  C   UNL     1      -2.716   3.594 -31.353  1.00  0.00     0.208 A 
HETATM    8  N   UNL     1      -3.842   4.271 -31.000  1.00  0.00    -0.344 N 
HETATM    9  H   UNL     1      -3.907   5.242 -30.720  1.00  0.00     0.167 HD
HETATM   10  C   UNL     1      -4.930   3.426 -31.112  1.00  0.00     0.136 A 
BRANCH  10  11
HETATM   11  C   UNL     1      -6.270   3.921 -30.855  1.00  0.00     0.275 C 
HETATM   12  N   UNL     1      -7.298   3.276 -31.503  1.00  0.00    -0.322 N 
HETATM   13  H   UNL     1      -7.064   2.442 -32.038  1.00  0.00     0.169 HD
HETATM   14  O   UNL     1      -6.414   4.862 -30.080  1.00  0.00    -0.266 OA
BRANCH  12  15
HETATM   15  C   UNL     1      -8.663   3.625 -31.540  1.00  0.00     0.035 A 
HETATM   16  C   UNL     1      -9.581   3.323 -30.534  1.00  0.00     0.029 A 
HETATM   17  C   UNL     1     -10.908   3.754 -30.635  1.00  0.00     0.002 A 
HETATM   18  C   UNL     1     -11.327   4.488 -31.742  1.00  0.00     0.000 A 
HETATM   19  C   UNL     1     -10.421   4.790 -32.754  1.00  0.00     0.002 A 
HETATM   20  C   UNL     1      -9.096   4.362 -32.652  1.00  0.00     0.029 A 
ENDBRANCH  12  15
ENDBRANCH  10  11
ENDBRANCH   2   5
BRANCH   1  21
HETATM   21  C   UNL     1      -5.067  -0.722 -33.697  1.00  0.00     0.049 A 
HETATM   22  C   UNL     1      -6.257  -0.862 -34.441  1.00  0.00     0.043 A 
HETATM   23  C   UNL     1      -6.615  -2.118 -34.965  1.00  0.00     0.041 A 
HETATM   24  C   UNL     1      -5.774  -3.214 -34.804  1.00  0.00     0.035 A 
HETATM   25  C   UNL     1      -4.566  -3.073 -34.131  1.00  0.00     0.026 A 
HETATM   26 CL   UNL     1      -6.210  -4.738 -35.469  1.00  0.00    -0.084 Cl
HETATM   27  C   UNL     1      -4.214  -1.834 -33.588  1.00  0.00     0.032 A 
BRANCH  22  28
HETATM   28  C   UNL     1      -7.164   0.240 -34.849  1.00  0.00     0.194 C 
HETATM   29  O   UNL     1      -6.760   1.044 -35.687  1.00  0.00    -0.287 OA
BRANCH  28  30
HETATM   30  C   UNL     1      -8.490   0.452 -34.199  1.00  0.00     0.015 A 
HETATM   31  C   UNL     1      -9.416   1.278 -34.849  1.00  0.00     0.015 A 
HETATM   32  C   UNL     1     -10.683   1.491 -34.304  1.00  0.00     0.001 A 
HETATM   33  C   UNL     1     -11.025   0.896 -33.092  1.00  0.00     0.000 A 
HETATM   34  C   UNL     1     -10.100   0.096 -32.423  1.00  0.00     0.001 A 
HETATM   35  C   UNL     1      -8.832  -0.123 -32.969  1.00  0.00     0.015 A 
ENDBRANCH  28  30
ENDBRANCH  22  28
ENDBRANCH   1  21
TORSDOF 6
ENDMDL
MODEL 2
REMARK VINA RESULT:      -8.4     15.473     16.857
REMARK  6 active torsions:
REMARK  status: ('A' for Active; 'I' for Inactive)
REMARK    1  A    between atoms: C_4  and  C_5 
REMARK    2  A    between atoms: C_5  and  C_6 
REMARK    3  A    between atoms: C_7  and  N_8 
REMARK       I    between atoms: N_8  and  C_9 
REMARK    4  A    between atoms: C_9  and  C_10 
REMARK    5  A    between atoms: C_15  and  C_16 
REMARK       I    between atoms: C_16  and  N_17 
REMARK    6  A    between atoms: N_17  and  C_18 
ROOT
HETATM    1  N   UNL     1      -3.049 -14.564 -35.392  1.00  0.00    -0.321 N 
HETATM    2  C   UNL     1      -4.099 -15.435 -35.203  1.00  0.00     0.277 C 
HETATM    3  O   UNL     1      -4.357 -16.416 -35.886  1.00  0.00    -0.266 OA
HETATM    4  H   UNL     1      -2.855 -14.002 -34.563  1.00  0.00     0.169 HD
ENDROOT
BRANCH   2   5
HETATM    5  C   UNL     1      -4.884 -15.086 -34.016  1.00  0.00     0.158 A 
HETATM    6  N   UNL     1      -4.390 -15.356 -32.740  1.00  0.00    -0.236 NA
HETATM    7  C   UNL     1      -5.307 -14.921 -31.911  1.00  0.00     0.208 A 
HETATM    8  N   UNL     1      -6.356 -14.371 -32.579  1.00  0.00    -0.344 N 
HETATM    9  H   UNL     1      -7.181 -13.945 -32.173  1.00  0.00     0.167 HD
HETATM   10  C   UNL     1      -6.117 -14.449 -33.938  1.00  0.00     0.136 A 
BRANCH  10  11
HETATM   11  C   UNL     1      -7.057 -13.872 -34.881  1.00  0.00     0.275 C 
HETATM   12  N   UNL     1      -7.030 -14.373 -36.162  1.00  0.00    -0.322 N 
HETATM   13  H   UNL     1      -6.425 -15.174 -36.337  1.00  0.00     0.169 HD
HETATM   14  O   UNL     1      -7.821 -12.993 -34.490  1.00  0.00    -0.266 OA
BRANCH  12  15
HETATM   15  C   UNL     1      -7.729 -13.913 -37.295  1.00  0.00     0.035 A 
HETATM   16  C   UNL     1      -7.597 -12.635 -37.837  1.00  0.00     0.029 A 
HETATM   17  C   UNL     1      -8.296 -12.283 -38.996  1.00  0.00     0.002 A 
HETATM   18  C   UNL     1      -9.133 -13.204 -39.621  1.00  0.00     0.000 A 
HETATM   19  C   UNL     1      -9.278 -14.480 -39.085  1.00  0.00     0.002 A 
HETATM   20  C   UNL     1      -8.578 -14.832 -37.929  1.00  0.00     0.029 A 
ENDBRANCH  12  15
ENDBRANCH  10  11
ENDBRANCH   2   5
BRANCH   1  21
HETATM   21  C   UNL     1      -2.123 -14.538 -36.454  1.00  0.00     0.049 A 
HETATM   22  C   UNL     1      -2.327 -14.001 -37.741  1.00  0.00     0.043 A 
HETATM   23  C   UNL     1      -1.327 -14.129 -38.723  1.00  0.00     0.041 A 
HETATM   24  C   UNL     1      -0.113 -14.734 -38.417  1.00  0.00     0.035 A 
HETATM   25  C   UNL     1       0.125 -15.208 -37.133  1.00  0.00     0.026 A 
HETATM   26 CL   UNL     1       1.110 -14.865 -39.618  1.00  0.00    -0.084 Cl
HETATM   27  C   UNL     1      -0.871 -15.105 -36.158  1.00  0.00     0.032 A 
BRANCH  22  28
HETATM   28  C   UNL     1      -3.486 -13.177 -38.168  1.00  0.00     0.194 C 
HETATM   29  O   UNL     1      -3.749 -12.166 -37.519  1.00  0.00    -0.287 OA
BRANCH  28  30
HETATM   30  C   UNL     1      -4.386 -13.597 -39.281  1.00  0.00     0.015 A 
HETATM   31  C   UNL     1      -4.865 -14.914 -39.277  1.00  0.00     0.015 A 
HETATM   32  C   UNL     1      -5.734 -15.356 -40.276  1.00  0.00     0.001 A 
HETATM   33  C   UNL     1      -6.112 -14.491 -41.298  1.00  0.00     0.000 A 
HETATM   34  C   UNL     1      -5.617 -13.187 -41.328  1.00  0.00     0.001 A 
HETATM   35  C   UNL     1      -4.751 -12.740 -40.326  1.00  0.00     0.015 A 
ENDBRANCH  28  30
ENDBRANCH  22  28
ENDBRANCH   1  21
TORSDOF 6
ENDMDL
MODEL 3
REMARK VINA RESULT:      -8.3      3.002      6.276
REMARK  6 active torsions:
REMARK  status: ('A' for Active; 'I' for Inactive)
REMARK    1  A    between atoms: C_4  and  C_5 
REMARK    2  A    between atoms: C_5  and  C_6 
REMARK    3  A    between atoms: C_7  and  N_8 
REMARK       I    between atoms: N_8  and  C_9 
REMARK    4  A    between atoms: C_9  and  C_10 
REMARK    5  A    between atoms: C_15  and  C_16 
REMARK       I    between atoms: C_16  and  N_17 
REMARK    6  A    between atoms: N_17  and  C_18 
ROOT
HETATM    1  N   UNL     1      -6.283   2.828 -33.932  1.00  0.00    -0.321 N 
HETATM    2  C   UNL     1      -5.590   3.630 -33.053  1.00  0.00     0.277 C 
HETATM    3  O   UNL     1      -5.796   3.734 -31.852  1.00  0.00    -0.266 OA
HETATM    4  H   UNL     1      -5.777   2.677 -34.804  1.00  0.00     0.169 HD
ENDROOT
BRANCH   2   5
HETATM    5  C   UNL     1      -4.497   4.341 -33.719  1.00  0.00     0.158 A 
HETATM    6  N   UNL     1      -4.655   4.818 -35.020  1.00  0.00    -0.236 NA
HETATM    7  C   UNL     1      -3.521   5.405 -35.318  1.00  0.00     0.208 A 
HETATM    8  N   UNL     1      -2.647   5.348 -34.277  1.00  0.00    -0.344 N 
HETATM    9  H   UNL     1      -1.715   5.743 -34.242  1.00  0.00     0.167 HD
HETATM   10  C   UNL     1      -3.242   4.679 -33.224  1.00  0.00     0.136 A 
BRANCH  10  11
HETATM   11  C   UNL     1      -2.543   4.536 -31.960  1.00  0.00     0.275 C 
HETATM   12  N   UNL     1      -1.946   5.667 -31.456  1.00  0.00    -0.322 N 
HETATM   13  H   UNL     1      -2.113   6.543 -31.949  1.00  0.00     0.169 HD
HETATM   14  O   UNL     1      -2.533   3.437 -31.413  1.00  0.00    -0.266 OA
BRANCH  12  15
HETATM   15  C   UNL     1      -1.103   5.784 -30.333  1.00  0.00     0.035 A 
HETATM   16  C   UNL     1       0.065   5.045 -30.144  1.00  0.00     0.029 A 
HETATM   17  C   UNL     1       0.866   5.264 -29.019  1.00  0.00     0.002 A 
HETATM   18  C   UNL     1       0.506   6.221 -28.073  1.00  0.00     0.000 A 
HETATM   19  C   UNL     1      -0.660   6.960 -28.248  1.00  0.00     0.002 A 
HETATM   20  C   UNL     1      -1.459   6.742 -29.373  1.00  0.00     0.029 A 
ENDBRANCH  12  15
ENDBRANCH  10  11
ENDBRANCH   2   5
BRANCH   1  21
HETATM   21  C   UNL     1      -7.431   2.050 -33.677  1.00  0.00     0.049 A 
HETATM   22  C   UNL     1      -7.469   0.685 -33.329  1.00  0.00     0.043 A 
HETATM   23  C   UNL     1      -8.705   0.028 -33.190  1.00  0.00     0.041 A 
HETATM   24  C   UNL     1      -9.896   0.731 -33.337  1.00  0.00     0.035 A 
HETATM   25  C   UNL     1      -9.872   2.093 -33.614  1.00  0.00     0.026 A 
HETATM   26 CL   UNL     1     -11.401  -0.076 -33.142  1.00  0.00    -0.084 Cl
HETATM   27  C   UNL     1      -8.648   2.747 -33.776  1.00  0.00     0.032 A 
BRANCH  22  28
HETATM   28  C   UNL     1      -6.299  -0.155 -32.966  1.00  0.00     0.194 C 
HETATM   29  O   UNL     1      -5.496   0.291 -32.148  1.00  0.00    -0.287 OA
BRANCH  28  30
HETATM   30  C   UNL     1      -6.023  -1.457 -33.639  1.00  0.00     0.015 A 
HETATM   31  C   UNL     1      -4.697  -1.909 -33.679  1.00  0.00     0.015 A 
HETATM   32  C   UNL     1      -4.381  -3.133 -34.269  1.00  0.00     0.001 A 
HETATM   33  C   UNL     1      -5.387  -3.905 -34.844  1.00  0.00     0.000 A 
HETATM   34  C   UNL     1      -6.705  -3.451 -34.836  1.00  0.00     0.001 A 
HETATM   35  C   UNL     1      -7.025  -2.228 -34.241  1.00  0.00     0.015 A 
ENDBRANCH  28  30
ENDBRANCH  22  28
ENDBRANCH   1  21
TORSDOF 6
ENDMDL
MODEL 4
REMARK VINA RESULT:      -8.2      2.323      4.510
REMARK  6 active torsions:
REMARK  status: ('A' for Active; 'I' for Inactive)
REMARK    1  A    between atoms: C_4  and  C_5 
REMARK    2  A    between atoms: C_5  and  C_6 
REMARK    3  A    between atoms: C_7  and  N_8 
REMARK       I    between atoms: N_8  and  C_9 
REMARK    4  A    between atoms: C_9  and  C_10 
REMARK    5  A    between atoms: C_15  and  C_16 
REMARK       I    between atoms: C_16  and  N_17 
REMARK    6  A    between atoms: N_17  and  C_18 
ROOT
HETATM    1  N   UNL     1      -6.375   0.812 -34.003  1.00  0.00    -0.321 N 
HETATM    2  C   UNL     1      -7.492   1.334 -33.390  1.00  0.00     0.277 C 
HETATM    3  O   UNL     1      -8.281   0.723 -32.683  1.00  0.00    -0.266 OA
HETATM    4  H   UNL     1      -5.718   1.535 -34.297  1.00  0.00     0.169 HD
ENDROOT
BRANCH   2   5
HETATM    5  C   UNL     1      -7.620   2.772 -33.635  1.00  0.00     0.158 A 
HETATM    6  N   UNL     1      -6.496   3.596 -33.596  1.00  0.00    -0.236 NA
HETATM    7  C   UNL     1      -6.936   4.802 -33.862  1.00  0.00     0.208 A 
HETATM    8  N   UNL     1      -8.277   4.799 -34.088  1.00  0.00    -0.344 N 
HETATM    9  H   UNL     1      -8.856   5.594 -34.335  1.00  0.00     0.167 HD
HETATM   10  C   UNL     1      -8.753   3.508 -33.961  1.00  0.00     0.136 A 
BRANCH  10  11
HETATM   11  C   UNL     1     -10.152   3.216 -34.217  1.00  0.00     0.275 C 
HETATM   12  N   UNL     1     -10.812   2.482 -33.258  1.00  0.00    -0.322 N 
HETATM   13  H   UNL     1     -10.308   2.277 -32.397  1.00  0.00     0.169 HD
HETATM   14  O   UNL     1     -10.665   3.640 -35.248  1.00  0.00    -0.266 OA
BRANCH  12  15
HETATM   15  C   UNL     1     -12.116   1.950 -33.309  1.00  0.00     0.035 A 
HETATM   16  C   UNL     1     -13.272   2.669 -33.006  1.00  0.00     0.029 A 
HETATM   17  C   UNL     1     -14.530   2.070 -33.133  1.00  0.00     0.002 A 
HETATM   18  C   UNL     1     -14.642   0.749 -33.561  1.00  0.00     0.000 A 
HETATM   19  C   UNL     1     -13.494   0.021 -33.860  1.00  0.00     0.002 A 
HETATM   20  C   UNL     1     -12.239   0.620 -33.735  1.00  0.00     0.029 A 
ENDBRANCH  12  15
ENDBRANCH  10  11
ENDBRANCH   2   5
BRANCH   1  21
HETATM   21  C   UNL     1      -5.960  -0.534 -34.050  1.00  0.00     0.049 A 
HETATM   22  C   UNL     1      -4.814  -1.088 -33.445  1.00  0.00     0.043 A 
HETATM   23  C   UNL     1      -4.491  -2.441 -33.656  1.00  0.00     0.041 A 
HETATM   24  C   UNL     1      -5.326  -3.254 -34.414  1.00  0.00     0.035 A 
HETATM   25  C   UNL     1      -6.494  -2.736 -34.961  1.00  0.00     0.026 A 
HETATM   26 CL   UNL     1      -4.934  -4.911 -34.648  1.00  0.00    -0.084 Cl
HETATM   27  C   UNL     1      -6.811  -1.388 -34.774  1.00  0.00     0.032 A 
BRANCH  22  28
HETATM   28  C   UNL     1      -3.925  -0.404 -32.472  1.00  0.00     0.194 C 
HETATM   29  O   UNL     1      -2.772  -0.815 -32.351  1.00  0.00    -0.287 OA
BRANCH  28  30
HETATM   30  C   UNL     1      -4.422   0.681 -31.577  1.00  0.00     0.015 A 
HETATM   31  C   UNL     1      -3.880   1.964 -31.734  1.00  0.00     0.015 A 
HETATM   32  C   UNL     1      -4.326   3.025 -30.946  1.00  0.00     0.001 A 
HETATM   33  C   UNL     1      -5.302   2.806 -29.978  1.00  0.00     0.000 A 
HETATM   34  C   UNL     1      -5.827   1.528 -29.793  1.00  0.00     0.001 A 
HETATM   35  C   UNL     1      -5.386   0.464 -30.585  1.00  0.00     0.015 A 
ENDBRANCH  28  30
ENDBRANCH  22  28
ENDBRANCH   1  21
TORSDOF 6
ENDMDL
MODEL 5
REMARK VINA RESULT:      -8.2      3.651      6.958
REMARK  6 active torsions:
REMARK  status: ('A' for Active; 'I' for Inactive)
REMARK    1  A    between atoms: C_4  and  C_5 
REMARK    2  A    between atoms: C_5  and  C_6 
REMARK    3  A    between atoms: C_7  and  N_8 
REMARK       I    between atoms: N_8  and  C_9 
REMARK    4  A    between atoms: C_9  and  C_10 
REMARK    5  A    between atoms: C_15  and  C_16 
REMARK       I    between atoms: C_16  and  N_17 
REMARK    6  A    between atoms: N_17  and  C_18 
ROOT
HETATM    1  N   UNL     1      -4.296   3.032 -32.994  1.00  0.00    -0.321 N 
HETATM    2  C   UNL     1      -3.643   3.903 -32.150  1.00  0.00     0.277 C 
HETATM    3  O   UNL     1      -3.861   4.053 -30.957  1.00  0.00    -0.266 OA
HETATM    4  H   UNL     1      -3.778   2.862 -33.856  1.00  0.00     0.169 HD
ENDROOT
BRANCH   2   5
HETATM    5  C   UNL     1      -2.576   4.627 -32.843  1.00  0.00     0.158 A 
HETATM    6  N   UNL     1      -2.649   4.844 -34.219  1.00  0.00    -0.236 NA
HETATM    7  C   UNL     1      -1.567   5.517 -34.525  1.00  0.00     0.208 A 
HETATM    8  N   UNL     1      -0.808   5.761 -33.423  1.00  0.00    -0.344 N 
HETATM    9  H   UNL     1       0.063   6.278 -33.384  1.00  0.00     0.167 HD
HETATM   10  C   UNL     1      -1.429   5.212 -32.317  1.00  0.00     0.136 A 
BRANCH  10  11
HETATM   11  C   UNL     1      -0.857   5.386 -30.995  1.00  0.00     0.275 C 
HETATM   12  N   UNL     1      -1.026   6.620 -30.410  1.00  0.00    -0.322 N 
HETATM   13  H   UNL     1      -1.618   7.291 -30.896  1.00  0.00     0.169 HD
HETATM   14  O   UNL     1      -0.275   4.439 -30.474  1.00  0.00    -0.266 OA
BRANCH  12  15
HETATM   15  C   UNL     1      -0.470   7.100 -29.207  1.00  0.00     0.035 A 
HETATM   16  C   UNL     1       0.787   7.696 -29.104  1.00  0.00     0.029 A 
HETATM   17  C   UNL     1       1.237   8.188 -27.874  1.00  0.00     0.002 A 
HETATM   18  C   UNL     1       0.435   8.087 -26.739  1.00  0.00     0.000 A 
HETATM   19  C   UNL     1      -0.818   7.488 -26.830  1.00  0.00     0.002 A 
HETATM   20  C   UNL     1      -1.267   6.999 -28.058  1.00  0.00     0.029 A 
ENDBRANCH  12  15
ENDBRANCH  10  11
ENDBRANCH   2   5
BRANCH   1  21
HETATM   21  C   UNL     1      -5.412   2.220 -32.709  1.00  0.00     0.049 A 
HETATM   22  C   UNL     1      -5.402   0.843 -32.405  1.00  0.00     0.043 A 
HETATM   23  C   UNL     1      -6.615   0.153 -32.226  1.00  0.00     0.041 A 
HETATM   24  C   UNL     1      -7.827   0.832 -32.292  1.00  0.00     0.035 A 
HETATM   25  C   UNL     1      -7.848   2.202 -32.526  1.00  0.00     0.026 A 
HETATM   26 CL   UNL     1      -9.303  -0.017 -32.051  1.00  0.00    -0.084 Cl
HETATM   27  C   UNL     1      -6.648   2.890 -32.726  1.00  0.00     0.032 A 
BRANCH  22  28
HETATM   28  C   UNL     1      -4.197   0.021 -32.127  1.00  0.00     0.194 C 
HETATM   29  O   UNL     1      -3.269   0.542 -31.510  1.00  0.00    -0.287 OA
BRANCH  28  30
HETATM   30  C   UNL     1      -4.045  -1.363 -32.662  1.00  0.00     0.015 A 
HETATM   31  C   UNL     1      -3.355  -2.298 -31.880  1.00  0.00     0.015 A 
HETATM   32  C   UNL     1      -3.206  -3.615 -32.314  1.00  0.00     0.001 A 
HETATM   33  C   UNL     1      -3.728  -4.002 -33.545  1.00  0.00     0.000 A 
HETATM   34  C   UNL     1      -4.392  -3.072 -34.345  1.00  0.00     0.001 A 
HETATM   35  C   UNL     1      -4.547  -1.753 -33.910  1.00  0.00     0.015 A 
ENDBRANCH  28  30
ENDBRANCH  22  28
ENDBRANCH   1  21
TORSDOF 6
ENDMDL
MODEL 6
REMARK VINA RESULT:      -8.1      2.478      5.077
REMARK  6 active torsions:
REMARK  status: ('A' for Active; 'I' for Inactive)
REMARK    1  A    between atoms: C_4  and  C_5 
REMARK    2  A    between atoms: C_5  and  C_6 
REMARK    3  A    between atoms: C_7  and  N_8 
REMARK       I    between atoms: N_8  and  C_9 
REMARK    4  A    between atoms: C_9  and  C_10 
REMARK    5  A    between atoms: C_15  and  C_16 
REMARK       I    between atoms: C_16  and  N_17 
REMARK    6  A    between atoms: N_17  and  C_18 
ROOT
HETATM    1  N   UNL     1      -5.151   1.896 -32.893  1.00  0.00    -0.321 N 
HETATM    2  C   UNL     1      -5.817   2.686 -31.982  1.00  0.00     0.277 C 
HETATM    3  O   UNL     1      -6.000   2.430 -30.801  1.00  0.00    -0.266 OA
HETATM    4  H   UNL     1      -4.869   2.414 -33.726  1.00  0.00     0.169 HD
ENDROOT
BRANCH   2   5
HETATM    5  C   UNL     1      -6.258   3.947 -32.583  1.00  0.00     0.158 A 
HETATM    6  N   UNL     1      -7.613   4.178 -32.820  1.00  0.00    -0.236 NA
HETATM    7  C   UNL     1      -7.676   5.379 -33.344  1.00  0.00     0.208 A 
HETATM    8  N   UNL     1      -6.441   5.940 -33.442  1.00  0.00    -0.344 N 
HETATM    9  H   UNL     1      -6.218   6.865 -33.791  1.00  0.00     0.167 HD
HETATM   10  C   UNL     1      -5.502   5.053 -32.953  1.00  0.00     0.136 A 
BRANCH  10  11
HETATM   11  C   UNL     1      -4.103   5.433 -32.883  1.00  0.00     0.275 C 
HETATM   12  N   UNL     1      -3.494   5.317 -31.655  1.00  0.00    -0.322 N 
HETATM   13  H   UNL     1      -4.033   4.884 -30.906  1.00  0.00     0.169 HD
HETATM   14  O   UNL     1      -3.544   5.820 -33.906  1.00  0.00    -0.266 OA
BRANCH  12  15
HETATM   15  C   UNL     1      -2.203   5.734 -31.276  1.00  0.00     0.035 A 
HETATM   16  C   UNL     1      -1.034   5.023 -31.549  1.00  0.00     0.029 A 
HETATM   17  C   UNL     1       0.211   5.541 -31.177  1.00  0.00     0.002 A 
HETATM   18  C   UNL     1       0.297   6.771 -30.528  1.00  0.00     0.000 A 
HETATM   19  C   UNL     1      -0.863   7.485 -30.245  1.00  0.00     0.002 A 
HETATM   20  C   UNL     1      -2.106   6.969 -30.619  1.00  0.00     0.029 A 
ENDBRANCH  12  15
ENDBRANCH  10  11
ENDBRANCH   2   5
BRANCH   1  21
HETATM   21  C   UNL     1      -4.644   0.595 -32.706  1.00  0.00     0.049 A 
HETATM   22  C   UNL     1      -5.237  -0.614 -33.124  1.00  0.00     0.043 A 
HETATM   23  C   UNL     1      -4.642  -1.844 -32.785  1.00  0.00     0.041 A 
HETATM   24  C   UNL     1      -3.440  -1.875 -32.086  1.00  0.00     0.035 A 
HETATM   25  C   UNL     1      -2.811  -0.690 -31.727  1.00  0.00     0.026 A 
HETATM   26 CL   UNL     1      -2.712  -3.383 -31.696  1.00  0.00    -0.084 Cl
HETATM   27  C   UNL     1      -3.406   0.535 -32.040  1.00  0.00     0.032 A 
BRANCH  22  28
HETATM   28  C   UNL     1      -6.413  -0.743 -34.020  1.00  0.00     0.194 C 
HETATM   29  O   UNL     1      -6.273  -1.355 -35.078  1.00  0.00    -0.287 OA
BRANCH  28  30
HETATM   30  C   UNL     1      -7.710  -0.068 -33.723  1.00  0.00     0.015 A 
HETATM   31  C   UNL     1      -8.188  -0.113 -32.407  1.00  0.00     0.015 A 
HETATM   32  C   UNL     1      -9.380   0.525 -32.062  1.00  0.00     0.001 A 
HETATM   33  C   UNL     1     -10.114   1.195 -33.037  1.00  0.00     0.000 A 
HETATM   34  C   UNL     1      -9.662   1.221 -34.355  1.00  0.00     0.001 A 
HETATM   35  C   UNL     1      -8.466   0.587 -34.703  1.00  0.00     0.015 A 
ENDBRANCH  28  30
ENDBRANCH  22  28
ENDBRANCH   1  21
TORSDOF 6
ENDMDL
MODEL 7
REMARK VINA RESULT:      -8.1      2.762      5.826
REMARK  6 active torsions:
REMARK  status: ('A' for Active; 'I' for Inactive)
REMARK    1  A    between atoms: C_4  and  C_5 
REMARK    2  A    between atoms: C_5  and  C_6 
REMARK    3  A    between atoms: C_7  and  N_8 
REMARK       I    between atoms: N_8  and  C_9 
REMARK    4  A    between atoms: C_9  and  C_10 
REMARK    5  A    between atoms: C_15  and  C_16 
REMARK       I    between atoms: C_16  and  N_17 
REMARK    6  A    between atoms: N_17  and  C_18 
ROOT
HETATM    1  N   UNL     1      -9.815   4.537 -32.635  1.00  0.00    -0.321 N 
HETATM    2  C   UNL     1      -8.849   5.138 -33.411  1.00  0.00     0.277 C 
HETATM    3  O   UNL     1      -8.684   4.979 -34.612  1.00  0.00    -0.266 OA
HETATM    4  H   UNL     1      -9.955   5.016 -31.746  1.00  0.00     0.169 HD
ENDROOT
BRANCH   2   5
HETATM    5  C   UNL     1      -8.035   6.072 -32.630  1.00  0.00     0.158 A 
HETATM    6  N   UNL     1      -8.515   7.347 -32.332  1.00  0.00    -0.236 NA
HETATM    7  C   UNL     1      -7.570   7.920 -31.626  1.00  0.00     0.208 A 
HETATM    8  N   UNL     1      -6.516   7.081 -31.438  1.00  0.00    -0.344 N 
HETATM    9  H   UNL     1      -5.672   7.272 -30.912  1.00  0.00     0.167 HD
HETATM   10  C   UNL     1      -6.781   5.877 -32.062  1.00  0.00     0.136 A 
BRANCH  10  11
HETATM   11  C   UNL     1      -5.839   4.777 -31.959  1.00  0.00     0.275 C 
HETATM   12  N   UNL     1      -6.376   3.512 -31.898  1.00  0.00    -0.322 N 
HETATM   13  H   UNL     1      -7.383   3.424 -32.024  1.00  0.00     0.169 HD
HETATM   14  O   UNL     1      -4.638   5.028 -31.946  1.00  0.00    -0.266 OA
BRANCH  12  15
HETATM   15  C   UNL     1      -5.711   2.291 -31.665  1.00  0.00     0.035 A 
HETATM   16  C   UNL     1      -5.804   1.557 -30.483  1.00  0.00     0.029 A 
HETATM   17  C   UNL     1      -5.147   0.328 -30.361  1.00  0.00     0.002 A 
HETATM   18  C   UNL     1      -4.390  -0.174 -31.417  1.00  0.00     0.000 A 
HETATM   19  C   UNL     1      -4.286   0.554 -32.599  1.00  0.00     0.002 A 
HETATM   20  C   UNL     1      -4.944   1.779 -32.722  1.00  0.00     0.029 A 
ENDBRANCH  12  15
ENDBRANCH  10  11
ENDBRANCH   2   5
BRANCH   1  21
HETATM   21  C   UNL     1     -10.736   3.539 -33.014  1.00  0.00     0.049 A 
HETATM   22  C   UNL     1     -10.512   2.148 -33.046  1.00  0.00     0.043 A 
HETATM   23  C   UNL     1     -11.512   1.285 -33.532  1.00  0.00     0.041 A 
HETATM   24  C   UNL     1     -12.745   1.790 -33.929  1.00  0.00     0.035 A 
HETATM   25  C   UNL     1     -13.002   3.153 -33.840  1.00  0.00     0.026 A 
HETATM   26 CL   UNL     1     -13.968   0.725 -34.500  1.00  0.00    -0.084 Cl
HETATM   27  C   UNL     1     -12.007   4.019 -33.380  1.00  0.00     0.032 A 
BRANCH  22  28
HETATM   28  C   UNL     1      -9.327   1.443 -32.495  1.00  0.00     0.194 C 
HETATM   29  O   UNL     1      -9.037   1.633 -31.315  1.00  0.00    -0.287 OA
BRANCH  28  30
HETATM   30  C   UNL     1      -8.435   0.610 -33.352  1.00  0.00     0.015 A 
HETATM   31  C   UNL     1      -8.032   1.135 -34.587  1.00  0.00     0.015 A 
HETATM   32  C   UNL     1      -7.175   0.415 -35.419  1.00  0.00     0.001 A 
HETATM   33  C   UNL     1      -6.731  -0.846 -35.032  1.00  0.00     0.000 A 
HETATM   34  C   UNL     1      -7.149  -1.391 -33.819  1.00  0.00     0.001 A 
HETATM   35  C   UNL     1      -8.004  -0.669 -32.980  1.00  0.00     0.015 A 
ENDBRANCH  28  30
ENDBRANCH  22  28
ENDBRANCH   1  21
TORSDOF 6
ENDMDL
MODEL 8
REMARK VINA RESULT:      -8.0      3.162      7.095
REMARK  6 active torsions:
REMARK  status: ('A' for Active; 'I' for Inactive)
REMARK    1  A    between atoms: C_4  and  C_5 
REMARK    2  A    between atoms: C_5  and  C_6 
REMARK    3  A    between atoms: C_7  and  N_8 
REMARK       I    between atoms: N_8  and  C_9 
REMARK    4  A    between atoms: C_9  and  C_10 
REMARK    5  A    between atoms: C_15  and  C_16 
REMARK       I    between atoms: C_16  and  N_17 
REMARK    6  A    between atoms: N_17  and  C_18 
ROOT
HETATM    1  N   UNL     1      -9.846   2.015 -33.376  1.00  0.00    -0.321 N 
HETATM    2  C   UNL     1      -8.693   1.516 -33.941  1.00  0.00     0.277 C 
HETATM    3  O   UNL     1      -8.622   0.822 -34.945  1.00  0.00    -0.266 OA
HETATM    4  H   UNL     1      -9.663   2.785 -32.733  1.00  0.00     0.169 HD
ENDROOT
BRANCH   2   5
HETATM    5  C   UNL     1      -7.500   1.963 -33.218  1.00  0.00     0.158 A 
HETATM    6  N   UNL     1      -7.339   3.308 -32.888  1.00  0.00    -0.236 NA
HETATM    7  C   UNL     1      -6.197   3.377 -32.248  1.00  0.00     0.208 A 
HETATM    8  N   UNL     1      -5.621   2.150 -32.132  1.00  0.00    -0.344 N 
HETATM    9  H   UNL     1      -4.750   1.927 -31.665  1.00  0.00     0.167 HD
HETATM   10  C   UNL     1      -6.435   1.211 -32.736  1.00  0.00     0.136 A 
BRANCH  10  11
HETATM   11  C   UNL     1      -6.082  -0.196 -32.698  1.00  0.00     0.275 C 
HETATM   12  N   UNL     1      -5.979  -0.838 -33.910  1.00  0.00    -0.322 N 
HETATM   13  H   UNL     1      -6.063  -0.267 -34.750  1.00  0.00     0.169 HD
HETATM   14  O   UNL     1      -5.884  -0.726 -31.608  1.00  0.00    -0.266 OA
BRANCH  12  15
HETATM   15  C   UNL     1      -5.784  -2.211 -34.158  1.00  0.00     0.035 A 
HETATM   16  C   UNL     1      -6.767  -3.070 -34.650  1.00  0.00     0.029 A 
HETATM   17  C   UNL     1      -6.467  -4.411 -34.912  1.00  0.00     0.002 A 
HETATM   18  C   UNL     1      -5.184  -4.904 -34.683  1.00  0.00     0.000 A 
HETATM   19  C   UNL     1      -4.198  -4.057 -34.187  1.00  0.00     0.002 A 
HETATM   20  C   UNL     1      -4.497  -2.718 -33.927  1.00  0.00     0.029 A 
ENDBRANCH  12  15
ENDBRANCH  10  11
ENDBRANCH   2   5
BRANCH   1  21
HETATM   21  C   UNL     1     -11.179   1.752 -33.749  1.00  0.00     0.049 A 
HETATM   22  C   UNL     1     -12.065   2.633 -34.403  1.00  0.00     0.043 A 
HETATM   23  C   UNL     1     -13.399   2.248 -34.632  1.00  0.00     0.041 A 
HETATM   24  C   UNL     1     -13.838   0.980 -34.268  1.00  0.00     0.035 A 
HETATM   25  C   UNL     1     -12.956   0.078 -33.683  1.00  0.00     0.026 A 
HETATM   26 CL   UNL     1     -15.464   0.512 -34.572  1.00  0.00    -0.084 Cl
HETATM   27  C   UNL     1     -11.636   0.461 -33.431  1.00  0.00     0.032 A 
BRANCH  22  28
HETATM   28  C   UNL     1     -11.705   3.940 -35.008  1.00  0.00     0.194 C 
HETATM   29  O   UNL     1     -10.610   4.043 -35.558  1.00  0.00    -0.287 OA
BRANCH  28  30
HETATM   30  C   UNL     1     -12.580   5.140 -34.872  1.00  0.00     0.015 A 
HETATM   31  C   UNL     1     -12.847   5.617 -33.581  1.00  0.00     0.015 A 
HETATM   32  C   UNL     1     -13.635   6.753 -33.393  1.00  0.00     0.001 A 
HETATM   33  C   UNL     1     -14.181   7.408 -34.493  1.00  0.00     0.000 A 
HETATM   34  C   UNL     1     -13.946   6.925 -35.779  1.00  0.00     0.001 A 
HETATM   35  C   UNL     1     -13.153   5.791 -35.972  1.00  0.00     0.015 A 
ENDBRANCH  28  30
ENDBRANCH  22  28
ENDBRANCH   1  21
TORSDOF 6
ENDMDL
MODEL 9
REMARK VINA RESULT:      -8.0      2.181      5.108
REMARK  6 active torsions:
REMARK  status: ('A' for Active; 'I' for Inactive)
REMARK    1  A    between atoms: C_4  and  C_5 
REMARK    2  A    between atoms: C_5  and  C_6 
REMARK    3  A    between atoms: C_7  and  N_8 
REMARK       I    between atoms: N_8  and  C_9 
REMARK    4  A    between atoms: C_9  and  C_10 
REMARK    5  A    between atoms: C_15  and  C_16 
REMARK       I    between atoms: C_16  and  N_17 
REMARK    6  A    between atoms: N_17  and  C_18 
ROOT
HETATM    1  N   UNL     1      -8.639  -0.021 -33.378  1.00  0.00    -0.321 N 
HETATM    2  C   UNL     1      -8.935   1.217 -33.905  1.00  0.00     0.277 C 
HETATM    3  O   UNL     1      -8.234   1.863 -34.670  1.00  0.00    -0.266 OA
HETATM    4  H   UNL     1      -9.463  -0.494 -33.007  1.00  0.00     0.169 HD
ENDROOT
BRANCH   2   5
HETATM    5  C   UNL     1     -10.258   1.681 -33.482  1.00  0.00     0.158 A 
HETATM    6  N   UNL     1     -11.407   1.009 -33.897  1.00  0.00    -0.236 NA
HETATM    7  C   UNL     1     -12.407   1.655 -33.348  1.00  0.00     0.208 A 
HETATM    8  N   UNL     1     -11.967   2.695 -32.590  1.00  0.00    -0.344 N 
HETATM    9  H   UNL     1     -12.534   3.335 -32.046  1.00  0.00     0.167 HD
HETATM   10  C   UNL     1     -10.587   2.740 -32.643  1.00  0.00     0.136 A 
BRANCH  10  11
HETATM   11  C   UNL     1      -9.857   3.723 -31.863  1.00  0.00     0.275 C 
HETATM   12  N   UNL     1      -8.487   3.598 -31.846  1.00  0.00    -0.322 N 
HETATM   13  H   UNL     1      -8.073   2.891 -32.452  1.00  0.00     0.169 HD
HETATM   14  O   UNL     1     -10.486   4.602 -31.283  1.00  0.00    -0.266 OA
BRANCH  12  15
HETATM   15  C   UNL     1      -7.554   4.322 -31.077  1.00  0.00     0.035 A 
HETATM   16  C   UNL     1      -7.037   3.891 -29.855  1.00  0.00     0.029 A 
HETATM   17  C   UNL     1      -6.075   4.655 -29.186  1.00  0.00     0.002 A 
HETATM   18  C   UNL     1      -5.625   5.856 -29.731  1.00  0.00     0.000 A 
HETATM   19  C   UNL     1      -6.139   6.298 -30.946  1.00  0.00     0.002 A 
HETATM   20  C   UNL     1      -7.097   5.534 -31.615  1.00  0.00     0.029 A 
ENDBRANCH  12  15
ENDBRANCH  10  11
ENDBRANCH   2   5
BRANCH   1  21
HETATM   21  C   UNL     1      -7.443  -0.755 -33.505  1.00  0.00     0.049 A 
HETATM   22  C   UNL     1      -6.209  -0.478 -32.881  1.00  0.00     0.043 A 
HETATM   23  C   UNL     1      -5.079  -1.262 -33.177  1.00  0.00     0.041 A 
HETATM   24  C   UNL     1      -5.182  -2.347 -34.040  1.00  0.00     0.035 A 
HETATM   25  C   UNL     1      -6.407  -2.671 -34.610  1.00  0.00     0.026 A 
HETATM   26 CL   UNL     1      -3.799  -3.312 -34.378  1.00  0.00    -0.084 Cl
HETATM   27  C   UNL     1      -7.529  -1.884 -34.339  1.00  0.00     0.032 A 
BRANCH  22  28
HETATM   28  C   UNL     1      -5.980   0.525 -31.810  1.00  0.00     0.194 C 
HETATM   29  O   UNL     1      -6.642   0.433 -30.778  1.00  0.00    -0.287 OA
BRANCH  28  30
HETATM   30  C   UNL     1      -5.060   1.684 -31.998  1.00  0.00     0.015 A 
HETATM   31  C   UNL     1      -5.300   2.547 -33.075  1.00  0.00     0.015 A 
HETATM   32  C   UNL     1      -4.491   3.663 -33.285  1.00  0.00     0.001 A 
HETATM   33  C   UNL     1      -3.421   3.914 -32.430  1.00  0.00     0.000 A 
HETATM   34  C   UNL     1      -3.155   3.045 -31.372  1.00  0.00     0.001 A 
HETATM   35  C   UNL     1      -3.967   1.928 -31.157  1.00  0.00     0.015 A 
ENDBRANCH  28  30
ENDBRANCH  22  28
ENDBRANCH   1  21
TORSDOF 6
ENDMDL
MODEL 10
REMARK VINA RESULT:      -7.9      3.321      7.832
REMARK  6 active torsions:
REMARK  status: ('A' for Active; 'I' for Inactive)
REMARK    1  A    between atoms: C_4  and  C_5 
REMARK    2  A    between atoms: C_5  and  C_6 
REMARK    3  A    between atoms: C_7  and  N_8 
REMARK       I    between atoms: N_8  and  C_9 
REMARK    4  A    between atoms: C_9  and  C_10 
REMARK    5  A    between atoms: C_15  and  C_16 
REMARK       I    between atoms: C_16  and  N_17 
REMARK    6  A    between atoms: N_17  and  C_18 
ROOT
HETATM    1  N   UNL     1      -7.831   3.632 -32.058  1.00  0.00    -0.321 N 
HETATM    2  C   UNL     1      -8.076   3.771 -33.407  1.00  0.00     0.277 C 
HETATM    3  O   UNL     1      -7.508   4.539 -34.170  1.00  0.00    -0.266 OA
HETATM    4  H   UNL     1      -8.200   2.759 -31.682  1.00  0.00     0.169 HD
ENDROOT
BRANCH   2   5
HETATM    5  C   UNL     1      -9.094   2.825 -33.870  1.00  0.00     0.158 A 
HETATM    6  N   UNL     1     -10.442   3.179 -33.858  1.00  0.00    -0.236 NA
HETATM    7  C   UNL     1     -11.082   2.139 -34.334  1.00  0.00     0.208 A 
HETATM    8  N   UNL     1     -10.221   1.140 -34.668  1.00  0.00    -0.344 N 
HETATM    9  H   UNL     1     -10.456   0.243 -35.076  1.00  0.00     0.167 HD
HETATM   10  C   UNL     1      -8.929   1.547 -34.393  1.00  0.00     0.136 A 
BRANCH  10  11
HETATM   11  C   UNL     1      -7.806   0.688 -34.719  1.00  0.00     0.275 C 
HETATM   12  N   UNL     1      -7.635  -0.426 -33.930  1.00  0.00    -0.322 N 
HETATM   13  H   UNL     1      -8.356  -0.624 -33.237  1.00  0.00     0.169 HD
HETATM   14  O   UNL     1      -7.090   0.988 -35.670  1.00  0.00    -0.266 OA
BRANCH  12  15
HETATM   15  C   UNL     1      -6.568  -1.346 -33.937  1.00  0.00     0.035 A 
HETATM   16  C   UNL     1      -6.535  -2.507 -34.711  1.00  0.00     0.029 A 
HETATM   17  C   UNL     1      -5.409  -3.338 -34.690  1.00  0.00     0.002 A 
HETATM   18  C   UNL     1      -4.311  -3.016 -33.896  1.00  0.00     0.000 A 
HETATM   19  C   UNL     1      -4.337  -1.865 -33.115  1.00  0.00     0.002 A 
HETATM   20  C   UNL     1      -5.459  -1.034 -33.138  1.00  0.00     0.029 A 
ENDBRANCH  12  15
ENDBRANCH  10  11
ENDBRANCH   2   5
BRANCH   1  21
HETATM   21  C   UNL     1      -6.975   4.405 -31.248  1.00  0.00     0.049 A 
HETATM   22  C   UNL     1      -5.568   4.329 -31.190  1.00  0.00     0.043 A 
HETATM   23  C   UNL     1      -4.859   5.114 -30.262  1.00  0.00     0.041 A 
HETATM   24  C   UNL     1      -5.532   6.010 -29.438  1.00  0.00     0.035 A 
HETATM   25  C   UNL     1      -6.912   6.142 -29.533  1.00  0.00     0.026 A 
HETATM   26 CL   UNL     1      -4.654   6.980 -28.324  1.00  0.00    -0.084 Cl
HETATM   27  C   UNL     1      -7.626   5.350 -30.436  1.00  0.00     0.032 A 
BRANCH  22  28
HETATM   28  C   UNL     1      -4.698   3.561 -32.115  1.00  0.00     0.194 C 
HETATM   29  O   UNL     1      -4.777   2.334 -32.102  1.00  0.00    -0.287 OA
BRANCH  28  30
HETATM   30  C   UNL     1      -3.672   4.226 -32.969  1.00  0.00     0.015 A 
HETATM   31  C   UNL     1      -4.087   4.778 -34.188  1.00  0.00     0.015 A 
HETATM   32  C   UNL     1      -3.179   5.438 -35.016  1.00  0.00     0.001 A 
HETATM   33  C   UNL     1      -1.842   5.533 -34.640  1.00  0.00     0.000 A 
HETATM   34  C   UNL     1      -1.412   4.963 -33.443  1.00  0.00     0.001 A 
HETATM   35  C   UNL     1      -2.320   4.305 -32.609  1.00  0.00     0.015 A 
ENDBRANCH  28  30
ENDBRANCH  22  28
ENDBRANCH   1  21
TORSDOF 6
ENDMDL
