MODEL 1
REMARK VINA RESULT:      -7.9      0.000      0.000
REMARK  2 active torsions:
REMARK  status: ('A' for Active; 'I' for Inactive)
REMARK    1  A    between atoms: C_8  and  S_9 
REMARK    2  A    between atoms: S_9  and  C_10 
ROOT
HETATM    1  C   UNL     1      -6.391  -4.587 -35.225  1.00  0.00     0.002 A 
HETATM    2  C   UNL     1      -6.796  -3.279 -34.959  1.00  0.00     0.034 A 
HETATM    3  C   UNL     1      -5.961  -2.385 -34.301  1.00  0.00     0.087 A 
HETATM    4  C   UNL     1      -4.669  -2.817 -33.896  1.00  0.00     0.087 A 
HETATM    5  N   UNL     1      -3.820  -1.990 -33.254  1.00  0.00    -0.232 NA
HETATM    6  C   UNL     1      -4.249  -0.729 -33.047  1.00  0.00     0.164 A 
HETATM    7 CL   UNL     1      -3.123   0.268 -32.221  1.00  0.00    -0.059 Cl
HETATM    8  C   UNL     1      -5.507  -0.308 -33.438  1.00  0.00     0.165 A 
HETATM    9  N   UNL     1      -6.393  -1.131 -34.053  1.00  0.00    -0.234 NA
HETATM   10  C   UNL     1      -4.280  -4.123 -34.165  1.00  0.00     0.034 A 
HETATM   11  C   UNL     1      -5.130  -5.011 -34.825  1.00  0.00     0.002 A 
ENDROOT
BRANCH   8  12
HETATM   12  S   UNL     1      -6.140   1.344 -33.170  1.00  0.00     0.076 S 
HETATM   13  O   UNL     1      -6.866   1.771 -34.412  1.00  0.00    -0.251 OA
BRANCH  12  14
HETATM   14  C   UNL     1      -7.427   0.983 -31.908  1.00  0.00     0.089 C 
HETATM   15  C   UNL     1      -8.105   2.225 -31.319  1.00  0.00     0.045 C 
HETATM   16  C   UNL     1      -7.199   3.042 -30.409  1.00  0.00     0.233 C 
HETATM   17  N   UNL     1      -6.638   2.155 -29.345  1.00  0.00    -0.075 N 
HETATM   18  H   UNL     1      -7.382   1.867 -28.696  1.00  0.00     0.277 HD
HETATM   19  H   UNL     1      -5.983   2.717 -28.783  1.00  0.00     0.277 HD
HETATM   20  C   UNL     1      -5.902   0.960 -29.850  1.00  0.00     0.233 C 
HETATM   21  C   UNL     1      -6.800   0.148 -30.778  1.00  0.00     0.045 C 
ENDBRANCH  12  14
ENDBRANCH   8  12
TORSDOF 2
ENDMDL
MODEL 2
REMARK VINA RESULT:      -7.5      1.561      2.153
REMARK  2 active torsions:
REMARK  status: ('A' for Active; 'I' for Inactive)
REMARK    1  A    between atoms: C_8  and  S_9 
REMARK    2  A    between atoms: S_9  and  C_10 
ROOT
HETATM    1  C   UNL     1      -3.718  -4.749 -33.687  1.00  0.00     0.002 A 
HETATM    2  C   UNL     1      -3.759  -3.413 -33.286  1.00  0.00     0.034 A 
HETATM    3  C   UNL     1      -4.769  -2.562 -33.716  1.00  0.00     0.087 A 
HETATM    4  C   UNL     1      -5.778  -3.068 -34.578  1.00  0.00     0.087 A 
HETATM    5  N   UNL     1      -6.780  -2.285 -35.025  1.00  0.00    -0.232 NA
HETATM    6  C   UNL     1      -6.789  -1.010 -34.585  1.00  0.00     0.164 A 
HETATM    7 CL   UNL     1      -8.087  -0.068 -35.196  1.00  0.00    -0.059 Cl
HETATM    8  C   UNL     1      -5.806  -0.515 -33.748  1.00  0.00     0.165 A 
HETATM    9  N   UNL     1      -4.768  -1.274 -33.315  1.00  0.00    -0.234 NA
HETATM   10  C   UNL     1      -5.724  -4.399 -34.971  1.00  0.00     0.034 A 
HETATM   11  C   UNL     1      -4.702  -5.243 -34.533  1.00  0.00     0.002 A 
ENDROOT
BRANCH   8  12
HETATM   12  S   UNL     1      -5.753   1.170 -33.151  1.00  0.00     0.076 S 
HETATM   13  O   UNL     1      -6.133   2.078 -34.284  1.00  0.00    -0.251 OA
BRANCH  12  14
HETATM   14  C   UNL     1      -7.188   1.137 -32.002  1.00  0.00     0.089 C 
HETATM   15  C   UNL     1      -7.566   2.504 -31.419  1.00  0.00     0.045 C 
HETATM   16  C   UNL     1      -6.556   3.040 -30.414  1.00  0.00     0.233 C 
HETATM   17  N   UNL     1      -6.333   2.019 -29.346  1.00  0.00    -0.075 N 
HETATM   18  H   UNL     1      -7.176   1.925 -28.764  1.00  0.00     0.277 HD
HETATM   19  H   UNL     1      -5.601   2.381 -28.716  1.00  0.00     0.277 HD
HETATM   20  C   UNL     1      -5.894   0.682 -29.839  1.00  0.00     0.233 C 
HETATM   21  C   UNL     1      -6.893   0.148 -30.861  1.00  0.00     0.045 C 
ENDBRANCH  12  14
ENDBRANCH   8  12
TORSDOF 2
ENDMDL
MODEL 3
REMARK VINA RESULT:      -7.4      2.237      2.876
REMARK  2 active torsions:
REMARK  status: ('A' for Active; 'I' for Inactive)
REMARK    1  A    between atoms: C_8  and  S_9 
REMARK    2  A    between atoms: S_9  and  C_10 
ROOT
HETATM    1  C   UNL     1      -3.313  -4.170 -32.926  1.00  0.00     0.002 A 
HETATM    2  C   UNL     1      -3.508  -2.836 -32.568  1.00  0.00     0.034 A 
HETATM    3  C   UNL     1      -4.446  -2.045 -33.219  1.00  0.00     0.087 A 
HETATM    4  C   UNL     1      -5.221  -2.614 -34.267  1.00  0.00     0.087 A 
HETATM    5  N   UNL     1      -6.145  -1.890 -34.931  1.00  0.00    -0.232 NA
HETATM    6  C   UNL     1      -6.315  -0.615 -34.528  1.00  0.00     0.164 A 
HETATM    7 CL   UNL     1      -7.500   0.249 -35.418  1.00  0.00    -0.059 Cl
HETATM    8  C   UNL     1      -5.560  -0.060 -33.511  1.00  0.00     0.165 A 
HETATM    9  N   UNL     1      -4.600  -0.756 -32.853  1.00  0.00    -0.234 NA
HETATM   10  C   UNL     1      -5.014  -3.942 -34.613  1.00  0.00     0.034 A 
HETATM   11  C   UNL     1      -4.066  -4.725 -33.952  1.00  0.00     0.002 A 
ENDROOT
BRANCH   8  12
HETATM   12  S   UNL     1      -5.724   1.630 -32.949  1.00  0.00     0.076 S 
HETATM   13  O   UNL     1      -7.139   1.834 -32.492  1.00  0.00    -0.251 OA
BRANCH  12  14
HETATM   14  C   UNL     1      -4.688   1.555 -31.431  1.00  0.00     0.089 C 
HETATM   15  C   UNL     1      -5.372   2.092 -30.169  1.00  0.00     0.045 C 
HETATM   16  C   UNL     1      -5.558   3.602 -30.171  1.00  0.00     0.233 C 
HETATM   17  N   UNL     1      -4.241   4.263 -30.417  1.00  0.00    -0.075 N 
HETATM   18  H   UNL     1      -3.621   4.130 -29.607  1.00  0.00     0.277 HD
HETATM   19  H   UNL     1      -4.406   5.278 -30.476  1.00  0.00     0.277 HD
HETATM   20  C   UNL     1      -3.551   3.837 -31.669  1.00  0.00     0.233 C 
HETATM   21  C   UNL     1      -3.378   2.321 -31.681  1.00  0.00     0.045 C 
ENDBRANCH  12  14
ENDBRANCH   8  12
TORSDOF 2
ENDMDL
MODEL 4
REMARK VINA RESULT:      -7.0      3.136      3.792
REMARK  2 active torsions:
REMARK  status: ('A' for Active; 'I' for Inactive)
REMARK    1  A    between atoms: C_8  and  S_9 
REMARK    2  A    between atoms: S_9  and  C_10 
ROOT
HETATM    1  C   UNL     1      -5.013  -3.217 -34.889  1.00  0.00     0.002 A 
HETATM    2  C   UNL     1      -4.357  -2.211 -34.180  1.00  0.00     0.034 A 
HETATM    3  C   UNL     1      -5.065  -1.234 -33.492  1.00  0.00     0.087 A 
HETATM    4  C   UNL     1      -6.486  -1.267 -33.513  1.00  0.00     0.087 A 
HETATM    5  N   UNL     1      -7.221  -0.342 -32.863  1.00  0.00    -0.232 NA
HETATM    6  C   UNL     1      -6.538   0.591 -32.170  1.00  0.00     0.164 A 
HETATM    7 CL   UNL     1      -7.533   1.738 -31.372  1.00  0.00    -0.059 Cl
HETATM    8  C   UNL     1      -5.156   0.627 -32.151  1.00  0.00     0.165 A 
HETATM    9  N   UNL     1      -4.395  -0.271 -32.827  1.00  0.00    -0.234 NA
HETATM   10  C   UNL     1      -7.126  -2.273 -34.225  1.00  0.00     0.034 A 
HETATM   11  C   UNL     1      -6.402  -3.247 -34.913  1.00  0.00     0.002 A 
ENDROOT
BRANCH   8  12
HETATM   12  S   UNL     1      -4.197   1.852 -31.270  1.00  0.00     0.076 S 
HETATM   13  O   UNL     1      -2.810   1.310 -31.079  1.00  0.00    -0.251 OA
BRANCH  12  14
HETATM   14  C   UNL     1      -4.079   3.148 -32.569  1.00  0.00     0.089 C 
HETATM   15  C   UNL     1      -2.688   3.775 -32.716  1.00  0.00     0.045 C 
HETATM   16  C   UNL     1      -2.295   4.670 -31.549  1.00  0.00     0.233 C 
HETATM   17  N   UNL     1      -3.354   5.702 -31.340  1.00  0.00    -0.075 N 
HETATM   18  H   UNL     1      -3.358   6.370 -32.122  1.00  0.00     0.277 HD
HETATM   19  H   UNL     1      -3.094   6.253 -30.508  1.00  0.00     0.277 HD
HETATM   20  C   UNL     1      -4.725   5.157 -31.119  1.00  0.00     0.233 C 
HETATM   21  C   UNL     1      -5.117   4.245 -32.278  1.00  0.00     0.045 C 
ENDBRANCH  12  14
ENDBRANCH   8  12
TORSDOF 2
ENDMDL
MODEL 5
REMARK VINA RESULT:      -6.8      2.966      3.714
REMARK  2 active torsions:
REMARK  status: ('A' for Active; 'I' for Inactive)
REMARK    1  A    between atoms: C_8  and  S_9 
REMARK    2  A    between atoms: S_9  and  C_10 
ROOT
HETATM    1  C   UNL     1      -4.463  -3.008 -34.421  1.00  0.00     0.002 A 
HETATM    2  C   UNL     1      -4.312  -1.802 -33.737  1.00  0.00     0.034 A 
HETATM    3  C   UNL     1      -5.407  -1.004 -33.431  1.00  0.00     0.087 A 
HETATM    4  C   UNL     1      -6.704  -1.433 -33.823  1.00  0.00     0.087 A 
HETATM    5  N   UNL     1      -7.800  -0.696 -33.551  1.00  0.00    -0.232 NA
HETATM    6  C   UNL     1      -7.603   0.446 -32.863  1.00  0.00     0.164 A 
HETATM    7 CL   UNL     1      -9.037   1.336 -32.556  1.00  0.00    -0.059 Cl
HETATM    8  C   UNL     1      -6.341   0.866 -32.484  1.00  0.00     0.165 A 
HETATM    9  N   UNL     1      -5.220   0.161 -32.777  1.00  0.00    -0.234 NA
HETATM   10  C   UNL     1      -6.839  -2.635 -34.505  1.00  0.00     0.034 A 
HETATM   11  C   UNL     1      -5.730  -3.425 -34.808  1.00  0.00     0.002 A 
ENDROOT
BRANCH   8  12
HETATM   12  S   UNL     1      -6.014   2.381 -31.591  1.00  0.00     0.076 S 
HETATM   13  O   UNL     1      -5.012   2.081 -30.515  1.00  0.00    -0.251 OA
BRANCH  12  14
HETATM   14  C   UNL     1      -5.120   3.323 -32.893  1.00  0.00     0.089 C 
HETATM   15  C   UNL     1      -4.528   4.655 -32.420  1.00  0.00     0.045 C 
HETATM   16  C   UNL     1      -5.575   5.720 -32.130  1.00  0.00     0.233 C 
HETATM   17  N   UNL     1      -6.450   5.892 -33.329  1.00  0.00    -0.075 N 
HETATM   18  H   UNL     1      -5.919   6.325 -34.096  1.00  0.00     0.277 HD
HETATM   19  H   UNL     1      -7.186   6.571 -33.084  1.00  0.00     0.277 HD
HETATM   20  C   UNL     1      -7.116   4.644 -33.802  1.00  0.00     0.233 C 
HETATM   21  C   UNL     1      -6.072   3.567 -34.077  1.00  0.00     0.045 C 
ENDBRANCH  12  14
ENDBRANCH   8  12
TORSDOF 2
ENDMDL
MODEL 6
REMARK VINA RESULT:      -6.6      5.084      7.436
REMARK  2 active torsions:
REMARK  status: ('A' for Active; 'I' for Inactive)
REMARK    1  A    between atoms: C_8  and  S_9 
REMARK    2  A    between atoms: S_9  and  C_10 
ROOT
HETATM    1  C   UNL     1       0.360   6.019 -30.664  1.00  0.00     0.002 A 
HETATM    2  C   UNL     1      -0.461   4.892 -30.687  1.00  0.00     0.034 A 
HETATM    3  C   UNL     1      -1.543   4.806 -31.555  1.00  0.00     0.087 A 
HETATM    4  C   UNL     1      -1.810   5.890 -32.435  1.00  0.00     0.087 A 
HETATM    5  N   UNL     1      -2.846   5.858 -33.296  1.00  0.00    -0.232 NA
HETATM    6  C   UNL     1      -3.592   4.735 -33.300  1.00  0.00     0.164 A 
HETATM    7 CL   UNL     1      -4.896   4.763 -34.414  1.00  0.00    -0.059 Cl
HETATM    8  C   UNL     1      -3.335   3.681 -32.442  1.00  0.00     0.165 A 
HETATM    9  N   UNL     1      -2.321   3.704 -31.542  1.00  0.00    -0.234 NA
HETATM   10  C   UNL     1      -0.985   7.006 -32.398  1.00  0.00     0.034 A 
HETATM   11  C   UNL     1       0.098   7.080 -31.520  1.00  0.00     0.002 A 
ENDROOT
BRANCH   8  12
HETATM   12  S   UNL     1      -4.302   2.177 -32.385  1.00  0.00     0.076 S 
HETATM   13  O   UNL     1      -3.354   1.016 -32.307  1.00  0.00    -0.251 OA
BRANCH  12  14
HETATM   14  C   UNL     1      -5.053   2.354 -30.715  1.00  0.00     0.089 C 
HETATM   15  C   UNL     1      -5.536   1.038 -30.094  1.00  0.00     0.045 C 
HETATM   16  C   UNL     1      -6.768   0.459 -30.773  1.00  0.00     0.233 C 
HETATM   17  N   UNL     1      -7.847   1.492 -30.803  1.00  0.00    -0.075 N 
HETATM   18  H   UNL     1      -8.196   1.667 -29.852  1.00  0.00     0.277 HD
HETATM   19  H   UNL     1      -8.645   1.095 -31.322  1.00  0.00     0.277 HD
HETATM   20  C   UNL     1      -7.466   2.776 -31.459  1.00  0.00     0.233 C 
HETATM   21  C   UNL     1      -6.220   3.352 -30.794  1.00  0.00     0.045 C 
ENDBRANCH  12  14
ENDBRANCH   8  12
TORSDOF 2
ENDMDL
MODEL 7
REMARK VINA RESULT:      -6.4      3.113      3.791
REMARK  2 active torsions:
REMARK  status: ('A' for Active; 'I' for Inactive)
REMARK    1  A    between atoms: C_8  and  S_9 
REMARK    2  A    between atoms: S_9  and  C_10 
ROOT
HETATM    1  C   UNL     1      -5.666  -2.748 -34.963  1.00  0.00     0.002 A 
HETATM    2  C   UNL     1      -6.722  -1.875 -34.699  1.00  0.00     0.034 A 
HETATM    3  C   UNL     1      -6.704  -1.036 -33.593  1.00  0.00     0.087 A 
HETATM    4  C   UNL     1      -5.584  -1.069 -32.718  1.00  0.00     0.087 A 
HETATM    5  N   UNL     1      -5.516  -0.276 -31.631  1.00  0.00    -0.232 NA
HETATM    6  C   UNL     1      -6.549   0.569 -31.437  1.00  0.00     0.164 A 
HETATM    7 CL   UNL     1      -6.402   1.545 -30.034  1.00  0.00    -0.059 Cl
HETATM    8  C   UNL     1      -7.641   0.601 -32.285  1.00  0.00     0.165 A 
HETATM    9  N   UNL     1      -7.748  -0.213 -33.365  1.00  0.00    -0.234 NA
HETATM   10  C   UNL     1      -4.541  -1.945 -32.992  1.00  0.00     0.034 A 
HETATM   11  C   UNL     1      -4.574  -2.784 -34.106  1.00  0.00     0.002 A 
ENDROOT
BRANCH   8  12
HETATM   12  S   UNL     1      -9.049   1.682 -32.067  1.00  0.00     0.076 S 
HETATM   13  O   UNL     1      -8.535   3.070 -31.814  1.00  0.00    -0.251 OA
BRANCH  12  14
HETATM   14  C   UNL     1      -9.715   1.674 -33.781  1.00  0.00     0.089 C 
HETATM   15  C   UNL     1      -9.753   3.051 -34.454  1.00  0.00     0.045 C 
HETATM   16  C   UNL     1     -10.801   3.988 -33.870  1.00  0.00     0.233 C 
HETATM   17  N   UNL     1     -12.135   3.315 -33.897  1.00  0.00    -0.075 N 
HETATM   18  H   UNL     1     -12.461   3.216 -34.867  1.00  0.00     0.277 HD
HETATM   19  H   UNL     1     -12.811   3.945 -33.440  1.00  0.00     0.277 HD
HETATM   20  C   UNL     1     -12.187   2.000 -33.197  1.00  0.00     0.233 C 
HETATM   21  C   UNL     1     -11.126   1.062 -33.766  1.00  0.00     0.045 C 
ENDBRANCH  12  14
ENDBRANCH   8  12
TORSDOF 2
ENDMDL
MODEL 8
REMARK VINA RESULT:      -6.4      1.934      2.564
REMARK  2 active torsions:
REMARK  status: ('A' for Active; 'I' for Inactive)
REMARK    1  A    between atoms: C_8  and  S_9 
REMARK    2  A    between atoms: S_9  and  C_10 
ROOT
HETATM    1  C   UNL     1      -5.718  -3.447 -35.019  1.00  0.00     0.002 A 
HETATM    2  C   UNL     1      -6.419  -2.265 -34.776  1.00  0.00     0.034 A 
HETATM    3  C   UNL     1      -5.936  -1.310 -33.890  1.00  0.00     0.087 A 
HETATM    4  C   UNL     1      -4.703  -1.546 -33.224  1.00  0.00     0.087 A 
HETATM    5  N   UNL     1      -4.191  -0.652 -32.355  1.00  0.00    -0.232 NA
HETATM    6  C   UNL     1      -4.892   0.485 -32.178  1.00  0.00     0.164 A 
HETATM    7 CL   UNL     1      -4.187   1.575 -31.056  1.00  0.00    -0.059 Cl
HETATM    8  C   UNL     1      -6.093   0.715 -32.823  1.00  0.00     0.165 A 
HETATM    9  N   UNL     1      -6.647  -0.184 -33.674  1.00  0.00    -0.234 NA
HETATM   10  C   UNL     1      -4.018  -2.728 -33.474  1.00  0.00     0.034 A 
HETATM   11  C   UNL     1      -4.516  -3.680 -34.365  1.00  0.00     0.002 A 
ENDROOT
BRANCH   8  12
HETATM   12  S   UNL     1      -7.078   2.193 -32.611  1.00  0.00     0.076 S 
HETATM   13  O   UNL     1      -7.778   2.477 -33.908  1.00  0.00    -0.251 OA
BRANCH  12  14
HETATM   14  C   UNL     1      -8.357   1.551 -31.455  1.00  0.00     0.089 C 
HETATM   15  C   UNL     1      -9.240   0.442 -32.038  1.00  0.00     0.045 C 
HETATM   16  C   UNL     1     -10.208   0.931 -33.107  1.00  0.00     0.233 C 
HETATM   17  N   UNL     1     -11.018   2.061 -32.560  1.00  0.00    -0.075 N 
HETATM   18  H   UNL     1     -11.662   1.717 -31.836  1.00  0.00     0.277 HD
HETATM   19  H   UNL     1     -11.618   2.412 -33.321  1.00  0.00     0.277 HD
HETATM   20  C   UNL     1     -10.220   3.208 -32.038  1.00  0.00     0.233 C 
HETATM   21  C   UNL     1      -9.235   2.721 -30.980  1.00  0.00     0.045 C 
ENDBRANCH  12  14
ENDBRANCH   8  12
TORSDOF 2
ENDMDL
MODEL 9
REMARK VINA RESULT:      -6.4      2.392      3.250
REMARK  2 active torsions:
REMARK  status: ('A' for Active; 'I' for Inactive)
REMARK    1  A    between atoms: C_8  and  S_9 
REMARK    2  A    between atoms: S_9  and  C_10 
ROOT
HETATM    1  C   UNL     1      -4.695  -2.369 -34.044  1.00  0.00     0.002 A 
HETATM    2  C   UNL     1      -4.577  -1.023 -33.695  1.00  0.00     0.034 A 
HETATM    3  C   UNL     1      -5.647  -0.148 -33.824  1.00  0.00     0.087 A 
HETATM    4  C   UNL     1      -6.885  -0.640 -34.320  1.00  0.00     0.087 A 
HETATM    5  N   UNL     1      -7.956   0.167 -34.465  1.00  0.00    -0.232 NA
HETATM    6  C   UNL     1      -7.797   1.451 -34.087  1.00  0.00     0.164 A 
HETATM    7 CL   UNL     1      -9.194   2.423 -34.303  1.00  0.00    -0.059 Cl
HETATM    8  C   UNL     1      -6.592   1.932 -33.607  1.00  0.00     0.165 A 
HETATM    9  N   UNL     1      -5.492   1.148 -33.486  1.00  0.00    -0.234 NA
HETATM   10  C   UNL     1      -6.988  -1.981 -34.666  1.00  0.00     0.034 A 
HETATM   11  C   UNL     1      -5.903  -2.849 -34.532  1.00  0.00     0.002 A 
ENDROOT
BRANCH   8  12
HETATM   12  S   UNL     1      -6.316   3.628 -33.112  1.00  0.00     0.076 S 
HETATM   13  O   UNL     1      -7.035   4.520 -34.081  1.00  0.00    -0.251 OA
BRANCH  12  14
HETATM   14  C   UNL     1      -7.287   3.658 -31.551  1.00  0.00     0.089 C 
HETATM   15  C   UNL     1      -7.105   4.930 -30.713  1.00  0.00     0.045 C 
HETATM   16  C   UNL     1      -5.735   5.040 -30.061  1.00  0.00     0.233 C 
HETATM   17  N   UNL     1      -5.464   3.804 -29.267  1.00  0.00    -0.075 N 
HETATM   18  H   UNL     1      -6.084   3.768 -28.446  1.00  0.00     0.277 HD
HETATM   19  H   UNL     1      -4.508   3.878 -28.889  1.00  0.00     0.277 HD
HETATM   20  C   UNL     1      -5.556   2.531 -30.038  1.00  0.00     0.233 C 
HETATM   21  C   UNL     1      -6.921   2.424 -30.709  1.00  0.00     0.045 C 
ENDBRANCH  12  14
ENDBRANCH   8  12
TORSDOF 2
ENDMDL
MODEL 10
REMARK VINA RESULT:      -6.3      4.400      6.538
REMARK  2 active torsions:
REMARK  status: ('A' for Active; 'I' for Inactive)
REMARK    1  A    between atoms: C_8  and  S_9 
REMARK    2  A    between atoms: S_9  and  C_10 
ROOT
HETATM    1  C   UNL     1     -13.712  -0.085 -33.723  1.00  0.00     0.002 A 
HETATM    2  C   UNL     1     -12.340  -0.114 -33.470  1.00  0.00     0.034 A 
HETATM    3  C   UNL     1     -11.540   0.996 -33.705  1.00  0.00     0.087 A 
HETATM    4  C   UNL     1     -12.137   2.183 -34.211  1.00  0.00     0.087 A 
HETATM    5  N   UNL     1     -11.405   3.288 -34.457  1.00  0.00    -0.232 NA
HETATM    6  C   UNL     1     -10.090   3.217 -34.169  1.00  0.00     0.164 A 
HETATM    7 CL   UNL     1      -9.219   4.654 -34.511  1.00  0.00    -0.059 Cl
HETATM    8  C   UNL     1      -9.508   2.061 -33.680  1.00  0.00     0.165 A 
HETATM    9  N   UNL     1     -10.216   0.926 -33.458  1.00  0.00    -0.234 NA
HETATM   10  C   UNL     1     -13.503   2.197 -34.460  1.00  0.00     0.034 A 
HETATM   11  C   UNL     1     -14.295   1.073 -34.221  1.00  0.00     0.002 A 
ENDROOT
BRANCH   8  12
HETATM   12  S   UNL     1      -7.767   1.900 -33.301  1.00  0.00     0.076 S 
HETATM   13  O   UNL     1      -7.457   2.801 -32.142  1.00  0.00    -0.251 OA
BRANCH  12  14
HETATM   14  C   UNL     1      -7.750   0.181 -32.647  1.00  0.00     0.089 C 
HETATM   15  C   UNL     1      -6.925  -0.005 -31.369  1.00  0.00     0.045 C 
HETATM   16  C   UNL     1      -5.423   0.107 -31.590  1.00  0.00     0.233 C 
HETATM   17  N   UNL     1      -5.010  -0.845 -32.665  1.00  0.00    -0.075 N 
HETATM   18  H   UNL     1      -5.101  -1.815 -32.333  1.00  0.00     0.277 HD
HETATM   19  H   UNL     1      -4.004  -0.704 -32.837  1.00  0.00     0.277 HD
HETATM   20  C   UNL     1      -5.726  -0.674 -33.962  1.00  0.00     0.233 C 
HETATM   21  C   UNL     1      -7.233  -0.766 -33.743  1.00  0.00     0.045 C 
ENDBRANCH  12  14
ENDBRANCH   8  12
TORSDOF 2
ENDMDL
