MODEL 1
REMARK VINA RESULT:      -7.0      0.000      0.000
REMARK  6 active torsions:
REMARK  status: ('A' for Active; 'I' for Inactive)
REMARK    1  A    between atoms: C_2  and  O_3 
REMARK    2  A    between atoms: O_3  and  C_4 
REMARK    3  A    between atoms: C_4  and  C_5 
REMARK    4  A    between atoms: C_6  and  O_7 
REMARK    5  A    between atoms: C_12  and  O_13 
REMARK    6  A    between atoms: C_17  and  C_18 
ROOT
HETATM    1  C   UNL     1      -6.407  -0.208 -32.838  1.00  0.00     0.133 C 
HETATM    2  C   UNL     1      -4.930  -0.049 -32.364  1.00  0.00     0.073 C 
HETATM    3  C   UNL     1      -3.922  -0.705 -33.321  1.00  0.00     0.047 C 
HETATM    4  C   UNL     1      -4.508   1.429 -32.107  1.00  0.00     0.097 C 
HETATM    5  C   UNL     1      -5.609   2.162 -31.433  1.00  0.00     0.042 A 
HETATM    6  C   UNL     1      -6.934   1.786 -31.344  1.00  0.00     0.030 A 
HETATM    7  C   UNL     1      -7.492   2.781 -30.525  1.00  0.00     0.190 A 
HETATM    8  N   UNL     1      -6.633   3.731 -30.175  1.00  0.00    -0.149 NA
HETATM    9  N   UNL     1      -5.479   3.324 -30.729  1.00  0.00    -0.279 N 
HETATM   10  H   UNL     1      -4.645   3.879 -30.566  1.00  0.00     0.189 HD
HETATM   11  C   UNL     1      -7.449   0.509 -31.926  1.00  0.00     0.074 C 
ENDROOT
BRANCH  11  12
HETATM   12  C   UNL     1      -8.802   0.762 -32.579  1.00  0.00    -0.048 A 
HETATM   13  C   UNL     1      -9.107   1.932 -33.302  1.00  0.00     0.009 A 
HETATM   14  C   UNL     1     -10.350   2.095 -33.919  1.00  0.00     0.024 A 
HETATM   15  C   UNL     1     -11.300   1.084 -33.838  1.00  0.00     0.034 A 
HETATM   16 CL   UNL     1     -12.826   1.278 -34.607  1.00  0.00    -0.084 Cl
HETATM   17  C   UNL     1     -11.019  -0.088 -33.140  1.00  0.00     0.024 A 
HETATM   18  C   UNL     1      -9.778  -0.248 -32.516  1.00  0.00     0.009 A 
ENDBRANCH  11  12
BRANCH   1  19
HETATM   19  C   UNL     1      -6.572   0.105 -34.311  1.00  0.00     0.267 C 
HETATM   20  O   UNL     1      -6.399   1.230 -34.767  1.00  0.00    -0.265 OA
BRANCH  19  21
HETATM   21  O   UNL     1      -6.955  -0.974 -35.037  1.00  0.00    -0.321 OA
BRANCH  21  22
HETATM   22  C   UNL     1      -7.086  -2.202 -34.304  1.00  0.00     0.174 C 
HETATM   23  C   UNL     1      -6.222  -3.285 -34.922  1.00  0.00     0.034 C 
ENDBRANCH  21  22
ENDBRANCH  19  21
ENDBRANCH   1  19
BRANCH   2  24
HETATM   24  O   UNL     1      -4.800  -0.752 -31.106  1.00  0.00    -0.389 OA
HETATM   25  H   UNL     1      -4.057  -0.370 -30.608  1.00  0.00     0.210 HD
ENDBRANCH   2  24
BRANCH   7  26
HETATM   26  O   UNL     1      -8.737   2.910 -30.059  1.00  0.00    -0.343 OA
HETATM   27  H   UNL     1      -9.026   2.074 -29.666  1.00  0.00     0.219 HD
ENDBRANCH   7  26
TORSDOF 6
ENDMDL
MODEL 2
REMARK VINA RESULT:      -6.9     15.228     16.656
REMARK  6 active torsions:
REMARK  status: ('A' for Active; 'I' for Inactive)
REMARK    1  A    between atoms: C_2  and  O_3 
REMARK    2  A    between atoms: O_3  and  C_4 
REMARK    3  A    between atoms: C_4  and  C_5 
REMARK    4  A    between atoms: C_6  and  O_7 
REMARK    5  A    between atoms: C_12  and  O_13 
REMARK    6  A    between atoms: C_17  and  C_18 
ROOT
HETATM    1  C   UNL     1      -5.696 -12.882 -38.997  1.00  0.00     0.133 C 
HETATM    2  C   UNL     1      -7.237 -12.939 -38.765  1.00  0.00     0.073 C 
HETATM    3  C   UNL     1      -8.036 -12.972 -40.076  1.00  0.00     0.047 C 
HETATM    4  C   UNL     1      -7.692 -14.120 -37.855  1.00  0.00     0.097 C 
HETATM    5  C   UNL     1      -6.743 -14.287 -36.725  1.00  0.00     0.042 A 
HETATM    6  C   UNL     1      -5.466 -13.775 -36.623  1.00  0.00     0.030 A 
HETATM    7  C   UNL     1      -5.077 -14.151 -35.327  1.00  0.00     0.190 A 
HETATM    8  N   UNL     1      -5.982 -14.881 -34.686  1.00  0.00    -0.149 NA
HETATM    9  N   UNL     1      -7.004 -14.939 -35.556  1.00  0.00    -0.279 N 
HETATM   10  H   UNL     1      -7.851 -15.423 -35.272  1.00  0.00     0.189 HD
HETATM   11  C   UNL     1      -4.853 -12.921 -37.685  1.00  0.00     0.074 C 
ENDROOT
BRANCH  11  12
HETATM   12  C   UNL     1      -3.394 -13.320 -37.874  1.00  0.00    -0.048 A 
HETATM   13  C   UNL     1      -2.934 -14.646 -37.764  1.00  0.00     0.009 A 
HETATM   14  C   UNL     1      -1.593 -14.965 -37.991  1.00  0.00     0.024 A 
HETATM   15  C   UNL     1      -0.696 -13.965 -38.348  1.00  0.00     0.034 A 
HETATM   16 CL   UNL     1       0.953 -14.358 -38.640  1.00  0.00    -0.084 Cl
HETATM   17  C   UNL     1      -1.128 -12.648 -38.477  1.00  0.00     0.024 A 
HETATM   18  C   UNL     1      -2.469 -12.328 -38.243  1.00  0.00     0.009 A 
ENDBRANCH  11  12
BRANCH   1  19
HETATM   19  C   UNL     1      -5.237 -13.877 -40.042  1.00  0.00     0.267 C 
HETATM   20  O   UNL     1      -5.438 -15.082 -39.937  1.00  0.00    -0.265 OA
BRANCH  19  21
HETATM   21  O   UNL     1      -4.566 -13.291 -41.065  1.00  0.00    -0.321 OA
BRANCH  21  22
HETATM   22  C   UNL     1      -3.913 -14.189 -41.976  1.00  0.00     0.174 C 
HETATM   23  C   UNL     1      -2.460 -14.380 -41.584  1.00  0.00     0.034 C 
ENDBRANCH  21  22
ENDBRANCH  19  21
ENDBRANCH   1  19
BRANCH   2  24
HETATM   24  O   UNL     1      -7.620 -11.716 -38.095  1.00  0.00    -0.389 OA
HETATM   25  H   UNL     1      -6.857 -11.380 -37.594  1.00  0.00     0.210 HD
ENDBRANCH   2  24
BRANCH   7  26
HETATM   26  O   UNL     1      -3.949 -13.890 -34.659  1.00  0.00    -0.343 OA
HETATM   27  H   UNL     1      -3.190 -14.214 -35.165  1.00  0.00     0.219 HD
ENDBRANCH   7  26
TORSDOF 6
ENDMDL
MODEL 3
REMARK VINA RESULT:      -6.9      3.739      6.181
REMARK  6 active torsions:
REMARK  status: ('A' for Active; 'I' for Inactive)
REMARK    1  A    between atoms: C_2  and  O_3 
REMARK    2  A    between atoms: O_3  and  C_4 
REMARK    3  A    between atoms: C_4  and  C_5 
REMARK    4  A    between atoms: C_6  and  O_7 
REMARK    5  A    between atoms: C_12  and  O_13 
REMARK    6  A    between atoms: C_17  and  C_18 
ROOT
HETATM    1  C   UNL     1      -6.621   1.750 -31.905  1.00  0.00     0.133 C 
HETATM    2  C   UNL     1      -7.406   0.407 -32.011  1.00  0.00     0.073 C 
HETATM    3  C   UNL     1      -8.778   0.569 -32.682  1.00  0.00     0.047 C 
HETATM    4  C   UNL     1      -6.613  -0.728 -32.726  1.00  0.00     0.097 C 
HETATM    5  C   UNL     1      -5.193  -0.706 -32.297  1.00  0.00     0.042 A 
HETATM    6  C   UNL     1      -4.525   0.324 -31.666  1.00  0.00     0.030 A 
HETATM    7  C   UNL     1      -3.259  -0.229 -31.409  1.00  0.00     0.190 A 
HETATM    8  N   UNL     1      -3.107  -1.461 -31.880  1.00  0.00    -0.149 NA
HETATM    9  N   UNL     1      -4.311  -1.741 -32.407  1.00  0.00    -0.279 N 
HETATM   10  H   UNL     1      -4.459  -2.664 -32.804  1.00  0.00     0.189 HD
HETATM   11  C   UNL     1      -5.193   1.607 -31.293  1.00  0.00     0.074 C 
ENDROOT
BRANCH  11  12
HETATM   12  C   UNL     1      -4.253   2.770 -31.588  1.00  0.00    -0.048 A 
HETATM   13  C   UNL     1      -3.357   2.785 -32.674  1.00  0.00     0.009 A 
HETATM   14  C   UNL     1      -2.547   3.895 -32.926  1.00  0.00     0.024 A 
HETATM   15  C   UNL     1      -2.633   5.013 -32.105  1.00  0.00     0.034 A 
HETATM   16 CL   UNL     1      -1.645   6.386 -32.420  1.00  0.00    -0.084 Cl
HETATM   17  C   UNL     1      -3.520   5.030 -31.032  1.00  0.00     0.024 A 
HETATM   18  C   UNL     1      -4.325   3.915 -30.776  1.00  0.00     0.009 A 
ENDBRANCH  11  12
BRANCH   1  19
HETATM   19  C   UNL     1      -6.649   2.534 -33.201  1.00  0.00     0.267 C 
HETATM   20  O   UNL     1      -6.229   2.074 -34.257  1.00  0.00    -0.265 OA
BRANCH  19  21
HETATM   21  O   UNL     1      -7.155   3.783 -33.048  1.00  0.00    -0.321 OA
BRANCH  21  22
HETATM   22  C   UNL     1      -6.472   4.822 -33.767  1.00  0.00     0.174 C 
HETATM   23  C   UNL     1      -6.401   6.087 -32.933  1.00  0.00     0.034 C 
ENDBRANCH  21  22
ENDBRANCH  19  21
ENDBRANCH   1  19
BRANCH   2  24
HETATM   24  O   UNL     1      -7.673  -0.046 -30.663  1.00  0.00    -0.389 OA
HETATM   25  H   UNL     1      -6.874   0.087 -30.123  1.00  0.00     0.210 HD
ENDBRANCH   2  24
BRANCH   7  26
HETATM   26  O   UNL     1      -2.206   0.295 -30.777  1.00  0.00    -0.343 OA
HETATM   27  H   UNL     1      -2.126  -0.100 -29.897  1.00  0.00     0.219 HD
ENDBRANCH   7  26
TORSDOF 6
ENDMDL
MODEL 4
REMARK VINA RESULT:      -6.9      2.622      4.735
REMARK  6 active torsions:
REMARK  status: ('A' for Active; 'I' for Inactive)
REMARK    1  A    between atoms: C_2  and  O_3 
REMARK    2  A    between atoms: O_3  and  C_4 
REMARK    3  A    between atoms: C_4  and  C_5 
REMARK    4  A    between atoms: C_6  and  O_7 
REMARK    5  A    between atoms: C_12  and  O_13 
REMARK    6  A    between atoms: C_17  and  C_18 
ROOT
HETATM    1  C   UNL     1      -7.405   3.557 -33.521  1.00  0.00     0.133 C 
HETATM    2  C   UNL     1      -7.185   4.986 -32.936  1.00  0.00     0.073 C 
HETATM    3  C   UNL     1      -8.497   5.763 -32.753  1.00  0.00     0.047 C 
HETATM    4  C   UNL     1      -6.387   5.000 -31.598  1.00  0.00     0.097 C 
HETATM    5  C   UNL     1      -5.273   4.021 -31.659  1.00  0.00     0.042 A 
HETATM    6  C   UNL     1      -5.120   2.982 -32.555  1.00  0.00     0.030 A 
HETATM    7  C   UNL     1      -3.861   2.456 -32.219  1.00  0.00     0.190 A 
HETATM    8  N   UNL     1      -3.292   3.053 -31.178  1.00  0.00    -0.149 NA
HETATM    9  N   UNL     1      -4.168   4.020 -30.859  1.00  0.00    -0.279 N 
HETATM   10  H   UNL     1      -3.931   4.652 -30.100  1.00  0.00     0.189 HD
HETATM   11  C   UNL     1      -6.098   2.715 -33.652  1.00  0.00     0.074 C 
ENDROOT
BRANCH  11  12
HETATM   12  C   UNL     1      -6.317   1.211 -33.777  1.00  0.00    -0.048 A 
HETATM   13  C   UNL     1      -6.197   0.319 -32.694  1.00  0.00     0.009 A 
HETATM   14  C   UNL     1      -6.453  -1.046 -32.853  1.00  0.00     0.024 A 
HETATM   15  C   UNL     1      -6.848  -1.535 -34.093  1.00  0.00     0.034 A 
HETATM   16 CL   UNL     1      -7.173  -3.213 -34.287  1.00  0.00    -0.084 Cl
HETATM   17  C   UNL     1      -6.987  -0.672 -35.176  1.00  0.00     0.024 A 
HETATM   18  C   UNL     1      -6.724   0.692 -35.019  1.00  0.00     0.009 A 
ENDBRANCH  11  12
BRANCH   1  19
HETATM   19  C   UNL     1      -8.534   2.822 -32.829  1.00  0.00     0.267 C 
HETATM   20  O   UNL     1      -8.557   2.645 -31.615  1.00  0.00    -0.265 OA
BRANCH  19  21
HETATM   21  O   UNL     1      -9.474   2.369 -33.694  1.00  0.00    -0.321 OA
BRANCH  21  22
HETATM   22  C   UNL     1     -10.520   1.572 -33.116  1.00  0.00     0.174 C 
HETATM   23  C   UNL     1     -10.097   0.118 -33.036  1.00  0.00     0.034 C 
ENDBRANCH  21  22
ENDBRANCH  19  21
ENDBRANCH   1  19
BRANCH   2  24
HETATM   24  O   UNL     1      -6.410   5.734 -33.901  1.00  0.00    -0.389 OA
HETATM   25  H   UNL     1      -6.258   6.630 -33.554  1.00  0.00     0.210 HD
ENDBRANCH   2  24
BRANCH   7  26
HETATM   26  O   UNL     1      -3.169   1.462 -32.781  1.00  0.00    -0.343 OA
HETATM   27  H   UNL     1      -3.298   0.648 -32.272  1.00  0.00     0.219 HD
ENDBRANCH   7  26
TORSDOF 6
ENDMDL
MODEL 5
REMARK VINA RESULT:      -6.8      2.119      4.406
REMARK  6 active torsions:
REMARK  status: ('A' for Active; 'I' for Inactive)
REMARK    1  A    between atoms: C_2  and  O_3 
REMARK    2  A    between atoms: O_3  and  C_4 
REMARK    3  A    between atoms: C_4  and  C_5 
REMARK    4  A    between atoms: C_6  and  O_7 
REMARK    5  A    between atoms: C_12  and  O_13 
REMARK    6  A    between atoms: C_17  and  C_18 
ROOT
HETATM    1  C   UNL     1      -6.425   2.988 -32.363  1.00  0.00     0.133 C 
HETATM    2  C   UNL     1      -4.909   3.141 -32.036  1.00  0.00     0.073 C 
HETATM    3  C   UNL     1      -4.640   4.155 -30.912  1.00  0.00     0.047 C 
HETATM    4  C   UNL     1      -4.200   1.796 -31.695  1.00  0.00     0.097 C 
HETATM    5  C   UNL     1      -4.681   0.724 -32.603  1.00  0.00     0.042 A 
HETATM    6  C   UNL     1      -5.814   0.740 -33.390  1.00  0.00     0.030 A 
HETATM    7  C   UNL     1      -5.721  -0.467 -34.103  1.00  0.00     0.190 A 
HETATM    8  N   UNL     1      -4.673  -1.210 -33.766  1.00  0.00    -0.149 NA
HETATM    9  N   UNL     1      -4.039  -0.453 -32.855  1.00  0.00    -0.279 N 
HETATM   10  H   UNL     1      -3.166  -0.798 -32.468  1.00  0.00     0.189 HD
HETATM   11  C   UNL     1      -6.737   1.913 -33.449  1.00  0.00     0.074 C 
ENDROOT
BRANCH  11  12
HETATM   12  C   UNL     1      -8.179   1.420 -33.465  1.00  0.00    -0.048 A 
HETATM   13  C   UNL     1      -8.636   0.337 -32.691  1.00  0.00     0.009 A 
HETATM   14  C   UNL     1      -9.979  -0.047 -32.709  1.00  0.00     0.024 A 
HETATM   15  C   UNL     1     -10.889   0.658 -33.488  1.00  0.00     0.034 A 
HETATM   16 CL   UNL     1     -12.545   0.194 -33.503  1.00  0.00    -0.084 Cl
HETATM   17  C   UNL     1     -10.466   1.741 -34.253  1.00  0.00     0.024 A 
HETATM   18  C   UNL     1      -9.120   2.120 -34.241  1.00  0.00     0.009 A 
ENDBRANCH  11  12
BRANCH   1  19
HETATM   19  C   UNL     1      -7.270   2.848 -31.112  1.00  0.00     0.267 C 
HETATM   20  O   UNL     1      -7.046   1.997 -30.259  1.00  0.00    -0.265 OA
BRANCH  19  21
HETATM   21  O   UNL     1      -8.293   3.737 -31.069  1.00  0.00    -0.321 OA
BRANCH  21  22
HETATM   22  C   UNL     1      -9.506   3.259 -30.465  1.00  0.00     0.174 C 
HETATM   23  C   UNL     1     -10.716   3.795 -31.207  1.00  0.00     0.034 C 
ENDBRANCH  21  22
ENDBRANCH  19  21
ENDBRANCH   1  19
BRANCH   2  24
HETATM   24  O   UNL     1      -4.263   3.674 -33.215  1.00  0.00    -0.389 OA
HETATM   25  H   UNL     1      -4.874   4.290 -33.656  1.00  0.00     0.210 HD
ENDBRANCH   2  24
BRANCH   7  26
HETATM   26  O   UNL     1      -6.520  -0.968 -35.050  1.00  0.00    -0.343 OA
HETATM   27  H   UNL     1      -6.027  -1.054 -35.878  1.00  0.00     0.219 HD
ENDBRANCH   7  26
TORSDOF 6
ENDMDL
MODEL 6
REMARK VINA RESULT:      -6.7      3.147      5.008
REMARK  6 active torsions:
REMARK  status: ('A' for Active; 'I' for Inactive)
REMARK    1  A    between atoms: C_2  and  O_3 
REMARK    2  A    between atoms: O_3  and  C_4 
REMARK    3  A    between atoms: C_4  and  C_5 
REMARK    4  A    between atoms: C_6  and  O_7 
REMARK    5  A    between atoms: C_12  and  O_13 
REMARK    6  A    between atoms: C_17  and  C_18 
ROOT
HETATM    1  C   UNL     1      -5.153   3.417 -30.835  1.00  0.00     0.133 C 
HETATM    2  C   UNL     1      -5.446   4.745 -30.072  1.00  0.00     0.073 C 
HETATM    3  C   UNL     1      -4.325   5.784 -30.230  1.00  0.00     0.047 C 
HETATM    4  C   UNL     1      -6.810   5.398 -30.449  1.00  0.00     0.097 C 
HETATM    5  C   UNL     1      -7.854   4.352 -30.588  1.00  0.00     0.042 A 
HETATM    6  C   UNL     1      -7.662   2.994 -30.738  1.00  0.00     0.030 A 
HETATM    7  C   UNL     1      -8.972   2.485 -30.720  1.00  0.00     0.190 A 
HETATM    8  N   UNL     1      -9.909   3.421 -30.631  1.00  0.00    -0.149 NA
HETATM    9  N   UNL     1      -9.201   4.559 -30.535  1.00  0.00    -0.279 N 
HETATM   10  H   UNL     1      -9.707   5.431 -30.415  1.00  0.00     0.189 HD
HETATM   11  C   UNL     1      -6.305   2.369 -30.754  1.00  0.00     0.074 C 
ENDROOT
BRANCH  11  12
HETATM   12  C   UNL     1      -6.261   1.286 -31.826  1.00  0.00    -0.048 A 
HETATM   13  C   UNL     1      -6.860   1.426 -33.093  1.00  0.00     0.009 A 
HETATM   14  C   UNL     1      -6.751   0.420 -34.057  1.00  0.00     0.024 A 
HETATM   15  C   UNL     1      -6.028  -0.733 -33.774  1.00  0.00     0.034 A 
HETATM   16 CL   UNL     1      -5.884  -1.966 -34.963  1.00  0.00    -0.084 Cl
HETATM   17  C   UNL     1      -5.415  -0.890 -32.534  1.00  0.00     0.024 A 
HETATM   18  C   UNL     1      -5.530   0.114 -31.567  1.00  0.00     0.009 A 
ENDBRANCH  11  12
BRANCH   1  19
HETATM   19  C   UNL     1      -4.657   3.665 -32.245  1.00  0.00     0.267 C 
HETATM   20  O   UNL     1      -5.350   4.204 -33.101  1.00  0.00    -0.265 OA
BRANCH  19  21
HETATM   21  O   UNL     1      -3.398   3.202 -32.447  1.00  0.00    -0.321 OA
BRANCH  21  22
HETATM   22  C   UNL     1      -2.545   4.043 -33.239  1.00  0.00     0.174 C 
HETATM   23  C   UNL     1      -1.547   4.768 -32.357  1.00  0.00     0.034 C 
ENDBRANCH  21  22
ENDBRANCH  19  21
ENDBRANCH   1  19
BRANCH   2  24
HETATM   24  O   UNL     1      -5.501   4.431 -28.661  1.00  0.00    -0.389 OA
HETATM   25  H   UNL     1      -4.616   4.555 -28.277  1.00  0.00     0.210 HD
ENDBRANCH   2  24
BRANCH   7  26
HETATM   26  O   UNL     1      -9.403   1.222 -30.781  1.00  0.00    -0.343 OA
HETATM   27  H   UNL     1      -9.478   0.861 -29.887  1.00  0.00     0.219 HD
ENDBRANCH   7  26
TORSDOF 6
ENDMDL
MODEL 7
REMARK VINA RESULT:      -6.6      2.951      4.889
REMARK  6 active torsions:
REMARK  status: ('A' for Active; 'I' for Inactive)
REMARK    1  A    between atoms: C_2  and  O_3 
REMARK    2  A    between atoms: O_3  and  C_4 
REMARK    3  A    between atoms: C_4  and  C_5 
REMARK    4  A    between atoms: C_6  and  O_7 
REMARK    5  A    between atoms: C_12  and  O_13 
REMARK    6  A    between atoms: C_17  and  C_18 
ROOT
HETATM    1  C   UNL     1      -6.917   2.874 -31.911  1.00  0.00     0.133 C 
HETATM    2  C   UNL     1      -7.619   4.193 -31.466  1.00  0.00     0.073 C 
HETATM    3  C   UNL     1      -6.653   5.386 -31.394  1.00  0.00     0.047 C 
HETATM    4  C   UNL     1      -8.848   4.578 -32.343  1.00  0.00     0.097 C 
HETATM    5  C   UNL     1      -9.640   3.365 -32.669  1.00  0.00     0.042 A 
HETATM    6  C   UNL     1      -9.236   2.050 -32.567  1.00  0.00     0.030 A 
HETATM    7  C   UNL     1     -10.398   1.334 -32.901  1.00  0.00     0.190 A 
HETATM    8  N   UNL     1     -11.423   2.107 -33.242  1.00  0.00    -0.149 NA
HETATM    9  N   UNL     1     -10.941   3.350 -33.078  1.00  0.00    -0.279 N 
HETATM   10  H   UNL     1     -11.566   4.133 -33.243  1.00  0.00     0.189 HD
HETATM   11  C   UNL     1      -7.884   1.659 -32.064  1.00  0.00     0.074 C 
ENDROOT
BRANCH  11  12
HETATM   12  C   UNL     1      -7.342   0.514 -32.911  1.00  0.00    -0.048 A 
HETATM   13  C   UNL     1      -7.619   0.368 -34.284  1.00  0.00     0.009 A 
HETATM   14  C   UNL     1      -7.060  -0.677 -35.025  1.00  0.00     0.024 A 
HETATM   15  C   UNL     1      -6.204  -1.581 -34.408  1.00  0.00     0.034 A 
HETATM   16 CL   UNL     1      -5.506  -2.860 -35.321  1.00  0.00    -0.084 Cl
HETATM   17  C   UNL     1      -5.903  -1.451 -33.055  1.00  0.00     0.024 A 
HETATM   18  C   UNL     1      -6.468  -0.410 -32.312  1.00  0.00     0.009 A 
ENDBRANCH  11  12
BRANCH   1  19
HETATM   19  C   UNL     1      -6.011   3.082 -33.107  1.00  0.00     0.267 C 
HETATM   20  O   UNL     1      -6.414   3.561 -34.162  1.00  0.00    -0.265 OA
BRANCH  19  21
HETATM   21  O   UNL     1      -4.743   2.656 -32.885  1.00  0.00    -0.321 OA
BRANCH  21  22
HETATM   22  C   UNL     1      -4.352   2.559 -31.506  1.00  0.00     0.174 C 
HETATM   23  C   UNL     1      -3.402   1.394 -31.304  1.00  0.00     0.034 C 
ENDBRANCH  21  22
ENDBRANCH  19  21
ENDBRANCH   1  19
BRANCH   2  24
HETATM   24  O   UNL     1      -8.105   3.992 -30.118  1.00  0.00    -0.389 OA
HETATM   25  H   UNL     1      -7.489   3.405 -29.647  1.00  0.00     0.210 HD
ENDBRANCH   2  24
BRANCH   7  26
HETATM   26  O   UNL     1     -10.617   0.017 -32.929  1.00  0.00    -0.343 OA
HETATM   27  H   UNL     1      -9.805  -0.452 -32.687  1.00  0.00     0.219 HD
ENDBRANCH   7  26
TORSDOF 6
ENDMDL
MODEL 8
REMARK VINA RESULT:      -6.6      3.803      5.903
REMARK  6 active torsions:
REMARK  status: ('A' for Active; 'I' for Inactive)
REMARK    1  A    between atoms: C_2  and  O_3 
REMARK    2  A    between atoms: O_3  and  C_4 
REMARK    3  A    between atoms: C_4  and  C_5 
REMARK    4  A    between atoms: C_6  and  O_7 
REMARK    5  A    between atoms: C_12  and  O_13 
REMARK    6  A    between atoms: C_17  and  C_18 
ROOT
HETATM    1  C   UNL     1      -3.668   4.435 -31.588  1.00  0.00     0.133 C 
HETATM    2  C   UNL     1      -4.129   5.822 -31.043  1.00  0.00     0.073 C 
HETATM    3  C   UNL     1      -3.493   7.000 -31.796  1.00  0.00     0.047 C 
HETATM    4  C   UNL     1      -5.676   6.003 -31.016  1.00  0.00     0.097 C 
HETATM    5  C   UNL     1      -6.328   4.748 -30.561  1.00  0.00     0.042 A 
HETATM    6  C   UNL     1      -5.769   3.488 -30.505  1.00  0.00     0.030 A 
HETATM    7  C   UNL     1      -6.783   2.717 -29.913  1.00  0.00     0.190 A 
HETATM    8  N   UNL     1      -7.899   3.395 -29.672  1.00  0.00    -0.149 NA
HETATM    9  N   UNL     1      -7.593   4.644 -30.062  1.00  0.00    -0.279 N 
HETATM   10  H   UNL     1      -8.290   5.371 -29.938  1.00  0.00     0.189 HD
HETATM   11  C   UNL     1      -4.351   3.218 -30.892  1.00  0.00     0.074 C 
ENDROOT
BRANCH  11  12
HETATM   12  C   UNL     1      -4.282   1.913 -31.676  1.00  0.00    -0.048 A 
HETATM   13  C   UNL     1      -3.255   0.963 -31.509  1.00  0.00     0.009 A 
HETATM   14  C   UNL     1      -3.263  -0.239 -32.221  1.00  0.00     0.024 A 
HETATM   15  C   UNL     1      -4.305  -0.517 -33.098  1.00  0.00     0.034 A 
HETATM   16 CL   UNL     1      -4.321  -2.001 -33.966  1.00  0.00    -0.084 Cl
HETATM   17  C   UNL     1      -5.339   0.399 -33.271  1.00  0.00     0.024 A 
HETATM   18  C   UNL     1      -5.328   1.605 -32.564  1.00  0.00     0.009 A 
ENDBRANCH  11  12
BRANCH   1  19
HETATM   19  C   UNL     1      -3.711   4.372 -33.101  1.00  0.00     0.267 C 
HETATM   20  O   UNL     1      -4.754   4.490 -33.735  1.00  0.00    -0.265 OA
BRANCH  19  21
HETATM   21  O   UNL     1      -2.493   4.143 -33.652  1.00  0.00    -0.321 OA
BRANCH  21  22
HETATM   22  C   UNL     1      -2.164   4.954 -34.791  1.00  0.00     0.174 C 
HETATM   23  C   UNL     1      -1.092   5.965 -34.431  1.00  0.00     0.034 C 
ENDBRANCH  21  22
ENDBRANCH  19  21
ENDBRANCH   1  19
BRANCH   2  24
HETATM   24  O   UNL     1      -3.666   5.925 -29.677  1.00  0.00    -0.389 OA
HETATM   25  H   UNL     1      -4.020   6.743 -29.286  1.00  0.00     0.210 HD
ENDBRANCH   2  24
BRANCH   7  26
HETATM   26  O   UNL     1      -6.790   1.427 -29.569  1.00  0.00    -0.343 OA
HETATM   27  H   UNL     1      -7.035   1.341 -28.636  1.00  0.00     0.219 HD
ENDBRANCH   7  26
TORSDOF 6
ENDMDL
MODEL 9
REMARK VINA RESULT:      -6.5      3.446      5.285
REMARK  6 active torsions:
REMARK  status: ('A' for Active; 'I' for Inactive)
REMARK    1  A    between atoms: C_2  and  O_3 
REMARK    2  A    between atoms: O_3  and  C_4 
REMARK    3  A    between atoms: C_4  and  C_5 
REMARK    4  A    between atoms: C_6  and  O_7 
REMARK    5  A    between atoms: C_12  and  O_13 
REMARK    6  A    between atoms: C_17  and  C_18 
ROOT
HETATM    1  C   UNL     1      -6.768   1.243 -33.876  1.00  0.00     0.133 C 
HETATM    2  C   UNL     1      -7.717   0.026 -34.098  1.00  0.00     0.073 C 
HETATM    3  C   UNL     1      -7.003  -1.325 -33.934  1.00  0.00     0.047 C 
HETATM    4  C   UNL     1      -8.989   0.048 -33.198  1.00  0.00     0.097 C 
HETATM    5  C   UNL     1      -9.527   1.429 -33.111  1.00  0.00     0.042 A 
HETATM    6  C   UNL     1      -8.876   2.602 -33.434  1.00  0.00     0.030 A 
HETATM    7  C   UNL     1      -9.873   3.577 -33.260  1.00  0.00     0.190 A 
HETATM    8  N   UNL     1     -11.025   3.090 -32.814  1.00  0.00    -0.149 NA
HETATM    9  N   UNL     1     -10.796   1.768 -32.744  1.00  0.00    -0.279 N 
HETATM   10  H   UNL     1     -11.560   1.163 -32.459  1.00  0.00     0.189 HD
HETATM   11  C   UNL     1      -7.479   2.628 -33.964  1.00  0.00     0.074 C 
ENDROOT
BRANCH  11  12
HETATM   12  C   UNL     1      -6.716   3.780 -33.319  1.00  0.00    -0.048 A 
HETATM   13  C   UNL     1      -6.866   4.148 -31.968  1.00  0.00     0.009 A 
HETATM   14  C   UNL     1      -6.109   5.184 -31.415  1.00  0.00     0.024 A 
HETATM   15  C   UNL     1      -5.179   5.856 -32.199  1.00  0.00     0.034 A 
HETATM   16 CL   UNL     1      -4.239   7.123 -31.517  1.00  0.00    -0.084 Cl
HETATM   17  C   UNL     1      -5.002   5.503 -33.534  1.00  0.00     0.024 A 
HETATM   18  C   UNL     1      -5.765   4.471 -34.090  1.00  0.00     0.009 A 
ENDBRANCH  11  12
BRANCH   1  19
HETATM   19  C   UNL     1      -5.908   1.080 -32.639  1.00  0.00     0.267 C 
HETATM   20  O   UNL     1      -6.387   0.937 -31.519  1.00  0.00    -0.265 OA
BRANCH  19  21
HETATM   21  O   UNL     1      -4.581   1.141 -32.912  1.00  0.00    -0.321 OA
BRANCH  21  22
HETATM   22  C   UNL     1      -3.720   1.299 -31.773  1.00  0.00     0.174 C 
HETATM   23  C   UNL     1      -3.261   2.740 -31.650  1.00  0.00     0.034 C 
ENDBRANCH  21  22
ENDBRANCH  19  21
ENDBRANCH   1  19
BRANCH   2  24
HETATM   24  O   UNL     1      -8.168   0.073 -35.472  1.00  0.00    -0.389 OA
HETATM   25  H   UNL     1      -8.466   0.978 -35.673  1.00  0.00     0.210 HD
ENDBRANCH   2  24
BRANCH   7  26
HETATM   26  O   UNL     1      -9.831   4.895 -33.471  1.00  0.00    -0.343 OA
HETATM   27  H   UNL     1     -10.302   5.108 -34.290  1.00  0.00     0.219 HD
ENDBRANCH   7  26
TORSDOF 6
ENDMDL
MODEL 10
REMARK VINA RESULT:      -6.4     16.126     18.046
REMARK  6 active torsions:
REMARK  status: ('A' for Active; 'I' for Inactive)
REMARK    1  A    between atoms: C_2  and  O_3 
REMARK    2  A    between atoms: O_3  and  C_4 
REMARK    3  A    between atoms: C_4  and  C_5 
REMARK    4  A    between atoms: C_6  and  O_7 
REMARK    5  A    between atoms: C_12  and  O_13 
REMARK    6  A    between atoms: C_17  and  C_18 
ROOT
HETATM    1  C   UNL     1      -2.719 -14.213 -39.898  1.00  0.00     0.133 C 
HETATM    2  C   UNL     1      -1.341 -14.911 -40.116  1.00  0.00     0.073 C 
HETATM    3  C   UNL     1      -0.659 -15.308 -38.798  1.00  0.00     0.047 C 
HETATM    4  C   UNL     1      -1.407 -16.152 -41.056  1.00  0.00     0.097 C 
HETATM    5  C   UNL     1      -2.312 -15.876 -42.200  1.00  0.00     0.042 A 
HETATM    6  C   UNL     1      -3.252 -14.871 -42.299  1.00  0.00     0.030 A 
HETATM    7  C   UNL     1      -3.736 -15.018 -43.610  1.00  0.00     0.190 A 
HETATM    8  N   UNL     1      -3.209 -16.047 -44.264  1.00  0.00    -0.149 NA
HETATM    9  N   UNL     1      -2.326 -16.551 -43.386  1.00  0.00    -0.279 N 
HETATM   10  H   UNL     1      -1.756 -17.340 -43.676  1.00  0.00     0.189 HD
HETATM   11  C   UNL     1      -3.470 -13.863 -41.219  1.00  0.00     0.074 C 
ENDROOT
BRANCH  11  12
HETATM   12  C   UNL     1      -4.965 -13.613 -41.056  1.00  0.00    -0.048 A 
HETATM   13  C   UNL     1      -5.934 -14.631 -41.145  1.00  0.00     0.009 A 
HETATM   14  C   UNL     1      -7.290 -14.356 -40.943  1.00  0.00     0.024 A 
HETATM   15  C   UNL     1      -7.693 -13.062 -40.633  1.00  0.00     0.034 A 
HETATM   16 CL   UNL     1      -9.360 -12.724 -40.374  1.00  0.00    -0.084 Cl
HETATM   17  C   UNL     1      -6.754 -12.040 -40.527  1.00  0.00     0.024 A 
HETATM   18  C   UNL     1      -5.399 -12.315 -40.735  1.00  0.00     0.009 A 
ENDBRANCH  11  12
BRANCH   1  19
HETATM   19  C   UNL     1      -3.578 -14.946 -38.887  1.00  0.00     0.267 C 
HETATM   20  O   UNL     1      -3.876 -16.128 -39.012  1.00  0.00    -0.265 OA
BRANCH  19  21
HETATM   21  O   UNL     1      -3.990 -14.147 -37.872  1.00  0.00    -0.321 OA
BRANCH  21  22
HETATM   22  C   UNL     1      -5.125 -14.619 -37.130  1.00  0.00     0.174 C 
HETATM   23  C   UNL     1      -6.274 -13.635 -37.233  1.00  0.00     0.034 C 
ENDBRANCH  21  22
ENDBRANCH  19  21
ENDBRANCH   1  19
BRANCH   2  24
HETATM   24  O   UNL     1      -0.463 -13.949 -40.744  1.00  0.00    -0.389 OA
HETATM   25  H   UNL     1      -0.938 -13.104 -40.837  1.00  0.00     0.210 HD
ENDBRANCH   2  24
BRANCH   7  26
HETATM   26  O   UNL     1      -4.633 -14.290 -44.281  1.00  0.00    -0.343 OA
HETATM   27  H   UNL     1      -5.271 -14.877 -44.712  1.00  0.00     0.219 HD
ENDBRANCH   7  26
TORSDOF 6
ENDMDL
