MODEL 1
REMARK VINA RESULT:      -7.6      0.000      0.000
REMARK  3 active torsions:
REMARK  status: ('A' for Active; 'I' for Inactive)
REMARK    1  A    between atoms: C_8  and  C_9 
REMARK    2  A    between atoms: C_10  and  O_11 
REMARK    3  A    between atoms: C_24  and  N_25 
ROOT
HETATM    1  C   UNL     1      -3.052   3.090 -31.679  1.00  0.00     0.073 C 
HETATM    2  C   UNL     1      -3.780   3.864 -32.714  1.00  0.00     0.062 A 
HETATM    3  N   UNL     1      -3.095   4.513 -33.672  1.00  0.00    -0.177 NA
HETATM    4  N   UNL     1      -4.046   5.120 -34.408  1.00  0.00    -0.256 N 
HETATM    5  H   UNL     1      -3.765   5.681 -35.204  1.00  0.00     0.191 HD
HETATM    6  C   UNL     1      -5.298   4.890 -33.941  1.00  0.00     0.175 A 
HETATM    7  C   UNL     1      -5.175   4.056 -32.858  1.00  0.00     0.034 A 
HETATM    8  C   UNL     1      -6.393   3.651 -32.099  1.00  0.00     0.108 A 
HETATM    9  C   UNL     1      -7.652   4.192 -32.779  1.00  0.00     0.067 A 
HETATM   10  C   UNL     1      -8.986   3.784 -32.176  1.00  0.00     0.020 C 
HETATM   11  N   UNL     1     -10.093   3.445 -31.675  1.00  0.00    -0.096 N 
HETATM   12  C   UNL     1      -7.621   5.009 -33.867  1.00  0.00     0.139 A 
HETATM   13  O   UNL     1      -6.408   5.397 -34.467  1.00  0.00    -0.279 OA
ENDROOT
BRANCH   8  14
HETATM   14  C   UNL     1      -6.345   2.133 -31.896  1.00  0.00     0.000 A 
HETATM   15  C   UNL     1      -6.139   1.659 -30.570  1.00  0.00     0.076 A 
HETATM   16  C   UNL     1      -6.145   0.292 -30.299  1.00  0.00     0.038 A 
HETATM   17  C   UNL     1      -6.353  -0.625 -31.323  1.00  0.00     0.015 A 
HETATM   18  C   UNL     1      -6.548  -0.205 -32.640  1.00  0.00    -0.025 A 
HETATM   19  C   UNL     1      -6.537   1.178 -32.960  1.00  0.00    -0.016 A 
HETATM   20  C   UNL     1      -6.758  -1.178 -33.632  1.00  0.00     0.012 A 
HETATM   21  C   UNL     1      -6.722   1.495 -34.331  1.00  0.00     0.013 A 
HETATM   22  C   UNL     1      -6.931   0.520 -35.312  1.00  0.00     0.001 A 
HETATM   23  C   UNL     1      -6.954  -0.819 -34.961  1.00  0.00     0.001 A 
BRANCH  15  24
HETATM   24  O   UNL     1      -5.943   2.616 -29.605  1.00  0.00    -0.355 OA
HETATM   25  C   UNL     1      -7.082   3.314 -29.112  1.00  0.00     0.210 C 
ENDBRANCH  15  24
ENDBRANCH   8  14
BRANCH  12  26
HETATM   26  N   UNL     1      -8.721   5.530 -34.507  1.00  0.00    -0.282 NA
HETATM   27  H   UNL     1      -8.979   5.079 -35.381  1.00  0.00     0.126 HD
HETATM   28  H   UNL     1      -9.508   5.658 -33.876  1.00  0.00     0.126 HD
ENDBRANCH  12  26
TORSDOF 3
ENDMDL
MODEL 2
REMARK VINA RESULT:      -7.5     16.698     18.926
REMARK  3 active torsions:
REMARK  status: ('A' for Active; 'I' for Inactive)
REMARK    1  A    between atoms: C_8  and  C_9 
REMARK    2  A    between atoms: C_10  and  O_11 
REMARK    3  A    between atoms: C_24  and  N_25 
ROOT
HETATM    1  C   UNL     1      -5.812 -16.051 -42.319  1.00  0.00     0.073 C 
HETATM    2  C   UNL     1      -5.197 -14.893 -41.624  1.00  0.00     0.062 A 
HETATM    3  N   UNL     1      -4.431 -14.029 -42.311  1.00  0.00    -0.177 NA
HETATM    4  N   UNL     1      -4.022 -13.138 -41.387  1.00  0.00    -0.256 N 
HETATM    5  H   UNL     1      -3.420 -12.376 -41.674  1.00  0.00     0.191 HD
HETATM    6  C   UNL     1      -4.489 -13.419 -40.145  1.00  0.00     0.175 A 
HETATM    7  C   UNL     1      -5.280 -14.535 -40.256  1.00  0.00     0.034 A 
HETATM    8  C   UNL     1      -5.912 -15.114 -39.037  1.00  0.00     0.108 A 
HETATM    9  C   UNL     1      -5.628 -14.235 -37.818  1.00  0.00     0.067 A 
HETATM   10  C   UNL     1      -6.286 -14.643 -36.510  1.00  0.00     0.020 C 
HETATM   11  N   UNL     1      -6.832 -14.982 -35.425  1.00  0.00    -0.096 N 
HETATM   12  C   UNL     1      -4.824 -13.138 -37.859  1.00  0.00     0.139 A 
HETATM   13  O   UNL     1      -4.209 -12.715 -39.053  1.00  0.00    -0.279 OA
ENDROOT
BRANCH   8  14
HETATM   14  C   UNL     1      -7.392 -15.372 -39.343  1.00  0.00     0.000 A 
HETATM   15  C   UNL     1      -7.848 -16.718 -39.266  1.00  0.00     0.076 A 
HETATM   16  C   UNL     1      -9.192 -17.021 -39.471  1.00  0.00     0.038 A 
HETATM   17  C   UNL     1     -10.104 -16.010 -39.753  1.00  0.00     0.015 A 
HETATM   18  C   UNL     1      -9.698 -14.678 -39.849  1.00  0.00    -0.025 A 
HETATM   19  C   UNL     1      -8.336 -14.329 -39.659  1.00  0.00    -0.016 A 
HETATM   20  C   UNL     1     -10.666 -13.698 -40.131  1.00  0.00     0.012 A 
HETATM   21  C   UNL     1      -8.027 -12.950 -39.800  1.00  0.00     0.013 A 
HETATM   22  C   UNL     1      -8.997 -11.983 -40.082  1.00  0.00     0.001 A 
HETATM   23  C   UNL     1     -10.320 -12.357 -40.243  1.00  0.00     0.001 A 
BRANCH  15  24
HETATM   24  O   UNL     1      -6.898 -17.668 -38.981  1.00  0.00    -0.355 OA
HETATM   25  C   UNL     1      -7.000 -18.368 -37.745  1.00  0.00     0.210 C 
ENDBRANCH  15  24
ENDBRANCH   8  14
BRANCH  12  26
HETATM   26  N   UNL     1      -4.528 -12.322 -36.791  1.00  0.00    -0.282 NA
HETATM   27  H   UNL     1      -5.327 -11.912 -36.314  1.00  0.00     0.126 HD
HETATM   28  H   UNL     1      -3.859 -12.750 -36.156  1.00  0.00     0.126 HD
ENDBRANCH  12  26
TORSDOF 3
ENDMDL
MODEL 3
REMARK VINA RESULT:      -7.5      2.184      3.521
REMARK  3 active torsions:
REMARK  status: ('A' for Active; 'I' for Inactive)
REMARK    1  A    between atoms: C_8  and  C_9 
REMARK    2  A    between atoms: C_10  and  O_11 
REMARK    3  A    between atoms: C_24  and  N_25 
ROOT
HETATM    1  C   UNL     1      -5.969   0.117 -29.679  1.00  0.00     0.073 C 
HETATM    2  C   UNL     1      -4.889   0.639 -30.553  1.00  0.00     0.062 A 
HETATM    3  N   UNL     1      -3.778  -0.089 -30.753  1.00  0.00    -0.177 NA
HETATM    4  N   UNL     1      -3.015   0.680 -31.555  1.00  0.00    -0.256 N 
HETATM    5  H   UNL     1      -2.109   0.335 -31.848  1.00  0.00     0.191 HD
HETATM    6  C   UNL     1      -3.599   1.867 -31.853  1.00  0.00     0.175 A 
HETATM    7  C   UNL     1      -4.830   1.873 -31.246  1.00  0.00     0.034 A 
HETATM    8  C   UNL     1      -5.703   3.076 -31.361  1.00  0.00     0.108 A 
HETATM    9  C   UNL     1      -5.065   4.113 -32.286  1.00  0.00     0.067 A 
HETATM   10  C   UNL     1      -5.879   5.362 -32.581  1.00  0.00     0.020 C 
HETATM   11  N   UNL     1      -6.555   6.398 -32.826  1.00  0.00    -0.096 N 
HETATM   12  C   UNL     1      -3.827   3.966 -32.833  1.00  0.00     0.139 A 
HETATM   13  O   UNL     1      -3.046   2.818 -32.599  1.00  0.00    -0.279 OA
ENDROOT
BRANCH   8  14
HETATM   14  C   UNL     1      -7.109   2.610 -31.752  1.00  0.00     0.000 A 
HETATM   15  C   UNL     1      -8.188   3.031 -30.925  1.00  0.00     0.076 A 
HETATM   16  C   UNL     1      -9.501   2.697 -31.252  1.00  0.00     0.038 A 
HETATM   17  C   UNL     1      -9.772   1.948 -32.391  1.00  0.00     0.015 A 
HETATM   18  C   UNL     1      -8.743   1.504 -33.224  1.00  0.00    -0.025 A 
HETATM   19  C   UNL     1      -7.391   1.813 -32.920  1.00  0.00    -0.016 A 
HETATM   20  C   UNL     1      -9.077   0.754 -34.365  1.00  0.00     0.012 A 
HETATM   21  C   UNL     1      -6.423   1.294 -33.819  1.00  0.00     0.013 A 
HETATM   22  C   UNL     1      -6.765   0.549 -34.952  1.00  0.00     0.001 A 
HETATM   23  C   UNL     1      -8.095   0.283 -35.228  1.00  0.00     0.001 A 
BRANCH  15  24
HETATM   24  O   UNL     1      -7.854   3.771 -29.817  1.00  0.00    -0.355 OA
HETATM   25  C   UNL     1      -8.350   5.102 -29.725  1.00  0.00     0.210 C 
ENDBRANCH  15  24
ENDBRANCH   8  14
BRANCH  12  26
HETATM   26  N   UNL     1      -3.205   4.872 -33.660  1.00  0.00    -0.282 NA
HETATM   27  H   UNL     1      -3.583   4.944 -34.601  1.00  0.00     0.126 HD
HETATM   28  H   UNL     1      -3.076   5.776 -33.211  1.00  0.00     0.126 HD
ENDBRANCH  12  26
TORSDOF 3
ENDMDL
MODEL 4
REMARK VINA RESULT:      -7.4      2.138      4.411
REMARK  3 active torsions:
REMARK  status: ('A' for Active; 'I' for Inactive)
REMARK    1  A    between atoms: C_8  and  C_9 
REMARK    2  A    between atoms: C_10  and  O_11 
REMARK    3  A    between atoms: C_24  and  N_25 
ROOT
HETATM    1  C   UNL     1      -8.833   2.602 -30.763  1.00  0.00     0.073 C 
HETATM    2  C   UNL     1      -7.659   3.391 -30.314  1.00  0.00     0.062 A 
HETATM    3  N   UNL     1      -7.490   3.657 -29.007  1.00  0.00    -0.177 NA
HETATM    4  N   UNL     1      -6.366   4.398 -28.960  1.00  0.00    -0.256 N 
HETATM    5  H   UNL     1      -6.032   4.725 -28.061  1.00  0.00     0.191 HD
HETATM    6  C   UNL     1      -5.832   4.619 -30.187  1.00  0.00     0.175 A 
HETATM    7  C   UNL     1      -6.623   3.959 -31.094  1.00  0.00     0.034 A 
HETATM    8  C   UNL     1      -6.308   4.049 -32.549  1.00  0.00     0.108 A 
HETATM    9  C   UNL     1      -5.009   4.825 -32.768  1.00  0.00     0.067 A 
HETATM   10  C   UNL     1      -4.501   4.922 -34.197  1.00  0.00     0.020 C 
HETATM   11  N   UNL     1      -4.079   5.003 -35.382  1.00  0.00    -0.096 N 
HETATM   12  C   UNL     1      -4.316   5.423 -31.760  1.00  0.00     0.139 A 
HETATM   13  O   UNL     1      -4.743   5.343 -30.420  1.00  0.00    -0.279 OA
ENDROOT
BRANCH   8  14
HETATM   14  C   UNL     1      -6.343   2.632 -33.132  1.00  0.00     0.000 A 
HETATM   15  C   UNL     1      -7.393   2.329 -34.044  1.00  0.00     0.076 A 
HETATM   16  C   UNL     1      -7.455   1.081 -34.661  1.00  0.00     0.038 A 
HETATM   17  C   UNL     1      -6.490   0.117 -34.393  1.00  0.00     0.015 A 
HETATM   18  C   UNL     1      -5.449   0.367 -33.497  1.00  0.00    -0.025 A 
HETATM   19  C   UNL     1      -5.358   1.621 -32.838  1.00  0.00    -0.016 A 
HETATM   20  C   UNL     1      -4.500  -0.644 -33.269  1.00  0.00     0.012 A 
HETATM   21  C   UNL     1      -4.275   1.763 -31.930  1.00  0.00     0.013 A 
HETATM   22  C   UNL     1      -3.335   0.751 -31.710  1.00  0.00     0.001 A 
HETATM   23  C   UNL     1      -3.445  -0.453 -32.384  1.00  0.00     0.001 A 
BRANCH  15  24
HETATM   24  O   UNL     1      -8.312   3.325 -34.268  1.00  0.00    -0.355 OA
HETATM   25  C   UNL     1      -9.688   2.967 -34.321  1.00  0.00     0.210 C 
ENDBRANCH  15  24
ENDBRANCH   8  14
BRANCH  12  26
HETATM   26  N   UNL     1      -3.152   6.141 -31.905  1.00  0.00    -0.282 NA
HETATM   27  H   UNL     1      -2.576   5.892 -32.705  1.00  0.00     0.126 HD
HETATM   28  H   UNL     1      -3.306   7.143 -31.820  1.00  0.00     0.126 HD
ENDBRANCH  12  26
TORSDOF 3
ENDMDL
MODEL 5
REMARK VINA RESULT:      -7.3      1.845      4.085
REMARK  3 active torsions:
REMARK  status: ('A' for Active; 'I' for Inactive)
REMARK    1  A    between atoms: C_8  and  C_9 
REMARK    2  A    between atoms: C_10  and  O_11 
REMARK    3  A    between atoms: C_24  and  N_25 
ROOT
HETATM    1  C   UNL     1     -10.748   0.710 -33.469  1.00  0.00     0.073 C 
HETATM    2  C   UNL     1     -10.868   2.161 -33.185  1.00  0.00     0.062 A 
HETATM    3  N   UNL     1     -12.051   2.674 -32.805  1.00  0.00    -0.177 NA
HETATM    4  N   UNL     1     -11.812   3.992 -32.661  1.00  0.00    -0.256 N 
HETATM    5  H   UNL     1     -12.571   4.599 -32.375  1.00  0.00     0.191 HD
HETATM    6  C   UNL     1     -10.531   4.328 -32.950  1.00  0.00     0.175 A 
HETATM    7  C   UNL     1      -9.873   3.165 -33.269  1.00  0.00     0.034 A 
HETATM    8  C   UNL     1      -8.440   3.218 -33.674  1.00  0.00     0.108 A 
HETATM    9  C   UNL     1      -7.900   4.643 -33.550  1.00  0.00     0.067 A 
HETATM   10  C   UNL     1      -6.421   4.844 -33.838  1.00  0.00     0.020 C 
HETATM   11  N   UNL     1      -5.195   5.010 -34.078  1.00  0.00    -0.096 N 
HETATM   12  C   UNL     1      -8.675   5.708 -33.208  1.00  0.00     0.139 A 
HETATM   13  O   UNL     1     -10.045   5.564 -32.917  1.00  0.00    -0.279 OA
ENDROOT
BRANCH   8  14
HETATM   14  C   UNL     1      -7.681   2.146 -32.883  1.00  0.00     0.000 A 
HETATM   15  C   UNL     1      -7.517   2.363 -31.486  1.00  0.00     0.076 A 
HETATM   16  C   UNL     1      -6.892   1.404 -30.691  1.00  0.00     0.038 A 
HETATM   17  C   UNL     1      -6.422   0.223 -31.254  1.00  0.00     0.015 A 
HETATM   18  C   UNL     1      -6.552  -0.025 -32.622  1.00  0.00    -0.025 A 
HETATM   19  C   UNL     1      -7.172   0.931 -33.468  1.00  0.00    -0.016 A 
HETATM   20  C   UNL     1      -6.062  -1.239 -33.135  1.00  0.00     0.012 A 
HETATM   21  C   UNL     1      -7.232   0.589 -34.845  1.00  0.00     0.013 A 
HETATM   22  C   UNL     1      -6.742  -0.622 -35.346  1.00  0.00     0.001 A 
HETATM   23  C   UNL     1      -6.160  -1.540 -34.488  1.00  0.00     0.001 A 
BRANCH  15  24
HETATM   24  O   UNL     1      -8.005   3.547 -30.991  1.00  0.00    -0.355 OA
HETATM   25  C   UNL     1      -7.372   4.107 -29.846  1.00  0.00     0.210 C 
ENDBRANCH  15  24
ENDBRANCH   8  14
BRANCH  12  26
HETATM   26  N   UNL     1      -8.241   7.009 -33.094  1.00  0.00    -0.282 NA
HETATM   27  H   UNL     1      -8.823   7.710 -33.547  1.00  0.00     0.126 HD
HETATM   28  H   UNL     1      -7.998   7.250 -32.137  1.00  0.00     0.126 HD
ENDBRANCH  12  26
TORSDOF 3
ENDMDL
MODEL 6
REMARK VINA RESULT:      -7.2      2.721      5.906
REMARK  3 active torsions:
REMARK  status: ('A' for Active; 'I' for Inactive)
REMARK    1  A    between atoms: C_8  and  C_9 
REMARK    2  A    between atoms: C_10  and  O_11 
REMARK    3  A    between atoms: C_24  and  N_25 
ROOT
HETATM    1  C   UNL     1      -5.049   5.826 -29.923  1.00  0.00     0.073 C 
HETATM    2  C   UNL     1      -5.850   4.580 -29.841  1.00  0.00     0.062 A 
HETATM    3  N   UNL     1      -6.996   4.564 -29.140  1.00  0.00    -0.177 NA
HETATM    4  N   UNL     1      -7.438   3.296 -29.252  1.00  0.00    -0.256 N 
HETATM    5  H   UNL     1      -8.305   3.037 -28.796  1.00  0.00     0.191 HD
HETATM    6  C   UNL     1      -6.606   2.514 -29.984  1.00  0.00     0.175 A 
HETATM    7  C   UNL     1      -5.575   3.312 -30.410  1.00  0.00     0.034 A 
HETATM    8  C   UNL     1      -4.468   2.719 -31.214  1.00  0.00     0.108 A 
HETATM    9  C   UNL     1      -4.761   1.251 -31.526  1.00  0.00     0.067 A 
HETATM   10  C   UNL     1      -3.768   0.529 -32.422  1.00  0.00     0.020 C 
HETATM   11  N   UNL     1      -2.943  -0.069 -33.165  1.00  0.00    -0.096 N 
HETATM   12  C   UNL     1      -5.842   0.584 -31.038  1.00  0.00     0.139 A 
HETATM   13  O   UNL     1      -6.796   1.220 -30.219  1.00  0.00    -0.279 OA
ENDROOT
BRANCH   8  14
HETATM   14  C   UNL     1      -4.223   3.623 -32.428  1.00  0.00     0.000 A 
HETATM   15  C   UNL     1      -5.244   3.674 -33.418  1.00  0.00     0.076 A 
HETATM   16  C   UNL     1      -5.120   4.519 -34.519  1.00  0.00     0.038 A 
HETATM   17  C   UNL     1      -3.995   5.323 -34.662  1.00  0.00     0.015 A 
HETATM   18  C   UNL     1      -2.964   5.297 -33.720  1.00  0.00    -0.025 A 
HETATM   19  C   UNL     1      -3.047   4.440 -32.591  1.00  0.00    -0.016 A 
HETATM   20  C   UNL     1      -1.853   6.136 -33.915  1.00  0.00     0.012 A 
HETATM   21  C   UNL     1      -1.936   4.475 -31.708  1.00  0.00     0.013 A 
HETATM   22  C   UNL     1      -0.834   5.313 -31.911  1.00  0.00     0.001 A 
HETATM   23  C   UNL     1      -0.795   6.149 -33.014  1.00  0.00     0.001 A 
BRANCH  15  24
HETATM   24  O   UNL     1      -6.330   2.857 -33.216  1.00  0.00    -0.355 OA
HETATM   25  C   UNL     1      -7.622   3.372 -33.523  1.00  0.00     0.210 C 
ENDBRANCH  15  24
ENDBRANCH   8  14
BRANCH  12  26
HETATM   26  N   UNL     1      -6.144  -0.736 -31.279  1.00  0.00    -0.282 NA
HETATM   27  H   UNL     1      -5.436  -1.267 -31.778  1.00  0.00     0.126 HD
HETATM   28  H   UNL     1      -6.485  -1.209 -30.446  1.00  0.00     0.126 HD
ENDBRANCH  12  26
TORSDOF 3
ENDMDL
MODEL 7
REMARK VINA RESULT:      -7.1      2.360      4.534
REMARK  3 active torsions:
REMARK  status: ('A' for Active; 'I' for Inactive)
REMARK    1  A    between atoms: C_8  and  C_9 
REMARK    2  A    between atoms: C_10  and  O_11 
REMARK    3  A    between atoms: C_24  and  N_25 
ROOT
HETATM    1  C   UNL     1      -8.153   3.977 -30.152  1.00  0.00     0.073 C 
HETATM    2  C   UNL     1      -6.823   4.585 -29.901  1.00  0.00     0.062 A 
HETATM    3  N   UNL     1      -6.457   4.902 -28.647  1.00  0.00    -0.177 NA
HETATM    4  N   UNL     1      -5.232   5.447 -28.786  1.00  0.00    -0.256 N 
HETATM    5  H   UNL     1      -4.743   5.769 -27.959  1.00  0.00     0.191 HD
HETATM    6  C   UNL     1      -4.824   5.497 -30.078  1.00  0.00     0.175 A 
HETATM    7  C   UNL     1      -5.814   4.923 -30.835  1.00  0.00     0.034 A 
HETATM    8  C   UNL     1      -5.668   4.866 -32.317  1.00  0.00     0.108 A 
HETATM    9  C   UNL     1      -4.299   5.400 -32.741  1.00  0.00     0.067 A 
HETATM   10  C   UNL     1      -3.960   5.320 -34.220  1.00  0.00     0.020 C 
HETATM   11  N   UNL     1      -3.679   5.254 -35.448  1.00  0.00    -0.096 N 
HETATM   12  C   UNL     1      -3.403   5.936 -31.868  1.00  0.00     0.139 A 
HETATM   13  O   UNL     1      -3.670   6.013 -30.488  1.00  0.00    -0.279 OA
ENDROOT
BRANCH   8  14
HETATM   14  C   UNL     1      -5.998   3.441 -32.775  1.00  0.00     0.000 A 
HETATM   15  C   UNL     1      -7.158   3.268 -33.580  1.00  0.00     0.076 A 
HETATM   16  C   UNL     1      -7.488   2.011 -34.084  1.00  0.00     0.038 A 
HETATM   17  C   UNL     1      -6.685   0.911 -33.805  1.00  0.00     0.015 A 
HETATM   18  C   UNL     1      -5.544   1.033 -33.010  1.00  0.00    -0.025 A 
HETATM   19  C   UNL     1      -5.180   2.293 -32.468  1.00  0.00    -0.016 A 
HETATM   20  C   UNL     1      -4.768  -0.114 -32.766  1.00  0.00     0.012 A 
HETATM   21  C   UNL     1      -4.016   2.302 -31.656  1.00  0.00     0.013 A 
HETATM   22  C   UNL     1      -3.250   1.156 -31.419  1.00  0.00     0.001 A 
HETATM   23  C   UNL     1      -3.624  -0.053 -31.979  1.00  0.00     0.001 A 
BRANCH  15  24
HETATM   24  O   UNL     1      -7.906   4.394 -33.821  1.00  0.00    -0.355 OA
HETATM   25  C   UNL     1      -9.275   4.226 -34.174  1.00  0.00     0.210 C 
ENDBRANCH  15  24
ENDBRANCH   8  14
BRANCH  12  26
HETATM   26  N   UNL     1      -2.166   6.440 -32.199  1.00  0.00    -0.282 NA
HETATM   27  H   UNL     1      -1.591   5.846 -32.790  1.00  0.00     0.126 HD
HETATM   28  H   UNL     1      -2.219   7.400 -32.529  1.00  0.00     0.126 HD
ENDBRANCH  12  26
TORSDOF 3
ENDMDL
MODEL 8
REMARK VINA RESULT:      -6.9      2.080      3.739
REMARK  3 active torsions:
REMARK  status: ('A' for Active; 'I' for Inactive)
REMARK    1  A    between atoms: C_8  and  C_9 
REMARK    2  A    between atoms: C_10  and  O_11 
REMARK    3  A    between atoms: C_24  and  N_25 
ROOT
HETATM    1  C   UNL     1      -8.242   2.011 -30.751  1.00  0.00     0.073 C 
HETATM    2  C   UNL     1      -7.596   3.311 -30.448  1.00  0.00     0.062 A 
HETATM    3  N   UNL     1      -7.833   3.921 -29.274  1.00  0.00    -0.177 NA
HETATM    4  N   UNL     1      -7.125   5.065 -29.344  1.00  0.00    -0.256 N 
HETATM    5  H   UNL     1      -7.148   5.704 -28.558  1.00  0.00     0.191 HD
HETATM    6  C   UNL     1      -6.466   5.204 -30.521  1.00  0.00     0.175 A 
HETATM    7  C   UNL     1      -6.720   4.075 -31.259  1.00  0.00     0.034 A 
HETATM    8  C   UNL     1      -6.157   3.950 -32.633  1.00  0.00     0.108 A 
HETATM    9  C   UNL     1      -5.248   5.139 -32.948  1.00  0.00     0.067 A 
HETATM   10  C   UNL     1      -4.521   5.112 -34.282  1.00  0.00     0.020 C 
HETATM   11  N   UNL     1      -3.917   5.089 -35.389  1.00  0.00    -0.096 N 
HETATM   12  C   UNL     1      -5.080   6.195 -32.106  1.00  0.00     0.139 A 
HETATM   13  O   UNL     1      -5.722   6.253 -30.854  1.00  0.00    -0.279 OA
ENDROOT
BRANCH   8  14
HETATM   14  C   UNL     1      -5.510   2.566 -32.760  1.00  0.00     0.000 A 
HETATM   15  C   UNL     1      -4.313   2.337 -32.026  1.00  0.00     0.076 A 
HETATM   16  C   UNL     1      -3.702   1.085 -32.044  1.00  0.00     0.038 A 
HETATM   17  C   UNL     1      -4.257   0.044 -32.780  1.00  0.00     0.015 A 
HETATM   18  C   UNL     1      -5.424   0.228 -33.524  1.00  0.00    -0.025 A 
HETATM   19  C   UNL     1      -6.070   1.492 -33.542  1.00  0.00    -0.016 A 
HETATM   20  C   UNL     1      -5.941  -0.862 -34.245  1.00  0.00     0.012 A 
HETATM   21  C   UNL     1      -7.236   1.577 -34.347  1.00  0.00     0.013 A 
HETATM   22  C   UNL     1      -7.743   0.486 -35.061  1.00  0.00     0.001 A 
HETATM   23  C   UNL     1      -7.097  -0.737 -35.006  1.00  0.00     0.001 A 
BRANCH  15  24
HETATM   24  O   UNL     1      -3.819   3.404 -31.318  1.00  0.00    -0.355 OA
HETATM   25  C   UNL     1      -2.442   3.732 -31.472  1.00  0.00     0.210 C 
ENDBRANCH  15  24
ENDBRANCH   8  14
BRANCH  12  26
HETATM   26  N   UNL     1      -4.286   7.293 -32.347  1.00  0.00    -0.282 NA
HETATM   27  H   UNL     1      -4.748   8.196 -32.283  1.00  0.00     0.126 HD
HETATM   28  H   UNL     1      -3.412   7.254 -31.829  1.00  0.00     0.126 HD
ENDBRANCH  12  26
TORSDOF 3
ENDMDL
MODEL 9
REMARK VINA RESULT:      -6.9     16.686     18.731
REMARK  3 active torsions:
REMARK  status: ('A' for Active; 'I' for Inactive)
REMARK    1  A    between atoms: C_8  and  C_9 
REMARK    2  A    between atoms: C_10  and  O_11 
REMARK    3  A    between atoms: C_24  and  N_25 
ROOT
HETATM    1  C   UNL     1      -4.156 -12.795 -36.473  1.00  0.00     0.073 C 
HETATM    2  C   UNL     1      -5.180 -13.688 -35.878  1.00  0.00     0.062 A 
HETATM    3  N   UNL     1      -5.531 -13.540 -34.589  1.00  0.00    -0.177 NA
HETATM    4  N   UNL     1      -6.442 -14.510 -34.378  1.00  0.00    -0.256 N 
HETATM    5  H   UNL     1      -6.858 -14.599 -33.459  1.00  0.00     0.191 HD
HETATM    6  C   UNL     1      -6.664 -15.270 -35.479  1.00  0.00     0.175 A 
HETATM    7  C   UNL     1      -5.886 -14.754 -36.486  1.00  0.00     0.034 A 
HETATM    8  C   UNL     1      -5.886 -15.410 -37.825  1.00  0.00     0.108 A 
HETATM    9  C   UNL     1      -6.904 -16.550 -37.863  1.00  0.00     0.067 A 
HETATM   10  C   UNL     1      -7.091 -17.259 -39.194  1.00  0.00     0.020 C 
HETATM   11  N   UNL     1      -7.246 -17.846 -40.299  1.00  0.00    -0.096 N 
HETATM   12  C   UNL     1      -7.621 -16.948 -36.777  1.00  0.00     0.139 A 
HETATM   13  O   UNL     1      -7.491 -16.309 -35.529  1.00  0.00    -0.279 OA
ENDROOT
BRANCH   8  14
HETATM   14  C   UNL     1      -6.067 -14.320 -38.889  1.00  0.00     0.000 A 
HETATM   15  C   UNL     1      -4.935 -13.998 -39.689  1.00  0.00     0.076 A 
HETATM   16  C   UNL     1      -5.039 -13.063 -40.717  1.00  0.00     0.038 A 
HETATM   17  C   UNL     1      -6.252 -12.432 -40.971  1.00  0.00     0.015 A 
HETATM   18  C   UNL     1      -7.385 -12.710 -40.203  1.00  0.00    -0.025 A 
HETATM   19  C   UNL     1      -7.317 -13.647 -39.140  1.00  0.00    -0.016 A 
HETATM   20  C   UNL     1      -8.585 -12.045 -40.510  1.00  0.00     0.012 A 
HETATM   21  C   UNL     1      -8.519 -13.838 -38.408  1.00  0.00     0.013 A 
HETATM   22  C   UNL     1      -9.709 -13.172 -38.721  1.00  0.00     0.001 A 
HETATM   23  C   UNL     1      -9.743 -12.278 -39.777  1.00  0.00     0.001 A 
BRANCH  15  24
HETATM   24  O   UNL     1      -3.768 -14.658 -39.389  1.00  0.00    -0.355 OA
HETATM   25  C   UNL     1      -2.537 -13.999 -39.662  1.00  0.00     0.210 C 
ENDBRANCH  15  24
ENDBRANCH   8  14
BRANCH  12  26
HETATM   26  N   UNL     1      -8.538 -17.974 -36.755  1.00  0.00    -0.282 NA
HETATM   27  H   UNL     1      -8.156 -18.904 -36.606  1.00  0.00     0.126 HD
HETATM   28  H   UNL     1      -9.331 -17.766 -36.154  1.00  0.00     0.126 HD
ENDBRANCH  12  26
TORSDOF 3
ENDMDL
MODEL 10
REMARK VINA RESULT:      -6.9     16.647     17.825
REMARK  3 active torsions:
REMARK  status: ('A' for Active; 'I' for Inactive)
REMARK    1  A    between atoms: C_8  and  C_9 
REMARK    2  A    between atoms: C_10  and  O_11 
REMARK    3  A    between atoms: C_24  and  N_25 
ROOT
HETATM    1  C   UNL     1      -3.540 -13.682 -35.753  1.00  0.00     0.073 C 
HETATM    2  C   UNL     1      -3.678 -13.132 -37.124  1.00  0.00     0.062 A 
HETATM    3  N   UNL     1      -2.592 -12.695 -37.784  1.00  0.00    -0.177 NA
HETATM    4  N   UNL     1      -3.074 -12.247 -38.959  1.00  0.00    -0.256 N 
HETATM    5  H   UNL     1      -2.428 -11.861 -39.638  1.00  0.00     0.191 HD
HETATM    6  C   UNL     1      -4.420 -12.372 -39.057  1.00  0.00     0.175 A 
HETATM    7  C   UNL     1      -4.853 -12.968 -37.899  1.00  0.00     0.034 A 
HETATM    8  C   UNL     1      -6.310 -13.206 -37.693  1.00  0.00     0.108 A 
HETATM    9  C   UNL     1      -7.098 -12.811 -38.942  1.00  0.00     0.067 A 
HETATM   10  C   UNL     1      -8.594 -13.083 -38.923  1.00  0.00     0.020 C 
HETATM   11  N   UNL     1      -9.834 -13.309 -38.908  1.00  0.00    -0.096 N 
HETATM   12  C   UNL     1      -6.528 -12.233 -40.034  1.00  0.00     0.139 A 
HETATM   13  O   UNL     1      -5.144 -11.979 -40.099  1.00  0.00    -0.279 OA
ENDROOT
BRANCH   8  14
HETATM   14  C   UNL     1      -6.495 -14.652 -37.218  1.00  0.00     0.000 A 
HETATM   15  C   UNL     1      -6.309 -15.682 -38.181  1.00  0.00     0.076 A 
HETATM   16  C   UNL     1      -6.400 -17.022 -37.810  1.00  0.00     0.038 A 
HETATM   17  C   UNL     1      -6.674 -17.368 -36.491  1.00  0.00     0.015 A 
HETATM   18  C   UNL     1      -6.874 -16.389 -35.516  1.00  0.00    -0.025 A 
HETATM   19  C   UNL     1      -6.802 -15.013 -35.856  1.00  0.00    -0.016 A 
HETATM   20  C   UNL     1      -7.142 -16.798 -34.198  1.00  0.00     0.012 A 
HETATM   21  C   UNL     1      -7.043 -14.102 -34.794  1.00  0.00     0.013 A 
HETATM   22  C   UNL     1      -7.310 -14.518 -33.486  1.00  0.00     0.001 A 
HETATM   23  C   UNL     1      -7.355 -15.869 -33.186  1.00  0.00     0.001 A 
BRANCH  15  24
HETATM   24  O   UNL     1      -6.039 -15.275 -39.465  1.00  0.00    -0.355 OA
HETATM   25  C   UNL     1      -4.957 -15.896 -40.151  1.00  0.00     0.210 C 
ENDBRANCH  15  24
ENDBRANCH   8  14
BRANCH  12  26
HETATM   26  N   UNL     1      -7.193 -11.849 -41.175  1.00  0.00    -0.282 NA
HETATM   27  H   UNL     1      -8.149 -11.528 -41.043  1.00  0.00     0.126 HD
HETATM   28  H   UNL     1      -6.637 -11.221 -41.750  1.00  0.00     0.126 HD
ENDBRANCH  12  26
TORSDOF 3
ENDMDL
