MODEL 1
REMARK VINA RESULT:      -7.7      0.000      0.000
REMARK  5 active torsions:
REMARK  status: ('A' for Active; 'I' for Inactive)
REMARK    1  A    between atoms: C_6  and  N_7 
REMARK       I    between atoms: N_7  and  C_8 
REMARK    2  A    between atoms: C_8  and  C_9 
REMARK    3  A    between atoms: C_9  and  O_10 
REMARK    4  A    between atoms: O_10  and  C_11 
REMARK    5  A    between atoms: C_18  and  C_19 
ROOT
HETATM    1  C   UNL     1      -6.782  -1.805 -34.476  1.00  0.00     0.073 C 
HETATM    2  C   UNL     1      -6.641  -0.985 -33.247  1.00  0.00     0.065 A 
HETATM    3  N   UNL     1      -5.521  -1.062 -32.517  1.00  0.00    -0.177 NA
HETATM    4  N   UNL     1      -5.713  -0.171 -31.529  1.00  0.00    -0.262 N 
HETATM    5  H   UNL     1      -4.984  -0.064 -30.829  1.00  0.00     0.191 HD
HETATM    6  C   UNL     1      -6.923   0.471 -31.590  1.00  0.00     0.137 A 
HETATM    7  C   UNL     1      -7.558  -0.046 -32.703  1.00  0.00     0.046 A 
ENDROOT
BRANCH   6   8
HETATM    8  N   UNL     1      -7.391   1.383 -30.667  1.00  0.00    -0.309 N 
HETATM    9  C   UNL     1      -6.974   2.673 -30.466  1.00  0.00     0.247 C 
HETATM   10  O   UNL     1      -7.337   3.268 -29.448  1.00  0.00    -0.271 OA
HETATM   11  H   UNL     1      -8.163   1.103 -30.072  1.00  0.00     0.170 HD
BRANCH   9  12
HETATM   12  C   UNL     1      -6.234   3.399 -31.584  1.00  0.00     0.278 C 
BRANCH  12  13
HETATM   13  O   UNL     1      -4.921   2.894 -31.806  1.00  0.00    -0.342 OA
BRANCH  13  14
HETATM   14  C   UNL     1      -4.273   3.658 -32.745  1.00  0.00     0.069 A 
HETATM   15  C   UNL     1      -5.050   4.261 -33.731  1.00  0.00     0.037 A 
HETATM   16  C   UNL     1      -4.434   5.016 -34.730  1.00  0.00     0.003 A 
HETATM   17  C   UNL     1      -3.048   5.179 -34.730  1.00  0.00     0.000 A 
HETATM   18  C   UNL     1      -2.278   4.606 -33.719  1.00  0.00     0.003 A 
HETATM   19  C   UNL     1      -2.890   3.854 -32.717  1.00  0.00     0.037 A 
ENDBRANCH  13  14
ENDBRANCH  12  13
ENDBRANCH   9  12
ENDBRANCH   6   8
BRANCH   7  20
HETATM   20  C   UNL     1      -8.776   0.510 -33.256  1.00  0.00    -0.020 A 
HETATM   21  C   UNL     1      -8.691   1.660 -34.056  1.00  0.00     0.014 A 
HETATM   22  C   UNL     1      -9.850   2.283 -34.521  1.00  0.00     0.020 A 
HETATM   23  C   UNL     1     -11.095   1.752 -34.189  1.00  0.00     0.011 A 
HETATM   24 BR   UNL     1     -12.666   2.617 -34.786  1.00  0.00    -0.051 Br
HETATM   25  C   UNL     1     -11.190   0.597 -33.411  1.00  0.00     0.020 A 
HETATM   26  C   UNL     1     -10.028  -0.027 -32.947  1.00  0.00     0.014 A 
ENDBRANCH   7  20
TORSDOF 5
ENDMDL
MODEL 2
REMARK VINA RESULT:      -7.7      3.487      6.043
REMARK  5 active torsions:
REMARK  status: ('A' for Active; 'I' for Inactive)
REMARK    1  A    between atoms: C_6  and  N_7 
REMARK       I    between atoms: N_7  and  C_8 
REMARK    2  A    between atoms: C_8  and  C_9 
REMARK    3  A    between atoms: C_9  and  O_10 
REMARK    4  A    between atoms: O_10  and  C_11 
REMARK    5  A    between atoms: C_18  and  C_19 
ROOT
HETATM    1  C   UNL     1      -6.456   4.039 -29.758  1.00  0.00     0.073 C 
HETATM    2  C   UNL     1      -7.087   3.321 -30.894  1.00  0.00     0.065 A 
HETATM    3  N   UNL     1      -8.325   2.828 -30.766  1.00  0.00    -0.177 NA
HETATM    4  N   UNL     1      -8.592   2.299 -31.973  1.00  0.00    -0.262 N 
HETATM    5  H   UNL     1      -9.491   1.845 -32.111  1.00  0.00     0.191 HD
HETATM    6  C   UNL     1      -7.565   2.424 -32.872  1.00  0.00     0.137 A 
HETATM    7  C   UNL     1      -6.560   3.086 -32.191  1.00  0.00     0.046 A 
ENDROOT
BRANCH   6   8
HETATM    8  N   UNL     1      -7.558   1.915 -34.154  1.00  0.00    -0.309 N 
HETATM    9  C   UNL     1      -7.327   0.625 -34.550  1.00  0.00     0.247 C 
HETATM   10  O   UNL     1      -7.129   0.391 -35.745  1.00  0.00    -0.271 OA
HETATM   11  H   UNL     1      -7.782   2.546 -34.916  1.00  0.00     0.170 HD
BRANCH   9  12
HETATM   12  C   UNL     1      -7.507  -0.507 -33.544  1.00  0.00     0.278 C 
BRANCH  12  13
HETATM   13  O   UNL     1      -6.413  -1.419 -33.527  1.00  0.00    -0.342 OA
BRANCH  13  14
HETATM   14  C   UNL     1      -5.410  -0.939 -32.722  1.00  0.00     0.069 A 
HETATM   15  C   UNL     1      -4.112  -0.966 -33.226  1.00  0.00     0.037 A 
HETATM   16  C   UNL     1      -3.053  -0.525 -32.433  1.00  0.00     0.003 A 
HETATM   17  C   UNL     1      -3.296  -0.044 -31.146  1.00  0.00     0.000 A 
HETATM   18  C   UNL     1      -4.601   0.018 -30.658  1.00  0.00     0.003 A 
HETATM   19  C   UNL     1      -5.663  -0.418 -31.450  1.00  0.00     0.037 A 
ENDBRANCH  13  14
ENDBRANCH  12  13
ENDBRANCH   9  12
ENDBRANCH   6   8
BRANCH   7  20
HETATM   20  C   UNL     1      -5.373   3.610 -32.835  1.00  0.00    -0.020 A 
HETATM   21  C   UNL     1      -4.116   3.159 -32.405  1.00  0.00     0.014 A 
HETATM   22  C   UNL     1      -2.949   3.717 -32.929  1.00  0.00     0.020 A 
HETATM   23  C   UNL     1      -3.040   4.724 -33.888  1.00  0.00     0.011 A 
HETATM   24 BR   UNL     1      -1.461   5.508 -34.570  1.00  0.00    -0.051 Br
HETATM   25  C   UNL     1      -4.285   5.166 -34.337  1.00  0.00     0.020 A 
HETATM   26  C   UNL     1      -5.454   4.606 -33.812  1.00  0.00     0.014 A 
ENDBRANCH   7  20
TORSDOF 5
ENDMDL
MODEL 3
REMARK VINA RESULT:      -7.6      2.848      5.486
REMARK  5 active torsions:
REMARK  status: ('A' for Active; 'I' for Inactive)
REMARK    1  A    between atoms: C_6  and  N_7 
REMARK       I    between atoms: N_7  and  C_8 
REMARK    2  A    between atoms: C_8  and  C_9 
REMARK    3  A    between atoms: C_9  and  O_10 
REMARK    4  A    between atoms: O_10  and  C_11 
REMARK    5  A    between atoms: C_18  and  C_19 
ROOT
HETATM    1  C   UNL     1      -4.720  -0.431 -32.824  1.00  0.00     0.073 C 
HETATM    2  C   UNL     1      -5.433   0.291 -31.741  1.00  0.00     0.065 A 
HETATM    3  N   UNL     1      -6.159  -0.394 -30.848  1.00  0.00    -0.177 NA
HETATM    4  N   UNL     1      -6.613   0.549 -30.005  1.00  0.00    -0.262 N 
HETATM    5  H   UNL     1      -7.212   0.259 -29.236  1.00  0.00     0.191 HD
HETATM    6  C   UNL     1      -6.215   1.820 -30.328  1.00  0.00     0.137 A 
HETATM    7  C   UNL     1      -5.444   1.685 -31.467  1.00  0.00     0.046 A 
ENDROOT
BRANCH   6   8
HETATM    8  N   UNL     1      -6.592   2.969 -29.665  1.00  0.00    -0.309 N 
HETATM    9  C   UNL     1      -7.734   3.706 -29.832  1.00  0.00     0.247 C 
HETATM   10  O   UNL     1      -7.803   4.829 -29.324  1.00  0.00    -0.271 OA
HETATM   11  H   UNL     1      -5.982   3.316 -28.933  1.00  0.00     0.170 HD
BRANCH   9  12
HETATM   12  C   UNL     1      -8.955   3.054 -30.472  1.00  0.00     0.278 C 
BRANCH  12  13
HETATM   13  O   UNL     1      -9.110   3.389 -31.847  1.00  0.00    -0.342 OA
BRANCH  13  14
HETATM   14  C   UNL     1      -8.867   2.290 -32.633  1.00  0.00     0.069 A 
HETATM   15  C   UNL     1      -9.333   1.059 -32.178  1.00  0.00     0.037 A 
HETATM   16  C   UNL     1      -9.078  -0.094 -32.922  1.00  0.00     0.003 A 
HETATM   17  C   UNL     1      -8.374  -0.009 -34.124  1.00  0.00     0.000 A 
HETATM   18  C   UNL     1      -7.943   1.230 -34.595  1.00  0.00     0.003 A 
HETATM   19  C   UNL     1      -8.199   2.385 -33.856  1.00  0.00     0.037 A 
ENDBRANCH  13  14
ENDBRANCH  12  13
ENDBRANCH   9  12
ENDBRANCH   6   8
BRANCH   7  20
HETATM   20  C   UNL     1      -4.649   2.760 -32.025  1.00  0.00    -0.020 A 
HETATM   21  C   UNL     1      -5.214   3.571 -33.021  1.00  0.00     0.014 A 
HETATM   22  C   UNL     1      -4.445   4.549 -33.653  1.00  0.00     0.020 A 
HETATM   23  C   UNL     1      -3.112   4.718 -33.286  1.00  0.00     0.011 A 
HETATM   24 BR   UNL     1      -2.059   6.016 -34.169  1.00  0.00    -0.051 Br
HETATM   25  C   UNL     1      -2.546   3.930 -32.283  1.00  0.00     0.020 A 
HETATM   26  C   UNL     1      -3.317   2.951 -31.648  1.00  0.00     0.014 A 
ENDBRANCH   7  20
TORSDOF 5
ENDMDL
MODEL 4
REMARK VINA RESULT:      -7.5      3.924      6.864
REMARK  5 active torsions:
REMARK  status: ('A' for Active; 'I' for Inactive)
REMARK    1  A    between atoms: C_6  and  N_7 
REMARK       I    between atoms: N_7  and  C_8 
REMARK    2  A    between atoms: C_8  and  C_9 
REMARK    3  A    between atoms: C_9  and  O_10 
REMARK    4  A    between atoms: O_10  and  C_11 
REMARK    5  A    between atoms: C_18  and  C_19 
ROOT
HETATM    1  C   UNL     1      -7.372   4.752 -31.017  1.00  0.00     0.073 C 
HETATM    2  C   UNL     1      -6.766   3.427 -30.735  1.00  0.00     0.065 A 
HETATM    3  N   UNL     1      -7.479   2.488 -30.100  1.00  0.00    -0.177 NA
HETATM    4  N   UNL     1      -6.656   1.426 -30.058  1.00  0.00    -0.262 N 
HETATM    5  H   UNL     1      -6.986   0.580 -29.599  1.00  0.00     0.191 HD
HETATM    6  C   UNL     1      -5.433   1.650 -30.632  1.00  0.00     0.137 A 
HETATM    7  C   UNL     1      -5.471   2.957 -31.081  1.00  0.00     0.046 A 
ENDROOT
BRANCH   6   8
HETATM    8  N   UNL     1      -4.389   0.749 -30.667  1.00  0.00    -0.309 N 
HETATM    9  C   UNL     1      -4.158  -0.243 -31.583  1.00  0.00     0.247 C 
HETATM   10  O   UNL     1      -3.309  -1.103 -31.334  1.00  0.00    -0.271 OA
HETATM   11  H   UNL     1      -3.669   0.829 -29.957  1.00  0.00     0.170 HD
BRANCH   9  12
HETATM   12  C   UNL     1      -4.813  -0.156 -32.957  1.00  0.00     0.278 C 
BRANCH  12  13
HETATM   13  O   UNL     1      -4.196  -0.998 -33.925  1.00  0.00    -0.342 OA
BRANCH  13  14
HETATM   14  C   UNL     1      -4.993  -2.087 -34.181  1.00  0.00     0.069 A 
HETATM   15  C   UNL     1      -4.366  -3.322 -34.329  1.00  0.00     0.037 A 
HETATM   16  C   UNL     1      -5.128  -4.452 -34.627  1.00  0.00     0.003 A 
HETATM   17  C   UNL     1      -6.513  -4.347 -34.760  1.00  0.00     0.000 A 
HETATM   18  C   UNL     1      -7.141  -3.116 -34.573  1.00  0.00     0.003 A 
HETATM   19  C   UNL     1      -6.384  -1.986 -34.271  1.00  0.00     0.037 A 
ENDBRANCH  13  14
ENDBRANCH  12  13
ENDBRANCH   9  12
ENDBRANCH   6   8
BRANCH   7  20
HETATM   20  C   UNL     1      -4.458   3.535 -31.939  1.00  0.00    -0.020 A 
HETATM   21  C   UNL     1      -3.179   3.770 -31.412  1.00  0.00     0.014 A 
HETATM   22  C   UNL     1      -2.208   4.419 -32.176  1.00  0.00     0.020 A 
HETATM   23  C   UNL     1      -2.517   4.831 -33.471  1.00  0.00     0.011 A 
HETATM   24 BR   UNL     1      -1.216   5.746 -34.493  1.00  0.00    -0.051 Br
HETATM   25  C   UNL     1      -3.780   4.586 -34.012  1.00  0.00     0.020 A 
HETATM   26  C   UNL     1      -4.751   3.933 -33.247  1.00  0.00     0.014 A 
ENDBRANCH   7  20
TORSDOF 5
ENDMDL
MODEL 5
REMARK VINA RESULT:      -7.4      1.565      2.219
REMARK  5 active torsions:
REMARK  status: ('A' for Active; 'I' for Inactive)
REMARK    1  A    between atoms: C_6  and  N_7 
REMARK       I    between atoms: N_7  and  C_8 
REMARK    2  A    between atoms: C_8  and  C_9 
REMARK    3  A    between atoms: C_9  and  O_10 
REMARK    4  A    between atoms: O_10  and  C_11 
REMARK    5  A    between atoms: C_18  and  C_19 
ROOT
HETATM    1  C   UNL     1      -5.710  -2.339 -34.825  1.00  0.00     0.073 C 
HETATM    2  C   UNL     1      -5.300  -1.324 -33.823  1.00  0.00     0.065 A 
HETATM    3  N   UNL     1      -4.012  -1.215 -33.471  1.00  0.00    -0.177 NA
HETATM    4  N   UNL     1      -3.997  -0.188 -32.604  1.00  0.00    -0.262 N 
HETATM    5  H   UNL     1      -3.108   0.073 -32.184  1.00  0.00     0.191 HD
HETATM    6  C   UNL     1      -5.231   0.362 -32.374  1.00  0.00     0.137 A 
HETATM    7  C   UNL     1      -6.109  -0.365 -33.156  1.00  0.00     0.046 A 
ENDROOT
BRANCH   6   8
HETATM    8  N   UNL     1      -5.498   1.382 -31.485  1.00  0.00    -0.309 N 
HETATM    9  C   UNL     1      -4.799   2.546 -31.298  1.00  0.00     0.247 C 
HETATM   10  O   UNL     1      -5.042   3.236 -30.304  1.00  0.00    -0.271 OA
HETATM   11  H   UNL     1      -6.329   1.304 -30.909  1.00  0.00     0.170 HD
BRANCH   9  12
HETATM   12  C   UNL     1      -3.883   3.052 -32.407  1.00  0.00     0.278 C 
BRANCH  12  13
HETATM   13  O   UNL     1      -2.545   3.267 -31.971  1.00  0.00    -0.342 OA
BRANCH  13  14
HETATM   14  C   UNL     1      -2.038   4.406 -32.546  1.00  0.00     0.069 A 
HETATM   15  C   UNL     1      -1.297   5.261 -31.733  1.00  0.00     0.037 A 
HETATM   16  C   UNL     1      -0.792   6.450 -32.259  1.00  0.00     0.003 A 
HETATM   17  C   UNL     1      -1.013   6.772 -33.599  1.00  0.00     0.000 A 
HETATM   18  C   UNL     1      -1.722   5.895 -34.420  1.00  0.00     0.003 A 
HETATM   19  C   UNL     1      -2.225   4.704 -33.898  1.00  0.00     0.037 A 
ENDBRANCH  13  14
ENDBRANCH  12  13
ENDBRANCH   9  12
ENDBRANCH   6   8
BRANCH   7  20
HETATM   20  C   UNL     1      -7.487   0.020 -33.377  1.00  0.00    -0.020 A 
HETATM   21  C   UNL     1      -7.780   0.919 -34.414  1.00  0.00     0.014 A 
HETATM   22  C   UNL     1      -9.081   1.392 -34.591  1.00  0.00     0.020 A 
HETATM   23  C   UNL     1     -10.090   0.963 -33.732  1.00  0.00     0.011 A 
HETATM   24 BR   UNL     1     -11.844   1.634 -33.947  1.00  0.00    -0.051 Br
HETATM   25  C   UNL     1      -9.814   0.055 -32.709  1.00  0.00     0.020 A 
HETATM   26  C   UNL     1      -8.511  -0.420 -32.533  1.00  0.00     0.014 A 
ENDBRANCH   7  20
TORSDOF 5
ENDMDL
MODEL 6
REMARK VINA RESULT:      -7.4      3.358      4.883
REMARK  5 active torsions:
REMARK  status: ('A' for Active; 'I' for Inactive)
REMARK    1  A    between atoms: C_6  and  N_7 
REMARK       I    between atoms: N_7  and  C_8 
REMARK    2  A    between atoms: C_8  and  C_9 
REMARK    3  A    between atoms: C_9  and  O_10 
REMARK    4  A    between atoms: O_10  and  C_11 
REMARK    5  A    between atoms: C_18  and  C_19 
ROOT
HETATM    1  C   UNL     1      -8.947   2.140 -31.231  1.00  0.00     0.073 C 
HETATM    2  C   UNL     1      -8.094   3.065 -32.017  1.00  0.00     0.065 A 
HETATM    3  N   UNL     1      -8.094   4.374 -31.738  1.00  0.00    -0.177 NA
HETATM    4  N   UNL     1      -7.193   4.890 -32.592  1.00  0.00    -0.262 N 
HETATM    5  H   UNL     1      -7.031   5.894 -32.572  1.00  0.00     0.191 HD
HETATM    6  C   UNL     1      -6.619   3.961 -33.421  1.00  0.00     0.137 A 
HETATM    7  C   UNL     1      -7.195   2.754 -33.072  1.00  0.00     0.046 A 
ENDROOT
BRANCH   6   8
HETATM    8  N   UNL     1      -5.714   4.236 -34.425  1.00  0.00    -0.309 N 
HETATM    9  C   UNL     1      -4.539   4.934 -34.336  1.00  0.00     0.247 C 
HETATM   10  O   UNL     1      -3.970   5.284 -35.373  1.00  0.00    -0.271 OA
HETATM   11  H   UNL     1      -5.900   3.858 -35.347  1.00  0.00     0.170 HD
BRANCH   9  12
HETATM   12  C   UNL     1      -3.868   5.094 -32.975  1.00  0.00     0.278 C 
BRANCH  12  13
HETATM   13  O   UNL     1      -2.652   4.363 -32.862  1.00  0.00    -0.342 OA
BRANCH  13  14
HETATM   14  C   UNL     1      -1.677   5.149 -32.301  1.00  0.00     0.069 A 
HETATM   15  C   UNL     1      -1.095   4.705 -31.116  1.00  0.00     0.037 A 
HETATM   16  C   UNL     1      -0.125   5.487 -30.487  1.00  0.00     0.003 A 
HETATM   17  C   UNL     1       0.270   6.700 -31.051  1.00  0.00     0.000 A 
HETATM   18  C   UNL     1      -0.288   7.123 -32.258  1.00  0.00     0.003 A 
HETATM   19  C   UNL     1      -1.254   6.343 -32.892  1.00  0.00     0.037 A 
ENDBRANCH  13  14
ENDBRANCH  12  13
ENDBRANCH   9  12
ENDBRANCH   6   8
BRANCH   7  20
HETATM   20  C   UNL     1      -6.718   1.474 -33.557  1.00  0.00    -0.020 A 
HETATM   21  C   UNL     1      -7.417   0.844 -34.598  1.00  0.00     0.014 A 
HETATM   22  C   UNL     1      -7.050  -0.434 -35.021  1.00  0.00     0.020 A 
HETATM   23  C   UNL     1      -5.980  -1.080 -34.404  1.00  0.00     0.011 A 
HETATM   24 BR   UNL     1      -5.507  -2.827 -34.949  1.00  0.00    -0.051 Br
HETATM   25  C   UNL     1      -5.266  -0.454 -33.381  1.00  0.00     0.020 A 
HETATM   26  C   UNL     1      -5.633   0.827 -32.959  1.00  0.00     0.014 A 
ENDBRANCH   7  20
TORSDOF 5
ENDMDL
MODEL 7
REMARK VINA RESULT:      -7.4      4.628      8.267
REMARK  5 active torsions:
REMARK  status: ('A' for Active; 'I' for Inactive)
REMARK    1  A    between atoms: C_6  and  N_7 
REMARK       I    between atoms: N_7  and  C_8 
REMARK    2  A    between atoms: C_8  and  C_9 
REMARK    3  A    between atoms: C_9  and  O_10 
REMARK    4  A    between atoms: O_10  and  C_11 
REMARK    5  A    between atoms: C_18  and  C_19 
ROOT
HETATM    1  C   UNL     1      -1.115   6.506 -34.003  1.00  0.00     0.073 C 
HETATM    2  C   UNL     1      -2.112   5.596 -33.387  1.00  0.00     0.065 A 
HETATM    3  N   UNL     1      -2.932   4.878 -34.166  1.00  0.00    -0.177 NA
HETATM    4  N   UNL     1      -3.651   4.147 -33.297  1.00  0.00    -0.262 N 
HETATM    5  H   UNL     1      -4.363   3.523 -33.668  1.00  0.00     0.191 HD
HETATM    6  C   UNL     1      -3.332   4.375 -31.984  1.00  0.00     0.137 A 
HETATM    7  C   UNL     1      -2.329   5.326 -32.009  1.00  0.00     0.046 A 
ENDROOT
BRANCH   6   8
HETATM    8  N   UNL     1      -3.960   3.802 -30.898  1.00  0.00    -0.309 N 
HETATM    9  C   UNL     1      -4.650   2.620 -30.847  1.00  0.00     0.247 C 
HETATM   10  O   UNL     1      -5.343   2.373 -29.856  1.00  0.00    -0.271 OA
HETATM   11  H   UNL     1      -3.889   4.276 -30.004  1.00  0.00     0.170 HD
BRANCH   9  12
HETATM   12  C   UNL     1      -4.399   1.563 -31.917  1.00  0.00     0.278 C 
BRANCH  12  13
HETATM   13  O   UNL     1      -5.343   1.609 -32.981  1.00  0.00    -0.342 OA
BRANCH  13  14
HETATM   14  C   UNL     1      -5.552   0.349 -33.485  1.00  0.00     0.069 A 
HETATM   15  C   UNL     1      -4.540  -0.591 -33.305  1.00  0.00     0.037 A 
HETATM   16  C   UNL     1      -4.688  -1.875 -33.830  1.00  0.00     0.003 A 
HETATM   17  C   UNL     1      -5.852  -2.219 -34.519  1.00  0.00     0.000 A 
HETATM   18  C   UNL     1      -6.879  -1.287 -34.663  1.00  0.00     0.003 A 
HETATM   19  C   UNL     1      -6.736  -0.005 -34.135  1.00  0.00     0.037 A 
ENDBRANCH  13  14
ENDBRANCH  12  13
ENDBRANCH   9  12
ENDBRANCH   6   8
BRANCH   7  20
HETATM   20  C   UNL     1      -1.554   5.699 -30.844  1.00  0.00    -0.020 A 
HETATM   21  C   UNL     1      -1.994   6.774 -30.057  1.00  0.00     0.014 A 
HETATM   22  C   UNL     1      -1.221   7.228 -28.987  1.00  0.00     0.020 A 
HETATM   23  C   UNL     1      -0.009   6.602 -28.703  1.00  0.00     0.011 A 
HETATM   24 BR   UNL     1       1.059   7.241 -27.279  1.00  0.00    -0.051 Br
HETATM   25  C   UNL     1       0.429   5.519 -29.467  1.00  0.00     0.020 A 
HETATM   26  C   UNL     1      -0.347   5.065 -30.538  1.00  0.00     0.014 A 
ENDBRANCH   7  20
TORSDOF 5
ENDMDL
MODEL 8
REMARK VINA RESULT:      -7.4      2.352      5.138
REMARK  5 active torsions:
REMARK  status: ('A' for Active; 'I' for Inactive)
REMARK    1  A    between atoms: C_6  and  N_7 
REMARK       I    between atoms: N_7  and  C_8 
REMARK    2  A    between atoms: C_8  and  C_9 
REMARK    3  A    between atoms: C_9  and  O_10 
REMARK    4  A    between atoms: O_10  and  C_11 
REMARK    5  A    between atoms: C_18  and  C_19 
ROOT
HETATM    1  C   UNL     1      -4.861   4.867 -34.578  1.00  0.00     0.073 C 
HETATM    2  C   UNL     1      -4.763   3.947 -33.418  1.00  0.00     0.065 A 
HETATM    3  N   UNL     1      -3.704   4.013 -32.601  1.00  0.00    -0.177 NA
HETATM    4  N   UNL     1      -3.962   3.092 -31.657  1.00  0.00    -0.262 N 
HETATM    5  H   UNL     1      -3.275   2.952 -30.921  1.00  0.00     0.191 HD
HETATM    6  C   UNL     1      -5.145   2.426 -31.841  1.00  0.00     0.137 A 
HETATM    7  C   UNL     1      -5.692   2.960 -32.993  1.00  0.00     0.046 A 
ENDROOT
BRANCH   6   8
HETATM    8  N   UNL     1      -5.615   1.396 -31.053  1.00  0.00    -0.309 N 
HETATM    9  C   UNL     1      -5.589   0.052 -31.315  1.00  0.00     0.247 C 
HETATM   10  O   UNL     1      -6.258  -0.709 -30.611  1.00  0.00    -0.271 OA
HETATM   11  H   UNL     1      -6.001   1.631 -30.146  1.00  0.00     0.170 HD
BRANCH   9  12
HETATM   12  C   UNL     1      -4.596  -0.489 -32.339  1.00  0.00     0.278 C 
BRANCH  12  13
HETATM   13  O   UNL     1      -5.138  -0.573 -33.653  1.00  0.00    -0.342 OA
BRANCH  13  14
HETATM   14  C   UNL     1      -5.305  -1.887 -34.013  1.00  0.00     0.069 A 
HETATM   15  C   UNL     1      -6.555  -2.267 -34.497  1.00  0.00     0.037 A 
HETATM   16  C   UNL     1      -6.786  -3.599 -34.841  1.00  0.00     0.003 A 
HETATM   17  C   UNL     1      -5.765  -4.542 -34.717  1.00  0.00     0.000 A 
HETATM   18  C   UNL     1      -4.504  -4.150 -34.269  1.00  0.00     0.003 A 
HETATM   19  C   UNL     1      -4.268  -2.819 -33.928  1.00  0.00     0.037 A 
ENDBRANCH  13  14
ENDBRANCH  12  13
ENDBRANCH   9  12
ENDBRANCH   6   8
BRANCH   7  20
HETATM   20  C   UNL     1      -7.045   2.689 -33.434  1.00  0.00    -0.020 A 
HETATM   21  C   UNL     1      -8.086   3.501 -32.957  1.00  0.00     0.014 A 
HETATM   22  C   UNL     1      -9.412   3.207 -33.278  1.00  0.00     0.020 A 
HETATM   23  C   UNL     1      -9.696   2.104 -34.079  1.00  0.00     0.011 A 
HETATM   24 BR   UNL     1     -11.495   1.682 -34.482  1.00  0.00    -0.051 Br
HETATM   25  C   UNL     1      -8.667   1.301 -34.575  1.00  0.00     0.020 A 
HETATM   26  C   UNL     1      -7.339   1.597 -34.255  1.00  0.00     0.014 A 
ENDBRANCH   7  20
TORSDOF 5
ENDMDL
MODEL 9
REMARK VINA RESULT:      -7.4      2.528      5.203
REMARK  5 active torsions:
REMARK  status: ('A' for Active; 'I' for Inactive)
REMARK    1  A    between atoms: C_6  and  N_7 
REMARK       I    between atoms: N_7  and  C_8 
REMARK    2  A    between atoms: C_8  and  C_9 
REMARK    3  A    between atoms: C_9  and  O_10 
REMARK    4  A    between atoms: O_10  and  C_11 
REMARK    5  A    between atoms: C_18  and  C_19 
ROOT
HETATM    1  C   UNL     1      -2.843   5.219 -34.391  1.00  0.00     0.073 C 
HETATM    2  C   UNL     1      -3.047   4.496 -33.111  1.00  0.00     0.065 A 
HETATM    3  N   UNL     1      -1.993   4.175 -32.350  1.00  0.00    -0.177 NA
HETATM    4  N   UNL     1      -2.537   3.587 -31.271  1.00  0.00    -0.262 N 
HETATM    5  H   UNL     1      -1.913   3.240 -30.546  1.00  0.00     0.191 HD
HETATM    6  C   UNL     1      -3.904   3.507 -31.313  1.00  0.00     0.137 A 
HETATM    7  C   UNL     1      -4.270   4.090 -32.512  1.00  0.00     0.046 A 
ENDROOT
BRANCH   6   8
HETATM    8  N   UNL     1      -4.700   2.897 -30.365  1.00  0.00    -0.309 N 
HETATM    9  C   UNL     1      -5.342   1.690 -30.449  1.00  0.00     0.247 C 
HETATM   10  O   UNL     1      -6.196   1.406 -29.606  1.00  0.00    -0.271 OA
HETATM   11  H   UNL     1      -4.813   3.362 -29.471  1.00  0.00     0.170 HD
BRANCH   9  12
HETATM   12  C   UNL     1      -4.856   0.657 -31.461  1.00  0.00     0.278 C 
BRANCH  12  13
HETATM   13  O   UNL     1      -5.747  -0.444 -31.606  1.00  0.00    -0.342 OA
BRANCH  13  14
HETATM   14  C   UNL     1      -6.557  -0.257 -32.699  1.00  0.00     0.069 A 
HETATM   15  C   UNL     1      -5.988  -0.435 -33.958  1.00  0.00     0.037 A 
HETATM   16  C   UNL     1      -6.759  -0.221 -35.101  1.00  0.00     0.003 A 
HETATM   17  C   UNL     1      -8.097   0.154 -34.982  1.00  0.00     0.000 A 
HETATM   18  C   UNL     1      -8.674   0.294 -33.720  1.00  0.00     0.003 A 
HETATM   19  C   UNL     1      -7.907   0.076 -32.575  1.00  0.00     0.037 A 
ENDBRANCH  13  14
ENDBRANCH  12  13
ENDBRANCH   9  12
ENDBRANCH   6   8
BRANCH   7  20
HETATM   20  C   UNL     1      -5.639   4.405 -32.861  1.00  0.00    -0.020 A 
HETATM   21  C   UNL     1      -6.383   3.468 -33.594  1.00  0.00     0.014 A 
HETATM   22  C   UNL     1      -7.670   3.778 -34.036  1.00  0.00     0.020 A 
HETATM   23  C   UNL     1      -8.214   5.027 -33.741  1.00  0.00     0.011 A 
HETATM   24 BR   UNL     1      -9.941   5.463 -34.374  1.00  0.00    -0.051 Br
HETATM   25  C   UNL     1      -7.491   5.959 -32.996  1.00  0.00     0.020 A 
HETATM   26  C   UNL     1      -6.203   5.647 -32.552  1.00  0.00     0.014 A 
ENDBRANCH   7  20
TORSDOF 5
ENDMDL
MODEL 10
REMARK VINA RESULT:      -7.2     15.722     17.226
REMARK  5 active torsions:
REMARK  status: ('A' for Active; 'I' for Inactive)
REMARK    1  A    between atoms: C_6  and  N_7 
REMARK       I    between atoms: N_7  and  C_8 
REMARK    2  A    between atoms: C_8  and  C_9 
REMARK    3  A    between atoms: C_9  and  O_10 
REMARK    4  A    between atoms: O_10  and  C_11 
REMARK    5  A    between atoms: C_18  and  C_19 
ROOT
HETATM    1  C   UNL     1      -7.228 -16.090 -34.223  1.00  0.00     0.073 C 
HETATM    2  C   UNL     1      -6.208 -15.108 -34.666  1.00  0.00     0.065 A 
HETATM    3  N   UNL     1      -5.066 -14.975 -33.978  1.00  0.00    -0.177 NA
HETATM    4  N   UNL     1      -4.373 -14.056 -34.673  1.00  0.00    -0.262 N 
HETATM    5  H   UNL     1      -3.459 -13.778 -34.323  1.00  0.00     0.191 HD
HETATM    6  C   UNL     1      -5.030 -13.584 -35.778  1.00  0.00     0.137 A 
HETATM    7  C   UNL     1      -6.241 -14.251 -35.798  1.00  0.00     0.046 A 
ENDROOT
BRANCH   6   8
HETATM    8  N   UNL     1      -4.567 -12.596 -36.622  1.00  0.00    -0.309 N 
HETATM    9  C   UNL     1      -3.616 -12.699 -37.603  1.00  0.00     0.247 C 
HETATM   10  O   UNL     1      -3.158 -11.669 -38.104  1.00  0.00    -0.271 OA
HETATM   11  H   UNL     1      -4.990 -11.677 -36.555  1.00  0.00     0.170 HD
BRANCH   9  12
HETATM   12  C   UNL     1      -3.287 -14.072 -38.181  1.00  0.00     0.278 C 
BRANCH  12  13
HETATM   13  O   UNL     1      -3.103 -14.055 -39.592  1.00  0.00    -0.342 OA
BRANCH  13  14
HETATM   14  C   UNL     1      -4.309 -14.213 -40.229  1.00  0.00     0.069 A 
HETATM   15  C   UNL     1      -4.927 -15.457 -40.136  1.00  0.00     0.037 A 
HETATM   16  C   UNL     1      -6.136 -15.680 -40.797  1.00  0.00     0.003 A 
HETATM   17  C   UNL     1      -6.729 -14.654 -41.534  1.00  0.00     0.000 A 
HETATM   18  C   UNL     1      -6.127 -13.398 -41.593  1.00  0.00     0.003 A 
HETATM   19  C   UNL     1      -4.921 -13.171 -40.930  1.00  0.00     0.037 A 
ENDBRANCH  13  14
ENDBRANCH  12  13
ENDBRANCH   9  12
ENDBRANCH   6   8
BRANCH   7  20
HETATM   20  C   UNL     1      -7.157 -14.206 -36.919  1.00  0.00    -0.020 A 
HETATM   21  C   UNL     1      -7.474 -12.962 -37.484  1.00  0.00     0.014 A 
HETATM   22  C   UNL     1      -8.430 -12.869 -38.497  1.00  0.00     0.020 A 
HETATM   23  C   UNL     1      -9.066 -14.024 -38.947  1.00  0.00     0.011 A 
HETATM   24 BR   UNL     1     -10.390 -13.896 -40.291  1.00  0.00    -0.051 Br
HETATM   25  C   UNL     1      -8.745 -15.270 -38.406  1.00  0.00     0.020 A 
HETATM   26  C   UNL     1      -7.786 -15.362 -37.392  1.00  0.00     0.014 A 
ENDBRANCH   7  20
TORSDOF 5
ENDMDL
