MODEL 1
REMARK VINA RESULT:      -9.3      0.000      0.000
REMARK  7 active torsions:
REMARK  status: ('A' for Active; 'I' for Inactive)
REMARK    1  A    between atoms: C_3  and  C_4 
REMARK    2  A    between atoms: C_4  and  S_5 
REMARK    3  A    between atoms: S_5  and  C_6 
REMARK    4  A    between atoms: C_6  and  C_7 
REMARK    5  A    between atoms: C_16  and  C_17 
REMARK       I    between atoms: C_17  and  N_18 
REMARK    6  A    between atoms: N_18  and  C_19 
REMARK    7  A    between atoms: C_19  and  C_20 
ROOT
HETATM    1  C   UNL     1      -4.447   0.660 -31.748  1.00  0.00     0.162 C 
HETATM    2  N   UNL     1      -5.746   0.129 -31.267  1.00  0.00    -0.277 NA
HETATM    3  C   UNL     1      -6.828   1.008 -31.468  1.00  0.00     0.036 A 
HETATM    4  C   UNL     1      -6.651   2.400 -31.563  1.00  0.00     0.057 A 
HETATM    5  N   UNL     1      -5.361   2.938 -31.470  1.00  0.00    -0.324 N 
HETATM    6  C   UNL     1      -4.237   2.150 -31.413  1.00  0.00     0.240 C 
HETATM    7  O   UNL     1      -3.134   2.655 -31.215  1.00  0.00    -0.271 OA
HETATM    8  C   UNL     1      -8.127   0.497 -31.431  1.00  0.00     0.027 A 
HETATM    9  C   UNL     1      -9.226   1.346 -31.581  1.00  0.00     0.019 A 
HETATM   10  C   UNL     1      -9.036   2.725 -31.745  1.00  0.00     0.034 A 
HETATM   11  C   UNL     1      -7.743   3.259 -31.702  1.00  0.00     0.048 A 
HETATM   12  H   UNL     1      -5.699  -0.130 -30.281  1.00  0.00     0.128 HD
HETATM   13  H   UNL     1      -5.220   3.935 -31.373  1.00  0.00     0.169 HD
ENDROOT
BRANCH  10  14
HETATM   14  C   UNL     1     -10.238   3.580 -31.953  1.00  0.00     0.252 C 
HETATM   15  N   UNL     1     -10.762   3.594 -33.227  1.00  0.00    -0.353 N 
HETATM   16  H   UNL     1     -10.473   2.872 -33.873  1.00  0.00     0.163 HD
HETATM   17  O   UNL     1     -10.734   4.185 -31.009  1.00  0.00    -0.268 OA
BRANCH  15  18
HETATM   18  C   UNL     1     -12.051   4.195 -33.490  1.00  0.00     0.163 C 
BRANCH  18  19
HETATM   19  C   UNL     1     -13.162   3.178 -33.429  1.00  0.00    -0.019 A 
HETATM   20  C   UNL     1     -14.147   3.180 -32.428  1.00  0.00     0.042 A 
HETATM   21 CL   UNL     1     -14.150   4.355 -31.159  1.00  0.00    -0.084 Cl
HETATM   22  C   UNL     1     -15.160   2.216 -32.419  1.00  0.00     0.024 A 
HETATM   23  C   UNL     1     -15.203   1.237 -33.411  1.00  0.00     0.002 A 
HETATM   24  C   UNL     1     -14.234   1.218 -34.409  1.00  0.00     0.001 A 
HETATM   25  C   UNL     1     -13.220   2.178 -34.417  1.00  0.00     0.010 A 
ENDBRANCH  18  19
ENDBRANCH  15  18
ENDBRANCH  10  14
BRANCH   1  26
HETATM   26  C   UNL     1      -3.263  -0.166 -31.217  1.00  0.00     0.103 C 
BRANCH  26  27
HETATM   27  S   UNL     1      -3.030  -1.814 -31.992  1.00  0.00    -0.162 SA
BRANCH  27  28
HETATM   28  C   UNL     1      -3.727  -1.479 -33.641  1.00  0.00     0.112 C 
BRANCH  28  29
HETATM   29  C   UNL     1      -4.667  -2.573 -34.093  1.00  0.00    -0.043 A 
HETATM   30  C   UNL     1      -5.976  -2.302 -34.551  1.00  0.00    -0.055 A 
HETATM   31  C   UNL     1      -6.523  -0.901 -34.632  1.00  0.00     0.049 C 
HETATM   32  C   UNL     1      -6.781  -3.365 -34.994  1.00  0.00     0.007 A 
HETATM   33  C   UNL     1      -6.318  -4.679 -34.959  1.00  0.00     0.001 A 
HETATM   34  C   UNL     1      -5.040  -4.952 -34.482  1.00  0.00     0.001 A 
HETATM   35  C   UNL     1      -4.222  -3.908 -34.051  1.00  0.00     0.008 A 
ENDBRANCH  28  29
ENDBRANCH  27  28
ENDBRANCH  26  27
ENDBRANCH   1  26
TORSDOF 7
ENDMDL
MODEL 2
REMARK VINA RESULT:      -9.2      5.516      9.858
REMARK  7 active torsions:
REMARK  status: ('A' for Active; 'I' for Inactive)
REMARK    1  A    between atoms: C_3  and  C_4 
REMARK    2  A    between atoms: C_4  and  S_5 
REMARK    3  A    between atoms: S_5  and  C_6 
REMARK    4  A    between atoms: C_6  and  C_7 
REMARK    5  A    between atoms: C_16  and  C_17 
REMARK       I    between atoms: C_17  and  N_18 
REMARK    6  A    between atoms: N_18  and  C_19 
REMARK    7  A    between atoms: C_19  and  C_20 
ROOT
HETATM    1  C   UNL     1      -3.090   5.697 -31.684  1.00  0.00     0.162 C 
HETATM    2  N   UNL     1      -4.043   5.647 -32.820  1.00  0.00    -0.277 NA
HETATM    3  C   UNL     1      -4.675   4.398 -32.976  1.00  0.00     0.036 A 
HETATM    4  C   UNL     1      -4.090   3.203 -32.520  1.00  0.00     0.057 A 
HETATM    5  N   UNL     1      -2.845   3.247 -31.880  1.00  0.00    -0.324 N 
HETATM    6  C   UNL     1      -2.221   4.429 -31.563  1.00  0.00     0.240 C 
HETATM    7  O   UNL     1      -1.079   4.426 -31.106  1.00  0.00    -0.271 OA
HETATM    8  C   UNL     1      -5.850   4.328 -33.726  1.00  0.00     0.027 A 
HETATM    9  C   UNL     1      -6.480   3.099 -33.940  1.00  0.00     0.019 A 
HETATM   10  C   UNL     1      -5.926   1.921 -33.422  1.00  0.00     0.034 A 
HETATM   11  C   UNL     1      -4.706   1.969 -32.738  1.00  0.00     0.048 A 
HETATM   12  H   UNL     1      -3.590   5.909 -33.697  1.00  0.00     0.128 HD
HETATM   13  H   UNL     1      -2.330   2.398 -31.689  1.00  0.00     0.169 HD
ENDROOT
BRANCH  10  14
HETATM   14  C   UNL     1      -6.663   0.644 -33.634  1.00  0.00     0.252 C 
HETATM   15  N   UNL     1      -6.110  -0.234 -34.540  1.00  0.00    -0.353 N 
HETATM   16  H   UNL     1      -5.151  -0.089 -34.825  1.00  0.00     0.163 HD
HETATM   17  O   UNL     1      -7.674   0.401 -32.986  1.00  0.00    -0.268 OA
BRANCH  15  18
HETATM   18  C   UNL     1      -6.603  -1.589 -34.653  1.00  0.00     0.163 C 
BRANCH  18  19
HETATM   19  C   UNL     1      -5.563  -2.596 -34.232  1.00  0.00    -0.019 A 
HETATM   20  C   UNL     1      -5.585  -3.938 -34.648  1.00  0.00     0.042 A 
HETATM   21 CL   UNL     1      -6.835  -4.550 -35.674  1.00  0.00    -0.084 Cl
HETATM   22  C   UNL     1      -4.593  -4.831 -34.232  1.00  0.00     0.024 A 
HETATM   23  C   UNL     1      -3.565  -4.397 -33.396  1.00  0.00     0.002 A 
HETATM   24  C   UNL     1      -3.530  -3.072 -32.973  1.00  0.00     0.001 A 
HETATM   25  C   UNL     1      -4.521  -2.180 -33.384  1.00  0.00     0.010 A 
ENDBRANCH  18  19
ENDBRANCH  15  18
ENDBRANCH  10  14
BRANCH   1  26
HETATM   26  C   UNL     1      -2.188   6.942 -31.752  1.00  0.00     0.103 C 
BRANCH  26  27
HETATM   27  S   UNL     1      -2.575   8.273 -30.549  1.00  0.00    -0.162 SA
BRANCH  27  28
HETATM   28  C   UNL     1      -2.082   7.443 -29.004  1.00  0.00     0.112 C 
BRANCH  28  29
HETATM   29  C   UNL     1      -0.911   8.130 -28.339  1.00  0.00    -0.043 A 
HETATM   30  C   UNL     1       0.360   7.522 -28.235  1.00  0.00    -0.055 A 
HETATM   31  C   UNL     1       0.641   6.150 -28.789  1.00  0.00     0.049 C 
HETATM   32  C   UNL     1       1.414   8.235 -27.639  1.00  0.00     0.007 A 
HETATM   33  C   UNL     1       1.214   9.517 -27.127  1.00  0.00     0.001 A 
HETATM   34  C   UNL     1      -0.043  10.106 -27.203  1.00  0.00     0.001 A 
HETATM   35  C   UNL     1      -1.098   9.418 -27.803  1.00  0.00     0.008 A 
ENDBRANCH  28  29
ENDBRANCH  27  28
ENDBRANCH  26  27
ENDBRANCH   1  26
TORSDOF 7
ENDMDL
MODEL 3
REMARK VINA RESULT:      -9.2      5.294      9.251
REMARK  7 active torsions:
REMARK  status: ('A' for Active; 'I' for Inactive)
REMARK    1  A    between atoms: C_3  and  C_4 
REMARK    2  A    between atoms: C_4  and  S_5 
REMARK    3  A    between atoms: S_5  and  C_6 
REMARK    4  A    between atoms: C_6  and  C_7 
REMARK    5  A    between atoms: C_16  and  C_17 
REMARK       I    between atoms: C_17  and  N_18 
REMARK    6  A    between atoms: N_18  and  C_19 
REMARK    7  A    between atoms: C_19  and  C_20 
ROOT
HETATM    1  C   UNL     1      -6.842   3.233 -33.129  1.00  0.00     0.162 C 
HETATM    2  N   UNL     1      -5.445   2.733 -33.133  1.00  0.00    -0.277 NA
HETATM    3  C   UNL     1      -4.492   3.709 -32.782  1.00  0.00     0.036 A 
HETATM    4  C   UNL     1      -4.728   5.083 -32.968  1.00  0.00     0.057 A 
HETATM    5  N   UNL     1      -5.951   5.505 -33.506  1.00  0.00    -0.324 N 
HETATM    6  C   UNL     1      -6.987   4.637 -33.748  1.00  0.00     0.240 C 
HETATM    7  O   UNL     1      -8.001   5.025 -34.327  1.00  0.00    -0.271 OA
HETATM    8  C   UNL     1      -3.225   3.294 -32.368  1.00  0.00     0.027 A 
HETATM    9  C   UNL     1      -2.240   4.234 -32.056  1.00  0.00     0.019 A 
HETATM   10  C   UNL     1      -2.507   5.604 -32.178  1.00  0.00     0.034 A 
HETATM   11  C   UNL     1      -3.747   6.030 -32.669  1.00  0.00     0.048 A 
HETATM   12  H   UNL     1      -5.199   2.328 -34.037  1.00  0.00     0.128 HD
HETATM   13  H   UNL     1      -6.085   6.464 -33.799  1.00  0.00     0.169 HD
ENDROOT
BRANCH  10  14
HETATM   14  C   UNL     1      -1.441   6.567 -31.783  1.00  0.00     0.252 C 
HETATM   15  N   UNL     1      -0.879   6.375 -30.540  1.00  0.00    -0.353 N 
HETATM   16  H   UNL     1      -1.034   5.492 -30.074  1.00  0.00     0.163 HD
HETATM   17  O   UNL     1      -1.076   7.436 -32.565  1.00  0.00    -0.268 OA
BRANCH  15  18
HETATM   18  C   UNL     1       0.314   7.094 -30.149  1.00  0.00     0.163 C 
BRANCH  18  19
HETATM   19  C   UNL     1       0.219   7.599 -28.732  1.00  0.00    -0.019 A 
HETATM   20  C   UNL     1      -0.670   8.615 -28.340  1.00  0.00     0.042 A 
HETATM   21 CL   UNL     1      -1.722   9.388 -29.473  1.00  0.00    -0.084 Cl
HETATM   22  C   UNL     1      -0.722   9.045 -27.010  1.00  0.00     0.024 A 
HETATM   23  C   UNL     1       0.111   8.465 -26.053  1.00  0.00     0.002 A 
HETATM   24  C   UNL     1       0.998   7.460 -26.425  1.00  0.00     0.001 A 
HETATM   25  C   UNL     1       1.054   7.032 -27.752  1.00  0.00     0.010 A 
ENDBRANCH  18  19
ENDBRANCH  15  18
ENDBRANCH  10  14
BRANCH   1  26
HETATM   26  C   UNL     1      -7.799   2.252 -33.830  1.00  0.00     0.103 C 
BRANCH  26  27
HETATM   27  S   UNL     1      -7.000   0.886 -34.760  1.00  0.00    -0.162 SA
BRANCH  27  28
HETATM   28  C   UNL     1      -6.945  -0.383 -33.455  1.00  0.00     0.112 C 
BRANCH  28  29
HETATM   29  C   UNL     1      -6.292  -1.660 -33.933  1.00  0.00    -0.043 A 
HETATM   30  C   UNL     1      -4.896  -1.865 -33.865  1.00  0.00    -0.055 A 
HETATM   31  C   UNL     1      -3.960  -0.829 -33.301  1.00  0.00     0.049 C 
HETATM   32  C   UNL     1      -4.361  -3.093 -34.291  1.00  0.00     0.007 A 
HETATM   33  C   UNL     1      -5.185  -4.095 -34.803  1.00  0.00     0.001 A 
HETATM   34  C   UNL     1      -6.556  -3.885 -34.898  1.00  0.00     0.001 A 
HETATM   35  C   UNL     1      -7.105  -2.677 -34.467  1.00  0.00     0.008 A 
ENDBRANCH  28  29
ENDBRANCH  27  28
ENDBRANCH  26  27
ENDBRANCH   1  26
TORSDOF 7
ENDMDL
MODEL 4
REMARK VINA RESULT:      -9.1      4.874      8.765
REMARK  7 active torsions:
REMARK  status: ('A' for Active; 'I' for Inactive)
REMARK    1  A    between atoms: C_3  and  C_4 
REMARK    2  A    between atoms: C_4  and  S_5 
REMARK    3  A    between atoms: S_5  and  C_6 
REMARK    4  A    between atoms: C_6  and  C_7 
REMARK    5  A    between atoms: C_16  and  C_17 
REMARK       I    between atoms: C_17  and  N_18 
REMARK    6  A    between atoms: N_18  and  C_19 
REMARK    7  A    between atoms: C_19  and  C_20 
ROOT
HETATM    1  C   UNL     1      -6.667   1.475 -33.152  1.00  0.00     0.162 C 
HETATM    2  N   UNL     1      -6.682   2.852 -33.704  1.00  0.00    -0.277 NA
HETATM    3  C   UNL     1      -5.479   3.557 -33.501  1.00  0.00     0.036 A 
HETATM    4  C   UNL     1      -4.606   3.254 -32.441  1.00  0.00     0.057 A 
HETATM    5  N   UNL     1      -4.926   2.212 -31.562  1.00  0.00    -0.324 N 
HETATM    6  C   UNL     1      -6.003   1.383 -31.763  1.00  0.00     0.240 C 
HETATM    7  O   UNL     1      -6.318   0.555 -30.911  1.00  0.00    -0.271 OA
HETATM    8  C   UNL     1      -5.216   4.679 -34.290  1.00  0.00     0.027 A 
HETATM    9  C   UNL     1      -4.056   5.429 -34.086  1.00  0.00     0.019 A 
HETATM   10  C   UNL     1      -3.156   5.078 -33.072  1.00  0.00     0.034 A 
HETATM   11  C   UNL     1      -3.449   4.005 -32.223  1.00  0.00     0.048 A 
HETATM   12  H   UNL     1      -7.461   3.394 -33.329  1.00  0.00     0.128 HD
HETATM   13  H   UNL     1      -4.405   2.078 -30.705  1.00  0.00     0.169 HD
ENDROOT
BRANCH  10  14
HETATM   14  C   UNL     1      -1.908   5.880 -32.929  1.00  0.00     0.252 C 
HETATM   15  N   UNL     1      -1.896   6.808 -31.911  1.00  0.00    -0.353 N 
HETATM   16  H   UNL     1      -2.601   6.740 -31.190  1.00  0.00     0.163 HD
HETATM   17  O   UNL     1      -0.950   5.665 -33.662  1.00  0.00    -0.268 OA
BRANCH  15  18
HETATM   18  C   UNL     1      -0.669   7.473 -31.531  1.00  0.00     0.163 C 
BRANCH  18  19
HETATM   19  C   UNL     1      -0.311   7.200 -30.092  1.00  0.00    -0.019 A 
HETATM   20  C   UNL     1       0.414   6.067 -29.686  1.00  0.00     0.042 A 
HETATM   21 CL   UNL     1       0.943   4.873 -30.818  1.00  0.00    -0.084 Cl
HETATM   22  C   UNL     1       0.724   5.863 -28.337  1.00  0.00     0.024 A 
HETATM   23  C   UNL     1       0.315   6.788 -27.376  1.00  0.00     0.002 A 
HETATM   24  C   UNL     1      -0.407   7.913 -27.762  1.00  0.00     0.001 A 
HETATM   25  C   UNL     1      -0.720   8.117 -29.106  1.00  0.00     0.010 A 
ENDBRANCH  18  19
ENDBRANCH  15  18
ENDBRANCH  10  14
BRANCH   1  26
HETATM   26  C   UNL     1      -8.081   0.869 -33.095  1.00  0.00     0.103 C 
BRANCH  26  27
HETATM   27  S   UNL     1      -8.219  -0.883 -33.624  1.00  0.00    -0.162 SA
BRANCH  27  28
HETATM   28  C   UNL     1      -6.779  -0.984 -34.733  1.00  0.00     0.112 C 
BRANCH  28  29
HETATM   29  C   UNL     1      -6.054  -2.305 -34.605  1.00  0.00    -0.043 A 
HETATM   30  C   UNL     1      -4.753  -2.402 -34.064  1.00  0.00    -0.055 A 
HETATM   31  C   UNL     1      -3.999  -1.197 -33.567  1.00  0.00     0.049 C 
HETATM   32  C   UNL     1      -4.155  -3.668 -33.938  1.00  0.00     0.007 A 
HETATM   33  C   UNL     1      -4.817  -4.819 -34.364  1.00  0.00     0.001 A 
HETATM   34  C   UNL     1      -6.087  -4.723 -34.923  1.00  0.00     0.001 A 
HETATM   35  C   UNL     1      -6.700  -3.476 -35.043  1.00  0.00     0.008 A 
ENDBRANCH  28  29
ENDBRANCH  27  28
ENDBRANCH  26  27
ENDBRANCH   1  26
TORSDOF 7
ENDMDL
MODEL 5
REMARK VINA RESULT:      -9.0      5.876     10.139
REMARK  7 active torsions:
REMARK  status: ('A' for Active; 'I' for Inactive)
REMARK    1  A    between atoms: C_3  and  C_4 
REMARK    2  A    between atoms: C_4  and  S_5 
REMARK    3  A    between atoms: S_5  and  C_6 
REMARK    4  A    between atoms: C_6  and  C_7 
REMARK    5  A    between atoms: C_16  and  C_17 
REMARK       I    between atoms: C_17  and  N_18 
REMARK    6  A    between atoms: N_18  and  C_19 
REMARK    7  A    between atoms: C_19  and  C_20 
ROOT
HETATM    1  C   UNL     1      -3.080   6.721 -31.522  1.00  0.00     0.162 C 
HETATM    2  N   UNL     1      -4.303   5.928 -31.249  1.00  0.00    -0.277 NA
HETATM    3  C   UNL     1      -4.116   4.537 -31.370  1.00  0.00     0.036 A 
HETATM    4  C   UNL     1      -3.112   3.987 -32.187  1.00  0.00     0.057 A 
HETATM    5  N   UNL     1      -2.258   4.841 -32.897  1.00  0.00    -0.324 N 
HETATM    6  C   UNL     1      -2.277   6.204 -32.733  1.00  0.00     0.240 C 
HETATM    7  O   UNL     1      -1.594   6.927 -33.456  1.00  0.00    -0.271 OA
HETATM    8  C   UNL     1      -5.042   3.680 -30.772  1.00  0.00     0.027 A 
HETATM    9  C   UNL     1      -4.914   2.295 -30.910  1.00  0.00     0.019 A 
HETATM   10  C   UNL     1      -3.868   1.754 -31.669  1.00  0.00     0.034 A 
HETATM   11  C   UNL     1      -2.982   2.605 -32.339  1.00  0.00     0.048 A 
HETATM   12  H   UNL     1      -5.076   6.220 -31.848  1.00  0.00     0.128 HD
HETATM   13  H   UNL     1      -1.639   4.479 -33.610  1.00  0.00     0.169 HD
ENDROOT
BRANCH  10  14
HETATM   14  C   UNL     1      -3.746   0.271 -31.742  1.00  0.00     0.252 C 
HETATM   15  N   UNL     1      -3.877  -0.288 -32.995  1.00  0.00    -0.353 N 
HETATM   16  H   UNL     1      -3.811   0.318 -33.801  1.00  0.00     0.163 HD
HETATM   17  O   UNL     1      -3.494  -0.377 -30.734  1.00  0.00    -0.268 OA
BRANCH  15  18
HETATM   18  C   UNL     1      -3.548  -1.678 -33.222  1.00  0.00     0.163 C 
BRANCH  18  19
HETATM   19  C   UNL     1      -4.697  -2.428 -33.846  1.00  0.00    -0.019 A 
HETATM   20  C   UNL     1      -4.643  -3.799 -34.148  1.00  0.00     0.042 A 
HETATM   21 CL   UNL     1      -3.225  -4.741 -33.841  1.00  0.00    -0.084 Cl
HETATM   22  C   UNL     1      -5.740  -4.448 -34.723  1.00  0.00     0.024 A 
HETATM   23  C   UNL     1      -6.907  -3.738 -35.002  1.00  0.00     0.002 A 
HETATM   24  C   UNL     1      -6.977  -2.379 -34.711  1.00  0.00     0.001 A 
HETATM   25  C   UNL     1      -5.882  -1.728 -34.141  1.00  0.00     0.010 A 
ENDBRANCH  18  19
ENDBRANCH  15  18
ENDBRANCH  10  14
BRANCH   1  26
HETATM   26  C   UNL     1      -3.400   8.215 -31.707  1.00  0.00     0.103 C 
BRANCH  26  27
HETATM   27  S   UNL     1      -2.509   9.366 -30.589  1.00  0.00    -0.162 SA
BRANCH  27  28
HETATM   28  C   UNL     1      -2.251   8.268 -29.159  1.00  0.00     0.112 C 
BRANCH  28  29
HETATM   29  C   UNL     1      -0.965   8.579 -28.428  1.00  0.00    -0.043 A 
HETATM   30  C   UNL     1       0.259   7.952 -28.752  1.00  0.00    -0.055 A 
HETATM   31  C   UNL     1       0.371   6.935 -29.857  1.00  0.00     0.049 C 
HETATM   32  C   UNL     1       1.423   8.320 -28.057  1.00  0.00     0.007 A 
HETATM   33  C   UNL     1       1.380   9.270 -27.037  1.00  0.00     0.001 A 
HETATM   34  C   UNL     1       0.171   9.868 -26.697  1.00  0.00     0.001 A 
HETATM   35  C   UNL     1      -0.992   9.525 -27.386  1.00  0.00     0.008 A 
ENDBRANCH  28  29
ENDBRANCH  27  28
ENDBRANCH  26  27
ENDBRANCH   1  26
TORSDOF 7
ENDMDL
MODEL 6
REMARK VINA RESULT:      -9.0      5.343      9.289
REMARK  7 active torsions:
REMARK  status: ('A' for Active; 'I' for Inactive)
REMARK    1  A    between atoms: C_3  and  C_4 
REMARK    2  A    between atoms: C_4  and  S_5 
REMARK    3  A    between atoms: S_5  and  C_6 
REMARK    4  A    between atoms: C_6  and  C_7 
REMARK    5  A    between atoms: C_16  and  C_17 
REMARK       I    between atoms: C_17  and  N_18 
REMARK    6  A    between atoms: N_18  and  C_19 
REMARK    7  A    between atoms: C_19  and  C_20 
ROOT
HETATM    1  C   UNL     1      -4.597   6.455 -29.277  1.00  0.00     0.162 C 
HETATM    2  N   UNL     1      -3.709   5.658 -30.160  1.00  0.00    -0.277 NA
HETATM    3  C   UNL     1      -4.349   4.558 -30.763  1.00  0.00     0.036 A 
HETATM    4  C   UNL     1      -5.474   3.941 -30.187  1.00  0.00     0.057 A 
HETATM    5  N   UNL     1      -5.991   4.437 -28.984  1.00  0.00    -0.324 N 
HETATM    6  C   UNL     1      -5.519   5.586 -28.398  1.00  0.00     0.240 C 
HETATM    7  O   UNL     1      -5.918   5.926 -27.286  1.00  0.00    -0.271 OA
HETATM    8  C   UNL     1      -3.765   3.976 -31.890  1.00  0.00     0.027 A 
HETATM    9  C   UNL     1      -4.347   2.855 -32.488  1.00  0.00     0.019 A 
HETATM   10  C   UNL     1      -5.509   2.289 -31.947  1.00  0.00     0.034 A 
HETATM   11  C   UNL     1      -6.056   2.814 -30.771  1.00  0.00     0.048 A 
HETATM   12  H   UNL     1      -2.880   5.336 -29.659  1.00  0.00     0.128 HD
HETATM   13  H   UNL     1      -6.691   3.920 -28.468  1.00  0.00     0.169 HD
ENDROOT
BRANCH  10  14
HETATM   14  C   UNL     1      -6.118   1.126 -32.652  1.00  0.00     0.252 C 
HETATM   15  N   UNL     1      -5.280   0.409 -33.478  1.00  0.00    -0.353 N 
HETATM   16  H   UNL     1      -4.283   0.546 -33.387  1.00  0.00     0.163 HD
HETATM   17  O   UNL     1      -7.288   0.824 -32.445  1.00  0.00    -0.268 OA
BRANCH  15  18
HETATM   18  C   UNL     1      -5.694  -0.865 -34.025  1.00  0.00     0.163 C 
BRANCH  18  19
HETATM   19  C   UNL     1      -4.807  -1.988 -33.549  1.00  0.00    -0.019 A 
HETATM   20  C   UNL     1      -4.787  -3.255 -34.156  1.00  0.00     0.042 A 
HETATM   21 CL   UNL     1      -5.805  -3.635 -35.501  1.00  0.00    -0.084 Cl
HETATM   22  C   UNL     1      -3.942  -4.262 -33.678  1.00  0.00     0.024 A 
HETATM   23  C   UNL     1      -3.105  -4.017 -32.589  1.00  0.00     0.002 A 
HETATM   24  C   UNL     1      -3.115  -2.769 -31.975  1.00  0.00     0.001 A 
HETATM   25  C   UNL     1      -3.960  -1.764 -32.448  1.00  0.00     0.010 A 
ENDBRANCH  18  19
ENDBRANCH  15  18
ENDBRANCH  10  14
BRANCH   1  26
HETATM   26  C   UNL     1      -3.796   7.426 -28.391  1.00  0.00     0.103 C 
BRANCH  26  27
HETATM   27  S   UNL     1      -3.019   8.842 -29.263  1.00  0.00    -0.162 SA
BRANCH  27  28
HETATM   28  C   UNL     1      -1.291   8.618 -28.734  1.00  0.00     0.112 C 
BRANCH  28  29
HETATM   29  C   UNL     1      -0.630   7.450 -29.430  1.00  0.00    -0.043 A 
HETATM   30  C   UNL     1      -0.010   6.400 -28.716  1.00  0.00    -0.055 A 
HETATM   31  C   UNL     1       0.028   6.365 -27.211  1.00  0.00     0.049 C 
HETATM   32  C   UNL     1       0.549   5.325 -29.427  1.00  0.00     0.007 A 
HETATM   33  C   UNL     1       0.525   5.296 -30.821  1.00  0.00     0.001 A 
HETATM   34  C   UNL     1      -0.060   6.343 -31.526  1.00  0.00     0.001 A 
HETATM   35  C   UNL     1      -0.632   7.411 -30.836  1.00  0.00     0.008 A 
ENDBRANCH  28  29
ENDBRANCH  27  28
ENDBRANCH  26  27
ENDBRANCH   1  26
TORSDOF 7
ENDMDL
MODEL 7
REMARK VINA RESULT:      -9.0      5.194      9.000
REMARK  7 active torsions:
REMARK  status: ('A' for Active; 'I' for Inactive)
REMARK    1  A    between atoms: C_3  and  C_4 
REMARK    2  A    between atoms: C_4  and  S_5 
REMARK    3  A    between atoms: S_5  and  C_6 
REMARK    4  A    between atoms: C_6  and  C_7 
REMARK    5  A    between atoms: C_16  and  C_17 
REMARK       I    between atoms: C_17  and  N_18 
REMARK    6  A    between atoms: N_18  and  C_19 
REMARK    7  A    between atoms: C_19  and  C_20 
ROOT
HETATM    1  C   UNL     1      -4.440   6.390 -31.350  1.00  0.00     0.162 C 
HETATM    2  N   UNL     1      -4.207   5.015 -30.842  1.00  0.00    -0.277 NA
HETATM    3  C   UNL     1      -4.735   4.007 -31.673  1.00  0.00     0.036 A 
HETATM    4  C   UNL     1      -5.819   4.243 -32.537  1.00  0.00     0.057 A 
HETATM    5  N   UNL     1      -6.391   5.520 -32.591  1.00  0.00    -0.324 N 
HETATM    6  C   UNL     1      -5.857   6.595 -31.922  1.00  0.00     0.240 C 
HETATM    7  O   UNL     1      -6.451   7.671 -31.900  1.00  0.00    -0.271 OA
HETATM    8  C   UNL     1      -4.259   2.702 -31.532  1.00  0.00     0.027 A 
HETATM    9  C   UNL     1      -4.791   1.668 -32.306  1.00  0.00     0.019 A 
HETATM   10  C   UNL     1      -5.824   1.926 -33.216  1.00  0.00     0.034 A 
HETATM   11  C   UNL     1      -6.365   3.214 -33.307  1.00  0.00     0.048 A 
HETATM   12  H   UNL     1      -4.574   4.902 -29.897  1.00  0.00     0.128 HD
HETATM   13  H   UNL     1      -7.265   5.677 -33.076  1.00  0.00     0.169 HD
ENDROOT
BRANCH  10  14
HETATM   14  C   UNL     1      -6.322   0.800 -34.055  1.00  0.00     0.252 C 
HETATM   15  N   UNL     1      -5.528  -0.326 -34.092  1.00  0.00    -0.353 N 
HETATM   16  H   UNL     1      -4.805  -0.428 -33.393  1.00  0.00     0.163 HD
HETATM   17  O   UNL     1      -7.402   0.887 -34.625  1.00  0.00    -0.268 OA
BRANCH  15  18
HETATM   18  C   UNL     1      -6.017  -1.556 -34.676  1.00  0.00     0.163 C 
BRANCH  18  19
HETATM   19  C   UNL     1      -5.213  -2.746 -34.219  1.00  0.00    -0.019 A 
HETATM   20  C   UNL     1      -5.464  -4.055 -34.664  1.00  0.00     0.042 A 
HETATM   21 CL   UNL     1      -6.745  -4.409 -35.770  1.00  0.00    -0.084 Cl
HETATM   22  C   UNL     1      -4.685  -5.125 -34.212  1.00  0.00     0.024 A 
HETATM   23  C   UNL     1      -3.643  -4.902 -33.311  1.00  0.00     0.002 A 
HETATM   24  C   UNL     1      -3.383  -3.613 -32.859  1.00  0.00     0.001 A 
HETATM   25  C   UNL     1      -4.162  -2.544 -33.306  1.00  0.00     0.010 A 
ENDBRANCH  18  19
ENDBRANCH  15  18
ENDBRANCH  10  14
BRANCH   1  26
HETATM   26  C   UNL     1      -4.155   7.450 -30.272  1.00  0.00     0.103 C 
BRANCH  26  27
HETATM   27  S   UNL     1      -3.087   8.850 -30.794  1.00  0.00    -0.162 SA
BRANCH  27  28
HETATM   28  C   UNL     1      -1.871   7.948 -31.806  1.00  0.00     0.112 C 
BRANCH  28  29
HETATM   29  C   UNL     1      -0.994   7.044 -30.968  1.00  0.00    -0.043 A 
HETATM   30  C   UNL     1      -0.643   5.739 -31.382  1.00  0.00    -0.055 A 
HETATM   31  C   UNL     1      -1.108   5.161 -32.692  1.00  0.00     0.049 C 
HETATM   32  C   UNL     1       0.208   4.970 -30.571  1.00  0.00     0.007 A 
HETATM   33  C   UNL     1       0.684   5.464 -29.358  1.00  0.00     0.001 A 
HETATM   34  C   UNL     1       0.316   6.737 -28.935  1.00  0.00     0.001 A 
HETATM   35  C   UNL     1      -0.517   7.520 -29.733  1.00  0.00     0.008 A 
ENDBRANCH  28  29
ENDBRANCH  27  28
ENDBRANCH  26  27
ENDBRANCH   1  26
TORSDOF 7
ENDMDL
MODEL 8
REMARK VINA RESULT:      -8.9      5.627      9.203
REMARK  7 active torsions:
REMARK  status: ('A' for Active; 'I' for Inactive)
REMARK    1  A    between atoms: C_3  and  C_4 
REMARK    2  A    between atoms: C_4  and  S_5 
REMARK    3  A    between atoms: S_5  and  C_6 
REMARK    4  A    between atoms: C_6  and  C_7 
REMARK    5  A    between atoms: C_16  and  C_17 
REMARK       I    between atoms: C_17  and  N_18 
REMARK    6  A    between atoms: N_18  and  C_19 
REMARK    7  A    between atoms: C_19  and  C_20 
ROOT
HETATM    1  C   UNL     1      -4.692   1.507 -30.985  1.00  0.00     0.162 C 
HETATM    2  N   UNL     1      -3.748   2.166 -31.922  1.00  0.00    -0.277 NA
HETATM    3  C   UNL     1      -3.499   3.518 -31.618  1.00  0.00     0.036 A 
HETATM    4  C   UNL     1      -4.423   4.307 -30.910  1.00  0.00     0.057 A 
HETATM    5  N   UNL     1      -5.627   3.737 -30.478  1.00  0.00    -0.324 N 
HETATM    6  C   UNL     1      -5.894   2.396 -30.608  1.00  0.00     0.240 C 
HETATM    7  O   UNL     1      -7.006   1.953 -30.323  1.00  0.00    -0.271 OA
HETATM    8  C   UNL     1      -2.365   4.130 -32.156  1.00  0.00     0.027 A 
HETATM    9  C   UNL     1      -2.109   5.482 -31.913  1.00  0.00     0.019 A 
HETATM   10  C   UNL     1      -3.001   6.244 -31.147  1.00  0.00     0.034 A 
HETATM   11  C   UNL     1      -4.182   5.662 -30.672  1.00  0.00     0.048 A 
HETATM   12  H   UNL     1      -4.071   2.089 -32.888  1.00  0.00     0.128 HD
HETATM   13  H   UNL     1      -6.373   4.314 -30.113  1.00  0.00     0.169 HD
ENDROOT
BRANCH  10  14
HETATM   14  C   UNL     1      -2.657   7.667 -30.875  1.00  0.00     0.252 C 
HETATM   15  N   UNL     1      -2.335   7.975 -29.571  1.00  0.00    -0.353 N 
HETATM   16  H   UNL     1      -2.120   7.218 -28.937  1.00  0.00     0.163 HD
HETATM   17  O   UNL     1      -2.624   8.480 -31.791  1.00  0.00    -0.268 OA
BRANCH  15  18
HETATM   18  C   UNL     1      -1.762   9.261 -29.234  1.00  0.00     0.163 C 
BRANCH  18  19
HETATM   19  C   UNL     1      -0.650   9.126 -28.225  1.00  0.00    -0.019 A 
HETATM   20  C   UNL     1       0.460   8.287 -28.417  1.00  0.00     0.042 A 
HETATM   21 CL   UNL     1       0.629   7.315 -29.837  1.00  0.00    -0.084 Cl
HETATM   22  C   UNL     1       1.467   8.202 -27.450  1.00  0.00     0.024 A 
HETATM   23  C   UNL     1       1.380   8.955 -26.279  1.00  0.00     0.002 A 
HETATM   24  C   UNL     1       0.286   9.789 -26.073  1.00  0.00     0.001 A 
HETATM   25  C   UNL     1      -0.722   9.873 -27.034  1.00  0.00     0.010 A 
ENDBRANCH  18  19
ENDBRANCH  15  18
ENDBRANCH  10  14
BRANCH   1  26
HETATM   26  C   UNL     1      -5.191   0.159 -31.534  1.00  0.00     0.103 C 
BRANCH  26  27
HETATM   27  S   UNL     1      -3.890  -1.086 -31.892  1.00  0.00    -0.162 SA
BRANCH  27  28
HETATM   28  C   UNL     1      -4.060  -1.197 -33.702  1.00  0.00     0.112 C 
BRANCH  28  29
HETATM   29  C   UNL     1      -4.829  -2.428 -34.126  1.00  0.00    -0.043 A 
HETATM   30  C   UNL     1      -6.158  -2.361 -34.600  1.00  0.00    -0.055 A 
HETATM   31  C   UNL     1      -6.899  -1.056 -34.728  1.00  0.00     0.049 C 
HETATM   32  C   UNL     1      -6.798  -3.541 -35.015  1.00  0.00     0.007 A 
HETATM   33  C   UNL     1      -6.152  -4.773 -34.936  1.00  0.00     0.001 A 
HETATM   34  C   UNL     1      -4.854  -4.846 -34.442  1.00  0.00     0.001 A 
HETATM   35  C   UNL     1      -4.198  -3.683 -34.039  1.00  0.00     0.008 A 
ENDBRANCH  28  29
ENDBRANCH  27  28
ENDBRANCH  26  27
ENDBRANCH   1  26
TORSDOF 7
ENDMDL
MODEL 9
REMARK VINA RESULT:      -8.8      5.595      9.993
REMARK  7 active torsions:
REMARK  status: ('A' for Active; 'I' for Inactive)
REMARK    1  A    between atoms: C_3  and  C_4 
REMARK    2  A    between atoms: C_4  and  S_5 
REMARK    3  A    between atoms: S_5  and  C_6 
REMARK    4  A    between atoms: C_6  and  C_7 
REMARK    5  A    between atoms: C_16  and  C_17 
REMARK       I    between atoms: C_17  and  N_18 
REMARK    6  A    between atoms: N_18  and  C_19 
REMARK    7  A    between atoms: C_19  and  C_20 
ROOT
HETATM    1  C   UNL     1      -3.611   6.078 -31.940  1.00  0.00     0.162 C 
HETATM    2  N   UNL     1      -3.267   4.786 -31.297  1.00  0.00    -0.277 NA
HETATM    3  C   UNL     1      -4.021   3.697 -31.775  1.00  0.00     0.036 A 
HETATM    4  C   UNL     1      -5.299   3.863 -32.338  1.00  0.00     0.057 A 
HETATM    5  N   UNL     1      -5.843   5.149 -32.443  1.00  0.00    -0.324 N 
HETATM    6  C   UNL     1      -5.127   6.279 -32.131  1.00  0.00     0.240 C 
HETATM    7  O   UNL     1      -5.675   7.380 -32.125  1.00  0.00    -0.271 OA
HETATM    8  C   UNL     1      -3.545   2.402 -31.557  1.00  0.00     0.027 A 
HETATM    9  C   UNL     1      -4.288   1.296 -31.977  1.00  0.00     0.019 A 
HETATM   10  C   UNL     1      -5.530   1.474 -32.601  1.00  0.00     0.034 A 
HETATM   11  C   UNL     1      -6.054   2.763 -32.752  1.00  0.00     0.048 A 
HETATM   12  H   UNL     1      -3.358   4.841 -30.282  1.00  0.00     0.128 HD
HETATM   13  H   UNL     1      -6.815   5.283 -32.691  1.00  0.00     0.169 HD
ENDROOT
BRANCH  10  14
HETATM   14  C   UNL     1      -6.259   0.265 -33.076  1.00  0.00     0.252 C 
HETATM   15  N   UNL     1      -5.781  -0.318 -34.230  1.00  0.00    -0.353 N 
HETATM   16  H   UNL     1      -4.859  -0.059 -34.553  1.00  0.00     0.163 HD
HETATM   17  O   UNL     1      -7.194  -0.187 -32.425  1.00  0.00    -0.268 OA
BRANCH  15  18
HETATM   18  C   UNL     1      -6.256  -1.617 -34.654  1.00  0.00     0.163 C 
BRANCH  18  19
HETATM   19  C   UNL     1      -5.325  -2.719 -34.214  1.00  0.00    -0.019 A 
HETATM   20  C   UNL     1      -5.462  -4.050 -34.640  1.00  0.00     0.042 A 
HETATM   21 CL   UNL     1      -6.738  -4.539 -35.701  1.00  0.00    -0.084 Cl
HETATM   22  C   UNL     1      -4.568  -5.035 -34.206  1.00  0.00     0.024 A 
HETATM   23  C   UNL     1      -3.526  -4.702 -33.342  1.00  0.00     0.002 A 
HETATM   24  C   UNL     1      -3.378  -3.389 -32.908  1.00  0.00     0.001 A 
HETATM   25  C   UNL     1      -4.270  -2.406 -33.338  1.00  0.00     0.010 A 
ENDBRANCH  18  19
ENDBRANCH  15  18
ENDBRANCH  10  14
BRANCH   1  26
HETATM   26  C   UNL     1      -3.019   7.272 -31.170  1.00  0.00     0.103 C 
BRANCH  26  27
HETATM   27  S   UNL     1      -1.194   7.270 -30.976  1.00  0.00    -0.162 SA
BRANCH  27  28
HETATM   28  C   UNL     1      -1.073   6.870 -29.203  1.00  0.00     0.112 C 
BRANCH  28  29
HETATM   29  C   UNL     1      -0.363   7.953 -28.423  1.00  0.00    -0.043 A 
HETATM   30  C   UNL     1      -1.048   9.062 -27.878  1.00  0.00    -0.055 A 
HETATM   31  C   UNL     1      -2.536   9.237 -28.025  1.00  0.00     0.049 C 
HETATM   32  C   UNL     1      -0.330  10.010 -27.130  1.00  0.00     0.007 A 
HETATM   33  C   UNL     1       1.047   9.886 -26.946  1.00  0.00     0.001 A 
HETATM   34  C   UNL     1       1.727   8.811 -27.507  1.00  0.00     0.001 A 
HETATM   35  C   UNL     1       1.029   7.852 -28.240  1.00  0.00     0.008 A 
ENDBRANCH  28  29
ENDBRANCH  27  28
ENDBRANCH  26  27
ENDBRANCH   1  26
TORSDOF 7
ENDMDL
MODEL 10
REMARK VINA RESULT:      -8.7      5.770      9.796
REMARK  7 active torsions:
REMARK  status: ('A' for Active; 'I' for Inactive)
REMARK    1  A    between atoms: C_3  and  C_4 
REMARK    2  A    between atoms: C_4  and  S_5 
REMARK    3  A    between atoms: S_5  and  C_6 
REMARK    4  A    between atoms: C_6  and  C_7 
REMARK    5  A    between atoms: C_16  and  C_17 
REMARK       I    between atoms: C_17  and  N_18 
REMARK    6  A    between atoms: N_18  and  C_19 
REMARK    7  A    between atoms: C_19  and  C_20 
ROOT
HETATM    1  C   UNL     1      -1.252   5.725 -32.529  1.00  0.00     0.162 C 
HETATM    2  N   UNL     1      -1.935   4.881 -31.517  1.00  0.00    -0.277 NA
HETATM    3  C   UNL     1      -2.968   4.083 -32.047  1.00  0.00     0.036 A 
HETATM    4  C   UNL     1      -3.658   4.438 -33.220  1.00  0.00     0.057 A 
HETATM    5  N   UNL     1      -3.306   5.613 -33.898  1.00  0.00    -0.324 N 
HETATM    6  C   UNL     1      -2.224   6.377 -33.533  1.00  0.00     0.240 C 
HETATM    7  O   UNL     1      -2.016   7.459 -34.078  1.00  0.00    -0.271 OA
HETATM    8  C   UNL     1      -3.413   2.984 -31.312  1.00  0.00     0.027 A 
HETATM    9  C   UNL     1      -4.467   2.197 -31.784  1.00  0.00     0.019 A 
HETATM   10  C   UNL     1      -5.103   2.518 -32.991  1.00  0.00     0.034 A 
HETATM   11  C   UNL     1      -4.719   3.665 -33.696  1.00  0.00     0.048 A 
HETATM   12  H   UNL     1      -2.302   5.445 -30.750  1.00  0.00     0.128 HD
HETATM   13  H   UNL     1      -3.884   5.974 -34.644  1.00  0.00     0.169 HD
ENDROOT
BRANCH  10  14
HETATM   14  C   UNL     1      -6.186   1.618 -33.477  1.00  0.00     0.252 C 
HETATM   15  N   UNL     1      -5.814   0.324 -33.769  1.00  0.00    -0.353 N 
HETATM   16  H   UNL     1      -4.923  -0.009 -33.428  1.00  0.00     0.163 HD
HETATM   17  O   UNL     1      -7.339   2.026 -33.552  1.00  0.00    -0.268 OA
BRANCH  15  18
HETATM   18  C   UNL     1      -6.813  -0.693 -34.021  1.00  0.00     0.163 C 
BRANCH  18  19
HETATM   19  C   UNL     1      -6.186  -2.049 -34.223  1.00  0.00    -0.019 A 
HETATM   20  C   UNL     1      -4.836  -2.317 -33.940  1.00  0.00     0.042 A 
HETATM   21 CL   UNL     1      -3.770  -1.090 -33.350  1.00  0.00    -0.084 Cl
HETATM   22  C   UNL     1      -4.304  -3.595 -34.140  1.00  0.00     0.024 A 
HETATM   23  C   UNL     1      -5.113  -4.623 -34.624  1.00  0.00     0.002 A 
HETATM   24  C   UNL     1      -6.452  -4.373 -34.911  1.00  0.00     0.001 A 
HETATM   25  C   UNL     1      -6.983  -3.098 -34.715  1.00  0.00     0.010 A 
ENDBRANCH  18  19
ENDBRANCH  15  18
ENDBRANCH  10  14
BRANCH   1  26
HETATM   26  C   UNL     1      -0.378   6.807 -31.871  1.00  0.00     0.103 C 
BRANCH  26  27
HETATM   27  S   UNL     1      -0.968   7.431 -30.249  1.00  0.00    -0.162 SA
BRANCH  27  28
HETATM   28  C   UNL     1       0.143   6.507 -29.141  1.00  0.00     0.112 C 
BRANCH  28  29
HETATM   29  C   UNL     1       0.620   7.352 -27.981  1.00  0.00    -0.043 A 
HETATM   30  C   UNL     1       0.220   7.100 -26.650  1.00  0.00    -0.055 A 
HETATM   31  C   UNL     1      -0.700   5.964 -26.290  1.00  0.00     0.049 C 
HETATM   32  C   UNL     1       0.735   7.902 -25.617  1.00  0.00     0.007 A 
HETATM   33  C   UNL     1       1.606   8.955 -25.892  1.00  0.00     0.001 A 
HETATM   34  C   UNL     1       1.978   9.223 -27.205  1.00  0.00     0.001 A 
HETATM   35  C   UNL     1       1.488   8.429 -28.241  1.00  0.00     0.008 A 
ENDBRANCH  28  29
ENDBRANCH  27  28
ENDBRANCH  26  27
ENDBRANCH   1  26
TORSDOF 7
ENDMDL
