MODEL 1
REMARK VINA RESULT:      -8.9      0.000      0.000
REMARK  10 active torsions:
REMARK  status: ('A' for Active; 'I' for Inactive)
REMARK    1  A    between atoms: C_2  and  C_3 
REMARK    2  A    between atoms: C_3  and  C_4 
REMARK    3  A    between atoms: C_4  and  O_5 
REMARK    4  A    between atoms: O_5  and  C_6 
REMARK    5  A    between atoms: C_8  and  C_9 
REMARK       I    between atoms: C_9  and  N_10 
REMARK    6  A    between atoms: N_10  and  C_11 
REMARK    7  A    between atoms: C_11  and  N_12 
REMARK    8  A    between atoms: N_12  and  C_13 
REMARK    9  A    between atoms: C_15  and  O_16 
REMARK   10  A    between atoms: C_17  and  C_18 
ROOT
HETATM    1  N   UNL     1      -6.727   4.805 -32.964  1.00  0.00    -0.333 N 
HETATM    2  H   UNL     1      -7.298   5.361 -33.597  1.00  0.00     0.168 HD
ENDROOT
BRANCH   1   3
HETATM    3  C   UNL     1      -6.307   5.539 -31.887  1.00  0.00     0.179 C 
HETATM    4  S   UNL     1      -7.314   5.557 -30.550  1.00  0.00    -0.040 SA
BRANCH   3   5
HETATM    5  N   UNL     1      -5.146   6.257 -32.030  1.00  0.00    -0.299 N 
HETATM    6  C   UNL     1      -4.155   6.025 -32.976  1.00  0.00     0.257 C 
HETATM    7  O   UNL     1      -4.377   5.821 -34.164  1.00  0.00    -0.267 OA
HETATM    8  H   UNL     1      -4.870   6.726 -31.179  1.00  0.00     0.171 HD
BRANCH   6   9
HETATM    9  C   UNL     1      -2.759   6.261 -32.528  1.00  0.00     0.035 A 
HETATM   10  C   UNL     1      -2.153   5.449 -31.563  1.00  0.00     0.053 A 
HETATM   11  C   UNL     1      -0.831   5.686 -31.172  1.00  0.00     0.069 A 
HETATM   12  C   UNL     1      -0.118   6.733 -31.757  1.00  0.00     0.037 A 
HETATM   13  C   UNL     1      -0.714   7.531 -32.737  1.00  0.00     0.004 A 
HETATM   14  C   UNL     1      -2.030   7.293 -33.127  1.00  0.00     0.017 A 
BRANCH  11  15
HETATM   15  O   UNL     1      -0.354   4.802 -30.246  1.00  0.00    -0.351 OA
BRANCH  15  16
HETATM   16  C   UNL     1       0.658   5.229 -29.338  1.00  0.00     0.175 C 
BRANCH  16  17
HETATM   17  C   UNL     1       0.108   5.904 -28.078  1.00  0.00     0.026 C 
BRANCH  17  18
HETATM   18  C   UNL     1       1.017   6.983 -27.484  1.00  0.00    -0.002 C 
HETATM   19  C   UNL     1       1.143   8.226 -28.353  1.00  0.00     0.005 C 
ENDBRANCH  17  18
ENDBRANCH  16  17
ENDBRANCH  15  16
ENDBRANCH  11  15
ENDBRANCH   6   9
ENDBRANCH   3   5
ENDBRANCH   1   3
BRANCH   1  20
HETATM   20  C   UNL     1      -6.746   3.415 -33.215  1.00  0.00     0.036 A 
HETATM   21  C   UNL     1      -7.687   2.755 -34.007  1.00  0.00     0.067 A 
HETATM   22  C   UNL     1      -7.554   1.382 -34.283  1.00  0.00     0.082 A 
HETATM   23  C   UNL     1      -6.468   0.638 -33.794  1.00  0.00     0.050 A 
HETATM   24  C   UNL     1      -5.542   1.314 -32.983  1.00  0.00     0.021 A 
HETATM   25  C   UNL     1      -5.679   2.677 -32.696  1.00  0.00     0.030 A 
BRANCH  22  26
HETATM   26  O   UNL     1      -8.502   0.786 -35.073  1.00  0.00    -0.360 OA
HETATM   27  H   UNL     1      -8.790  -0.053 -34.680  1.00  0.00     0.217 HD
ENDBRANCH  22  26
BRANCH  23  28
HETATM   28  C   UNL     1      -6.189  -0.763 -34.126  1.00  0.00     0.183 A 
HETATM   29  O   UNL     1      -4.970  -1.282 -33.767  1.00  0.00    -0.289 OA
HETATM   30  C   UNL     1      -5.050  -2.597 -34.113  1.00  0.00     0.106 A 
HETATM   31  C   UNL     1      -6.295  -2.812 -34.677  1.00  0.00     0.093 A 
HETATM   32  C   UNL     1      -4.082  -3.577 -33.933  1.00  0.00     0.040 A 
HETATM   33  N   UNL     1      -7.003  -1.638 -34.698  1.00  0.00    -0.221 NA
HETATM   34  C   UNL     1      -6.634  -4.104 -35.101  1.00  0.00     0.034 A 
HETATM   35  C   UNL     1      -5.688  -5.126 -34.928  1.00  0.00     0.002 A 
HETATM   36  C   UNL     1      -4.436  -4.865 -34.356  1.00  0.00     0.003 A 
ENDBRANCH  23  28
ENDBRANCH   1  20
TORSDOF 10
ENDMDL
MODEL 2
REMARK VINA RESULT:      -8.8      1.979      2.373
REMARK  10 active torsions:
REMARK  status: ('A' for Active; 'I' for Inactive)
REMARK    1  A    between atoms: C_2  and  C_3 
REMARK    2  A    between atoms: C_3  and  C_4 
REMARK    3  A    between atoms: C_4  and  O_5 
REMARK    4  A    between atoms: O_5  and  C_6 
REMARK    5  A    between atoms: C_8  and  C_9 
REMARK       I    between atoms: C_9  and  N_10 
REMARK    6  A    between atoms: N_10  and  C_11 
REMARK    7  A    between atoms: C_11  and  N_12 
REMARK    8  A    between atoms: N_12  and  C_13 
REMARK    9  A    between atoms: C_15  and  O_16 
REMARK   10  A    between atoms: C_17  and  C_18 
ROOT
HETATM    1  N   UNL     1      -5.536   3.417 -29.226  1.00  0.00    -0.333 N 
HETATM    2  H   UNL     1      -5.260   3.091 -28.302  1.00  0.00     0.168 HD
ENDROOT
BRANCH   1   3
HETATM    3  C   UNL     1      -5.632   4.782 -29.272  1.00  0.00     0.179 C 
HETATM    4  S   UNL     1      -6.932   5.472 -28.474  1.00  0.00    -0.040 SA
BRANCH   3   5
HETATM    5  N   UNL     1      -4.707   5.452 -30.032  1.00  0.00    -0.299 N 
HETATM    6  C   UNL     1      -4.810   5.724 -31.391  1.00  0.00     0.257 C 
HETATM    7  O   UNL     1      -5.822   6.165 -31.925  1.00  0.00    -0.267 OA
HETATM    8  H   UNL     1      -3.776   5.411 -29.641  1.00  0.00     0.171 HD
BRANCH   6   9
HETATM    9  C   UNL     1      -3.544   5.674 -32.164  1.00  0.00     0.035 A 
HETATM   10  C   UNL     1      -2.333   5.317 -31.561  1.00  0.00     0.053 A 
HETATM   11  C   UNL     1      -1.158   5.261 -32.319  1.00  0.00     0.069 A 
HETATM   12  C   UNL     1      -1.203   5.559 -33.681  1.00  0.00     0.037 A 
HETATM   13  C   UNL     1      -2.416   5.893 -34.290  1.00  0.00     0.004 A 
HETATM   14  C   UNL     1      -3.585   5.946 -33.535  1.00  0.00     0.017 A 
BRANCH  11  15
HETATM   15  O   UNL     1      -0.055   4.871 -31.614  1.00  0.00    -0.351 OA
BRANCH  15  16
HETATM   16  C   UNL     1       0.194   5.454 -30.337  1.00  0.00     0.175 C 
BRANCH  16  17
HETATM   17  C   UNL     1       0.453   6.963 -30.392  1.00  0.00     0.026 C 
BRANCH  17  18
HETATM   18  C   UNL     1       0.732   7.612 -29.034  1.00  0.00    -0.002 C 
HETATM   19  C   UNL     1       0.735   6.628 -27.873  1.00  0.00     0.005 C 
ENDBRANCH  17  18
ENDBRANCH  16  17
ENDBRANCH  15  16
ENDBRANCH  11  15
ENDBRANCH   6   9
ENDBRANCH   3   5
ENDBRANCH   1   3
BRANCH   1  20
HETATM   20  C   UNL     1      -5.484   2.435 -30.241  1.00  0.00     0.036 A 
HETATM   21  C   UNL     1      -4.346   2.103 -30.978  1.00  0.00     0.067 A 
HETATM   22  C   UNL     1      -4.372   1.033 -31.892  1.00  0.00     0.082 A 
HETATM   23  C   UNL     1      -5.527   0.256 -32.077  1.00  0.00     0.050 A 
HETATM   24  C   UNL     1      -6.668   0.617 -31.342  1.00  0.00     0.021 A 
HETATM   25  C   UNL     1      -6.648   1.688 -30.442  1.00  0.00     0.030 A 
BRANCH  22  26
HETATM   26  O   UNL     1      -3.226   0.745 -32.584  1.00  0.00    -0.360 OA
HETATM   27  H   UNL     1      -2.494   1.300 -32.271  1.00  0.00     0.217 HD
ENDBRANCH  22  26
BRANCH  23  28
HETATM   28  C   UNL     1      -5.610  -0.943 -32.919  1.00  0.00     0.183 A 
HETATM   29  O   UNL     1      -4.494  -1.736 -33.027  1.00  0.00    -0.289 OA
HETATM   30  C   UNL     1      -4.907  -2.796 -33.775  1.00  0.00     0.106 A 
HETATM   31  C   UNL     1      -6.237  -2.594 -34.099  1.00  0.00     0.093 A 
HETATM   32  C   UNL     1      -4.160  -3.905 -34.152  1.00  0.00     0.040 A 
HETATM   33  N   UNL     1      -6.669  -1.406 -33.567  1.00  0.00    -0.221 NA
HETATM   34  C   UNL     1      -6.907  -3.565 -34.855  1.00  0.00     0.034 A 
HETATM   35  C   UNL     1      -6.191  -4.707 -35.247  1.00  0.00     0.002 A 
HETATM   36  C   UNL     1      -4.843  -4.871 -34.902  1.00  0.00     0.003 A 
ENDBRANCH  23  28
ENDBRANCH   1  20
TORSDOF 10
ENDMDL
MODEL 3
REMARK VINA RESULT:      -8.6      2.366      3.520
REMARK  10 active torsions:
REMARK  status: ('A' for Active; 'I' for Inactive)
REMARK    1  A    between atoms: C_2  and  C_3 
REMARK    2  A    between atoms: C_3  and  C_4 
REMARK    3  A    between atoms: C_4  and  O_5 
REMARK    4  A    between atoms: O_5  and  C_6 
REMARK    5  A    between atoms: C_8  and  C_9 
REMARK       I    between atoms: C_9  and  N_10 
REMARK    6  A    between atoms: N_10  and  C_11 
REMARK    7  A    between atoms: C_11  and  N_12 
REMARK    8  A    between atoms: N_12  and  C_13 
REMARK    9  A    between atoms: C_15  and  O_16 
REMARK   10  A    between atoms: C_17  and  C_18 
ROOT
HETATM    1  N   UNL     1      -3.690   4.470 -31.037  1.00  0.00    -0.333 N 
HETATM    2  H   UNL     1      -3.430   4.524 -30.054  1.00  0.00     0.168 HD
ENDROOT
BRANCH   1   3
HETATM    3  C   UNL     1      -3.277   5.577 -31.730  1.00  0.00     0.179 C 
HETATM    4  S   UNL     1      -4.114   5.940 -33.134  1.00  0.00    -0.040 SA
BRANCH   3   5
HETATM    5  N   UNL     1      -2.170   6.236 -31.259  1.00  0.00    -0.299 N 
HETATM    6  C   UNL     1      -1.140   5.674 -30.515  1.00  0.00     0.257 C 
HETATM    7  O   UNL     1      -0.600   4.608 -30.790  1.00  0.00    -0.267 OA
HETATM    8  H   UNL     1      -2.321   7.230 -31.158  1.00  0.00     0.171 HD
BRANCH   6   9
HETATM    9  C   UNL     1      -0.543   6.542 -29.468  1.00  0.00     0.035 A 
HETATM   10  C   UNL     1      -1.030   7.830 -29.221  1.00  0.00     0.053 A 
HETATM   11  C   UNL     1      -0.459   8.618 -28.217  1.00  0.00     0.069 A 
HETATM   12  C   UNL     1       0.597   8.109 -27.460  1.00  0.00     0.037 A 
HETATM   13  C   UNL     1       1.070   6.815 -27.690  1.00  0.00     0.004 A 
HETATM   14  C   UNL     1       0.498   6.029 -28.688  1.00  0.00     0.017 A 
BRANCH  11  15
HETATM   15  O   UNL     1      -1.048   9.841 -28.062  1.00  0.00    -0.351 OA
BRANCH  15  16
HETATM   16  C   UNL     1      -1.570  10.202 -26.785  1.00  0.00     0.175 C 
BRANCH  16  17
HETATM   17  C   UNL     1      -2.871   9.479 -26.428  1.00  0.00     0.026 C 
BRANCH  17  18
HETATM   18  C   UNL     1      -2.757   8.501 -25.255  1.00  0.00    -0.002 C 
HETATM   19  C   UNL     1      -2.458   7.070 -25.677  1.00  0.00     0.005 C 
ENDBRANCH  17  18
ENDBRANCH  16  17
ENDBRANCH  15  16
ENDBRANCH  11  15
ENDBRANCH   6   9
ENDBRANCH   3   5
ENDBRANCH   1   3
BRANCH   1  20
HETATM   20  C   UNL     1      -4.146   3.202 -31.460  1.00  0.00     0.036 A 
HETATM   21  C   UNL     1      -5.486   2.838 -31.603  1.00  0.00     0.067 A 
HETATM   22  C   UNL     1      -5.835   1.584 -32.136  1.00  0.00     0.082 A 
HETATM   23  C   UNL     1      -4.856   0.671 -32.561  1.00  0.00     0.050 A 
HETATM   24  C   UNL     1      -3.513   1.045 -32.392  1.00  0.00     0.021 A 
HETATM   25  C   UNL     1      -3.164   2.288 -31.850  1.00  0.00     0.030 A 
BRANCH  22  26
HETATM   26  O   UNL     1      -7.165   1.281 -32.261  1.00  0.00    -0.360 OA
HETATM   27  H   UNL     1      -7.288   0.551 -32.888  1.00  0.00     0.217 HD
ENDBRANCH  22  26
BRANCH  23  28
HETATM   28  C   UNL     1      -5.128  -0.605 -33.232  1.00  0.00     0.183 A 
HETATM   29  O   UNL     1      -4.139  -1.556 -33.239  1.00  0.00    -0.289 OA
HETATM   30  C   UNL     1      -4.716  -2.636 -33.836  1.00  0.00     0.106 A 
HETATM   31  C   UNL     1      -6.011  -2.291 -34.176  1.00  0.00     0.093 A 
HETATM   32  C   UNL     1      -4.142  -3.881 -34.063  1.00  0.00     0.040 A 
HETATM   33  N   UNL     1      -6.258  -0.994 -33.806  1.00  0.00    -0.221 NA
HETATM   34  C   UNL     1      -6.830  -3.248 -34.790  1.00  0.00     0.034 A 
HETATM   35  C   UNL     1      -6.292  -4.522 -35.029  1.00  0.00     0.002 A 
HETATM   36  C   UNL     1      -4.972  -4.830 -34.673  1.00  0.00     0.003 A 
ENDBRANCH  23  28
ENDBRANCH   1  20
TORSDOF 10
ENDMDL
MODEL 4
REMARK VINA RESULT:      -8.5      1.866      2.286
REMARK  10 active torsions:
REMARK  status: ('A' for Active; 'I' for Inactive)
REMARK    1  A    between atoms: C_2  and  C_3 
REMARK    2  A    between atoms: C_3  and  C_4 
REMARK    3  A    between atoms: C_4  and  O_5 
REMARK    4  A    between atoms: O_5  and  C_6 
REMARK    5  A    between atoms: C_8  and  C_9 
REMARK       I    between atoms: C_9  and  N_10 
REMARK    6  A    between atoms: N_10  and  C_11 
REMARK    7  A    between atoms: C_11  and  N_12 
REMARK    8  A    between atoms: N_12  and  C_13 
REMARK    9  A    between atoms: C_15  and  O_16 
REMARK   10  A    between atoms: C_17  and  C_18 
ROOT
HETATM    1  N   UNL     1      -5.410   4.316 -29.543  1.00  0.00    -0.333 N 
HETATM    2  H   UNL     1      -4.803   4.334 -28.726  1.00  0.00     0.168 HD
ENDROOT
BRANCH   1   3
HETATM    3  C   UNL     1      -5.735   5.580 -29.958  1.00  0.00     0.179 C 
HETATM    4  S   UNL     1      -7.165   6.221 -29.367  1.00  0.00    -0.040 SA
BRANCH   3   5
HETATM    5  N   UNL     1      -4.909   6.172 -30.879  1.00  0.00    -0.299 N 
HETATM    6  C   UNL     1      -4.999   6.041 -32.260  1.00  0.00     0.257 C 
HETATM    7  O   UNL     1      -6.048   6.131 -32.888  1.00  0.00    -0.267 OA
HETATM    8  H   UNL     1      -4.003   6.406 -30.498  1.00  0.00     0.171 HD
BRANCH   6   9
HETATM    9  C   UNL     1      -3.711   6.008 -32.997  1.00  0.00     0.035 A 
HETATM   10  C   UNL     1      -2.540   6.540 -32.447  1.00  0.00     0.053 A 
HETATM   11  C   UNL     1      -1.337   6.480 -33.158  1.00  0.00     0.069 A 
HETATM   12  C   UNL     1      -1.312   5.882 -34.419  1.00  0.00     0.037 A 
HETATM   13  C   UNL     1      -2.476   5.330 -34.960  1.00  0.00     0.004 A 
HETATM   14  C   UNL     1      -3.673   5.388 -34.250  1.00  0.00     0.017 A 
BRANCH  11  15
HETATM   15  O   UNL     1      -0.267   7.008 -32.494  1.00  0.00    -0.351 OA
BRANCH  15  16
HETATM   16  C   UNL     1      -0.380   7.274 -31.098  1.00  0.00     0.175 C 
BRANCH  16  17
HETATM   17  C   UNL     1       0.501   6.373 -30.228  1.00  0.00     0.026 C 
BRANCH  17  18
HETATM   18  C   UNL     1       0.467   6.699 -28.733  1.00  0.00    -0.002 C 
HETATM   19  C   UNL     1       1.048   8.063 -28.390  1.00  0.00     0.005 C 
ENDBRANCH  17  18
ENDBRANCH  16  17
ENDBRANCH  15  16
ENDBRANCH  11  15
ENDBRANCH   6   9
ENDBRANCH   3   5
ENDBRANCH   1   3
BRANCH   1  20
HETATM   20  C   UNL     1      -5.528   3.054 -30.167  1.00  0.00     0.036 A 
HETATM   21  C   UNL     1      -6.654   2.232 -30.108  1.00  0.00     0.067 A 
HETATM   22  C   UNL     1      -6.712   1.041 -30.855  1.00  0.00     0.082 A 
HETATM   23  C   UNL     1      -5.657   0.652 -31.696  1.00  0.00     0.050 A 
HETATM   24  C   UNL     1      -4.523   1.481 -31.728  1.00  0.00     0.021 A 
HETATM   25  C   UNL     1      -4.459   2.660 -30.976  1.00  0.00     0.030 A 
BRANCH  22  26
HETATM   26  O   UNL     1      -7.844   0.275 -30.765  1.00  0.00    -0.360 OA
HETATM   27  H   UNL     1      -7.612  -0.655 -30.613  1.00  0.00     0.217 HD
ENDBRANCH  22  26
BRANCH  23  28
HETATM   28  C   UNL     1      -5.679  -0.507 -32.595  1.00  0.00     0.183 A 
HETATM   29  O   UNL     1      -4.555  -1.292 -32.666  1.00  0.00    -0.289 OA
HETATM   30  C   UNL     1      -4.913  -2.317 -33.488  1.00  0.00     0.106 A 
HETATM   31  C   UNL     1      -6.220  -2.103 -33.889  1.00  0.00     0.093 A 
HETATM   32  C   UNL     1      -4.138  -3.407 -33.865  1.00  0.00     0.040 A 
HETATM   33  N   UNL     1      -6.691  -0.942 -33.332  1.00  0.00    -0.221 NA
HETATM   34  C   UNL     1      -6.834  -3.039 -34.731  1.00  0.00     0.034 A 
HETATM   35  C   UNL     1      -6.088  -4.160 -35.127  1.00  0.00     0.002 A 
HETATM   36  C   UNL     1      -4.765  -4.338 -34.702  1.00  0.00     0.003 A 
ENDBRANCH  23  28
ENDBRANCH   1  20
TORSDOF 10
ENDMDL
MODEL 5
REMARK VINA RESULT:      -8.4      1.690      2.222
REMARK  10 active torsions:
REMARK  status: ('A' for Active; 'I' for Inactive)
REMARK    1  A    between atoms: C_2  and  C_3 
REMARK    2  A    between atoms: C_3  and  C_4 
REMARK    3  A    between atoms: C_4  and  O_5 
REMARK    4  A    between atoms: O_5  and  C_6 
REMARK    5  A    between atoms: C_8  and  C_9 
REMARK       I    between atoms: C_9  and  N_10 
REMARK    6  A    between atoms: N_10  and  C_11 
REMARK    7  A    between atoms: C_11  and  N_12 
REMARK    8  A    between atoms: N_12  and  C_13 
REMARK    9  A    between atoms: C_15  and  O_16 
REMARK   10  A    between atoms: C_17  and  C_18 
ROOT
HETATM    1  N   UNL     1      -5.736   4.819 -31.352  1.00  0.00    -0.333 N 
HETATM    2  H   UNL     1      -6.282   5.484 -31.895  1.00  0.00     0.168 HD
ENDROOT
BRANCH   1   3
HETATM    3  C   UNL     1      -5.555   5.247 -30.064  1.00  0.00     0.179 C 
HETATM    4  S   UNL     1      -6.885   5.169 -29.051  1.00  0.00    -0.040 SA
BRANCH   3   5
HETATM    5  N   UNL     1      -4.330   5.776 -29.745  1.00  0.00    -0.299 N 
HETATM    6  C   UNL     1      -3.724   6.864 -30.363  1.00  0.00     0.257 C 
HETATM    7  O   UNL     1      -4.302   7.914 -30.620  1.00  0.00    -0.267 OA
HETATM    8  H   UNL     1      -3.723   5.109 -29.289  1.00  0.00     0.171 HD
BRANCH   6   9
HETATM    9  C   UNL     1      -2.248   6.794 -30.505  1.00  0.00     0.035 A 
HETATM   10  C   UNL     1      -1.425   6.454 -29.426  1.00  0.00     0.053 A 
HETATM   11  C   UNL     1      -0.038   6.379 -29.594  1.00  0.00     0.069 A 
HETATM   12  C   UNL     1       0.518   6.640 -30.847  1.00  0.00     0.037 A 
HETATM   13  C   UNL     1      -0.304   6.957 -31.931  1.00  0.00     0.004 A 
HETATM   14  C   UNL     1      -1.685   7.029 -31.763  1.00  0.00     0.017 A 
BRANCH  11  15
HETATM   15  O   UNL     1       0.643   6.010 -28.469  1.00  0.00    -0.351 OA
BRANCH  15  16
HETATM   16  C   UNL     1       0.328   6.639 -27.230  1.00  0.00     0.175 C 
BRANCH  16  17
HETATM   17  C   UNL     1       1.465   7.500 -26.672  1.00  0.00     0.026 C 
BRANCH  17  18
HETATM   18  C   UNL     1       1.699   8.813 -27.424  1.00  0.00    -0.002 C 
HETATM   19  C   UNL     1       0.909   9.988 -26.866  1.00  0.00     0.005 C 
ENDBRANCH  17  18
ENDBRANCH  16  17
ENDBRANCH  15  16
ENDBRANCH  11  15
ENDBRANCH   6   9
ENDBRANCH   3   5
ENDBRANCH   1   3
BRANCH   1  20
HETATM   20  C   UNL     1      -5.552   3.560 -31.968  1.00  0.00     0.036 A 
HETATM   21  C   UNL     1      -4.409   2.768 -31.848  1.00  0.00     0.067 A 
HETATM   22  C   UNL     1      -4.369   1.480 -32.413  1.00  0.00     0.082 A 
HETATM   23  C   UNL     1      -5.473   0.943 -33.093  1.00  0.00     0.050 A 
HETATM   24  C   UNL     1      -6.608   1.762 -33.221  1.00  0.00     0.021 A 
HETATM   25  C   UNL     1      -6.646   3.048 -32.671  1.00  0.00     0.030 A 
BRANCH  22  26
HETATM   26  O   UNL     1      -3.225   0.741 -32.258  1.00  0.00    -0.360 OA
HETATM   27  H   UNL     1      -2.452   1.324 -32.203  1.00  0.00     0.217 HD
ENDBRANCH  22  26
BRANCH  23  28
HETATM   28  C   UNL     1      -5.560  -0.427 -33.610  1.00  0.00     0.183 A 
HETATM   29  O   UNL     1      -4.455  -1.234 -33.494  1.00  0.00    -0.289 OA
HETATM   30  C   UNL     1      -4.872  -2.443 -33.963  1.00  0.00     0.106 A 
HETATM   31  C   UNL     1      -6.192  -2.314 -34.354  1.00  0.00     0.093 A 
HETATM   32  C   UNL     1      -4.135  -3.619 -34.036  1.00  0.00     0.040 A 
HETATM   33  N   UNL     1      -6.615  -1.026 -34.144  1.00  0.00    -0.221 NA
HETATM   34  C   UNL     1      -6.864  -3.436 -34.858  1.00  0.00     0.034 A 
HETATM   35  C   UNL     1      -6.159  -4.647 -34.939  1.00  0.00     0.002 A 
HETATM   36  C   UNL     1      -4.820  -4.734 -34.536  1.00  0.00     0.003 A 
ENDBRANCH  23  28
ENDBRANCH   1  20
TORSDOF 10
ENDMDL
MODEL 6
REMARK VINA RESULT:      -8.3      2.017      3.575
REMARK  10 active torsions:
REMARK  status: ('A' for Active; 'I' for Inactive)
REMARK    1  A    between atoms: C_2  and  C_3 
REMARK    2  A    between atoms: C_3  and  C_4 
REMARK    3  A    between atoms: C_4  and  O_5 
REMARK    4  A    between atoms: O_5  and  C_6 
REMARK    5  A    between atoms: C_8  and  C_9 
REMARK       I    between atoms: C_9  and  N_10 
REMARK    6  A    between atoms: N_10  and  C_11 
REMARK    7  A    between atoms: C_11  and  N_12 
REMARK    8  A    between atoms: N_12  and  C_13 
REMARK    9  A    between atoms: C_15  and  O_16 
REMARK   10  A    between atoms: C_17  and  C_18 
ROOT
HETATM    1  N   UNL     1      -5.949   4.845 -30.694  1.00  0.00    -0.333 N 
HETATM    2  H   UNL     1      -6.589   5.442 -31.215  1.00  0.00     0.168 HD
ENDROOT
BRANCH   1   3
HETATM    3  C   UNL     1      -5.699   5.343 -29.443  1.00  0.00     0.179 C 
HETATM    4  S   UNL     1      -7.027   5.597 -28.455  1.00  0.00    -0.040 SA
BRANCH   3   5
HETATM    5  N   UNL     1      -4.399   5.665 -29.144  1.00  0.00    -0.299 N 
HETATM    6  C   UNL     1      -3.813   6.916 -29.294  1.00  0.00     0.257 C 
HETATM    7  O   UNL     1      -4.337   7.964 -28.934  1.00  0.00    -0.267 OA
HETATM    8  H   UNL     1      -3.784   4.864 -29.161  1.00  0.00     0.171 HD
BRANCH   6   9
HETATM    9  C   UNL     1      -2.390   6.922 -29.716  1.00  0.00     0.035 A 
HETATM   10  C   UNL     1      -1.993   6.414 -30.958  1.00  0.00     0.053 A 
HETATM   11  C   UNL     1      -0.646   6.449 -31.336  1.00  0.00     0.069 A 
HETATM   12  C   UNL     1       0.298   6.999 -30.468  1.00  0.00     0.037 A 
HETATM   13  C   UNL     1      -0.100   7.527 -29.237  1.00  0.00     0.004 A 
HETATM   14  C   UNL     1      -1.442   7.494 -28.863  1.00  0.00     0.017 A 
BRANCH  11  15
HETATM   15  O   UNL     1      -0.402   5.949 -32.583  1.00  0.00    -0.351 OA
BRANCH  15  16
HETATM   16  C   UNL     1      -1.142   6.455 -33.691  1.00  0.00     0.175 C 
BRANCH  16  17
HETATM   17  C   UNL     1      -1.421   5.407 -34.772  1.00  0.00     0.026 C 
BRANCH  17  18
HETATM   18  C   UNL     1      -2.905   5.190 -35.082  1.00  0.00    -0.002 C 
HETATM   19  C   UNL     1      -3.836   5.625 -33.960  1.00  0.00     0.005 C 
ENDBRANCH  17  18
ENDBRANCH  16  17
ENDBRANCH  15  16
ENDBRANCH  11  15
ENDBRANCH   6   9
ENDBRANCH   3   5
ENDBRANCH   1   3
BRANCH   1  20
HETATM   20  C   UNL     1      -5.716   3.578 -31.275  1.00  0.00     0.036 A 
HETATM   21  C   UNL     1      -5.012   2.535 -30.670  1.00  0.00     0.067 A 
HETATM   22  C   UNL     1      -4.929   1.274 -31.288  1.00  0.00     0.082 A 
HETATM   23  C   UNL     1      -5.563   1.016 -32.514  1.00  0.00     0.050 A 
HETATM   24  C   UNL     1      -6.251   2.081 -33.118  1.00  0.00     0.021 A 
HETATM   25  C   UNL     1      -6.324   3.341 -32.510  1.00  0.00     0.030 A 
BRANCH  22  26
HETATM   26  O   UNL     1      -4.232   0.284 -30.647  1.00  0.00    -0.360 OA
HETATM   27  H   UNL     1      -3.370   0.616 -30.350  1.00  0.00     0.217 HD
ENDBRANCH  22  26
BRANCH  23  28
HETATM   28  C   UNL     1      -5.627  -0.295 -33.170  1.00  0.00     0.183 A 
HETATM   29  O   UNL     1      -4.505  -1.086 -33.144  1.00  0.00    -0.289 OA
HETATM   30  C   UNL     1      -4.901  -2.248 -33.734  1.00  0.00     0.106 A 
HETATM   31  C   UNL     1      -6.226  -2.107 -34.104  1.00  0.00     0.093 A 
HETATM   32  C   UNL     1      -4.142  -3.395 -33.932  1.00  0.00     0.040 A 
HETATM   33  N   UNL     1      -6.673  -0.856 -33.759  1.00  0.00    -0.221 NA
HETATM   34  C   UNL     1      -6.879  -3.183 -34.719  1.00  0.00     0.034 A 
HETATM   35  C   UNL     1      -6.150  -4.365 -34.928  1.00  0.00     0.002 A 
HETATM   36  C   UNL     1      -4.807  -4.466 -34.542  1.00  0.00     0.003 A 
ENDBRANCH  23  28
ENDBRANCH   1  20
TORSDOF 10
ENDMDL
MODEL 7
REMARK VINA RESULT:      -8.2      2.465      9.034
REMARK  10 active torsions:
REMARK  status: ('A' for Active; 'I' for Inactive)
REMARK    1  A    between atoms: C_2  and  C_3 
REMARK    2  A    between atoms: C_3  and  C_4 
REMARK    3  A    between atoms: C_4  and  O_5 
REMARK    4  A    between atoms: O_5  and  C_6 
REMARK    5  A    between atoms: C_8  and  C_9 
REMARK       I    between atoms: C_9  and  N_10 
REMARK    6  A    between atoms: N_10  and  C_11 
REMARK    7  A    between atoms: C_11  and  N_12 
REMARK    8  A    between atoms: N_12  and  C_13 
REMARK    9  A    between atoms: C_15  and  O_16 
REMARK   10  A    between atoms: C_17  and  C_18 
ROOT
HETATM    1  N   UNL     1      -9.983   3.432 -33.265  1.00  0.00    -0.333 N 
HETATM    2  H   UNL     1     -10.802   3.941 -32.939  1.00  0.00     0.168 HD
ENDROOT
BRANCH   1   3
HETATM    3  C   UNL     1     -10.311   2.502 -34.215  1.00  0.00     0.179 C 
HETATM    4  S   UNL     1     -11.734   2.759 -35.059  1.00  0.00    -0.040 SA
BRANCH   3   5
HETATM    5  N   UNL     1      -9.492   1.408 -34.332  1.00  0.00    -0.299 N 
HETATM    6  C   UNL     1      -9.336   0.400 -33.388  1.00  0.00     0.257 C 
HETATM    7  O   UNL     1     -10.270  -0.146 -32.810  1.00  0.00    -0.267 OA
HETATM    8  H   UNL     1      -8.726   1.560 -34.973  1.00  0.00     0.171 HD
BRANCH   6   9
HETATM    9  C   UNL     1      -7.971  -0.168 -33.261  1.00  0.00     0.035 A 
HETATM   10  C   UNL     1      -7.487  -1.120 -34.165  1.00  0.00     0.053 A 
HETATM   11  C   UNL     1      -6.190  -1.626 -34.030  1.00  0.00     0.069 A 
HETATM   12  C   UNL     1      -5.379  -1.170 -32.990  1.00  0.00     0.037 A 
HETATM   13  C   UNL     1      -5.852  -0.203 -32.099  1.00  0.00     0.004 A 
HETATM   14  C   UNL     1      -7.143   0.302 -32.236  1.00  0.00     0.017 A 
BRANCH  11  15
HETATM   15  O   UNL     1      -5.836  -2.525 -34.995  1.00  0.00    -0.351 OA
BRANCH  15  16
HETATM   16  C   UNL     1      -6.498  -3.786 -35.044  1.00  0.00     0.175 C 
BRANCH  16  17
HETATM   17  C   UNL     1      -5.541  -4.978 -35.143  1.00  0.00     0.026 C 
BRANCH  17  18
HETATM   18  C   UNL     1      -4.725  -5.249 -33.876  1.00  0.00    -0.002 C 
HETATM   19  C   UNL     1      -3.331  -4.639 -33.902  1.00  0.00     0.005 C 
ENDBRANCH  17  18
ENDBRANCH  16  17
ENDBRANCH  15  16
ENDBRANCH  11  15
ENDBRANCH   6   9
ENDBRANCH   3   5
ENDBRANCH   1   3
BRANCH   1  20
HETATM   20  C   UNL     1      -8.745   3.984 -32.865  1.00  0.00     0.036 A 
HETATM   21  C   UNL     1      -8.134   3.772 -31.628  1.00  0.00     0.067 A 
HETATM   22  C   UNL     1      -6.848   4.279 -31.368  1.00  0.00     0.082 A 
HETATM   23  C   UNL     1      -6.131   4.991 -32.343  1.00  0.00     0.050 A 
HETATM   24  C   UNL     1      -6.769   5.212 -33.575  1.00  0.00     0.021 A 
HETATM   25  C   UNL     1      -8.053   4.719 -33.831  1.00  0.00     0.030 A 
BRANCH  22  26
HETATM   26  O   UNL     1      -6.292   4.035 -30.140  1.00  0.00    -0.360 OA
HETATM   27  H   UNL     1      -6.012   3.108 -30.074  1.00  0.00     0.217 HD
ENDBRANCH  22  26
BRANCH  23  28
HETATM   28  C   UNL     1      -4.746   5.454 -32.200  1.00  0.00     0.183 A 
HETATM   29  O   UNL     1      -3.832   4.597 -31.639  1.00  0.00    -0.289 OA
HETATM   30  C   UNL     1      -2.647   5.261 -31.734  1.00  0.00     0.106 A 
HETATM   31  C   UNL     1      -2.893   6.486 -32.328  1.00  0.00     0.093 A 
HETATM   32  C   UNL     1      -1.394   4.814 -31.332  1.00  0.00     0.040 A 
HETATM   33  N   UNL     1      -4.231   6.607 -32.603  1.00  0.00    -0.221 NA
HETATM   34  C   UNL     1      -1.820   7.357 -32.559  1.00  0.00     0.034 A 
HETATM   35  C   UNL     1      -0.536   6.938 -32.177  1.00  0.00     0.002 A 
HETATM   36  C   UNL     1      -0.330   5.691 -31.574  1.00  0.00     0.003 A 
ENDBRANCH  23  28
ENDBRANCH   1  20
TORSDOF 10
ENDMDL
MODEL 8
REMARK VINA RESULT:      -8.2      3.355      6.614
REMARK  10 active torsions:
REMARK  status: ('A' for Active; 'I' for Inactive)
REMARK    1  A    between atoms: C_2  and  C_3 
REMARK    2  A    between atoms: C_3  and  C_4 
REMARK    3  A    between atoms: C_4  and  O_5 
REMARK    4  A    between atoms: O_5  and  C_6 
REMARK    5  A    between atoms: C_8  and  C_9 
REMARK       I    between atoms: C_9  and  N_10 
REMARK    6  A    between atoms: N_10  and  C_11 
REMARK    7  A    between atoms: C_11  and  N_12 
REMARK    8  A    between atoms: N_12  and  C_13 
REMARK    9  A    between atoms: C_15  and  O_16 
REMARK   10  A    between atoms: C_17  and  C_18 
ROOT
HETATM    1  N   UNL     1      -4.079   4.211 -30.891  1.00  0.00    -0.333 N 
HETATM    2  H   UNL     1      -3.497   4.325 -30.063  1.00  0.00     0.168 HD
ENDROOT
BRANCH   1   3
HETATM    3  C   UNL     1      -4.509   5.418 -31.375  1.00  0.00     0.179 C 
HETATM    4  S   UNL     1      -3.345   6.417 -32.047  1.00  0.00    -0.040 SA
BRANCH   3   5
HETATM    5  N   UNL     1      -5.831   5.734 -31.191  1.00  0.00    -0.299 N 
HETATM    6  C   UNL     1      -6.703   5.114 -30.303  1.00  0.00     0.257 C 
HETATM    7  O   UNL     1      -6.424   4.859 -29.137  1.00  0.00    -0.267 OA
HETATM    8  H   UNL     1      -6.240   6.187 -31.996  1.00  0.00     0.171 HD
BRANCH   6   9
HETATM    9  C   UNL     1      -8.106   4.967 -30.764  1.00  0.00     0.035 A 
HETATM   10  C   UNL     1      -8.438   4.148 -31.849  1.00  0.00     0.053 A 
HETATM   11  C   UNL     1      -9.772   4.016 -32.250  1.00  0.00     0.069 A 
HETATM   12  C   UNL     1     -10.770   4.701 -31.556  1.00  0.00     0.037 A 
HETATM   13  C   UNL     1     -10.443   5.500 -30.458  1.00  0.00     0.004 A 
HETATM   14  C   UNL     1      -9.115   5.630 -30.058  1.00  0.00     0.017 A 
BRANCH  11  15
HETATM   15  O   UNL     1      -9.958   3.165 -33.302  1.00  0.00    -0.351 OA
BRANCH  15  16
HETATM   16  C   UNL     1      -8.826   2.726 -34.048  1.00  0.00     0.175 C 
BRANCH  16  17
HETATM   17  C   UNL     1      -8.770   1.208 -34.243  1.00  0.00     0.026 C 
BRANCH  17  18
HETATM   18  C   UNL     1      -8.878   0.395 -32.950  1.00  0.00    -0.002 C 
HETATM   19  C   UNL     1     -10.226  -0.286 -32.765  1.00  0.00     0.005 C 
ENDBRANCH  17  18
ENDBRANCH  16  17
ENDBRANCH  15  16
ENDBRANCH  11  15
ENDBRANCH   6   9
ENDBRANCH   3   5
ENDBRANCH   1   3
BRANCH   1  20
HETATM   20  C   UNL     1      -4.063   2.915 -31.453  1.00  0.00     0.036 A 
HETATM   21  C   UNL     1      -3.189   1.891 -31.086  1.00  0.00     0.067 A 
HETATM   22  C   UNL     1      -3.327   0.601 -31.630  1.00  0.00     0.082 A 
HETATM   23  C   UNL     1      -4.355   0.295 -32.536  1.00  0.00     0.050 A 
HETATM   24  C   UNL     1      -5.214   1.342 -32.910  1.00  0.00     0.021 A 
HETATM   25  C   UNL     1      -5.070   2.629 -32.379  1.00  0.00     0.030 A 
BRANCH  22  26
HETATM   26  O   UNL     1      -2.446  -0.368 -31.229  1.00  0.00    -0.360 OA
HETATM   27  H   UNL     1      -2.260  -0.284 -30.281  1.00  0.00     0.217 HD
ENDBRANCH  22  26
BRANCH  23  28
HETATM   28  C   UNL     1      -4.644  -1.044 -33.062  1.00  0.00     0.183 A 
HETATM   29  O   UNL     1      -5.859  -1.254 -33.664  1.00  0.00    -0.289 OA
HETATM   30  C   UNL     1      -5.789  -2.533 -34.125  1.00  0.00     0.106 A 
HETATM   31  C   UNL     1      -4.553  -3.044 -33.772  1.00  0.00     0.093 A 
HETATM   32  C   UNL     1      -6.758  -3.227 -34.839  1.00  0.00     0.040 A 
HETATM   33  N   UNL     1      -3.840  -2.097 -33.081  1.00  0.00    -0.221 NA
HETATM   34  C   UNL     1      -4.224  -4.351 -34.154  1.00  0.00     0.034 A 
HETATM   35  C   UNL     1      -5.172  -5.084 -34.885  1.00  0.00     0.002 A 
HETATM   36  C   UNL     1      -6.415  -4.531 -35.219  1.00  0.00     0.003 A 
ENDBRANCH  23  28
ENDBRANCH   1  20
TORSDOF 10
ENDMDL
MODEL 9
REMARK VINA RESULT:      -8.2      2.623      3.281
REMARK  10 active torsions:
REMARK  status: ('A' for Active; 'I' for Inactive)
REMARK    1  A    between atoms: C_2  and  C_3 
REMARK    2  A    between atoms: C_3  and  C_4 
REMARK    3  A    between atoms: C_4  and  O_5 
REMARK    4  A    between atoms: O_5  and  C_6 
REMARK    5  A    between atoms: C_8  and  C_9 
REMARK       I    between atoms: C_9  and  N_10 
REMARK    6  A    between atoms: N_10  and  C_11 
REMARK    7  A    between atoms: C_11  and  N_12 
REMARK    8  A    between atoms: N_12  and  C_13 
REMARK    9  A    between atoms: C_15  and  O_16 
REMARK   10  A    between atoms: C_17  and  C_18 
ROOT
HETATM    1  N   UNL     1      -3.378   4.552 -31.057  1.00  0.00    -0.333 N 
HETATM    2  H   UNL     1      -3.262   4.558 -30.046  1.00  0.00     0.168 HD
ENDROOT
BRANCH   1   3
HETATM    3  C   UNL     1      -2.716   5.594 -31.649  1.00  0.00     0.179 C 
HETATM    4  S   UNL     1      -1.531   5.198 -32.764  1.00  0.00    -0.040 SA
BRANCH   3   5
HETATM    5  N   UNL     1      -3.023   6.860 -31.216  1.00  0.00    -0.299 N 
HETATM    6  C   UNL     1      -2.312   8.017 -31.509  1.00  0.00     0.257 C 
HETATM    7  O   UNL     1      -1.918   8.311 -32.633  1.00  0.00    -0.267 OA
HETATM    8  H   UNL     1      -3.572   6.861 -30.368  1.00  0.00     0.171 HD
BRANCH   6   9
HETATM    9  C   UNL     1      -2.236   9.028 -30.425  1.00  0.00     0.035 A 
HETATM   10  C   UNL     1      -1.490   8.800 -29.264  1.00  0.00     0.053 A 
HETATM   11  C   UNL     1      -1.423   9.779 -28.266  1.00  0.00     0.069 A 
HETATM   12  C   UNL     1      -2.100  10.986 -28.439  1.00  0.00     0.037 A 
HETATM   13  C   UNL     1      -2.827  11.224 -29.608  1.00  0.00     0.004 A 
HETATM   14  C   UNL     1      -2.891  10.251 -30.603  1.00  0.00     0.017 A 
BRANCH  11  15
HETATM   15  O   UNL     1      -0.638   9.439 -27.201  1.00  0.00    -0.351 OA
BRANCH  15  16
HETATM   16  C   UNL     1       0.772   9.331 -27.385  1.00  0.00     0.175 C 
BRANCH  16  17
HETATM   17  C   UNL     1       1.381   8.084 -26.738  1.00  0.00     0.026 C 
BRANCH  17  18
HETATM   18  C   UNL     1       1.065   6.771 -27.460  1.00  0.00    -0.002 C 
HETATM   19  C   UNL     1      -0.220   6.107 -26.988  1.00  0.00     0.005 C 
ENDBRANCH  17  18
ENDBRANCH  16  17
ENDBRANCH  15  16
ENDBRANCH  11  15
ENDBRANCH   6   9
ENDBRANCH   3   5
ENDBRANCH   1   3
BRANCH   1  20
HETATM   20  C   UNL     1      -3.942   3.367 -31.582  1.00  0.00     0.036 A 
HETATM   21  C   UNL     1      -5.012   3.314 -32.476  1.00  0.00     0.067 A 
HETATM   22  C   UNL     1      -5.428   2.087 -33.024  1.00  0.00     0.082 A 
HETATM   23  C   UNL     1      -4.773   0.885 -32.710  1.00  0.00     0.050 A 
HETATM   24  C   UNL     1      -3.710   0.954 -31.794  1.00  0.00     0.021 A 
HETATM   25  C   UNL     1      -3.303   2.172 -31.238  1.00  0.00     0.030 A 
BRANCH  22  26
HETATM   26  O   UNL     1      -6.479   2.093 -33.902  1.00  0.00    -0.360 OA
HETATM   27  H   UNL     1      -6.259   2.617 -34.688  1.00  0.00     0.217 HD
ENDBRANCH  22  26
BRANCH  23  28
HETATM   28  C   UNL     1      -5.063  -0.417 -33.320  1.00  0.00     0.183 A 
HETATM   29  O   UNL     1      -4.078  -1.374 -33.302  1.00  0.00    -0.289 OA
HETATM   30  C   UNL     1      -4.671  -2.476 -33.840  1.00  0.00     0.106 A 
HETATM   31  C   UNL     1      -5.970  -2.138 -34.174  1.00  0.00     0.093 A 
HETATM   32  C   UNL     1      -4.107  -3.733 -34.022  1.00  0.00     0.040 A 
HETATM   33  N   UNL     1      -6.203  -0.824 -33.858  1.00  0.00    -0.221 NA
HETATM   34  C   UNL     1      -6.804  -3.116 -34.733  1.00  0.00     0.034 A 
HETATM   35  C   UNL     1      -6.276  -4.402 -34.924  1.00  0.00     0.002 A 
HETATM   36  C   UNL     1      -4.953  -4.702 -34.576  1.00  0.00     0.003 A 
ENDBRANCH  23  28
ENDBRANCH   1  20
TORSDOF 10
ENDMDL
MODEL 10
REMARK VINA RESULT:      -8.2      1.635      2.466
REMARK  10 active torsions:
REMARK  status: ('A' for Active; 'I' for Inactive)
REMARK    1  A    between atoms: C_2  and  C_3 
REMARK    2  A    between atoms: C_3  and  C_4 
REMARK    3  A    between atoms: C_4  and  O_5 
REMARK    4  A    between atoms: O_5  and  C_6 
REMARK    5  A    between atoms: C_8  and  C_9 
REMARK       I    between atoms: C_9  and  N_10 
REMARK    6  A    between atoms: N_10  and  C_11 
REMARK    7  A    between atoms: C_11  and  N_12 
REMARK    8  A    between atoms: N_12  and  C_13 
REMARK    9  A    between atoms: C_15  and  O_16 
REMARK   10  A    between atoms: C_17  and  C_18 
ROOT
HETATM    1  N   UNL     1      -8.895   4.296 -31.664  1.00  0.00    -0.333 N 
HETATM    2  H   UNL     1      -9.411   4.299 -30.786  1.00  0.00     0.168 HD
ENDROOT
BRANCH   1   3
HETATM    3  C   UNL     1      -8.492   5.555 -32.018  1.00  0.00     0.179 C 
HETATM    4  S   UNL     1      -9.698   6.654 -32.393  1.00  0.00    -0.040 SA
BRANCH   3   5
HETATM    5  N   UNL     1      -7.141   5.780 -32.113  1.00  0.00    -0.299 N 
HETATM    6  C   UNL     1      -6.289   5.235 -33.065  1.00  0.00     0.257 C 
HETATM    7  O   UNL     1      -6.540   5.193 -34.264  1.00  0.00    -0.267 OA
HETATM    8  H   UNL     1      -6.730   6.062 -31.234  1.00  0.00     0.171 HD
BRANCH   6   9
HETATM    9  C   UNL     1      -4.921   4.894 -32.597  1.00  0.00     0.035 A 
HETATM   10  C   UNL     1      -4.086   5.856 -32.020  1.00  0.00     0.053 A 
HETATM   11  C   UNL     1      -2.808   5.503 -31.572  1.00  0.00     0.069 A 
HETATM   12  C   UNL     1      -2.375   4.183 -31.701  1.00  0.00     0.037 A 
HETATM   13  C   UNL     1      -3.217   3.216 -32.257  1.00  0.00     0.004 A 
HETATM   14  C   UNL     1      -4.490   3.568 -32.699  1.00  0.00     0.017 A 
BRANCH  11  15
HETATM   15  O   UNL     1      -2.110   6.530 -31.004  1.00  0.00    -0.351 OA
BRANCH  15  16
HETATM   16  C   UNL     1      -1.022   7.109 -31.720  1.00  0.00     0.175 C 
BRANCH  16  17
HETATM   17  C   UNL     1       0.351   6.755 -31.141  1.00  0.00     0.026 C 
BRANCH  17  18
HETATM   18  C   UNL     1       0.360   6.492 -29.633  1.00  0.00    -0.002 C 
HETATM   19  C   UNL     1       0.675   7.725 -28.798  1.00  0.00     0.005 C 
ENDBRANCH  17  18
ENDBRANCH  16  17
ENDBRANCH  15  16
ENDBRANCH  11  15
ENDBRANCH   6   9
ENDBRANCH   3   5
ENDBRANCH   1   3
BRANCH   1  20
HETATM   20  C   UNL     1      -8.515   3.014 -32.123  1.00  0.00     0.036 A 
HETATM   21  C   UNL     1      -8.770   2.511 -33.400  1.00  0.00     0.067 A 
HETATM   22  C   UNL     1      -8.253   1.263 -33.794  1.00  0.00     0.082 A 
HETATM   23  C   UNL     1      -7.452   0.497 -32.932  1.00  0.00     0.050 A 
HETATM   24  C   UNL     1      -7.223   1.009 -31.645  1.00  0.00     0.021 A 
HETATM   25  C   UNL     1      -7.746   2.245 -31.246  1.00  0.00     0.030 A 
BRANCH  22  26
HETATM   26  O   UNL     1      -8.527   0.821 -35.061  1.00  0.00    -0.360 OA
HETATM   27  H   UNL     1      -7.809   1.065 -35.667  1.00  0.00     0.217 HD
ENDBRANCH  22  26
BRANCH  23  28
HETATM   28  C   UNL     1      -6.779  -0.754 -33.298  1.00  0.00     0.183 A 
HETATM   29  O   UNL     1      -7.516  -1.724 -33.931  1.00  0.00    -0.289 OA
HETATM   30  C   UNL     1      -6.609  -2.699 -34.221  1.00  0.00     0.106 A 
HETATM   31  C   UNL     1      -5.378  -2.289 -33.741  1.00  0.00     0.093 A 
HETATM   32  C   UNL     1      -6.841  -3.894 -34.890  1.00  0.00     0.040 A 
HETATM   33  N   UNL     1      -5.500  -1.062 -33.140  1.00  0.00    -0.221 NA
HETATM   34  C   UNL     1      -4.264  -3.116 -33.936  1.00  0.00     0.034 A 
HETATM   35  C   UNL     1      -4.453  -4.329 -34.616  1.00  0.00     0.002 A 
HETATM   36  C   UNL     1      -5.718  -4.709 -35.083  1.00  0.00     0.003 A 
ENDBRANCH  23  28
ENDBRANCH   1  20
TORSDOF 10
ENDMDL
