MODEL 1
REMARK VINA RESULT:      -9.4      0.000      0.000
REMARK  9 active torsions:
REMARK  status: ('A' for Active; 'I' for Inactive)
REMARK    1  A    between atoms: O_2  and  C_3 
REMARK    2  A    between atoms: C_4  and  O_5 
REMARK    3  A    between atoms: C_8  and  C_9 
REMARK    4  A    between atoms: C_9  and  N_10 
REMARK    5  A    between atoms: C_14  and  O_15 
REMARK    6  A    between atoms: C_14  and  C_16 
REMARK    7  A    between atoms: C_21  and  C_22 
REMARK       I    between atoms: C_22  and  N_23 
REMARK    8  A    between atoms: N_23  and  C_24 
REMARK    9  A    between atoms: C_24  and  C_25 
ROOT
HETATM    1  N   UNL     1      -8.696   0.308 -33.924  1.00  0.00    -0.067 N 
HETATM    2  H   UNL     1      -9.490  -0.346 -33.932  1.00  0.00     0.280 HD
HETATM    3  C   UNL     1      -8.024   0.162 -32.577  1.00  0.00     0.238 C 
HETATM    4  C   UNL     1      -8.903   0.717 -31.469  1.00  0.00     0.071 C 
HETATM    5  C   UNL     1      -9.241   2.201 -31.705  1.00  0.00     0.088 C 
HETATM    6  C   UNL     1     -10.041   2.224 -33.021  1.00  0.00     0.071 C 
HETATM    7  C   UNL     1      -9.232   1.695 -34.194  1.00  0.00     0.238 C 
ENDROOT
BRANCH   5   8
HETATM    8  O   UNL     1     -10.141   2.594 -30.669  1.00  0.00    -0.385 OA
HETATM    9  H   UNL     1     -10.130   1.931 -29.954  1.00  0.00     0.211 HD
ENDBRANCH   5   8
BRANCH   5  10
HETATM   10  C   UNL     1      -8.017   3.130 -31.662  1.00  0.00    -0.023 A 
HETATM   11  C   UNL     1      -6.770   2.650 -31.192  1.00  0.00     0.024 A 
HETATM   12  C   UNL     1      -5.619   3.456 -31.285  1.00  0.00     0.001 A 
HETATM   13  C   UNL     1      -5.750   4.738 -31.791  1.00  0.00     0.086 A 
HETATM   14  C   UNL     1      -4.243   3.300 -30.984  1.00  0.00     0.057 A 
HETATM   15  O   UNL     1      -4.538   5.350 -31.863  1.00  0.00    -0.304 OA
HETATM   16  C   UNL     1      -6.963   5.300 -32.166  1.00  0.00     0.039 A 
HETATM   17  C   UNL     1      -3.610   4.466 -31.375  1.00  0.00     0.144 A 
HETATM   18  C   UNL     1      -8.093   4.475 -32.076  1.00  0.00     0.013 A 
BRANCH  17  19
HETATM   19  C   UNL     1      -2.211   4.838 -31.345  1.00  0.00     0.275 C 
HETATM   20  N   UNL     1      -1.866   5.654 -30.292  1.00  0.00    -0.353 N 
HETATM   21  H   UNL     1      -2.620   6.031 -29.730  1.00  0.00     0.162 HD
HETATM   22  O   UNL     1      -1.406   4.490 -32.205  1.00  0.00    -0.265 OA
BRANCH  20  23
HETATM   23  C   UNL     1      -0.554   6.264 -30.181  1.00  0.00     0.155 C 
BRANCH  23  24
HETATM   24  C   UNL     1      -0.401   7.118 -28.918  1.00  0.00     0.139 C 
HETATM   25  O   UNL     1      -0.473   6.297 -27.732  1.00  0.00    -0.384 OA
HETATM   26  C   UNL     1       0.431   6.844 -26.757  1.00  0.00     0.168 C 
HETATM   27  C   UNL     1       1.052   8.089 -27.360  1.00  0.00     0.029 C 
HETATM   28  C   UNL     1       0.945   7.818 -28.839  1.00  0.00     0.035 C 
ENDBRANCH  23  24
ENDBRANCH  20  23
ENDBRANCH  17  19
ENDBRANCH   5  10
BRANCH   1  29
HETATM   29  C   UNL     1      -7.788  -0.112 -35.074  1.00  0.00     0.273 C 
BRANCH  29  30
HETATM   30  C   UNL     1      -6.670  -1.036 -34.685  1.00  0.00    -0.030 A 
HETATM   31  C   UNL     1      -5.537  -0.531 -34.029  1.00  0.00     0.048 A 
HETATM   32  C   UNL     1      -4.505  -1.388 -33.638  1.00  0.00     0.102 A 
HETATM   33  C   UNL     1      -4.554  -2.751 -33.950  1.00  0.00     0.101 A 
HETATM   34  C   UNL     1      -5.684  -3.259 -34.595  1.00  0.00     0.040 A 
HETATM   35  C   UNL     1      -6.739  -2.409 -34.954  1.00  0.00     0.012 A 
BRANCH  32  36
HETATM   36  O   UNL     1      -3.389  -0.873 -33.033  1.00  0.00    -0.353 OA
HETATM   37  C   UNL     1      -3.656  -0.465 -31.693  1.00  0.00     0.210 C 
ENDBRANCH  32  36
BRANCH  33  38
HETATM   38  O   UNL     1      -3.496  -3.516 -33.543  1.00  0.00    -0.353 OA
HETATM   39  C   UNL     1      -3.738  -4.918 -33.472  1.00  0.00     0.210 C 
ENDBRANCH  33  38
ENDBRANCH  29  30
ENDBRANCH   1  29
TORSDOF 9
ENDMDL
MODEL 2
REMARK VINA RESULT:      -9.4      1.217      1.757
REMARK  9 active torsions:
REMARK  status: ('A' for Active; 'I' for Inactive)
REMARK    1  A    between atoms: O_2  and  C_3 
REMARK    2  A    between atoms: C_4  and  O_5 
REMARK    3  A    between atoms: C_8  and  C_9 
REMARK    4  A    between atoms: C_9  and  N_10 
REMARK    5  A    between atoms: C_14  and  O_15 
REMARK    6  A    between atoms: C_14  and  C_16 
REMARK    7  A    between atoms: C_21  and  C_22 
REMARK       I    between atoms: C_22  and  N_23 
REMARK    8  A    between atoms: N_23  and  C_24 
REMARK    9  A    between atoms: C_24  and  C_25 
ROOT
HETATM    1  N   UNL     1      -8.727   0.387 -34.013  1.00  0.00    -0.067 N 
HETATM    2  H   UNL     1      -9.638  -0.074 -34.142  1.00  0.00     0.280 HD
HETATM    3  C   UNL     1      -8.212  -0.037 -32.656  1.00  0.00     0.238 C 
HETATM    4  C   UNL     1      -9.041   0.582 -31.544  1.00  0.00     0.071 C 
HETATM    5  C   UNL     1      -9.038   2.120 -31.625  1.00  0.00     0.088 C 
HETATM    6  C   UNL     1      -9.705   2.450 -32.973  1.00  0.00     0.071 C 
HETATM    7  C   UNL     1      -8.934   1.878 -34.151  1.00  0.00     0.238 C 
ENDROOT
BRANCH   5   8
HETATM    8  O   UNL     1      -9.915   2.594 -30.604  1.00  0.00    -0.385 OA
HETATM    9  H   UNL     1      -9.464   3.272 -30.069  1.00  0.00     0.211 HD
ENDBRANCH   5   8
BRANCH   5  10
HETATM   10  C   UNL     1      -7.653   2.749 -31.405  1.00  0.00    -0.023 A 
HETATM   11  C   UNL     1      -7.182   3.766 -32.272  1.00  0.00     0.024 A 
HETATM   12  C   UNL     1      -5.978   4.438 -31.988  1.00  0.00     0.001 A 
HETATM   13  C   UNL     1      -5.245   4.042 -30.881  1.00  0.00     0.086 A 
HETATM   14  C   UNL     1      -5.249   5.506 -32.570  1.00  0.00     0.057 A 
HETATM   15  O   UNL     1      -4.149   4.831 -30.726  1.00  0.00    -0.304 OA
HETATM   16  C   UNL     1      -5.601   2.982 -30.059  1.00  0.00     0.039 A 
HETATM   17  C   UNL     1      -4.153   5.735 -31.757  1.00  0.00     0.144 A 
HETATM   18  C   UNL     1      -6.810   2.335 -30.354  1.00  0.00     0.013 A 
BRANCH  17  19
HETATM   19  C   UNL     1      -3.104   6.730 -31.844  1.00  0.00     0.275 C 
HETATM   20  N   UNL     1      -1.889   6.233 -32.257  1.00  0.00    -0.353 N 
HETATM   21  H   UNL     1      -1.796   5.226 -32.322  1.00  0.00     0.162 HD
HETATM   22  O   UNL     1      -3.269   7.908 -31.539  1.00  0.00    -0.265 OA
BRANCH  20  23
HETATM   23  C   UNL     1      -0.680   7.036 -32.250  1.00  0.00     0.155 C 
BRANCH  23  24
HETATM   24  C   UNL     1       0.278   6.658 -31.116  1.00  0.00     0.139 C 
HETATM   25  O   UNL     1      -0.163   7.225 -29.862  1.00  0.00    -0.384 OA
HETATM   26  C   UNL     1       0.147   6.288 -28.817  1.00  0.00     0.168 C 
HETATM   27  C   UNL     1       0.854   5.109 -29.456  1.00  0.00     0.029 C 
HETATM   28  C   UNL     1       0.344   5.159 -30.875  1.00  0.00     0.035 C 
ENDBRANCH  23  24
ENDBRANCH  20  23
ENDBRANCH  17  19
ENDBRANCH   5  10
BRANCH   1  29
HETATM   29  C   UNL     1      -7.838  -0.104 -35.150  1.00  0.00     0.273 C 
BRANCH  29  30
HETATM   30  C   UNL     1      -6.708  -0.996 -34.722  1.00  0.00    -0.030 A 
HETATM   31  C   UNL     1      -5.574  -0.446 -34.106  1.00  0.00     0.048 A 
HETATM   32  C   UNL     1      -4.531  -1.271 -33.679  1.00  0.00     0.102 A 
HETATM   33  C   UNL     1      -4.569  -2.649 -33.916  1.00  0.00     0.101 A 
HETATM   34  C   UNL     1      -5.701  -3.202 -34.521  1.00  0.00     0.040 A 
HETATM   35  C   UNL     1      -6.766  -2.382 -34.916  1.00  0.00     0.012 A 
BRANCH  32  36
HETATM   36  O   UNL     1      -3.413  -0.714 -33.113  1.00  0.00    -0.353 OA
HETATM   37  C   UNL     1      -3.714   0.510 -32.447  1.00  0.00     0.210 C 
ENDBRANCH  32  36
BRANCH  33  38
HETATM   38  O   UNL     1      -3.500  -3.382 -33.478  1.00  0.00    -0.353 OA
HETATM   39  C   UNL     1      -3.611  -4.793 -33.638  1.00  0.00     0.210 C 
ENDBRANCH  33  38
ENDBRANCH  29  30
ENDBRANCH   1  29
TORSDOF 9
ENDMDL
MODEL 3
REMARK VINA RESULT:      -9.3      2.561     11.156
REMARK  9 active torsions:
REMARK  status: ('A' for Active; 'I' for Inactive)
REMARK    1  A    between atoms: O_2  and  C_3 
REMARK    2  A    between atoms: C_4  and  O_5 
REMARK    3  A    between atoms: C_8  and  C_9 
REMARK    4  A    between atoms: C_9  and  N_10 
REMARK    5  A    between atoms: C_14  and  O_15 
REMARK    6  A    between atoms: C_14  and  C_16 
REMARK    7  A    between atoms: C_21  and  C_22 
REMARK       I    between atoms: C_22  and  N_23 
REMARK    8  A    between atoms: N_23  and  C_24 
REMARK    9  A    between atoms: C_24  and  C_25 
ROOT
HETATM    1  N   UNL     1      -0.864   7.492 -29.692  1.00  0.00    -0.067 N 
HETATM    2  H   UNL     1      -0.097   8.178 -29.682  1.00  0.00     0.280 HD
HETATM    3  C   UNL     1      -0.390   6.320 -30.523  1.00  0.00     0.238 C 
HETATM    4  C   UNL     1      -0.288   6.702 -31.990  1.00  0.00     0.071 C 
HETATM    5  C   UNL     1      -1.638   7.197 -32.541  1.00  0.00     0.088 C 
HETATM    6  C   UNL     1      -1.961   8.465 -31.728  1.00  0.00     0.071 C 
HETATM    7  C   UNL     1      -2.095   8.175 -30.242  1.00  0.00     0.238 C 
ENDROOT
BRANCH   5   8
HETATM    8  O   UNL     1      -1.411   7.618 -33.886  1.00  0.00    -0.385 OA
HETATM    9  H   UNL     1      -2.236   7.540 -34.400  1.00  0.00     0.211 HD
ENDBRANCH   5   8
BRANCH   5  10
HETATM   10  C   UNL     1      -2.736   6.122 -32.547  1.00  0.00    -0.023 A 
HETATM   11  C   UNL     1      -2.399   4.754 -32.694  1.00  0.00     0.024 A 
HETATM   12  C   UNL     1      -3.388   3.761 -32.558  1.00  0.00     0.001 A 
HETATM   13  C   UNL     1      -4.696   4.157 -32.337  1.00  0.00     0.086 A 
HETATM   14  C   UNL     1      -3.414   2.343 -32.581  1.00  0.00     0.057 A 
HETATM   15  O   UNL     1      -5.503   3.075 -32.174  1.00  0.00    -0.304 OA
HETATM   16  C   UNL     1      -5.104   5.484 -32.293  1.00  0.00     0.039 A 
HETATM   17  C   UNL     1      -4.717   1.961 -32.316  1.00  0.00     0.144 A 
HETATM   18  C   UNL     1      -4.099   6.455 -32.418  1.00  0.00     0.013 A 
BRANCH  17  19
HETATM   19  C   UNL     1      -5.304   0.645 -32.173  1.00  0.00     0.275 C 
HETATM   20  N   UNL     1      -5.765   0.102 -33.351  1.00  0.00    -0.353 N 
HETATM   21  H   UNL     1      -5.786   0.705 -34.164  1.00  0.00     0.162 HD
HETATM   22  O   UNL     1      -5.419   0.076 -31.091  1.00  0.00    -0.265 OA
BRANCH  20  23
HETATM   23  C   UNL     1      -6.529  -1.131 -33.389  1.00  0.00     0.155 C 
BRANCH  23  24
HETATM   24  C   UNL     1      -5.999  -2.126 -34.427  1.00  0.00     0.139 C 
HETATM   25  O   UNL     1      -4.710  -2.643 -34.031  1.00  0.00    -0.384 OA
HETATM   26  C   UNL     1      -4.636  -4.018 -34.445  1.00  0.00     0.168 C 
HETATM   27  C   UNL     1      -5.925  -4.345 -35.172  1.00  0.00     0.029 C 
HETATM   28  C   UNL     1      -6.890  -3.348 -34.580  1.00  0.00     0.035 C 
ENDBRANCH  23  24
ENDBRANCH  20  23
ENDBRANCH  17  19
ENDBRANCH   5  10
BRANCH   1  29
HETATM   29  C   UNL     1      -1.110   7.109 -28.237  1.00  0.00     0.273 C 
BRANCH  29  30
HETATM   30  C   UNL     1      -0.222   7.805 -27.247  1.00  0.00    -0.030 A 
HETATM   31  C   UNL     1      -0.785   8.588 -26.227  1.00  0.00     0.048 A 
HETATM   32  C   UNL     1       0.032   9.216 -25.285  1.00  0.00     0.102 A 
HETATM   33  C   UNL     1       1.425   9.130 -25.379  1.00  0.00     0.101 A 
HETATM   34  C   UNL     1       1.990   8.344 -26.387  1.00  0.00     0.040 A 
HETATM   35  C   UNL     1       1.172   7.681 -27.311  1.00  0.00     0.012 A 
BRANCH  32  36
HETATM   36  O   UNL     1      -0.531  10.008 -24.319  1.00  0.00    -0.353 OA
HETATM   37  C   UNL     1      -1.766   9.470 -23.850  1.00  0.00     0.210 C 
ENDBRANCH  32  36
BRANCH  33  38
HETATM   38  O   UNL     1       2.151   9.786 -24.423  1.00  0.00    -0.353 OA
HETATM   39  C   UNL     1       3.542   9.483 -24.386  1.00  0.00     0.210 C 
ENDBRANCH  33  38
ENDBRANCH  29  30
ENDBRANCH   1  29
TORSDOF 9
ENDMDL
MODEL 4
REMARK VINA RESULT:      -9.2      1.710      2.888
REMARK  9 active torsions:
REMARK  status: ('A' for Active; 'I' for Inactive)
REMARK    1  A    between atoms: O_2  and  C_3 
REMARK    2  A    between atoms: C_4  and  O_5 
REMARK    3  A    between atoms: C_8  and  C_9 
REMARK    4  A    between atoms: C_9  and  N_10 
REMARK    5  A    between atoms: C_14  and  O_15 
REMARK    6  A    between atoms: C_14  and  C_16 
REMARK    7  A    between atoms: C_21  and  C_22 
REMARK       I    between atoms: C_22  and  N_23 
REMARK    8  A    between atoms: N_23  and  C_24 
REMARK    9  A    between atoms: C_24  and  C_25 
ROOT
HETATM    1  N   UNL     1      -8.983   2.168 -32.126  1.00  0.00    -0.067 N 
HETATM    2  H   UNL     1      -9.998   2.324 -32.191  1.00  0.00     0.280 HD
HETATM    3  C   UNL     1      -8.461   3.128 -31.081  1.00  0.00     0.238 C 
HETATM    4  C   UNL     1      -8.530   4.561 -31.578  1.00  0.00     0.071 C 
HETATM    5  C   UNL     1      -7.727   4.749 -32.879  1.00  0.00     0.088 C 
HETATM    6  C   UNL     1      -8.422   3.840 -33.911  1.00  0.00     0.071 C 
HETATM    7  C   UNL     1      -8.390   2.377 -33.501  1.00  0.00     0.238 C 
ENDROOT
BRANCH   5   8
HETATM    8  O   UNL     1      -7.937   6.094 -33.309  1.00  0.00    -0.385 OA
HETATM    9  H   UNL     1      -8.274   6.099 -34.223  1.00  0.00     0.211 HD
ENDBRANCH   5   8
BRANCH   5  10
HETATM   10  C   UNL     1      -6.217   4.521 -32.714  1.00  0.00    -0.023 A 
HETATM   11  C   UNL     1      -5.419   5.473 -32.033  1.00  0.00     0.024 A 
HETATM   12  C   UNL     1      -4.065   5.199 -31.759  1.00  0.00     0.001 A 
HETATM   13  C   UNL     1      -3.527   4.009 -32.218  1.00  0.00     0.086 A 
HETATM   14  C   UNL     1      -3.013   5.859 -31.077  1.00  0.00     0.057 A 
HETATM   15  O   UNL     1      -2.234   3.882 -31.817  1.00  0.00    -0.304 OA
HETATM   16  C   UNL     1      -4.230   3.087 -32.983  1.00  0.00     0.039 A 
HETATM   17  C   UNL     1      -1.918   5.013 -31.110  1.00  0.00     0.144 A 
HETATM   18  C   UNL     1      -5.579   3.377 -33.233  1.00  0.00     0.013 A 
BRANCH  17  19
HETATM   19  C   UNL     1      -0.598   5.155 -30.534  1.00  0.00     0.275 C 
HETATM   20  N   UNL     1      -0.584   5.750 -29.293  1.00  0.00    -0.353 N 
HETATM   21  H   UNL     1      -1.451   6.156 -28.963  1.00  0.00     0.162 HD
HETATM   22  O   UNL     1       0.428   4.811 -31.115  1.00  0.00    -0.265 OA
BRANCH  20  23
HETATM   23  C   UNL     1       0.649   6.126 -28.627  1.00  0.00     0.155 C 
BRANCH  23  24
HETATM   24  C   UNL     1       0.813   7.644 -28.494  1.00  0.00     0.139 C 
HETATM   25  O   UNL     1      -0.474   8.297 -28.447  1.00  0.00    -0.384 OA
HETATM   26  C   UNL     1      -0.371   9.418 -27.553  1.00  0.00     0.168 C 
HETATM   27  C   UNL     1       1.064   9.482 -27.066  1.00  0.00     0.029 C 
HETATM   28  C   UNL     1       1.516   8.051 -27.210  1.00  0.00     0.035 C 
ENDBRANCH  23  24
ENDBRANCH  20  23
ENDBRANCH  17  19
ENDBRANCH   5  10
BRANCH   1  29
HETATM   29  C   UNL     1      -8.802   0.711 -31.718  1.00  0.00     0.273 C 
BRANCH  29  30
HETATM   30  C   UNL     1      -7.435   0.150 -31.984  1.00  0.00    -0.030 A 
HETATM   31  C   UNL     1      -7.199  -0.609 -33.141  1.00  0.00     0.048 A 
HETATM   32  C   UNL     1      -5.924  -1.110 -33.411  1.00  0.00     0.102 A 
HETATM   33  C   UNL     1      -4.877  -0.920 -32.503  1.00  0.00     0.101 A 
HETATM   34  C   UNL     1      -5.105  -0.158 -31.355  1.00  0.00     0.040 A 
HETATM   35  C   UNL     1      -6.373   0.380 -31.099  1.00  0.00     0.012 A 
BRANCH  32  36
HETATM   36  O   UNL     1      -5.720  -1.881 -34.525  1.00  0.00    -0.353 OA
HETATM   37  C   UNL     1      -6.720  -2.888 -34.660  1.00  0.00     0.210 C 
ENDBRANCH  32  36
BRANCH  33  38
HETATM   38  O   UNL     1      -3.664  -1.456 -32.838  1.00  0.00    -0.353 OA
HETATM   39  C   UNL     1      -3.178  -2.477 -31.972  1.00  0.00     0.210 C 
ENDBRANCH  33  38
ENDBRANCH  29  30
ENDBRANCH   1  29
TORSDOF 9
ENDMDL
MODEL 5
REMARK VINA RESULT:      -8.7      3.759      8.364
REMARK  9 active torsions:
REMARK  status: ('A' for Active; 'I' for Inactive)
REMARK    1  A    between atoms: O_2  and  C_3 
REMARK    2  A    between atoms: C_4  and  O_5 
REMARK    3  A    between atoms: C_8  and  C_9 
REMARK    4  A    between atoms: C_9  and  N_10 
REMARK    5  A    between atoms: C_14  and  O_15 
REMARK    6  A    between atoms: C_14  and  C_16 
REMARK    7  A    between atoms: C_21  and  C_22 
REMARK       I    between atoms: C_22  and  N_23 
REMARK    8  A    between atoms: N_23  and  C_24 
REMARK    9  A    between atoms: C_24  and  C_25 
ROOT
HETATM    1  N   UNL     1     -11.967   5.713 -32.103  1.00  0.00    -0.067 N 
HETATM    2  H   UNL     1     -12.546   6.537 -32.310  1.00  0.00     0.280 HD
HETATM    3  C   UNL     1     -10.940   5.611 -33.208  1.00  0.00     0.238 C 
HETATM    4  C   UNL     1     -11.593   5.216 -34.521  1.00  0.00     0.071 C 
HETATM    5  C   UNL     1     -12.338   3.873 -34.401  1.00  0.00     0.088 C 
HETATM    6  C   UNL     1     -13.446   4.122 -33.360  1.00  0.00     0.071 C 
HETATM    7  C   UNL     1     -12.881   4.513 -32.003  1.00  0.00     0.238 C 
ENDROOT
BRANCH   5   8
HETATM    8  O   UNL     1     -12.991   3.644 -35.649  1.00  0.00    -0.385 OA
HETATM    9  H   UNL     1     -13.957   3.650 -35.522  1.00  0.00     0.211 HD
ENDBRANCH   5   8
BRANCH   5  10
HETATM   10  C   UNL     1     -11.417   2.678 -34.108  1.00  0.00    -0.023 A 
HETATM   11  C   UNL     1     -10.014   2.802 -34.258  1.00  0.00     0.024 A 
HETATM   12  C   UNL     1      -9.163   1.754 -33.856  1.00  0.00     0.001 A 
HETATM   13  C   UNL     1      -9.733   0.590 -33.369  1.00  0.00     0.086 A 
HETATM   14  C   UNL     1      -7.761   1.549 -33.801  1.00  0.00     0.057 A 
HETATM   15  O   UNL     1      -8.770  -0.286 -32.976  1.00  0.00    -0.304 OA
HETATM   16  C   UNL     1     -11.102   0.370 -33.301  1.00  0.00     0.039 A 
HETATM   17  C   UNL     1      -7.559   0.303 -33.234  1.00  0.00     0.144 A 
HETATM   18  C   UNL     1     -11.929   1.432 -33.696  1.00  0.00     0.013 A 
BRANCH  17  19
HETATM   19  C   UNL     1      -6.335  -0.394 -32.898  1.00  0.00     0.275 C 
HETATM   20  N   UNL     1      -5.589  -0.781 -33.988  1.00  0.00    -0.353 N 
HETATM   21  H   UNL     1      -6.013  -0.678 -34.902  1.00  0.00     0.162 HD
HETATM   22  O   UNL     1      -6.007  -0.655 -31.744  1.00  0.00    -0.265 OA
BRANCH  20  23
HETATM   23  C   UNL     1      -4.419  -1.630 -33.865  1.00  0.00     0.155 C 
BRANCH  23  24
HETATM   24  C   UNL     1      -4.539  -2.928 -34.669  1.00  0.00     0.139 C 
HETATM   25  O   UNL     1      -3.974  -4.039 -33.938  1.00  0.00    -0.384 OA
HETATM   26  C   UNL     1      -4.766  -5.206 -34.220  1.00  0.00     0.168 C 
HETATM   27  C   UNL     1      -5.840  -4.799 -35.209  1.00  0.00     0.029 C 
HETATM   28  C   UNL     1      -5.982  -3.322 -34.941  1.00  0.00     0.035 C 
ENDBRANCH  23  24
ENDBRANCH  20  23
ENDBRANCH  17  19
ENDBRANCH   5  10
BRANCH   1  29
HETATM   29  C   UNL     1     -11.331   5.972 -30.742  1.00  0.00     0.273 C 
BRANCH  29  30
HETATM   30  C   UNL     1     -10.042   5.240 -30.502  1.00  0.00    -0.030 A 
HETATM   31  C   UNL     1      -8.879   5.955 -30.175  1.00  0.00     0.048 A 
HETATM   32  C   UNL     1      -7.682   5.280 -29.923  1.00  0.00     0.102 A 
HETATM   33  C   UNL     1      -7.606   3.890 -30.056  1.00  0.00     0.101 A 
HETATM   34  C   UNL     1      -8.763   3.174 -30.373  1.00  0.00     0.040 A 
HETATM   35  C   UNL     1      -9.975   3.844 -30.588  1.00  0.00     0.012 A 
BRANCH  32  36
HETATM   36  O   UNL     1      -6.547   5.994 -29.643  1.00  0.00    -0.353 OA
HETATM   37  C   UNL     1      -6.539   6.463 -28.296  1.00  0.00     0.210 C 
ENDBRANCH  32  36
BRANCH  33  38
HETATM   38  O   UNL     1      -6.393   3.310 -29.805  1.00  0.00    -0.353 OA
HETATM   39  C   UNL     1      -5.702   2.802 -30.943  1.00  0.00     0.210 C 
ENDBRANCH  33  38
ENDBRANCH  29  30
ENDBRANCH   1  29
TORSDOF 9
ENDMDL
MODEL 6
REMARK VINA RESULT:      -8.5      2.003      5.168
REMARK  9 active torsions:
REMARK  status: ('A' for Active; 'I' for Inactive)
REMARK    1  A    between atoms: O_2  and  C_3 
REMARK    2  A    between atoms: C_4  and  O_5 
REMARK    3  A    between atoms: C_8  and  C_9 
REMARK    4  A    between atoms: C_9  and  N_10 
REMARK    5  A    between atoms: C_14  and  O_15 
REMARK    6  A    between atoms: C_14  and  C_16 
REMARK    7  A    between atoms: C_21  and  C_22 
REMARK       I    between atoms: C_22  and  N_23 
REMARK    8  A    between atoms: N_23  and  C_24 
REMARK    9  A    between atoms: C_24  and  C_25 
ROOT
HETATM    1  N   UNL     1      -9.295   1.654 -33.441  1.00  0.00    -0.067 N 
HETATM    2  H   UNL     1     -10.121   1.229 -33.883  1.00  0.00     0.280 HD
HETATM    3  C   UNL     1      -8.191   1.639 -34.474  1.00  0.00     0.238 C 
HETATM    4  C   UNL     1      -7.714   0.221 -34.737  1.00  0.00     0.071 C 
HETATM    5  C   UNL     1      -7.208  -0.455 -33.449  1.00  0.00     0.088 C 
HETATM    6  C   UNL     1      -8.436  -0.516 -32.521  1.00  0.00     0.071 C 
HETATM    7  C   UNL     1      -8.977   0.866 -32.191  1.00  0.00     0.238 C 
ENDROOT
BRANCH   5   8
HETATM    8  O   UNL     1      -6.879  -1.802 -33.786  1.00  0.00    -0.385 OA
HETATM    9  H   UNL     1      -7.119  -1.978 -34.714  1.00  0.00     0.211 HD
ENDBRANCH   5   8
BRANCH   5  10
HETATM   10  C   UNL     1      -5.962   0.214 -32.847  1.00  0.00    -0.023 A 
HETATM   11  C   UNL     1      -5.546   1.491 -33.298  1.00  0.00     0.024 A 
HETATM   12  C   UNL     1      -4.492   2.163 -32.651  1.00  0.00     0.001 A 
HETATM   13  C   UNL     1      -3.841   1.523 -31.609  1.00  0.00     0.086 A 
HETATM   14  C   UNL     1      -3.862   3.427 -32.779  1.00  0.00     0.057 A 
HETATM   15  O   UNL     1      -2.895   2.334 -31.065  1.00  0.00    -0.304 OA
HETATM   16  C   UNL     1      -4.133   0.231 -31.195  1.00  0.00     0.039 A 
HETATM   17  C   UNL     1      -2.911   3.506 -31.777  1.00  0.00     0.144 A 
HETATM   18  C   UNL     1      -5.195  -0.414 -31.846  1.00  0.00     0.013 A 
BRANCH  17  19
HETATM   19  C   UNL     1      -2.013   4.581 -31.411  1.00  0.00     0.275 C 
HETATM   20  N   UNL     1      -2.608   5.592 -30.691  1.00  0.00    -0.353 N 
HETATM   21  H   UNL     1      -3.617   5.572 -30.608  1.00  0.00     0.162 HD
HETATM   22  O   UNL     1      -0.831   4.611 -31.743  1.00  0.00    -0.265 OA
BRANCH  20  23
HETATM   23  C   UNL     1      -1.916   6.828 -30.374  1.00  0.00     0.155 C 
BRANCH  23  24
HETATM   24  C   UNL     1      -1.309   6.824 -28.967  1.00  0.00     0.139 C 
HETATM   25  O   UNL     1      -0.030   6.153 -28.963  1.00  0.00    -0.384 OA
HETATM   26  C   UNL     1       0.824   6.829 -28.024  1.00  0.00     0.168 C 
HETATM   27  C   UNL     1       0.012   7.940 -27.388  1.00  0.00     0.029 C 
HETATM   28  C   UNL     1      -1.028   8.222 -28.442  1.00  0.00     0.035 C 
ENDBRANCH  23  24
ENDBRANCH  20  23
ENDBRANCH  17  19
ENDBRANCH   5  10
BRANCH   1  29
HETATM   29  C   UNL     1      -9.704   3.070 -33.050  1.00  0.00     0.273 C 
BRANCH  29  30
HETATM   30  C   UNL     1      -8.563   3.969 -32.669  1.00  0.00    -0.030 A 
HETATM   31  C   UNL     1      -8.021   3.908 -31.376  1.00  0.00     0.048 A 
HETATM   32  C   UNL     1      -6.942   4.720 -31.022  1.00  0.00     0.102 A 
HETATM   33  C   UNL     1      -6.425   5.653 -31.927  1.00  0.00     0.101 A 
HETATM   34  C   UNL     1      -6.955   5.711 -33.218  1.00  0.00     0.040 A 
HETATM   35  C   UNL     1      -8.012   4.871 -33.590  1.00  0.00     0.012 A 
BRANCH  32  36
HETATM   36  O   UNL     1      -6.449   4.675 -29.744  1.00  0.00    -0.353 OA
HETATM   37  C   UNL     1      -7.392   5.175 -28.798  1.00  0.00     0.210 C 
ENDBRANCH  32  36
BRANCH  33  38
HETATM   38  O   UNL     1      -5.377   6.419 -31.495  1.00  0.00    -0.353 OA
HETATM   39  C   UNL     1      -5.690   7.769 -31.168  1.00  0.00     0.210 C 
ENDBRANCH  33  38
ENDBRANCH  29  30
ENDBRANCH   1  29
TORSDOF 9
ENDMDL
MODEL 7
REMARK VINA RESULT:      -8.5      2.879     11.206
REMARK  9 active torsions:
REMARK  status: ('A' for Active; 'I' for Inactive)
REMARK    1  A    between atoms: O_2  and  C_3 
REMARK    2  A    between atoms: C_4  and  O_5 
REMARK    3  A    between atoms: C_8  and  C_9 
REMARK    4  A    between atoms: C_9  and  N_10 
REMARK    5  A    between atoms: C_14  and  O_15 
REMARK    6  A    between atoms: C_14  and  C_16 
REMARK    7  A    between atoms: C_21  and  C_22 
REMARK       I    between atoms: C_22  and  N_23 
REMARK    8  A    between atoms: N_23  and  C_24 
REMARK    9  A    between atoms: C_24  and  C_25 
ROOT
HETATM    1  N   UNL     1      -0.926   7.554 -28.864  1.00  0.00    -0.067 N 
HETATM    2  H   UNL     1      -0.503   8.476 -28.690  1.00  0.00     0.280 HD
HETATM    3  C   UNL     1      -0.058   6.862 -29.891  1.00  0.00     0.238 C 
HETATM    4  C   UNL     1      -0.186   7.530 -31.248  1.00  0.00     0.071 C 
HETATM    5  C   UNL     1      -1.645   7.533 -31.743  1.00  0.00     0.088 C 
HETATM    6  C   UNL     1      -2.415   8.376 -30.709  1.00  0.00     0.071 C 
HETATM    7  C   UNL     1      -2.352   7.772 -29.315  1.00  0.00     0.238 C 
ENDROOT
BRANCH   5   8
HETATM    8  O   UNL     1      -1.669   8.263 -32.969  1.00  0.00    -0.385 OA
HETATM    9  H   UNL     1      -2.541   8.164 -33.394  1.00  0.00     0.211 HD
ENDBRANCH   5   8
BRANCH   5  10
HETATM   10  C   UNL     1      -2.213   6.129 -32.002  1.00  0.00    -0.023 A 
HETATM   11  C   UNL     1      -3.326   5.658 -31.262  1.00  0.00     0.024 A 
HETATM   12  C   UNL     1      -3.933   4.432 -31.596  1.00  0.00     0.001 A 
HETATM   13  C   UNL     1      -3.382   3.680 -32.619  1.00  0.00     0.086 A 
HETATM   14  C   UNL     1      -5.053   3.695 -31.137  1.00  0.00     0.057 A 
HETATM   15  O   UNL     1      -4.123   2.562 -32.844  1.00  0.00    -0.304 OA
HETATM   16  C   UNL     1      -2.229   4.037 -33.306  1.00  0.00     0.039 A 
HETATM   17  C   UNL     1      -5.154   2.573 -31.940  1.00  0.00     0.144 A 
HETATM   18  C   UNL     1      -1.650   5.268 -32.965  1.00  0.00     0.013 A 
BRANCH  17  19
HETATM   19  C   UNL     1      -6.131   1.505 -31.953  1.00  0.00     0.275 C 
HETATM   20  N   UNL     1      -5.798   0.446 -32.766  1.00  0.00    -0.353 N 
HETATM   21  H   UNL     1      -4.999   0.562 -33.378  1.00  0.00     0.162 HD
HETATM   22  O   UNL     1      -7.185   1.552 -31.324  1.00  0.00    -0.265 OA
BRANCH  20  23
HETATM   23  C   UNL     1      -6.719  -0.642 -33.039  1.00  0.00     0.155 C 
BRANCH  23  24
HETATM   24  C   UNL     1      -6.274  -1.517 -34.215  1.00  0.00     0.139 C 
HETATM   25  O   UNL     1      -4.875  -1.858 -34.099  1.00  0.00    -0.384 OA
HETATM   26  C   UNL     1      -4.701  -3.194 -34.601  1.00  0.00     0.168 C 
HETATM   27  C   UNL     1      -6.052  -3.677 -35.091  1.00  0.00     0.029 C 
HETATM   28  C   UNL     1      -7.007  -2.847 -34.271  1.00  0.00     0.035 C 
ENDBRANCH  23  24
ENDBRANCH  20  23
ENDBRANCH  17  19
ENDBRANCH   5  10
BRANCH   1  29
HETATM   29  C   UNL     1      -0.930   6.828 -27.523  1.00  0.00     0.273 C 
BRANCH  29  30
HETATM   30  C   UNL     1      -1.067   7.724 -26.326  1.00  0.00    -0.030 A 
HETATM   31  C   UNL     1      -2.245   7.699 -25.562  1.00  0.00     0.048 A 
HETATM   32  C   UNL     1      -2.370   8.508 -24.431  1.00  0.00     0.102 A 
HETATM   33  C   UNL     1      -1.354   9.402 -24.077  1.00  0.00     0.101 A 
HETATM   34  C   UNL     1      -0.177   9.423 -24.829  1.00  0.00     0.040 A 
HETATM   35  C   UNL     1      -0.031   8.585 -25.942  1.00  0.00     0.012 A 
BRANCH  32  36
HETATM   36  O   UNL     1      -3.541   8.501 -23.718  1.00  0.00    -0.353 OA
HETATM   37  C   UNL     1      -4.651   8.889 -24.524  1.00  0.00     0.210 C 
ENDBRANCH  32  36
BRANCH  33  38
HETATM   38  O   UNL     1      -1.564  10.168 -22.963  1.00  0.00    -0.353 OA
HETATM   39  C   UNL     1      -0.894  11.424 -22.940  1.00  0.00     0.210 C 
ENDBRANCH  33  38
ENDBRANCH  29  30
ENDBRANCH   1  29
TORSDOF 9
ENDMDL
MODEL 8
REMARK VINA RESULT:      -8.5      2.590      5.598
REMARK  9 active torsions:
REMARK  status: ('A' for Active; 'I' for Inactive)
REMARK    1  A    between atoms: O_2  and  C_3 
REMARK    2  A    between atoms: C_4  and  O_5 
REMARK    3  A    between atoms: C_8  and  C_9 
REMARK    4  A    between atoms: C_9  and  N_10 
REMARK    5  A    between atoms: C_14  and  O_15 
REMARK    6  A    between atoms: C_14  and  C_16 
REMARK    7  A    between atoms: C_21  and  C_22 
REMARK       I    between atoms: C_22  and  N_23 
REMARK    8  A    between atoms: N_23  and  C_24 
REMARK    9  A    between atoms: C_24  and  C_25 
ROOT
HETATM    1  N   UNL     1      -9.169   2.175 -31.871  1.00  0.00    -0.067 N 
HETATM    2  H   UNL     1     -10.080   1.905 -32.266  1.00  0.00     0.280 HD
HETATM    3  C   UNL     1      -8.474   3.022 -32.913  1.00  0.00     0.238 C 
HETATM    4  C   UNL     1      -8.063   2.181 -34.109  1.00  0.00     0.071 C 
HETATM    5  C   UNL     1      -7.131   1.026 -33.696  1.00  0.00     0.088 C 
HETATM    6  C   UNL     1      -7.976   0.151 -32.750  1.00  0.00     0.071 C 
HETATM    7  C   UNL     1      -8.423   0.911 -31.511  1.00  0.00     0.238 C 
ENDROOT
BRANCH   5   8
HETATM    8  O   UNL     1      -6.886   0.248 -34.867  1.00  0.00    -0.385 OA
HETATM    9  H   UNL     1      -7.511  -0.500 -34.902  1.00  0.00     0.211 HD
ENDBRANCH   5   8
BRANCH   5  10
HETATM   10  C   UNL     1      -5.781   1.492 -33.130  1.00  0.00    -0.023 A 
HETATM   11  C   UNL     1      -5.314   2.805 -33.383  1.00  0.00     0.024 A 
HETATM   12  C   UNL     1      -4.148   3.278 -32.751  1.00  0.00     0.001 A 
HETATM   13  C   UNL     1      -3.446   2.412 -31.928  1.00  0.00     0.086 A 
HETATM   14  C   UNL     1      -3.436   4.503 -32.715  1.00  0.00     0.057 A 
HETATM   15  O   UNL     1      -2.387   3.047 -31.358  1.00  0.00    -0.304 OA
HETATM   16  C   UNL     1      -3.795   1.083 -31.729  1.00  0.00     0.039 A 
HETATM   17  C   UNL     1      -2.383   4.333 -31.835  1.00  0.00     0.144 A 
HETATM   18  C   UNL     1      -4.966   0.640 -32.359  1.00  0.00     0.013 A 
BRANCH  17  19
HETATM   19  C   UNL     1      -1.369   5.262 -31.383  1.00  0.00     0.275 C 
HETATM   20  N   UNL     1      -0.591   4.791 -30.350  1.00  0.00    -0.353 N 
HETATM   21  H   UNL     1      -0.877   3.923 -29.912  1.00  0.00     0.162 HD
HETATM   22  O   UNL     1      -1.237   6.390 -31.851  1.00  0.00    -0.265 OA
BRANCH  20  23
HETATM   23  C   UNL     1       0.366   5.630 -29.654  1.00  0.00     0.155 C 
BRANCH  23  24
HETATM   24  C   UNL     1      -0.291   6.543 -28.613  1.00  0.00     0.139 C 
HETATM   25  O   UNL     1      -0.112   6.013 -27.282  1.00  0.00    -0.384 OA
HETATM   26  C   UNL     1       0.057   7.122 -26.381  1.00  0.00     0.168 C 
HETATM   27  C   UNL     1      -0.072   8.394 -27.196  1.00  0.00     0.029 C 
HETATM   28  C   UNL     1       0.321   7.933 -28.577  1.00  0.00     0.035 C 
ENDBRANCH  23  24
ENDBRANCH  20  23
ENDBRANCH  17  19
ENDBRANCH   5  10
BRANCH   1  29
HETATM   29  C   UNL     1      -9.473   2.957 -30.597  1.00  0.00     0.273 C 
BRANCH  29  30
HETATM   30  C   UNL     1      -8.346   3.819 -30.107  1.00  0.00    -0.030 A 
HETATM   31  C   UNL     1      -8.591   5.149 -29.732  1.00  0.00     0.048 A 
HETATM   32  C   UNL     1      -7.554   5.950 -29.248  1.00  0.00     0.102 A 
HETATM   33  C   UNL     1      -6.244   5.462 -29.190  1.00  0.00     0.101 A 
HETATM   34  C   UNL     1      -5.998   4.136 -29.555  1.00  0.00     0.040 A 
HETATM   35  C   UNL     1      -7.042   3.318 -30.004  1.00  0.00     0.012 A 
BRANCH  32  36
HETATM   36  O   UNL     1      -7.803   7.257 -28.921  1.00  0.00    -0.353 OA
HETATM   37  C   UNL     1      -8.878   7.797 -29.687  1.00  0.00     0.210 C 
ENDBRANCH  32  36
BRANCH  33  38
HETATM   38  O   UNL     1      -5.287   6.317 -28.717  1.00  0.00    -0.353 OA
HETATM   39  C   UNL     1      -4.299   6.722 -29.660  1.00  0.00     0.210 C 
ENDBRANCH  33  38
ENDBRANCH  29  30
ENDBRANCH   1  29
TORSDOF 9
ENDMDL
MODEL 9
REMARK VINA RESULT:      -8.3      2.985      6.273
REMARK  9 active torsions:
REMARK  status: ('A' for Active; 'I' for Inactive)
REMARK    1  A    between atoms: O_2  and  C_3 
REMARK    2  A    between atoms: C_4  and  O_5 
REMARK    3  A    between atoms: C_8  and  C_9 
REMARK    4  A    between atoms: C_9  and  N_10 
REMARK    5  A    between atoms: C_14  and  O_15 
REMARK    6  A    between atoms: C_14  and  C_16 
REMARK    7  A    between atoms: C_21  and  C_22 
REMARK       I    between atoms: C_22  and  N_23 
REMARK    8  A    between atoms: N_23  and  C_24 
REMARK    9  A    between atoms: C_24  and  C_25 
ROOT
HETATM    1  N   UNL     1      -3.736   4.170 -32.980  1.00  0.00    -0.067 N 
HETATM    2  H   UNL     1      -3.905   3.779 -33.916  1.00  0.00     0.280 HD
HETATM    3  C   UNL     1      -4.168   5.618 -33.028  1.00  0.00     0.238 C 
HETATM    4  C   UNL     1      -3.222   6.438 -33.888  1.00  0.00     0.071 C 
HETATM    5  C   UNL     1      -1.774   6.362 -33.367  1.00  0.00     0.088 C 
HETATM    6  C   UNL     1      -1.384   4.877 -33.490  1.00  0.00     0.071 C 
HETATM    7  C   UNL     1      -2.274   3.977 -32.649  1.00  0.00     0.238 C 
ENDROOT
BRANCH   5   8
HETATM    8  O   UNL     1      -0.959   7.079 -34.294  1.00  0.00    -0.385 OA
HETATM    9  H   UNL     1      -1.521   7.629 -34.870  1.00  0.00     0.211 HD
ENDBRANCH   5   8
BRANCH   5  10
HETATM   10  C   UNL     1      -1.584   6.979 -31.973  1.00  0.00    -0.023 A 
HETATM   11  C   UNL     1      -0.493   6.587 -31.159  1.00  0.00     0.024 A 
HETATM   12  C   UNL     1      -0.240   7.252 -29.944  1.00  0.00     0.001 A 
HETATM   13  C   UNL     1      -1.111   8.251 -29.544  1.00  0.00     0.086 A 
HETATM   14  C   UNL     1       0.752   7.179 -28.933  1.00  0.00     0.057 A 
HETATM   15  O   UNL     1      -0.686   8.822 -28.385  1.00  0.00    -0.304 OA
HETATM   16  C   UNL     1      -2.256   8.604 -30.246  1.00  0.00     0.039 A 
HETATM   17  C   UNL     1       0.462   8.170 -28.012  1.00  0.00     0.144 A 
HETATM   18  C   UNL     1      -2.481   7.936 -31.458  1.00  0.00     0.013 A 
BRANCH  17  19
HETATM   19  C   UNL     1       1.161   8.577 -26.812  1.00  0.00     0.275 C 
HETATM   20  N   UNL     1       0.983   9.900 -26.477  1.00  0.00    -0.353 N 
HETATM   21  H   UNL     1       0.514  10.492 -27.153  1.00  0.00     0.162 HD
HETATM   22  O   UNL     1       1.883   7.822 -26.166  1.00  0.00    -0.265 OA
BRANCH  20  23
HETATM   23  C   UNL     1       1.727  10.536 -25.406  1.00  0.00     0.155 C 
BRANCH  23  24
HETATM   24  C   UNL     1       0.824  11.072 -24.290  1.00  0.00     0.139 C 
HETATM   25  O   UNL     1      -0.537  10.624 -24.473  1.00  0.00    -0.384 OA
HETATM   26  C   UNL     1      -1.106  10.388 -23.174  1.00  0.00     0.168 C 
HETATM   27  C   UNL     1      -0.055  10.754 -22.143  1.00  0.00     0.029 C 
HETATM   28  C   UNL     1       1.228  10.571 -22.914  1.00  0.00     0.035 C 
ENDBRANCH  23  24
ENDBRANCH  20  23
ENDBRANCH  17  19
ENDBRANCH   5  10
BRANCH   1  29
HETATM   29  C   UNL     1      -4.582   3.345 -32.016  1.00  0.00     0.273 C 
BRANCH  29  30
HETATM   30  C   UNL     1      -4.728   1.898 -32.392  1.00  0.00    -0.030 A 
HETATM   31  C   UNL     1      -5.874   1.462 -33.073  1.00  0.00     0.048 A 
HETATM   32  C   UNL     1      -6.006   0.124 -33.452  1.00  0.00     0.102 A 
HETATM   33  C   UNL     1      -5.031  -0.815 -33.101  1.00  0.00     0.101 A 
HETATM   34  C   UNL     1      -3.884  -0.384 -32.430  1.00  0.00     0.040 A 
HETATM   35  C   UNL     1      -3.730   0.965 -32.083  1.00  0.00     0.012 A 
BRANCH  32  36
HETATM   36  O   UNL     1      -7.149  -0.293 -34.083  1.00  0.00    -0.353 OA
HETATM   37  C   UNL     1      -7.346   0.388 -35.320  1.00  0.00     0.210 C 
ENDBRANCH  32  36
BRANCH  33  38
HETATM   38  O   UNL     1      -5.244  -2.107 -33.498  1.00  0.00    -0.353 OA
HETATM   39  C   UNL     1      -4.323  -2.620 -34.456  1.00  0.00     0.210 C 
ENDBRANCH  33  38
ENDBRANCH  29  30
ENDBRANCH   1  29
TORSDOF 9
ENDMDL
MODEL 10
REMARK VINA RESULT:      -8.3      3.760      9.418
REMARK  9 active torsions:
REMARK  status: ('A' for Active; 'I' for Inactive)
REMARK    1  A    between atoms: O_2  and  C_3 
REMARK    2  A    between atoms: C_4  and  O_5 
REMARK    3  A    between atoms: C_8  and  C_9 
REMARK    4  A    between atoms: C_9  and  N_10 
REMARK    5  A    between atoms: C_14  and  O_15 
REMARK    6  A    between atoms: C_14  and  C_16 
REMARK    7  A    between atoms: C_21  and  C_22 
REMARK       I    between atoms: C_22  and  N_23 
REMARK    8  A    between atoms: N_23  and  C_24 
REMARK    9  A    between atoms: C_24  and  C_25 
ROOT
HETATM    1  N   UNL     1      -4.149   2.583 -30.913  1.00  0.00    -0.067 N 
HETATM    2  H   UNL     1      -3.294   2.456 -30.355  1.00  0.00     0.280 HD
HETATM    3  C   UNL     1      -5.212   1.706 -30.289  1.00  0.00     0.238 C 
HETATM    4  C   UNL     1      -4.902   0.236 -30.512  1.00  0.00     0.071 C 
HETATM    5  C   UNL     1      -4.792  -0.098 -32.012  1.00  0.00     0.088 C 
HETATM    6  C   UNL     1      -3.599   0.735 -32.519  1.00  0.00     0.071 C 
HETATM    7  C   UNL     1      -3.827   2.228 -32.347  1.00  0.00     0.238 C 
ENDROOT
BRANCH   5   8
HETATM    8  O   UNL     1      -4.406  -1.469 -32.107  1.00  0.00    -0.385 OA
HETATM    9  H   UNL     1      -4.493  -1.897 -31.236  1.00  0.00     0.211 HD
ENDBRANCH   5   8
BRANCH   5  10
HETATM   10  C   UNL     1      -6.105   0.093 -32.787  1.00  0.00    -0.023 A 
HETATM   11  C   UNL     1      -7.339   0.173 -32.097  1.00  0.00     0.024 A 
HETATM   12  C   UNL     1      -8.522   0.488 -32.793  1.00  0.00     0.001 A 
HETATM   13  C   UNL     1      -8.455   0.659 -34.166  1.00  0.00     0.086 A 
HETATM   14  C   UNL     1      -9.879   0.704 -32.445  1.00  0.00     0.057 A 
HETATM   15  O   UNL     1      -9.669   1.013 -34.664  1.00  0.00    -0.304 OA
HETATM   16  C   UNL     1      -7.295   0.486 -34.910  1.00  0.00     0.039 A 
HETATM   17  C   UNL     1     -10.544   1.048 -33.608  1.00  0.00     0.144 A 
HETATM   18  C   UNL     1      -6.128   0.184 -34.193  1.00  0.00     0.013 A 
BRANCH  17  19
HETATM   19  C   UNL     1     -11.925   1.419 -33.832  1.00  0.00     0.275 C 
HETATM   20  N   UNL     1     -12.484   2.157 -32.814  1.00  0.00    -0.353 N 
HETATM   21  H   UNL     1     -11.947   2.251 -31.960  1.00  0.00     0.162 HD
HETATM   22  O   UNL     1     -12.560   1.073 -34.825  1.00  0.00    -0.265 OA
BRANCH  20  23
HETATM   23  C   UNL     1     -13.897   2.483 -32.777  1.00  0.00     0.155 C 
BRANCH  23  24
HETATM   24  C   UNL     1     -14.161   3.942 -32.392  1.00  0.00     0.139 C 
HETATM   25  O   UNL     1     -15.580   4.205 -32.321  1.00  0.00    -0.384 OA
HETATM   26  C   UNL     1     -15.805   5.142 -31.253  1.00  0.00     0.168 C 
HETATM   27  C   UNL     1     -14.452   5.506 -30.674  1.00  0.00     0.029 C 
HETATM   28  C   UNL     1     -13.619   4.297 -31.018  1.00  0.00     0.035 C 
ENDBRANCH  23  24
ENDBRANCH  20  23
ENDBRANCH  17  19
ENDBRANCH   5  10
BRANCH   1  29
HETATM   29  C   UNL     1      -4.497   4.065 -30.829  1.00  0.00     0.273 C 
BRANCH  29  30
HETATM   30  C   UNL     1      -5.968   4.363 -30.799  1.00  0.00    -0.030 A 
HETATM   31  C   UNL     1      -6.767   4.071 -31.915  1.00  0.00     0.048 A 
HETATM   32  C   UNL     1      -8.141   4.318 -31.886  1.00  0.00     0.102 A 
HETATM   33  C   UNL     1      -8.733   4.921 -30.771  1.00  0.00     0.101 A 
HETATM   34  C   UNL     1      -7.943   5.205 -29.654  1.00  0.00     0.040 A 
HETATM   35  C   UNL     1      -6.571   4.922 -29.665  1.00  0.00     0.012 A 
BRANCH  32  36
HETATM   36  O   UNL     1      -8.900   4.063 -32.998  1.00  0.00    -0.353 OA
HETATM   37  C   UNL     1      -8.616   4.980 -34.052  1.00  0.00     0.210 C 
ENDBRANCH  32  36
BRANCH  33  38
HETATM   38  O   UNL     1     -10.082   5.141 -30.830  1.00  0.00    -0.353 OA
HETATM   39  C   UNL     1     -10.530   6.384 -30.299  1.00  0.00     0.210 C 
ENDBRANCH  33  38
ENDBRANCH  29  30
ENDBRANCH   1  29
TORSDOF 9
ENDMDL
