MODEL 1
REMARK VINA RESULT:      -9.0      0.000      0.000
REMARK  8 active torsions:
REMARK  status: ('A' for Active; 'I' for Inactive)
REMARK    1  A    between atoms: C_2  and  C_3 
REMARK    2  A    between atoms: C_3  and  O_4 
REMARK    3  A    between atoms: O_4  and  C_5 
REMARK    4  A    between atoms: C_7  and  C_8 
REMARK    5  A    between atoms: N_9  and  C_10 
REMARK    6  A    between atoms: C_10  and  C_11 
REMARK    7  A    between atoms: C_24  and  C_25 
REMARK    8  A    between atoms: C_26  and  O_27 
ROOT
HETATM    1  C   UNL     1      -5.229   0.943 -33.416  1.00  0.00     0.159 A 
HETATM    2  N   UNL     1      -4.512   2.090 -32.790  1.00  0.00    -0.329 N 
HETATM    3  C   UNL     1      -3.552   1.718 -31.843  1.00  0.00     0.273 A 
HETATM    4  O   UNL     1      -2.822   2.431 -31.179  1.00  0.00    -0.266 OA
HETATM    5  C   UNL     1      -3.589   0.307 -31.880  1.00  0.00     0.129 A 
HETATM    6  C   UNL     1      -4.492  -0.177 -32.781  1.00  0.00     0.034 A 
HETATM    7  N   UNL     1      -2.966  -0.736 -31.314  1.00  0.00    -0.272 N 
HETATM    8  H   UNL     1      -2.240  -0.742 -30.603  1.00  0.00     0.189 HD
HETATM    9  N   UNL     1      -3.410  -1.914 -31.823  1.00  0.00    -0.173 NA
HETATM   10  C   UNL     1      -4.307  -1.570 -32.785  1.00  0.00     0.101 A 
ENDROOT
BRANCH   1  11
HETATM   11  C   UNL     1      -6.674   0.814 -32.977  1.00  0.00    -0.028 A 
HETATM   12  C   UNL     1      -7.753   0.974 -33.874  1.00  0.00     0.046 A 
HETATM   13  C   UNL     1      -9.077   0.876 -33.441  1.00  0.00     0.069 A 
HETATM   14  C   UNL     1      -9.335   0.621 -32.095  1.00  0.00     0.037 A 
HETATM   15  C   UNL     1      -8.287   0.459 -31.191  1.00  0.00     0.003 A 
HETATM   16  C   UNL     1      -6.966   0.550 -31.629  1.00  0.00     0.010 A 
BRANCH  13  17
HETATM   17  O   UNL     1     -10.193   1.011 -34.221  1.00  0.00    -0.348 OA
BRANCH  17  18
HETATM   18  C   UNL     1     -11.366   1.529 -33.598  1.00  0.00     0.202 C 
BRANCH  18  19
HETATM   19  C   UNL     1     -12.551   0.908 -34.275  1.00  0.00    -0.011 C 
HETATM   20  C   UNL     1     -13.353  -0.009 -33.717  1.00  0.00     0.009 C 
ENDBRANCH  18  19
ENDBRANCH  17  18
ENDBRANCH  13  17
ENDBRANCH   1  11
BRANCH   2  21
HETATM   21  C   UNL     1      -4.692   3.456 -33.240  1.00  0.00     0.167 C 
BRANCH  21  22
HETATM   22  C   UNL     1      -5.989   4.082 -32.802  1.00  0.00    -0.023 A 
HETATM   23  C   UNL     1      -6.868   4.581 -33.761  1.00  0.00     0.125 A 
HETATM   24  N   UNL     1      -8.075   5.127 -33.484  1.00  0.00    -0.273 NA
HETATM   25  C   UNL     1      -8.442   5.162 -32.187  1.00  0.00     0.116 A 
HETATM   26  C   UNL     1      -7.657   4.678 -31.155  1.00  0.00     0.020 A 
HETATM   27  C   UNL     1      -6.420   4.123 -31.471  1.00  0.00     0.012 A 
ENDBRANCH  21  22
ENDBRANCH   2  21
BRANCH  10  28
HETATM   28  C   UNL     1      -4.920  -2.597 -33.629  1.00  0.00     0.028 A 
HETATM   29  C   UNL     1      -4.338  -3.868 -33.776  1.00  0.00     0.078 A 
HETATM   30  C   UNL     1      -4.931  -4.848 -34.570  1.00  0.00     0.037 A 
HETATM   31  C   UNL     1      -6.109  -4.564 -35.258  1.00  0.00     0.003 A 
HETATM   32  C   UNL     1      -6.686  -3.300 -35.153  1.00  0.00     0.001 A 
HETATM   33  C   UNL     1      -6.095  -2.322 -34.347  1.00  0.00     0.017 A 
BRANCH  29  34
HETATM   34  O   UNL     1      -3.158  -4.210 -33.167  1.00  0.00    -0.360 OA
HETATM   35  H   UNL     1      -2.548  -4.480 -33.889  1.00  0.00     0.217 HD
ENDBRANCH  29  34
ENDBRANCH  10  28
TORSDOF 8
ENDMDL
MODEL 2
REMARK VINA RESULT:      -8.9      2.249      6.334
REMARK  8 active torsions:
REMARK  status: ('A' for Active; 'I' for Inactive)
REMARK    1  A    between atoms: C_2  and  C_3 
REMARK    2  A    between atoms: C_3  and  O_4 
REMARK    3  A    between atoms: O_4  and  C_5 
REMARK    4  A    between atoms: C_7  and  C_8 
REMARK    5  A    between atoms: N_9  and  C_10 
REMARK    6  A    between atoms: C_10  and  C_11 
REMARK    7  A    between atoms: C_24  and  C_25 
REMARK    8  A    between atoms: C_26  and  O_27 
ROOT
HETATM    1  C   UNL     1      -7.075   1.989 -33.150  1.00  0.00     0.159 A 
HETATM    2  N   UNL     1      -8.389   1.733 -32.495  1.00  0.00    -0.329 N 
HETATM    3  C   UNL     1      -8.627   2.516 -31.361  1.00  0.00     0.273 A 
HETATM    4  O   UNL     1      -9.601   2.524 -30.632  1.00  0.00    -0.266 OA
HETATM    5  C   UNL     1      -7.484   3.342 -31.292  1.00  0.00     0.129 A 
HETATM    6  C   UNL     1      -6.598   3.109 -32.302  1.00  0.00     0.034 A 
HETATM    7  N   UNL     1      -7.003   4.342 -30.539  1.00  0.00    -0.272 N 
HETATM    8  H   UNL     1      -7.401   4.770 -29.708  1.00  0.00     0.189 HD
HETATM    9  N   UNL     1      -5.823   4.805 -31.026  1.00  0.00    -0.173 NA
HETATM   10  C   UNL     1      -5.602   4.090 -32.162  1.00  0.00     0.101 A 
ENDROOT
BRANCH   1  11
HETATM   11  C   UNL     1      -6.078   0.860 -32.977  1.00  0.00    -0.028 A 
HETATM   12  C   UNL     1      -5.901  -0.147 -33.952  1.00  0.00     0.046 A 
HETATM   13  C   UNL     1      -4.994  -1.191 -33.759  1.00  0.00     0.069 A 
HETATM   14  C   UNL     1      -4.255  -1.240 -32.577  1.00  0.00     0.037 A 
HETATM   15  C   UNL     1      -4.413  -0.258 -31.601  1.00  0.00     0.003 A 
HETATM   16  C   UNL     1      -5.314   0.787 -31.801  1.00  0.00     0.010 A 
BRANCH  13  17
HETATM   17  O   UNL     1      -4.742  -2.212 -34.633  1.00  0.00    -0.348 OA
BRANCH  17  18
HETATM   18  C   UNL     1      -4.459  -3.494 -34.076  1.00  0.00     0.202 C 
BRANCH  18  19
HETATM   19  C   UNL     1      -5.401  -4.478 -34.703  1.00  0.00    -0.011 C 
HETATM   20  C   UNL     1      -6.664  -4.206 -35.056  1.00  0.00     0.009 C 
ENDBRANCH  18  19
ENDBRANCH  17  18
ENDBRANCH  13  17
ENDBRANCH   1  11
BRANCH   2  21
HETATM   21  C   UNL     1      -9.389   0.861 -33.078  1.00  0.00     0.167 C 
BRANCH  21  22
HETATM   22  C   UNL     1     -10.493   1.587 -33.801  1.00  0.00    -0.023 A 
HETATM   23  C   UNL     1     -10.208   2.775 -34.472  1.00  0.00     0.125 A 
HETATM   24  N   UNL     1     -11.110   3.487 -35.186  1.00  0.00    -0.273 NA
HETATM   25  C   UNL     1     -12.360   2.985 -35.257  1.00  0.00     0.116 A 
HETATM   26  C   UNL     1     -12.748   1.806 -34.647  1.00  0.00     0.020 A 
HETATM   27  C   UNL     1     -11.798   1.095 -33.919  1.00  0.00     0.012 A 
ENDBRANCH  21  22
ENDBRANCH   2  21
BRANCH  10  28
HETATM   28  C   UNL     1      -4.456   4.396 -33.021  1.00  0.00     0.028 A 
HETATM   29  C   UNL     1      -3.136   4.208 -32.576  1.00  0.00     0.078 A 
HETATM   30  C   UNL     1      -2.048   4.488 -33.400  1.00  0.00     0.037 A 
HETATM   31  C   UNL     1      -2.260   4.992 -34.682  1.00  0.00     0.003 A 
HETATM   32  C   UNL     1      -3.560   5.218 -35.132  1.00  0.00     0.001 A 
HETATM   33  C   UNL     1      -4.651   4.925 -34.307  1.00  0.00     0.017 A 
BRANCH  29  34
HETATM   34  O   UNL     1      -2.844   3.756 -31.315  1.00  0.00    -0.360 OA
HETATM   35  H   UNL     1      -2.758   2.779 -31.389  1.00  0.00     0.217 HD
ENDBRANCH  29  34
ENDBRANCH  10  28
TORSDOF 8
ENDMDL
MODEL 3
REMARK VINA RESULT:      -8.5      2.609      7.832
REMARK  8 active torsions:
REMARK  status: ('A' for Active; 'I' for Inactive)
REMARK    1  A    between atoms: C_2  and  C_3 
REMARK    2  A    between atoms: C_3  and  O_4 
REMARK    3  A    between atoms: O_4  and  C_5 
REMARK    4  A    between atoms: C_7  and  C_8 
REMARK    5  A    between atoms: N_9  and  C_10 
REMARK    6  A    between atoms: C_10  and  C_11 
REMARK    7  A    between atoms: C_24  and  C_25 
REMARK    8  A    between atoms: C_26  and  O_27 
ROOT
HETATM    1  C   UNL     1      -6.351   1.708 -33.446  1.00  0.00     0.159 A 
HETATM    2  N   UNL     1      -5.790   0.553 -32.689  1.00  0.00    -0.329 N 
HETATM    3  C   UNL     1      -6.491   0.240 -31.520  1.00  0.00     0.273 A 
HETATM    4  O   UNL     1      -6.266  -0.642 -30.711  1.00  0.00    -0.266 OA
HETATM    5  C   UNL     1      -7.562   1.159 -31.527  1.00  0.00     0.129 A 
HETATM    6  C   UNL     1      -7.548   1.983 -32.614  1.00  0.00     0.034 A 
HETATM    7  N   UNL     1      -8.643   1.458 -30.793  1.00  0.00    -0.272 N 
HETATM    8  H   UNL     1      -8.962   1.045 -29.921  1.00  0.00     0.189 HD
HETATM    9  N   UNL     1      -9.373   2.449 -31.367  1.00  0.00    -0.173 NA
HETATM   10  C   UNL     1      -8.735   2.730 -32.534  1.00  0.00     0.101 A 
ENDROOT
BRANCH   1  11
HETATM   11  C   UNL     1      -5.488   2.952 -33.386  1.00  0.00    -0.028 A 
HETATM   12  C   UNL     1      -4.479   3.125 -32.412  1.00  0.00     0.046 A 
HETATM   13  C   UNL     1      -3.713   4.291 -32.361  1.00  0.00     0.069 A 
HETATM   14  C   UNL     1      -3.955   5.306 -33.287  1.00  0.00     0.037 A 
HETATM   15  C   UNL     1      -4.945   5.158 -34.256  1.00  0.00     0.003 A 
HETATM   16  C   UNL     1      -5.702   3.989 -34.309  1.00  0.00     0.010 A 
BRANCH  13  17
HETATM   17  O   UNL     1      -2.713   4.561 -31.466  1.00  0.00    -0.348 OA
BRANCH  17  18
HETATM   18  C   UNL     1      -1.451   4.959 -31.998  1.00  0.00     0.202 C 
BRANCH  18  19
HETATM   19  C   UNL     1      -0.922   6.063 -31.132  1.00  0.00    -0.011 C 
HETATM   20  C   UNL     1       0.320   6.560 -31.205  1.00  0.00     0.009 C 
ENDBRANCH  18  19
ENDBRANCH  17  18
ENDBRANCH  13  17
ENDBRANCH   1  11
BRANCH   2  21
HETATM   21  C   UNL     1      -4.710  -0.262 -33.207  1.00  0.00     0.167 C 
BRANCH  21  22
HETATM   22  C   UNL     1      -5.159  -1.565 -33.814  1.00  0.00    -0.023 A 
HETATM   23  C   UNL     1      -4.282  -2.647 -33.843  1.00  0.00     0.125 A 
HETATM   24  N   UNL     1      -4.593  -3.872 -34.326  1.00  0.00    -0.273 NA
HETATM   25  C   UNL     1      -5.848  -4.042 -34.789  1.00  0.00     0.116 A 
HETATM   26  C   UNL     1      -6.805  -3.044 -34.791  1.00  0.00     0.020 A 
HETATM   27  C   UNL     1      -6.457  -1.794 -34.287  1.00  0.00     0.012 A 
ENDBRANCH  21  22
ENDBRANCH   2  21
BRANCH  10  28
HETATM   28  C   UNL     1      -9.306   3.692 -33.479  1.00  0.00     0.028 A 
HETATM   29  C   UNL     1     -10.111   3.274 -34.553  1.00  0.00     0.078 A 
HETATM   30  C   UNL     1     -10.664   4.193 -35.443  1.00  0.00     0.037 A 
HETATM   31  C   UNL     1     -10.399   5.552 -35.290  1.00  0.00     0.003 A 
HETATM   32  C   UNL     1      -9.577   5.986 -34.252  1.00  0.00     0.001 A 
HETATM   33  C   UNL     1      -9.032   5.063 -33.353  1.00  0.00     0.017 A 
BRANCH  29  34
HETATM   34  O   UNL     1     -10.384   1.952 -34.796  1.00  0.00    -0.360 OA
HETATM   35  H   UNL     1      -9.854   1.441 -34.143  1.00  0.00     0.217 HD
ENDBRANCH  29  34
ENDBRANCH  10  28
TORSDOF 8
ENDMDL
MODEL 4
REMARK VINA RESULT:      -8.4      2.414      4.903
REMARK  8 active torsions:
REMARK  status: ('A' for Active; 'I' for Inactive)
REMARK    1  A    between atoms: C_2  and  C_3 
REMARK    2  A    between atoms: C_3  and  O_4 
REMARK    3  A    between atoms: O_4  and  C_5 
REMARK    4  A    between atoms: C_7  and  C_8 
REMARK    5  A    between atoms: N_9  and  C_10 
REMARK    6  A    between atoms: C_10  and  C_11 
REMARK    7  A    between atoms: C_24  and  C_25 
REMARK    8  A    between atoms: C_26  and  O_27 
ROOT
HETATM    1  C   UNL     1      -7.183   0.307 -32.131  1.00  0.00     0.159 A 
HETATM    2  N   UNL     1      -8.319   1.269 -32.221  1.00  0.00    -0.329 N 
HETATM    3  C   UNL     1      -8.848   1.412 -33.508  1.00  0.00     0.273 A 
HETATM    4  O   UNL     1      -9.767   2.119 -33.878  1.00  0.00    -0.266 OA
HETATM    5  C   UNL     1      -8.095   0.495 -34.273  1.00  0.00     0.129 A 
HETATM    6  C   UNL     1      -7.170  -0.181 -33.532  1.00  0.00     0.034 A 
HETATM    7  N   UNL     1      -8.032   0.041 -35.532  1.00  0.00    -0.272 N 
HETATM    8  H   UNL     1      -8.574   0.322 -36.345  1.00  0.00     0.189 HD
HETATM    9  N   UNL     1      -7.101  -0.939 -35.659  1.00  0.00    -0.173 NA
HETATM   10  C   UNL     1      -6.612  -1.130 -34.404  1.00  0.00     0.101 A 
ENDROOT
BRANCH   1  11
HETATM   11  C   UNL     1      -5.842   0.970 -31.891  1.00  0.00    -0.028 A 
HETATM   12  C   UNL     1      -5.428   2.118 -32.604  1.00  0.00     0.046 A 
HETATM   13  C   UNL     1      -4.177   2.696 -32.383  1.00  0.00     0.069 A 
HETATM   14  C   UNL     1      -3.319   2.124 -31.444  1.00  0.00     0.037 A 
HETATM   15  C   UNL     1      -3.704   0.992 -30.729  1.00  0.00     0.003 A 
HETATM   16  C   UNL     1      -4.958   0.422 -30.947  1.00  0.00     0.010 A 
BRANCH  13  17
HETATM   17  O   UNL     1      -3.678   3.804 -33.012  1.00  0.00    -0.348 OA
BRANCH  17  18
HETATM   18  C   UNL     1      -4.580   4.558 -33.819  1.00  0.00     0.202 C 
BRANCH  18  19
HETATM   19  C   UNL     1      -3.783   5.190 -34.920  1.00  0.00    -0.011 C 
HETATM   20  C   UNL     1      -2.446   5.270 -34.944  1.00  0.00     0.009 C 
ENDBRANCH  18  19
ENDBRANCH  17  18
ENDBRANCH  13  17
ENDBRANCH   1  11
BRANCH   2  21
HETATM   21  C   UNL     1      -8.914   1.878 -31.049  1.00  0.00     0.167 C 
BRANCH  21  22
HETATM   22  C   UNL     1      -8.320   3.212 -30.679  1.00  0.00    -0.023 A 
HETATM   23  C   UNL     1      -8.776   4.365 -31.314  1.00  0.00     0.125 A 
HETATM   24  N   UNL     1      -8.343   5.616 -31.033  1.00  0.00    -0.273 NA
HETATM   25  C   UNL     1      -7.423   5.735 -30.055  1.00  0.00     0.116 A 
HETATM   26  C   UNL     1      -6.915   4.660 -29.346  1.00  0.00     0.020 A 
HETATM   27  C   UNL     1      -7.379   3.385 -29.658  1.00  0.00     0.012 A 
ENDBRANCH  21  22
ENDBRANCH   2  21
BRANCH  10  28
HETATM   28  C   UNL     1      -5.649  -2.200 -34.138  1.00  0.00     0.028 A 
HETATM   29  C   UNL     1      -5.863  -3.510 -34.601  1.00  0.00     0.078 A 
HETATM   30  C   UNL     1      -4.938  -4.524 -34.357  1.00  0.00     0.037 A 
HETATM   31  C   UNL     1      -3.789  -4.251 -33.618  1.00  0.00     0.003 A 
HETATM   32  C   UNL     1      -3.572  -2.968 -33.121  1.00  0.00     0.001 A 
HETATM   33  C   UNL     1      -4.497  -1.949 -33.376  1.00  0.00     0.017 A 
BRANCH  29  34
HETATM   34  O   UNL     1      -6.988  -3.868 -35.298  1.00  0.00    -0.360 OA
HETATM   35  H   UNL     1      -6.694  -4.030 -36.223  1.00  0.00     0.217 HD
ENDBRANCH  29  34
ENDBRANCH  10  28
TORSDOF 8
ENDMDL
MODEL 5
REMARK VINA RESULT:      -8.4      2.684      7.107
REMARK  8 active torsions:
REMARK  status: ('A' for Active; 'I' for Inactive)
REMARK    1  A    between atoms: C_2  and  C_3 
REMARK    2  A    between atoms: C_3  and  O_4 
REMARK    3  A    between atoms: O_4  and  C_5 
REMARK    4  A    between atoms: C_7  and  C_8 
REMARK    5  A    between atoms: N_9  and  C_10 
REMARK    6  A    between atoms: C_10  and  C_11 
REMARK    7  A    between atoms: C_24  and  C_25 
REMARK    8  A    between atoms: C_26  and  O_27 
ROOT
HETATM    1  C   UNL     1      -6.602   3.071 -33.557  1.00  0.00     0.159 A 
HETATM    2  N   UNL     1      -8.077   3.149 -33.756  1.00  0.00    -0.329 N 
HETATM    3  C   UNL     1      -8.618   4.420 -33.537  1.00  0.00     0.273 A 
HETATM    4  O   UNL     1      -9.779   4.778 -33.623  1.00  0.00    -0.266 OA
HETATM    5  C   UNL     1      -7.485   5.210 -33.244  1.00  0.00     0.129 A 
HETATM    6  C   UNL     1      -6.320   4.501 -33.282  1.00  0.00     0.034 A 
HETATM    7  N   UNL     1      -7.187   6.487 -32.970  1.00  0.00    -0.272 N 
HETATM    8  H   UNL     1      -7.808   7.285 -32.866  1.00  0.00     0.189 HD
HETATM    9  N   UNL     1      -5.847   6.666 -32.841  1.00  0.00    -0.173 NA
HETATM   10  C   UNL     1      -5.299   5.449 -33.104  1.00  0.00     0.101 A 
ENDROOT
BRANCH   1  11
HETATM   11  C   UNL     1      -6.195   2.304 -32.315  1.00  0.00    -0.028 A 
HETATM   12  C   UNL     1      -5.102   1.409 -32.305  1.00  0.00     0.046 A 
HETATM   13  C   UNL     1      -4.761   0.694 -31.155  1.00  0.00     0.069 A 
HETATM   14  C   UNL     1      -5.519   0.865 -29.997  1.00  0.00     0.037 A 
HETATM   15  C   UNL     1      -6.601   1.743 -29.983  1.00  0.00     0.003 A 
HETATM   16  C   UNL     1      -6.934   2.460 -31.131  1.00  0.00     0.010 A 
BRANCH  13  17
HETATM   17  O   UNL     1      -3.726  -0.193 -31.034  1.00  0.00    -0.348 OA
BRANCH  17  18
HETATM   18  C   UNL     1      -3.128  -0.667 -32.239  1.00  0.00     0.202 C 
BRANCH  18  19
HETATM   19  C   UNL     1      -3.562  -2.089 -32.431  1.00  0.00    -0.011 C 
HETATM   20  C   UNL     1      -3.014  -3.143 -31.814  1.00  0.00     0.009 C 
ENDBRANCH  18  19
ENDBRANCH  17  18
ENDBRANCH  13  17
ENDBRANCH   1  11
BRANCH   2  21
HETATM   21  C   UNL     1      -8.849   2.040 -34.279  1.00  0.00     0.167 C 
BRANCH  21  22
HETATM   22  C   UNL     1      -8.109   0.728 -34.294  1.00  0.00    -0.023 A 
HETATM   23  C   UNL     1      -7.182   0.475 -35.303  1.00  0.00     0.125 A 
HETATM   24  N   UNL     1      -6.434  -0.649 -35.391  1.00  0.00    -0.273 NA
HETATM   25  C   UNL     1      -6.597  -1.565 -34.415  1.00  0.00     0.116 A 
HETATM   26  C   UNL     1      -7.475  -1.409 -33.357  1.00  0.00     0.020 A 
HETATM   27  C   UNL     1      -8.231  -0.242 -33.293  1.00  0.00     0.012 A 
ENDBRANCH  21  22
ENDBRANCH   2  21
BRANCH  10  28
HETATM   28  C   UNL     1      -3.845   5.287 -33.160  1.00  0.00     0.028 A 
HETATM   29  C   UNL     1      -3.143   5.387 -34.374  1.00  0.00     0.078 A 
HETATM   30  C   UNL     1      -1.757   5.245 -34.422  1.00  0.00     0.037 A 
HETATM   31  C   UNL     1      -1.047   4.972 -33.255  1.00  0.00     0.003 A 
HETATM   32  C   UNL     1      -1.726   4.836 -32.045  1.00  0.00     0.001 A 
HETATM   33  C   UNL     1      -3.116   4.990 -31.998  1.00  0.00     0.017 A 
BRANCH  29  34
HETATM   34  O   UNL     1      -3.774   5.611 -35.571  1.00  0.00    -0.360 OA
HETATM   35  H   UNL     1      -4.317   4.810 -35.746  1.00  0.00     0.217 HD
ENDBRANCH  29  34
ENDBRANCH  10  28
TORSDOF 8
ENDMDL
MODEL 6
REMARK VINA RESULT:      -8.4      2.844      6.632
REMARK  8 active torsions:
REMARK  status: ('A' for Active; 'I' for Inactive)
REMARK    1  A    between atoms: C_2  and  C_3 
REMARK    2  A    between atoms: C_3  and  O_4 
REMARK    3  A    between atoms: O_4  and  C_5 
REMARK    4  A    between atoms: C_7  and  C_8 
REMARK    5  A    between atoms: N_9  and  C_10 
REMARK    6  A    between atoms: C_10  and  C_11 
REMARK    7  A    between atoms: C_24  and  C_25 
REMARK    8  A    between atoms: C_26  and  O_27 
ROOT
HETATM    1  C   UNL     1      -8.076   3.581 -33.922  1.00  0.00     0.159 A 
HETATM    2  N   UNL     1      -9.531   3.900 -33.889  1.00  0.00    -0.329 N 
HETATM    3  C   UNL     1      -9.918   4.698 -32.807  1.00  0.00     0.273 A 
HETATM    4  O   UNL     1     -11.028   5.111 -32.525  1.00  0.00    -0.266 OA
HETATM    5  C   UNL     1      -8.699   4.960 -32.144  1.00  0.00     0.129 A 
HETATM    6  C   UNL     1      -7.626   4.383 -32.759  1.00  0.00     0.034 A 
HETATM    7  N   UNL     1      -8.251   5.652 -31.087  1.00  0.00    -0.272 N 
HETATM    8  H   UNL     1      -8.774   6.200 -30.410  1.00  0.00     0.189 HD
HETATM    9  N   UNL     1      -6.900   5.576 -30.982  1.00  0.00    -0.173 NA
HETATM   10  C   UNL     1      -6.500   4.847 -32.059  1.00  0.00     0.101 A 
ENDROOT
BRANCH   1  11
HETATM   11  C   UNL     1      -7.762   2.134 -33.597  1.00  0.00    -0.028 A 
HETATM   12  C   UNL     1      -7.325   1.217 -34.579  1.00  0.00     0.046 A 
HETATM   13  C   UNL     1      -7.066  -0.117 -34.261  1.00  0.00     0.069 A 
HETATM   14  C   UNL     1      -7.249  -0.551 -32.948  1.00  0.00     0.037 A 
HETATM   15  C   UNL     1      -7.679   0.334 -31.962  1.00  0.00     0.003 A 
HETATM   16  C   UNL     1      -7.929   1.668 -32.283  1.00  0.00     0.010 A 
BRANCH  13  17
HETATM   17  O   UNL     1      -6.638  -1.085 -35.128  1.00  0.00    -0.348 OA
BRANCH  17  18
HETATM   18  C   UNL     1      -5.959  -2.209 -34.570  1.00  0.00     0.202 C 
BRANCH  18  19
HETATM   19  C   UNL     1      -6.732  -3.437 -34.947  1.00  0.00    -0.011 C 
HETATM   20  C   UNL     1      -6.219  -4.674 -35.000  1.00  0.00     0.009 C 
ENDBRANCH  18  19
ENDBRANCH  17  18
ENDBRANCH  13  17
ENDBRANCH   1  11
BRANCH   2  21
HETATM   21  C   UNL     1     -10.429   3.542 -34.968  1.00  0.00     0.167 C 
BRANCH  21  22
HETATM   22  C   UNL     1     -11.430   2.475 -34.608  1.00  0.00    -0.023 A 
HETATM   23  C   UNL     1     -12.714   2.531 -35.143  1.00  0.00     0.125 A 
HETATM   24  N   UNL     1     -13.678   1.608 -34.921  1.00  0.00    -0.273 NA
HETATM   25  C   UNL     1     -13.345   0.559 -34.141  1.00  0.00     0.116 A 
HETATM   26  C   UNL     1     -12.095   0.393 -33.573  1.00  0.00     0.020 A 
HETATM   27  C   UNL     1     -11.124   1.360 -33.820  1.00  0.00     0.012 A 
ENDBRANCH  21  22
ENDBRANCH   2  21
BRANCH  10  28
HETATM   28  C   UNL     1      -5.075   4.647 -32.331  1.00  0.00     0.028 A 
HETATM   29  C   UNL     1      -4.223   4.058 -31.381  1.00  0.00     0.078 A 
HETATM   30  C   UNL     1      -2.870   3.858 -31.649  1.00  0.00     0.037 A 
HETATM   31  C   UNL     1      -2.336   4.270 -32.868  1.00  0.00     0.003 A 
HETATM   32  C   UNL     1      -3.155   4.886 -33.812  1.00  0.00     0.001 A 
HETATM   33  C   UNL     1      -4.515   5.076 -33.545  1.00  0.00     0.017 A 
BRANCH  29  34
HETATM   34  O   UNL     1      -4.663   3.665 -30.143  1.00  0.00    -0.360 OA
HETATM   35  H   UNL     1      -5.101   2.794 -30.276  1.00  0.00     0.217 HD
ENDBRANCH  29  34
ENDBRANCH  10  28
TORSDOF 8
ENDMDL
MODEL 7
REMARK VINA RESULT:      -8.3      1.704      2.463
REMARK  8 active torsions:
REMARK  status: ('A' for Active; 'I' for Inactive)
REMARK    1  A    between atoms: C_2  and  C_3 
REMARK    2  A    between atoms: C_3  and  O_4 
REMARK    3  A    between atoms: O_4  and  C_5 
REMARK    4  A    between atoms: C_7  and  C_8 
REMARK    5  A    between atoms: N_9  and  C_10 
REMARK    6  A    between atoms: C_10  and  C_11 
REMARK    7  A    between atoms: C_24  and  C_25 
REMARK    8  A    between atoms: C_26  and  O_27 
ROOT
HETATM    1  C   UNL     1      -5.409   1.537 -33.398  1.00  0.00     0.159 A 
HETATM    2  N   UNL     1      -4.881   2.783 -32.774  1.00  0.00    -0.329 N 
HETATM    3  C   UNL     1      -3.975   2.562 -31.731  1.00  0.00     0.273 A 
HETATM    4  O   UNL     1      -3.391   3.380 -31.045  1.00  0.00    -0.266 OA
HETATM    5  C   UNL     1      -3.856   1.155 -31.697  1.00  0.00     0.129 A 
HETATM    6  C   UNL     1      -4.617   0.535 -32.645  1.00  0.00     0.034 A 
HETATM    7  N   UNL     1      -3.178   0.214 -31.026  1.00  0.00    -0.272 N 
HETATM    8  H   UNL     1      -2.522   0.319 -30.257  1.00  0.00     0.189 HD
HETATM    9  N   UNL     1      -3.443  -1.027 -31.509  1.00  0.00    -0.173 NA
HETATM   10  C   UNL     1      -4.282  -0.827 -32.560  1.00  0.00     0.101 A 
ENDROOT
BRANCH   1  11
HETATM   11  C   UNL     1      -6.866   1.265 -33.077  1.00  0.00    -0.028 A 
HETATM   12  C   UNL     1      -7.889   1.397 -34.043  1.00  0.00     0.046 A 
HETATM   13  C   UNL     1      -9.227   1.165 -33.717  1.00  0.00     0.069 A 
HETATM   14  C   UNL     1      -9.556   0.803 -32.412  1.00  0.00     0.037 A 
HETATM   15  C   UNL     1      -8.565   0.667 -31.442  1.00  0.00     0.003 A 
HETATM   16  C   UNL     1      -7.229   0.892 -31.774  1.00  0.00     0.010 A 
BRANCH  13  17
HETATM   17  O   UNL     1     -10.293   1.261 -34.570  1.00  0.00    -0.348 OA
BRANCH  17  18
HETATM   18  C   UNL     1     -11.594   1.293 -33.987  1.00  0.00     0.202 C 
BRANCH  18  19
HETATM   19  C   UNL     1     -12.549   1.772 -35.039  1.00  0.00    -0.011 C 
HETATM   20  C   UNL     1     -12.392   2.892 -35.758  1.00  0.00     0.009 C 
ENDBRANCH  18  19
ENDBRANCH  17  18
ENDBRANCH  13  17
ENDBRANCH   1  11
BRANCH   2  21
HETATM   21  C   UNL     1      -5.166   4.099 -33.308  1.00  0.00     0.167 C 
BRANCH  21  22
HETATM   22  C   UNL     1      -3.939   4.894 -33.673  1.00  0.00    -0.023 A 
HETATM   23  C   UNL     1      -3.712   6.124 -33.060  1.00  0.00     0.125 A 
HETATM   24  N   UNL     1      -2.626   6.901 -33.280  1.00  0.00    -0.273 NA
HETATM   25  C   UNL     1      -1.704   6.424 -34.141  1.00  0.00     0.116 A 
HETATM   26  C   UNL     1      -1.819   5.209 -34.792  1.00  0.00     0.020 A 
HETATM   27  C   UNL     1      -2.947   4.431 -34.544  1.00  0.00     0.012 A 
ENDBRANCH  21  22
ENDBRANCH   2  21
BRANCH  10  28
HETATM   28  C   UNL     1      -4.702  -1.952 -33.399  1.00  0.00     0.028 A 
HETATM   29  C   UNL     1      -4.062  -3.201 -33.322  1.00  0.00     0.078 A 
HETATM   30  C   UNL     1      -4.472  -4.274 -34.112  1.00  0.00     0.037 A 
HETATM   31  C   UNL     1      -5.517  -4.108 -35.019  1.00  0.00     0.003 A 
HETATM   32  C   UNL     1      -6.143  -2.868 -35.136  1.00  0.00     0.001 A 
HETATM   33  C   UNL     1      -5.737  -1.796 -34.334  1.00  0.00     0.017 A 
BRANCH  29  34
HETATM   34  O   UNL     1      -3.000  -3.433 -32.485  1.00  0.00    -0.360 OA
HETATM   35  H   UNL     1      -2.955  -2.656 -31.883  1.00  0.00     0.217 HD
ENDBRANCH  29  34
ENDBRANCH  10  28
TORSDOF 8
ENDMDL
MODEL 8
REMARK VINA RESULT:      -8.1      1.998      2.478
REMARK  8 active torsions:
REMARK  status: ('A' for Active; 'I' for Inactive)
REMARK    1  A    between atoms: C_2  and  C_3 
REMARK    2  A    between atoms: C_3  and  O_4 
REMARK    3  A    between atoms: O_4  and  C_5 
REMARK    4  A    between atoms: C_7  and  C_8 
REMARK    5  A    between atoms: N_9  and  C_10 
REMARK    6  A    between atoms: C_10  and  C_11 
REMARK    7  A    between atoms: C_24  and  C_25 
REMARK    8  A    between atoms: C_26  and  O_27 
ROOT
HETATM    1  C   UNL     1      -4.971   2.736 -33.197  1.00  0.00     0.159 A 
HETATM    2  N   UNL     1      -4.002   3.753 -32.697  1.00  0.00    -0.329 N 
HETATM    3  C   UNL     1      -3.090   3.262 -31.757  1.00  0.00     0.273 A 
HETATM    4  O   UNL     1      -2.196   3.855 -31.183  1.00  0.00    -0.266 OA
HETATM    5  C   UNL     1      -3.417   1.891 -31.672  1.00  0.00     0.129 A 
HETATM    6  C   UNL     1      -4.446   1.539 -32.495  1.00  0.00     0.034 A 
HETATM    7  N   UNL     1      -2.991   0.787 -31.042  1.00  0.00    -0.272 N 
HETATM    8  H   UNL     1      -2.245   0.683 -30.360  1.00  0.00     0.189 HD
HETATM    9  N   UNL     1      -3.693  -0.308 -31.432  1.00  0.00    -0.173 NA
HETATM   10  C   UNL     1      -4.551   0.142 -32.387  1.00  0.00     0.101 A 
ENDROOT
BRANCH   1  11
HETATM   11  C   UNL     1      -6.386   2.945 -32.696  1.00  0.00    -0.028 A 
HETATM   12  C   UNL     1      -7.482   3.101 -33.574  1.00  0.00     0.046 A 
HETATM   13  C   UNL     1      -8.774   3.318 -33.090  1.00  0.00     0.069 A 
HETATM   14  C   UNL     1      -8.981   3.386 -31.712  1.00  0.00     0.037 A 
HETATM   15  C   UNL     1      -7.916   3.235 -30.827  1.00  0.00     0.003 A 
HETATM   16  C   UNL     1      -6.629   3.011 -31.315  1.00  0.00     0.010 A 
BRANCH  13  17
HETATM   17  O   UNL     1      -9.902   3.479 -33.846  1.00  0.00    -0.348 OA
BRANCH  17  18
HETATM   18  C   UNL     1     -11.046   2.708 -33.485  1.00  0.00     0.202 C 
BRANCH  18  19
HETATM   19  C   UNL     1     -10.806   1.301 -33.945  1.00  0.00    -0.011 C 
HETATM   20  C   UNL     1     -10.671   0.246 -33.130  1.00  0.00     0.009 C 
ENDBRANCH  18  19
ENDBRANCH  17  18
ENDBRANCH  13  17
ENDBRANCH   1  11
BRANCH   2  21
HETATM   21  C   UNL     1      -3.922   5.087 -33.255  1.00  0.00     0.167 C 
BRANCH  21  22
HETATM   22  C   UNL     1      -4.665   6.131 -32.464  1.00  0.00    -0.023 A 
HETATM   23  C   UNL     1      -3.972   6.926 -31.554  1.00  0.00     0.125 A 
HETATM   24  N   UNL     1      -4.529   7.918 -30.822  1.00  0.00    -0.273 NA
HETATM   25  C   UNL     1      -5.843   8.150 -31.016  1.00  0.00     0.116 A 
HETATM   26  C   UNL     1      -6.624   7.435 -31.907  1.00  0.00     0.020 A 
HETATM   27  C   UNL     1      -6.023   6.421 -32.646  1.00  0.00     0.012 A 
ENDBRANCH  21  22
ENDBRANCH   2  21
BRANCH  10  28
HETATM   28  C   UNL     1      -5.405  -0.796 -33.118  1.00  0.00     0.028 A 
HETATM   29  C   UNL     1      -4.882  -1.966 -33.696  1.00  0.00     0.078 A 
HETATM   30  C   UNL     1      -5.700  -2.864 -34.379  1.00  0.00     0.037 A 
HETATM   31  C   UNL     1      -7.059  -2.593 -34.523  1.00  0.00     0.003 A 
HETATM   32  C   UNL     1      -7.594  -1.423 -33.987  1.00  0.00     0.001 A 
HETATM   33  C   UNL     1      -6.772  -0.528 -33.292  1.00  0.00     0.017 A 
BRANCH  29  34
HETATM   34  O   UNL     1      -3.549  -2.283 -33.634  1.00  0.00    -0.360 OA
HETATM   35  H   UNL     1      -3.153  -1.662 -32.981  1.00  0.00     0.217 HD
ENDBRANCH  29  34
ENDBRANCH  10  28
TORSDOF 8
ENDMDL
MODEL 9
REMARK VINA RESULT:      -8.1      2.740      6.477
REMARK  8 active torsions:
REMARK  status: ('A' for Active; 'I' for Inactive)
REMARK    1  A    between atoms: C_2  and  C_3 
REMARK    2  A    between atoms: C_3  and  O_4 
REMARK    3  A    between atoms: O_4  and  C_5 
REMARK    4  A    between atoms: C_7  and  C_8 
REMARK    5  A    between atoms: N_9  and  C_10 
REMARK    6  A    between atoms: C_10  and  C_11 
REMARK    7  A    between atoms: C_24  and  C_25 
REMARK    8  A    between atoms: C_26  and  O_27 
ROOT
HETATM    1  C   UNL     1      -7.859   2.743 -33.203  1.00  0.00     0.159 A 
HETATM    2  N   UNL     1      -9.124   2.615 -32.426  1.00  0.00    -0.329 N 
HETATM    3  C   UNL     1      -9.035   3.073 -31.107  1.00  0.00     0.273 A 
HETATM    4  O   UNL     1      -9.898   3.093 -30.249  1.00  0.00    -0.266 OA
HETATM    5  C   UNL     1      -7.714   3.564 -31.022  1.00  0.00     0.129 A 
HETATM    6  C   UNL     1      -7.024   3.435 -32.192  1.00  0.00     0.034 A 
HETATM    7  N   UNL     1      -6.916   4.170 -30.132  1.00  0.00    -0.272 N 
HETATM    8  H   UNL     1      -7.104   4.421 -29.166  1.00  0.00     0.189 HD
HETATM    9  N   UNL     1      -5.709   4.473 -30.675  1.00  0.00    -0.173 NA
HETATM   10  C   UNL     1      -5.796   4.082 -31.975  1.00  0.00     0.101 A 
ENDROOT
BRANCH   1  11
HETATM   11  C   UNL     1      -7.183   1.417 -33.489  1.00  0.00    -0.028 A 
HETATM   12  C   UNL     1      -6.429   0.728 -32.512  1.00  0.00     0.046 A 
HETATM   13  C   UNL     1      -5.795  -0.480 -32.806  1.00  0.00     0.069 A 
HETATM   14  C   UNL     1      -5.904  -1.012 -34.091  1.00  0.00     0.037 A 
HETATM   15  C   UNL     1      -6.642  -0.351 -35.070  1.00  0.00     0.003 A 
HETATM   16  C   UNL     1      -7.281   0.852 -34.771  1.00  0.00     0.010 A 
BRANCH  13  17
HETATM   17  O   UNL     1      -5.045  -1.229 -31.940  1.00  0.00    -0.348 OA
BRANCH  17  18
HETATM   18  C   UNL     1      -3.746  -0.741 -31.612  1.00  0.00     0.202 C 
BRANCH  18  19
HETATM   19  C   UNL     1      -2.774  -1.864 -31.822  1.00  0.00    -0.011 C 
HETATM   20  C   UNL     1      -3.118  -3.147 -31.998  1.00  0.00     0.009 C 
ENDBRANCH  18  19
ENDBRANCH  17  18
ENDBRANCH  13  17
ENDBRANCH   1  11
BRANCH   2  21
HETATM   21  C   UNL     1     -10.370   2.197 -33.035  1.00  0.00     0.167 C 
BRANCH  21  22
HETATM   22  C   UNL     1     -11.200   3.330 -33.579  1.00  0.00    -0.023 A 
HETATM   23  C   UNL     1     -10.938   3.821 -34.856  1.00  0.00     0.125 A 
HETATM   24  N   UNL     1     -11.645   4.805 -35.459  1.00  0.00    -0.273 NA
HETATM   25  C   UNL     1     -12.682   5.319 -34.766  1.00  0.00     0.116 A 
HETATM   26  C   UNL     1     -13.043   4.894 -33.500  1.00  0.00     0.020 A 
HETATM   27  C   UNL     1     -12.297   3.880 -32.906  1.00  0.00     0.012 A 
ENDBRANCH  21  22
ENDBRANCH   2  21
BRANCH  10  28
HETATM   28  C   UNL     1      -4.699   4.354 -32.906  1.00  0.00     0.028 A 
HETATM   29  C   UNL     1      -3.358   4.150 -32.538  1.00  0.00     0.078 A 
HETATM   30  C   UNL     1      -2.317   4.397 -33.431  1.00  0.00     0.037 A 
HETATM   31  C   UNL     1      -2.597   4.882 -34.706  1.00  0.00     0.003 A 
HETATM   32  C   UNL     1      -3.918   5.124 -35.082  1.00  0.00     0.001 A 
HETATM   33  C   UNL     1      -4.962   4.865 -34.187  1.00  0.00     0.017 A 
BRANCH  29  34
HETATM   34  O   UNL     1      -2.998   3.714 -31.289  1.00  0.00    -0.360 OA
HETATM   35  H   UNL     1      -3.824   3.389 -30.866  1.00  0.00     0.217 HD
ENDBRANCH  29  34
ENDBRANCH  10  28
TORSDOF 8
ENDMDL
MODEL 10
REMARK VINA RESULT:      -7.8      2.980      7.422
REMARK  8 active torsions:
REMARK  status: ('A' for Active; 'I' for Inactive)
REMARK    1  A    between atoms: C_2  and  C_3 
REMARK    2  A    between atoms: C_3  and  O_4 
REMARK    3  A    between atoms: O_4  and  C_5 
REMARK    4  A    between atoms: C_7  and  C_8 
REMARK    5  A    between atoms: N_9  and  C_10 
REMARK    6  A    between atoms: C_10  and  C_11 
REMARK    7  A    between atoms: C_24  and  C_25 
REMARK    8  A    between atoms: C_26  and  O_27 
ROOT
HETATM    1  C   UNL     1      -4.918   3.768 -33.403  1.00  0.00     0.159 A 
HETATM    2  N   UNL     1      -6.277   3.796 -34.015  1.00  0.00    -0.329 N 
HETATM    3  C   UNL     1      -6.979   4.986 -33.795  1.00  0.00     0.273 A 
HETATM    4  O   UNL     1      -8.097   5.289 -34.169  1.00  0.00    -0.266 OA
HETATM    5  C   UNL     1      -6.058   5.780 -33.078  1.00  0.00     0.129 A 
HETATM    6  C   UNL     1      -4.866   5.150 -32.867  1.00  0.00     0.034 A 
HETATM    7  N   UNL     1      -5.975   7.012 -32.558  1.00  0.00    -0.272 N 
HETATM    8  H   UNL     1      -6.675   7.749 -32.535  1.00  0.00     0.189 HD
HETATM    9  N   UNL     1      -4.751   7.241 -32.018  1.00  0.00    -0.173 NA
HETATM   10  C   UNL     1      -4.035   6.112 -32.270  1.00  0.00     0.101 A 
ENDROOT
BRANCH   1  11
HETATM   11  C   UNL     1      -4.805   2.838 -32.212  1.00  0.00    -0.028 A 
HETATM   12  C   UNL     1      -3.852   1.796 -32.155  1.00  0.00     0.046 A 
HETATM   13  C   UNL     1      -3.784   0.936 -31.056  1.00  0.00     0.069 A 
HETATM   14  C   UNL     1      -4.679   1.108 -30.001  1.00  0.00     0.037 A 
HETATM   15  C   UNL     1      -5.627   2.128 -30.035  1.00  0.00     0.003 A 
HETATM   16  C   UNL     1      -5.687   2.990 -31.130  1.00  0.00     0.010 A 
BRANCH  13  17
HETATM   17  O   UNL     1      -2.904  -0.099 -30.897  1.00  0.00    -0.348 OA
BRANCH  17  18
HETATM   18  C   UNL     1      -2.579  -0.864 -32.056  1.00  0.00     0.202 C 
BRANCH  18  19
HETATM   19  C   UNL     1      -3.671  -1.873 -32.254  1.00  0.00    -0.011 C 
HETATM   20  C   UNL     1      -4.536  -1.868 -33.276  1.00  0.00     0.009 C 
ENDBRANCH  18  19
ENDBRANCH  17  18
ENDBRANCH  13  17
ENDBRANCH   1  11
BRANCH   2  21
HETATM   21  C   UNL     1      -6.757   2.743 -34.887  1.00  0.00     0.167 C 
BRANCH  21  22
HETATM   22  C   UNL     1      -7.646   1.737 -34.205  1.00  0.00    -0.023 A 
HETATM   23  C   UNL     1      -9.025   1.933 -34.198  1.00  0.00     0.125 A 
HETATM   24  N   UNL     1      -9.918   1.075 -33.652  1.00  0.00    -0.273 NA
HETATM   25  C   UNL     1      -9.420  -0.050 -33.100  1.00  0.00     0.116 A 
HETATM   26  C   UNL     1      -8.071  -0.355 -33.067  1.00  0.00     0.020 A 
HETATM   27  C   UNL     1      -7.176   0.547 -33.637  1.00  0.00     0.012 A 
ENDBRANCH  21  22
ENDBRANCH   2  21
BRANCH  10  28
HETATM   28  C   UNL     1      -2.615   6.040 -31.918  1.00  0.00     0.028 A 
HETATM   29  C   UNL     1      -1.713   7.048 -32.300  1.00  0.00     0.078 A 
HETATM   30  C   UNL     1      -0.365   6.983 -31.952  1.00  0.00     0.037 A 
HETATM   31  C   UNL     1       0.113   5.889 -31.235  1.00  0.00     0.003 A 
HETATM   32  C   UNL     1      -0.756   4.862 -30.873  1.00  0.00     0.001 A 
HETATM   33  C   UNL     1      -2.111   4.935 -31.214  1.00  0.00     0.017 A 
BRANCH  29  34
HETATM   34  O   UNL     1      -2.098   8.135 -33.043  1.00  0.00    -0.360 OA
HETATM   35  H   UNL     1      -2.409   7.777 -33.906  1.00  0.00     0.217 HD
ENDBRANCH  29  34
ENDBRANCH  10  28
TORSDOF 8
ENDMDL
