MODEL 1
REMARK VINA RESULT:      -9.4      0.000      0.000
REMARK  11 active torsions:
REMARK  status: ('A' for Active; 'I' for Inactive)
REMARK    1  A    between atoms: C_6  and  C_7 
REMARK    2  A    between atoms: C_7  and  C_8 
REMARK       I    between atoms: C_8  and  N_9 
REMARK    3  A    between atoms: N_9  and  C_10 
REMARK    4  A    between atoms: C_10  and  C_11 
REMARK    5  A    between atoms: C_11  and  N_12 
REMARK    6  A    between atoms: C_17  and  C_18 
REMARK    7  A    between atoms: C_21  and  C_22 
REMARK    8  A    between atoms: C_29  and  C_30 
REMARK    9  A    between atoms: C_30  and  O_31 
REMARK   10  A    between atoms: O_31  and  C_32 
REMARK   11  A    between atoms: C_32  and  C_33 
ROOT
HETATM    1  C   UNL     1      -6.001   1.244 -29.557  1.00  0.00     0.071 C 
HETATM    2  C   UNL     1      -6.610   1.720 -30.850  1.00  0.00     0.048 C 
HETATM    3  N   UNL     1      -7.553   2.738 -30.697  1.00  0.00    -0.229 NA
HETATM    4  C   UNL     1      -7.702   3.527 -31.709  1.00  0.00     0.170 C 
HETATM    5  N   UNL     1      -6.973   3.288 -33.058  1.00  0.00    -0.319 N 
HETATM    6  C   UNL     1      -6.547   4.405 -33.532  1.00  0.00     0.011 C 
HETATM    7  C   UNL     1      -6.835   1.844 -33.325  1.00  0.00     0.166 C 
HETATM    8  S   UNL     1      -8.412   5.099 -31.671  1.00  0.00    -0.086 SA
HETATM    9  C   UNL     1      -7.285   5.632 -33.019  1.00  0.00     0.135 C 
HETATM   10  C   UNL     1      -6.218   1.299 -32.075  1.00  0.00     0.069 C 
ENDROOT
BRANCH   6  11
HETATM   11  C   UNL     1      -5.315   4.459 -34.385  1.00  0.00     0.156 C 
BRANCH  11  12
HETATM   12  C   UNL     1      -4.186   5.078 -33.581  1.00  0.00     0.223 C 
HETATM   13  N   UNL     1      -3.755   4.374 -32.488  1.00  0.00    -0.359 N 
HETATM   14  H   UNL     1      -4.037   3.398 -32.359  1.00  0.00     0.162 HD
HETATM   15  O   UNL     1      -3.798   6.221 -33.808  1.00  0.00    -0.273 OA
BRANCH  13  16
HETATM   16  C   UNL     1      -3.034   4.993 -31.366  1.00  0.00     0.150 C 
BRANCH  16  17
HETATM   17  C   UNL     1      -1.488   4.897 -31.372  1.00  0.00     0.253 C 
BRANCH  17  18
HETATM   18  N   UNL     1      -0.851   5.315 -30.062  1.00  0.00    -0.077 N 
HETATM   19  H   UNL     1      -1.311   4.760 -29.312  1.00  0.00     0.279 HD
HETATM   20  C   UNL     1       0.617   5.004 -29.953  1.00  0.00     0.269 C 
HETATM   21  C   UNL     1      -1.116   6.759 -29.739  1.00  0.00     0.269 C 
ENDBRANCH  17  18
ENDBRANCH  16  17
ENDBRANCH  13  16
ENDBRANCH  11  12
ENDBRANCH   6  11
BRANCH   7  22
HETATM   22  C   UNL     1      -8.243   1.310 -33.648  1.00  0.00    -0.030 C 
HETATM   23  C   UNL     1      -9.076   2.029 -34.527  1.00  0.00     0.010 C 
HETATM   24  C   UNL     1     -10.458   1.822 -34.527  1.00  0.00     0.008 C 
HETATM   25  C   UNL     1     -11.036   0.864 -33.687  1.00  0.00    -0.055 C 
HETATM   26  C   UNL     1     -10.189   0.020 -32.960  1.00  0.00     0.008 C 
HETATM   27  C   UNL     1      -8.808   0.229 -32.950  1.00  0.00     0.010 C 
BRANCH  25  28
HETATM   28  C   UNL     1     -12.546   0.817 -33.508  1.00  0.00     0.010 C 
HETATM   29  C   UNL     1     -13.292   1.677 -34.526  1.00  0.00     0.015 C 
HETATM   30  C   UNL     1     -13.040  -0.635 -33.556  1.00  0.00     0.015 C 
ENDBRANCH  25  28
ENDBRANCH   7  22
BRANCH  10  31
HETATM   31  C   UNL     1      -4.931   0.645 -32.316  1.00  0.00     0.294 C 
HETATM   32  O   UNL     1      -3.952   1.340 -32.563  1.00  0.00    -0.259 OA
BRANCH  31  33
HETATM   33  O   UNL     1      -5.082  -0.684 -32.404  1.00  0.00    -0.313 OA
BRANCH  33  34
HETATM   34  C   UNL     1      -4.209  -1.349 -33.331  1.00  0.00     0.217 C 
BRANCH  34  35
HETATM   35  C   UNL     1      -4.917  -2.526 -33.938  1.00  0.00    -0.034 A 
HETATM   36  C   UNL     1      -6.255  -2.411 -34.341  1.00  0.00     0.009 A 
HETATM   37  C   UNL     1      -6.916  -3.498 -34.913  1.00  0.00     0.001 A 
HETATM   38  C   UNL     1      -6.251  -4.711 -35.081  1.00  0.00     0.000 A 
HETATM   39  C   UNL     1      -4.923  -4.839 -34.675  1.00  0.00     0.001 A 
HETATM   40  C   UNL     1      -4.260  -3.754 -34.103  1.00  0.00     0.009 A 
ENDBRANCH  34  35
ENDBRANCH  33  34
ENDBRANCH  31  33
ENDBRANCH  10  31
TORSDOF 11
ENDMDL
MODEL 2
REMARK VINA RESULT:      -8.8      2.858      6.024
REMARK  11 active torsions:
REMARK  status: ('A' for Active; 'I' for Inactive)
REMARK    1  A    between atoms: C_6  and  C_7 
REMARK    2  A    between atoms: C_7  and  C_8 
REMARK       I    between atoms: C_8  and  N_9 
REMARK    3  A    between atoms: N_9  and  C_10 
REMARK    4  A    between atoms: C_10  and  C_11 
REMARK    5  A    between atoms: C_11  and  N_12 
REMARK    6  A    between atoms: C_17  and  C_18 
REMARK    7  A    between atoms: C_21  and  C_22 
REMARK    8  A    between atoms: C_29  and  C_30 
REMARK    9  A    between atoms: C_30  and  O_31 
REMARK   10  A    between atoms: O_31  and  C_32 
REMARK   11  A    between atoms: C_32  and  C_33 
ROOT
HETATM    1  C   UNL     1      -9.058   3.988 -34.232  1.00  0.00     0.071 C 
HETATM    2  C   UNL     1      -7.907   3.182 -33.689  1.00  0.00     0.048 C 
HETATM    3  N   UNL     1      -6.652   3.612 -34.125  1.00  0.00    -0.229 NA
HETATM    4  C   UNL     1      -5.662   3.356 -33.336  1.00  0.00     0.170 C 
HETATM    5  N   UNL     1      -5.830   2.513 -32.044  1.00  0.00    -0.319 N 
HETATM    6  C   UNL     1      -5.148   3.034 -31.087  1.00  0.00     0.011 C 
HETATM    7  C   UNL     1      -6.845   1.462 -32.240  1.00  0.00     0.166 C 
HETATM    8  S   UNL     1      -4.122   4.136 -33.358  1.00  0.00    -0.086 SA
HETATM    9  C   UNL     1      -3.995   3.918 -31.539  1.00  0.00     0.135 C 
HETATM   10  C   UNL     1      -8.036   2.196 -32.771  1.00  0.00     0.069 C 
ENDROOT
BRANCH   6  11
HETATM   11  C   UNL     1      -5.591   2.893 -29.661  1.00  0.00     0.156 C 
BRANCH  11  12
HETATM   12  C   UNL     1      -6.006   4.256 -29.137  1.00  0.00     0.223 C 
HETATM   13  N   UNL     1      -5.140   4.869 -28.270  1.00  0.00    -0.359 N 
HETATM   14  H   UNL     1      -4.185   4.517 -28.160  1.00  0.00     0.162 HD
HETATM   15  O   UNL     1      -7.130   4.704 -29.354  1.00  0.00    -0.273 OA
BRANCH  13  16
HETATM   16  C   UNL     1      -5.554   5.923 -27.332  1.00  0.00     0.150 C 
BRANCH  16  17
HETATM   17  C   UNL     1      -4.596   7.125 -27.142  1.00  0.00     0.253 C 
BRANCH  17  18
HETATM   18  N   UNL     1      -3.862   7.110 -25.816  1.00  0.00    -0.077 N 
HETATM   19  H   UNL     1      -4.282   6.347 -25.247  1.00  0.00     0.279 HD
HETATM   20  C   UNL     1      -2.398   6.781 -25.915  1.00  0.00     0.269 C 
HETATM   21  C   UNL     1      -4.073   8.379 -25.038  1.00  0.00     0.269 C 
ENDBRANCH  17  18
ENDBRANCH  16  17
ENDBRANCH  13  16
ENDBRANCH  11  12
ENDBRANCH   6  11
BRANCH   7  22
HETATM   22  C   UNL     1      -6.236   0.420 -33.197  1.00  0.00    -0.030 C 
HETATM   23  C   UNL     1      -7.006  -0.077 -34.267  1.00  0.00     0.010 C 
HETATM   24  C   UNL     1      -6.667  -1.281 -34.888  1.00  0.00     0.008 C 
HETATM   25  C   UNL     1      -5.531  -1.995 -34.490  1.00  0.00    -0.055 C 
HETATM   26  C   UNL     1      -4.666  -1.403 -33.564  1.00  0.00     0.008 C 
HETATM   27  C   UNL     1      -5.005  -0.203 -32.934  1.00  0.00     0.010 C 
BRANCH  25  28
HETATM   28  C   UNL     1      -5.308  -3.414 -34.989  1.00  0.00     0.010 C 
HETATM   29  C   UNL     1      -4.278  -4.179 -34.161  1.00  0.00     0.015 C 
HETATM   30  C   UNL     1      -6.640  -4.174 -35.039  1.00  0.00     0.015 C 
ENDBRANCH  25  28
ENDBRANCH   7  22
BRANCH  10  31
HETATM   31  C   UNL     1      -9.219   2.052 -31.921  1.00  0.00     0.294 C 
HETATM   32  O   UNL     1      -9.401   2.863 -31.021  1.00  0.00    -0.259 OA
BRANCH  31  33
HETATM   33  O   UNL     1      -9.844   0.893 -32.170  1.00  0.00    -0.313 OA
BRANCH  33  34
HETATM   34  C   UNL     1     -10.308   0.714 -33.518  1.00  0.00     0.217 C 
BRANCH  34  35
HETATM   35  C   UNL     1     -11.791   0.942 -33.578  1.00  0.00    -0.034 A 
HETATM   36  C   UNL     1     -12.670  -0.150 -33.613  1.00  0.00     0.009 A 
HETATM   37  C   UNL     1     -14.048   0.054 -33.660  1.00  0.00     0.001 A 
HETATM   38  C   UNL     1     -14.562   1.349 -33.681  1.00  0.00     0.000 A 
HETATM   39  C   UNL     1     -13.697   2.442 -33.657  1.00  0.00     0.001 A 
HETATM   40  C   UNL     1     -12.318   2.241 -33.609  1.00  0.00     0.009 A 
ENDBRANCH  34  35
ENDBRANCH  33  34
ENDBRANCH  31  33
ENDBRANCH  10  31
TORSDOF 11
ENDMDL
MODEL 3
REMARK VINA RESULT:      -8.7      2.354      6.330
REMARK  11 active torsions:
REMARK  status: ('A' for Active; 'I' for Inactive)
REMARK    1  A    between atoms: C_6  and  C_7 
REMARK    2  A    between atoms: C_7  and  C_8 
REMARK       I    between atoms: C_8  and  N_9 
REMARK    3  A    between atoms: N_9  and  C_10 
REMARK    4  A    between atoms: C_10  and  C_11 
REMARK    5  A    between atoms: C_11  and  N_12 
REMARK    6  A    between atoms: C_17  and  C_18 
REMARK    7  A    between atoms: C_21  and  C_22 
REMARK    8  A    between atoms: C_29  and  C_30 
REMARK    9  A    between atoms: C_30  and  O_31 
REMARK   10  A    between atoms: O_31  and  C_32 
REMARK   11  A    between atoms: C_32  and  C_33 
ROOT
HETATM    1  C   UNL     1      -6.078   1.632 -29.693  1.00  0.00     0.071 C 
HETATM    2  C   UNL     1      -6.497   1.300 -31.102  1.00  0.00     0.048 C 
HETATM    3  N   UNL     1      -7.610   0.459 -31.183  1.00  0.00    -0.229 NA
HETATM    4  C   UNL     1      -8.321   0.566 -32.257  1.00  0.00     0.170 C 
HETATM    5  N   UNL     1      -7.899   1.476 -33.440  1.00  0.00    -0.319 N 
HETATM    6  C   UNL     1      -8.926   2.093 -33.908  1.00  0.00     0.011 C 
HETATM    7  C   UNL     1      -6.432   1.500 -33.580  1.00  0.00     0.166 C 
HETATM    8  S   UNL     1      -9.951   0.032 -32.448  1.00  0.00    -0.086 SA
HETATM    9  C   UNL     1     -10.257   1.417 -33.614  1.00  0.00     0.135 C 
HETATM   10  C   UNL     1      -5.938   1.840 -32.209  1.00  0.00     0.069 C 
ENDROOT
BRANCH   6  11
HETATM   11  C   UNL     1      -8.790   3.447 -34.537  1.00  0.00     0.156 C 
BRANCH  11  12
HETATM   12  C   UNL     1      -9.321   4.493 -33.573  1.00  0.00     0.223 C 
HETATM   13  N   UNL     1      -8.671   4.606 -32.373  1.00  0.00    -0.359 N 
HETATM   14  H   UNL     1      -7.760   4.158 -32.236  1.00  0.00     0.162 HD
HETATM   15  O   UNL     1     -10.373   5.087 -33.798  1.00  0.00    -0.273 OA
BRANCH  13  16
HETATM   16  C   UNL     1      -9.288   5.198 -31.177  1.00  0.00     0.150 C 
BRANCH  16  17
HETATM   17  C   UNL     1      -8.489   5.126 -29.852  1.00  0.00     0.253 C 
BRANCH  17  18
HETATM   18  N   UNL     1      -7.063   5.625 -29.978  1.00  0.00    -0.077 N 
HETATM   19  H   UNL     1      -6.635   5.115 -30.776  1.00  0.00     0.279 HD
HETATM   20  C   UNL     1      -6.939   7.085 -30.317  1.00  0.00     0.269 C 
HETATM   21  C   UNL     1      -6.237   5.285 -28.768  1.00  0.00     0.269 C 
ENDBRANCH  17  18
ENDBRANCH  16  17
ENDBRANCH  13  16
ENDBRANCH  11  12
ENDBRANCH   6  11
BRANCH   7  22
HETATM   22  C   UNL     1      -6.008   0.115 -34.105  1.00  0.00    -0.030 C 
HETATM   23  C   UNL     1      -6.869  -0.599 -34.961  1.00  0.00     0.010 C 
HETATM   24  C   UNL     1      -6.728  -1.980 -35.122  1.00  0.00     0.008 C 
HETATM   25  C   UNL     1      -5.700  -2.673 -34.472  1.00  0.00    -0.055 C 
HETATM   26  C   UNL     1      -4.735  -1.934 -33.780  1.00  0.00     0.008 C 
HETATM   27  C   UNL     1      -4.876  -0.555 -33.610  1.00  0.00     0.010 C 
BRANCH  25  28
HETATM   28  C   UNL     1      -5.702  -4.194 -34.447  1.00  0.00     0.010 C 
HETATM   29  C   UNL     1      -6.303  -4.807 -35.710  1.00  0.00     0.015 C 
HETATM   30  C   UNL     1      -4.280  -4.721 -34.210  1.00  0.00     0.015 C 
ENDBRANCH  25  28
ENDBRANCH   7  22
BRANCH  10  31
HETATM   31  C   UNL     1      -5.147   3.071 -32.179  1.00  0.00     0.294 C 
HETATM   32  O   UNL     1      -5.730   4.146 -32.091  1.00  0.00    -0.259 OA
BRANCH  31  33
HETATM   33  O   UNL     1      -3.859   2.814 -32.445  1.00  0.00    -0.313 OA
BRANCH  33  34
HETATM   34  C   UNL     1      -2.906   3.474 -31.595  1.00  0.00     0.217 C 
BRANCH  34  35
HETATM   35  C   UNL     1      -2.232   4.581 -32.353  1.00  0.00    -0.034 A 
HETATM   36  C   UNL     1      -2.206   4.560 -33.754  1.00  0.00     0.009 A 
HETATM   37  C   UNL     1      -1.589   5.590 -34.464  1.00  0.00     0.001 A 
HETATM   38  C   UNL     1      -0.986   6.644 -33.782  1.00  0.00     0.000 A 
HETATM   39  C   UNL     1      -0.996   6.670 -32.389  1.00  0.00     0.001 A 
HETATM   40  C   UNL     1      -1.613   5.642 -31.676  1.00  0.00     0.009 A 
ENDBRANCH  34  35
ENDBRANCH  33  34
ENDBRANCH  31  33
ENDBRANCH  10  31
TORSDOF 11
ENDMDL
MODEL 4
REMARK VINA RESULT:      -8.5      2.667      7.821
REMARK  11 active torsions:
REMARK  status: ('A' for Active; 'I' for Inactive)
REMARK    1  A    between atoms: C_6  and  C_7 
REMARK    2  A    between atoms: C_7  and  C_8 
REMARK       I    between atoms: C_8  and  N_9 
REMARK    3  A    between atoms: N_9  and  C_10 
REMARK    4  A    between atoms: C_10  and  C_11 
REMARK    5  A    between atoms: C_11  and  N_12 
REMARK    6  A    between atoms: C_17  and  C_18 
REMARK    7  A    between atoms: C_21  and  C_22 
REMARK    8  A    between atoms: C_29  and  C_30 
REMARK    9  A    between atoms: C_30  and  O_31 
REMARK   10  A    between atoms: O_31  and  C_32 
REMARK   11  A    between atoms: C_32  and  C_33 
ROOT
HETATM    1  C   UNL     1      -4.397   4.397 -30.920  1.00  0.00     0.071 C 
HETATM    2  C   UNL     1      -5.473   3.667 -31.680  1.00  0.00     0.048 C 
HETATM    3  N   UNL     1      -6.488   3.145 -30.874  1.00  0.00    -0.229 NA
HETATM    4  C   UNL     1      -7.641   3.003 -31.439  1.00  0.00     0.170 C 
HETATM    5  N   UNL     1      -7.860   3.274 -32.951  1.00  0.00    -0.319 N 
HETATM    6  C   UNL     1      -8.973   3.891 -33.130  1.00  0.00     0.011 C 
HETATM    7  C   UNL     1      -6.663   2.897 -33.724  1.00  0.00     0.166 C 
HETATM    8  S   UNL     1      -9.153   2.836 -30.624  1.00  0.00    -0.086 SA
HETATM    9  C   UNL     1      -9.985   3.710 -32.008  1.00  0.00     0.135 C 
HETATM   10  C   UNL     1      -5.541   3.602 -33.030  1.00  0.00     0.069 C 
ENDROOT
BRANCH   6  11
HETATM   11  C   UNL     1      -9.153   4.835 -34.281  1.00  0.00     0.156 C 
BRANCH  11  12
HETATM   12  C   UNL     1     -10.574   4.711 -34.802  1.00  0.00     0.223 C 
HETATM   13  N   UNL     1     -11.500   5.568 -34.268  1.00  0.00    -0.359 N 
HETATM   14  H   UNL     1     -11.197   6.374 -33.715  1.00  0.00     0.162 HD
HETATM   15  O   UNL     1     -10.900   3.784 -35.540  1.00  0.00    -0.273 OA
BRANCH  13  16
HETATM   16  C   UNL     1     -12.947   5.304 -34.293  1.00  0.00     0.150 C 
BRANCH  16  17
HETATM   17  C   UNL     1     -13.584   4.707 -33.014  1.00  0.00     0.253 C 
BRANCH  17  18
HETATM   18  N   UNL     1     -14.201   3.339 -33.228  1.00  0.00    -0.077 N 
HETATM   19  H   UNL     1     -14.712   3.377 -34.132  1.00  0.00     0.279 HD
HETATM   20  C   UNL     1     -13.206   2.220 -33.372  1.00  0.00     0.269 C 
HETATM   21  C   UNL     1     -15.226   3.010 -32.178  1.00  0.00     0.269 C 
ENDBRANCH  17  18
ENDBRANCH  16  17
ENDBRANCH  13  16
ENDBRANCH  11  12
ENDBRANCH   6  11
BRANCH   7  22
HETATM   22  C   UNL     1      -6.581   1.359 -33.707  1.00  0.00    -0.030 C 
HETATM   23  C   UNL     1      -5.399   0.729 -33.270  1.00  0.00     0.010 C 
HETATM   24  C   UNL     1      -5.129  -0.597 -33.617  1.00  0.00     0.008 C 
HETATM   25  C   UNL     1      -6.048  -1.340 -34.366  1.00  0.00    -0.055 C 
HETATM   26  C   UNL     1      -7.300  -0.775 -34.630  1.00  0.00     0.008 C 
HETATM   27  C   UNL     1      -7.571   0.553 -34.293  1.00  0.00     0.010 C 
BRANCH  25  28
HETATM   28  C   UNL     1      -5.646  -2.685 -34.950  1.00  0.00     0.010 C 
HETATM   29  C   UNL     1      -4.368  -3.245 -34.329  1.00  0.00     0.015 C 
HETATM   30  C   UNL     1      -6.801  -3.688 -34.815  1.00  0.00     0.015 C 
ENDBRANCH  25  28
ENDBRANCH   7  22
BRANCH  10  31
HETATM   31  C   UNL     1      -4.824   4.531 -33.906  1.00  0.00     0.294 C 
HETATM   32  O   UNL     1      -5.466   5.365 -34.534  1.00  0.00    -0.259 OA
BRANCH  31  33
HETATM   33  O   UNL     1      -3.535   4.181 -34.016  1.00  0.00    -0.313 OA
BRANCH  33  34
HETATM   34  C   UNL     1      -2.664   5.183 -34.566  1.00  0.00     0.217 C 
BRANCH  34  35
HETATM   35  C   UNL     1      -1.895   5.848 -33.460  1.00  0.00    -0.034 A 
HETATM   36  C   UNL     1      -1.984   7.235 -33.277  1.00  0.00     0.009 A 
HETATM   37  C   UNL     1      -1.280   7.857 -32.247  1.00  0.00     0.001 A 
HETATM   38  C   UNL     1      -0.474   7.103 -31.397  1.00  0.00     0.000 A 
HETATM   39  C   UNL     1      -0.370   5.725 -31.576  1.00  0.00     0.001 A 
HETATM   40  C   UNL     1      -1.074   5.099 -32.605  1.00  0.00     0.009 A 
ENDBRANCH  34  35
ENDBRANCH  33  34
ENDBRANCH  31  33
ENDBRANCH  10  31
TORSDOF 11
ENDMDL
MODEL 5
REMARK VINA RESULT:      -8.5      2.669      7.654
REMARK  11 active torsions:
REMARK  status: ('A' for Active; 'I' for Inactive)
REMARK    1  A    between atoms: C_6  and  C_7 
REMARK    2  A    between atoms: C_7  and  C_8 
REMARK       I    between atoms: C_8  and  N_9 
REMARK    3  A    between atoms: N_9  and  C_10 
REMARK    4  A    between atoms: C_10  and  C_11 
REMARK    5  A    between atoms: C_11  and  N_12 
REMARK    6  A    between atoms: C_17  and  C_18 
REMARK    7  A    between atoms: C_21  and  C_22 
REMARK    8  A    between atoms: C_29  and  C_30 
REMARK    9  A    between atoms: C_30  and  O_31 
REMARK   10  A    between atoms: O_31  and  C_32 
REMARK   11  A    between atoms: C_32  and  C_33 
ROOT
HETATM    1  C   UNL     1      -5.989   1.674 -29.745  1.00  0.00     0.071 C 
HETATM    2  C   UNL     1      -6.432   1.299 -31.135  1.00  0.00     0.048 C 
HETATM    3  N   UNL     1      -7.515   0.417 -31.171  1.00  0.00    -0.229 NA
HETATM    4  C   UNL     1      -8.257   0.476 -32.227  1.00  0.00     0.170 C 
HETATM    5  N   UNL     1      -7.900   1.378 -33.438  1.00  0.00    -0.319 N 
HETATM    6  C   UNL     1      -8.961   1.947 -33.890  1.00  0.00     0.011 C 
HETATM    7  C   UNL     1      -6.439   1.452 -33.618  1.00  0.00     0.166 C 
HETATM    8  S   UNL     1      -9.871  -0.120 -32.365  1.00  0.00    -0.086 SA
HETATM    9  C   UNL     1     -10.258   1.230 -33.548  1.00  0.00     0.135 C 
HETATM   10  C   UNL     1      -5.923   1.837 -32.267  1.00  0.00     0.069 C 
ENDROOT
BRANCH   6  11
HETATM   11  C   UNL     1      -8.891   3.293 -34.548  1.00  0.00     0.156 C 
BRANCH  11  12
HETATM   12  C   UNL     1     -10.279   3.909 -34.557  1.00  0.00     0.223 C 
HETATM   13  N   UNL     1     -10.764   4.345 -33.353  1.00  0.00    -0.359 N 
HETATM   14  H   UNL     1     -10.137   4.440 -32.548  1.00  0.00     0.162 HD
HETATM   15  O   UNL     1     -10.986   3.865 -35.562  1.00  0.00    -0.273 OA
BRANCH  13  16
HETATM   16  C   UNL     1     -12.198   4.529 -33.082  1.00  0.00     0.150 C 
BRANCH  16  17
HETATM   17  C   UNL     1     -12.743   3.995 -31.735  1.00  0.00     0.253 C 
BRANCH  17  18
HETATM   18  N   UNL     1     -13.916   3.047 -31.890  1.00  0.00    -0.077 N 
HETATM   19  H   UNL     1     -13.913   2.425 -31.056  1.00  0.00     0.279 HD
HETATM   20  C   UNL     1     -15.263   3.714 -31.893  1.00  0.00     0.269 C 
HETATM   21  C   UNL     1     -13.762   2.148 -33.085  1.00  0.00     0.269 C 
ENDBRANCH  17  18
ENDBRANCH  16  17
ENDBRANCH  13  16
ENDBRANCH  11  12
ENDBRANCH   6  11
BRANCH   7  22
HETATM   22  C   UNL     1      -5.978   0.074 -34.127  1.00  0.00    -0.030 C 
HETATM   23  C   UNL     1      -6.820  -0.674 -34.973  1.00  0.00     0.010 C 
HETATM   24  C   UNL     1      -6.642  -2.052 -35.118  1.00  0.00     0.008 C 
HETATM   25  C   UNL     1      -5.595  -2.709 -34.463  1.00  0.00    -0.055 C 
HETATM   26  C   UNL     1      -4.648  -1.936 -33.782  1.00  0.00     0.008 C 
HETATM   27  C   UNL     1      -4.827  -0.559 -33.627  1.00  0.00     0.010 C 
BRANCH  25  28
HETATM   28  C   UNL     1      -5.554  -4.229 -34.421  1.00  0.00     0.010 C 
HETATM   29  C   UNL     1      -6.170  -4.874 -35.661  1.00  0.00     0.015 C 
HETATM   30  C   UNL     1      -4.114  -4.715 -34.213  1.00  0.00     0.015 C 
ENDBRANCH  25  28
ENDBRANCH   7  22
BRANCH  10  31
HETATM   31  C   UNL     1      -5.177   3.096 -32.281  1.00  0.00     0.294 C 
HETATM   32  O   UNL     1      -5.797   4.151 -32.214  1.00  0.00    -0.259 OA
BRANCH  31  33
HETATM   33  O   UNL     1      -3.884   2.879 -32.557  1.00  0.00    -0.313 OA
BRANCH  33  34
HETATM   34  C   UNL     1      -2.944   3.496 -31.661  1.00  0.00     0.217 C 
BRANCH  34  35
HETATM   35  C   UNL     1      -2.223   4.607 -32.370  1.00  0.00    -0.034 A 
HETATM   36  C   UNL     1      -2.174   4.633 -33.770  1.00  0.00     0.009 A 
HETATM   37  C   UNL     1      -1.513   5.667 -34.434  1.00  0.00     0.001 A 
HETATM   38  C   UNL     1      -0.889   6.678 -33.706  1.00  0.00     0.000 A 
HETATM   39  C   UNL     1      -0.923   6.656 -32.313  1.00  0.00     0.001 A 
HETATM   40  C   UNL     1      -1.584   5.624 -31.646  1.00  0.00     0.009 A 
ENDBRANCH  34  35
ENDBRANCH  33  34
ENDBRANCH  31  33
ENDBRANCH  10  31
TORSDOF 11
ENDMDL
MODEL 6
REMARK VINA RESULT:      -8.5      2.335      5.293
REMARK  11 active torsions:
REMARK  status: ('A' for Active; 'I' for Inactive)
REMARK    1  A    between atoms: C_6  and  C_7 
REMARK    2  A    between atoms: C_7  and  C_8 
REMARK       I    between atoms: C_8  and  N_9 
REMARK    3  A    between atoms: N_9  and  C_10 
REMARK    4  A    between atoms: C_10  and  C_11 
REMARK    5  A    between atoms: C_11  and  N_12 
REMARK    6  A    between atoms: C_17  and  C_18 
REMARK    7  A    between atoms: C_21  and  C_22 
REMARK    8  A    between atoms: C_29  and  C_30 
REMARK    9  A    between atoms: C_30  and  O_31 
REMARK   10  A    between atoms: O_31  and  C_32 
REMARK   11  A    between atoms: C_32  and  C_33 
ROOT
HETATM    1  C   UNL     1      -8.146   5.641 -33.356  1.00  0.00     0.071 C 
HETATM    2  C   UNL     1      -6.853   4.880 -33.216  1.00  0.00     0.048 C 
HETATM    3  N   UNL     1      -5.997   5.002 -34.314  1.00  0.00    -0.229 NA
HETATM    4  C   UNL     1      -4.738   4.855 -34.067  1.00  0.00     0.170 C 
HETATM    5  N   UNL     1      -4.213   4.443 -32.666  1.00  0.00    -0.319 N 
HETATM    6  C   UNL     1      -3.161   5.122 -32.374  1.00  0.00     0.011 C 
HETATM    7  C   UNL     1      -5.156   3.520 -32.009  1.00  0.00     0.166 C 
HETATM    8  S   UNL     1      -3.440   5.390 -35.071  1.00  0.00    -0.086 SA
HETATM    9  C   UNL     1      -2.416   5.683 -33.576  1.00  0.00     0.135 C 
HETATM   10  C   UNL     1      -6.476   4.220 -32.097  1.00  0.00     0.069 C 
ENDROOT
BRANCH   6  11
HETATM   11  C   UNL     1      -2.828   5.450 -30.949  1.00  0.00     0.156 C 
BRANCH  11  12
HETATM   12  C   UNL     1      -1.339   5.731 -30.844  1.00  0.00     0.223 C 
HETATM   13  N   UNL     1      -0.613   4.893 -30.041  1.00  0.00    -0.359 N 
HETATM   14  H   UNL     1      -1.020   4.012 -29.712  1.00  0.00     0.162 HD
HETATM   15  O   UNL     1      -0.851   6.752 -31.323  1.00  0.00    -0.273 OA
BRANCH  13  16
HETATM   16  C   UNL     1       0.688   5.261 -29.462  1.00  0.00     0.150 C 
BRANCH  16  17
HETATM   17  C   UNL     1       0.678   6.029 -28.117  1.00  0.00     0.253 C 
BRANCH  17  18
HETATM   18  N   UNL     1      -0.716   6.334 -27.605  1.00  0.00    -0.077 N 
HETATM   19  H   UNL     1      -1.374   5.744 -28.153  1.00  0.00     0.279 HD
HETATM   20  C   UNL     1      -0.947   5.967 -26.165  1.00  0.00     0.269 C 
HETATM   21  C   UNL     1      -1.114   7.761 -27.863  1.00  0.00     0.269 C 
ENDBRANCH  17  18
ENDBRANCH  16  17
ENDBRANCH  13  16
ENDBRANCH  11  12
ENDBRANCH   6  11
BRANCH   7  22
HETATM   22  C   UNL     1      -5.074   2.180 -32.763  1.00  0.00    -0.030 C 
HETATM   23  C   UNL     1      -6.153   1.767 -33.570  1.00  0.00     0.010 C 
HETATM   24  C   UNL     1      -6.303   0.424 -33.926  1.00  0.00     0.008 C 
HETATM   25  C   UNL     1      -5.360  -0.529 -33.526  1.00  0.00    -0.055 C 
HETATM   26  C   UNL     1      -4.195  -0.086 -32.893  1.00  0.00     0.008 C 
HETATM   27  C   UNL     1      -4.044   1.254 -32.528  1.00  0.00     0.010 C 
BRANCH  25  28
HETATM   28  C   UNL     1      -5.655  -2.012 -33.698  1.00  0.00     0.010 C 
HETATM   29  C   UNL     1      -6.932  -2.276 -34.493  1.00  0.00     0.015 C 
HETATM   30  C   UNL     1      -4.456  -2.719 -34.345  1.00  0.00     0.015 C 
ENDBRANCH  25  28
ENDBRANCH   7  22
BRANCH  10  31
HETATM   31  C   UNL     1      -7.071   4.478 -30.785  1.00  0.00     0.294 C 
HETATM   32  O   UNL     1      -6.833   5.544 -30.228  1.00  0.00    -0.259 OA
BRANCH  31  33
HETATM   33  O   UNL     1      -7.666   3.376 -30.308  1.00  0.00    -0.313 OA
BRANCH  33  34
HETATM   34  C   UNL     1      -9.095   3.328 -30.456  1.00  0.00     0.217 C 
BRANCH  34  35
HETATM   35  C   UNL     1      -9.460   2.346 -31.532  1.00  0.00    -0.034 A 
HETATM   36  C   UNL     1     -10.230   2.758 -32.628  1.00  0.00     0.009 A 
HETATM   37  C   UNL     1     -10.565   1.853 -33.635  1.00  0.00     0.001 A 
HETATM   38  C   UNL     1     -10.142   0.528 -33.553  1.00  0.00     0.000 A 
HETATM   39  C   UNL     1      -9.385   0.105 -32.462  1.00  0.00     0.001 A 
HETATM   40  C   UNL     1      -9.047   1.008 -31.453  1.00  0.00     0.009 A 
ENDBRANCH  34  35
ENDBRANCH  33  34
ENDBRANCH  31  33
ENDBRANCH  10  31
TORSDOF 11
ENDMDL
MODEL 7
REMARK VINA RESULT:      -8.4      2.535      6.530
REMARK  11 active torsions:
REMARK  status: ('A' for Active; 'I' for Inactive)
REMARK    1  A    between atoms: C_6  and  C_7 
REMARK    2  A    between atoms: C_7  and  C_8 
REMARK       I    between atoms: C_8  and  N_9 
REMARK    3  A    between atoms: N_9  and  C_10 
REMARK    4  A    between atoms: C_10  and  C_11 
REMARK    5  A    between atoms: C_11  and  N_12 
REMARK    6  A    between atoms: C_17  and  C_18 
REMARK    7  A    between atoms: C_21  and  C_22 
REMARK    8  A    between atoms: C_29  and  C_30 
REMARK    9  A    between atoms: C_30  and  O_31 
REMARK   10  A    between atoms: O_31  and  C_32 
REMARK   11  A    between atoms: C_32  and  C_33 
ROOT
HETATM    1  C   UNL     1      -4.714   4.288 -30.768  1.00  0.00     0.071 C 
HETATM    2  C   UNL     1      -5.720   3.530 -31.594  1.00  0.00     0.048 C 
HETATM    3  N   UNL     1      -6.762   2.967 -30.851  1.00  0.00    -0.229 NA
HETATM    4  C   UNL     1      -7.875   2.792 -31.483  1.00  0.00     0.170 C 
HETATM    5  N   UNL     1      -8.015   3.069 -33.003  1.00  0.00    -0.319 N 
HETATM    6  C   UNL     1      -9.137   3.651 -33.242  1.00  0.00     0.011 C 
HETATM    7  C   UNL     1      -6.764   2.739 -33.709  1.00  0.00     0.166 C 
HETATM    8  S   UNL     1      -9.425   2.568 -30.758  1.00  0.00    -0.086 SA
HETATM    9  C   UNL     1     -10.205   3.426 -32.182  1.00  0.00     0.135 C 
HETATM   10  C   UNL     1      -5.708   3.475 -32.946  1.00  0.00     0.069 C 
ENDROOT
BRANCH   6  11
HETATM   11  C   UNL     1      -9.282   4.599 -34.395  1.00  0.00     0.156 C 
BRANCH  11  12
HETATM   12  C   UNL     1      -9.230   6.023 -33.871  1.00  0.00     0.223 C 
HETATM   13  N   UNL     1      -8.140   6.356 -33.111  1.00  0.00    -0.359 N 
HETATM   14  H   UNL     1      -7.321   5.741 -33.086  1.00  0.00     0.162 HD
HETATM   15  O   UNL     1     -10.192   6.778 -33.989  1.00  0.00    -0.273 OA
BRANCH  13  16
HETATM   16  C   UNL     1      -8.133   7.483 -32.166  1.00  0.00     0.150 C 
BRANCH  16  17
HETATM   17  C   UNL     1      -8.840   7.276 -30.804  1.00  0.00     0.253 C 
BRANCH  17  18
HETATM   18  N   UNL     1      -7.880   7.137 -29.639  1.00  0.00    -0.077 N 
HETATM   19  H   UNL     1      -8.165   7.841 -28.929  1.00  0.00     0.279 HD
HETATM   20  C   UNL     1      -7.936   5.808 -28.937  1.00  0.00     0.269 C 
HETATM   21  C   UNL     1      -6.468   7.478 -30.026  1.00  0.00     0.269 C 
ENDBRANCH  17  18
ENDBRANCH  16  17
ENDBRANCH  13  16
ENDBRANCH  11  12
ENDBRANCH   6  11
BRANCH   7  22
HETATM   22  C   UNL     1      -6.632   1.204 -33.697  1.00  0.00    -0.030 C 
HETATM   23  C   UNL     1      -5.427   0.612 -33.271  1.00  0.00     0.010 C 
HETATM   24  C   UNL     1      -5.116  -0.704 -33.624  1.00  0.00     0.008 C 
HETATM   25  C   UNL     1      -6.016  -1.474 -34.369  1.00  0.00    -0.055 C 
HETATM   26  C   UNL     1      -7.288  -0.949 -34.623  1.00  0.00     0.008 C 
HETATM   27  C   UNL     1      -7.599   0.368 -34.280  1.00  0.00     0.010 C 
BRANCH  25  28
HETATM   28  C   UNL     1      -5.574  -2.804 -34.961  1.00  0.00     0.010 C 
HETATM   29  C   UNL     1      -4.314  -3.358 -34.301  1.00  0.00     0.015 C 
HETATM   30  C   UNL     1      -6.720  -3.822 -34.888  1.00  0.00     0.015 C 
ENDBRANCH  25  28
ENDBRANCH   7  22
BRANCH  10  31
HETATM   31  C   UNL     1      -4.974   4.434 -33.773  1.00  0.00     0.294 C 
HETATM   32  O   UNL     1      -5.606   5.247 -34.436  1.00  0.00    -0.259 OA
BRANCH  31  33
HETATM   33  O   UNL     1      -3.668   4.132 -33.804  1.00  0.00    -0.313 OA
BRANCH  33  34
HETATM   34  C   UNL     1      -2.818   5.113 -34.422  1.00  0.00     0.217 C 
BRANCH  34  35
HETATM   35  C   UNL     1      -1.989   5.797 -33.374  1.00  0.00    -0.034 A 
HETATM   36  C   UNL     1      -2.042   7.191 -33.234  1.00  0.00     0.009 A 
HETATM   37  C   UNL     1      -1.281   7.831 -32.257  1.00  0.00     0.001 A 
HETATM   38  C   UNL     1      -0.453   7.088 -31.418  1.00  0.00     0.000 A 
HETATM   39  C   UNL     1      -0.383   5.703 -31.556  1.00  0.00     0.001 A 
HETATM   40  C   UNL     1      -1.145   5.059 -32.532  1.00  0.00     0.009 A 
ENDBRANCH  34  35
ENDBRANCH  33  34
ENDBRANCH  31  33
ENDBRANCH  10  31
TORSDOF 11
ENDMDL
MODEL 8
REMARK VINA RESULT:      -8.1      2.466      7.363
REMARK  11 active torsions:
REMARK  status: ('A' for Active; 'I' for Inactive)
REMARK    1  A    between atoms: C_6  and  C_7 
REMARK    2  A    between atoms: C_7  and  C_8 
REMARK       I    between atoms: C_8  and  N_9 
REMARK    3  A    between atoms: N_9  and  C_10 
REMARK    4  A    between atoms: C_10  and  C_11 
REMARK    5  A    between atoms: C_11  and  N_12 
REMARK    6  A    between atoms: C_17  and  C_18 
REMARK    7  A    between atoms: C_21  and  C_22 
REMARK    8  A    between atoms: C_29  and  C_30 
REMARK    9  A    between atoms: C_30  and  O_31 
REMARK   10  A    between atoms: O_31  and  C_32 
REMARK   11  A    between atoms: C_32  and  C_33 
ROOT
HETATM    1  C   UNL     1      -8.661   5.197 -30.831  1.00  0.00     0.071 C 
HETATM    2  C   UNL     1      -7.708   4.219 -31.468  1.00  0.00     0.048 C 
HETATM    3  N   UNL     1      -6.883   3.552 -30.559  1.00  0.00    -0.229 NA
HETATM    4  C   UNL     1      -6.462   2.388 -30.928  1.00  0.00     0.170 C 
HETATM    5  N   UNL     1      -6.746   1.816 -32.342  1.00  0.00    -0.319 N 
HETATM    6  C   UNL     1      -7.043   0.568 -32.259  1.00  0.00     0.011 C 
HETATM    7  C   UNL     1      -6.756   2.895 -33.346  1.00  0.00     0.166 C 
HETATM    8  S   UNL     1      -5.841   1.159 -29.887  1.00  0.00    -0.086 SA
HETATM    9  C   UNL     1      -6.529  -0.124 -31.006  1.00  0.00     0.135 C 
HETATM   10  C   UNL     1      -7.702   3.909 -32.785  1.00  0.00     0.069 C 
ENDROOT
BRANCH   6  11
HETATM   11  C   UNL     1      -7.965  -0.072 -33.255  1.00  0.00     0.156 C 
BRANCH  11  12
HETATM   12  C   UNL     1      -7.136  -0.685 -34.370  1.00  0.00     0.223 C 
HETATM   13  N   UNL     1      -6.737  -1.984 -34.192  1.00  0.00    -0.359 N 
HETATM   14  H   UNL     1      -7.157  -2.556 -33.454  1.00  0.00     0.162 HD
HETATM   15  O   UNL     1      -6.713   0.001 -35.297  1.00  0.00    -0.273 OA
BRANCH  13  16
HETATM   16  C   UNL     1      -5.592  -2.577 -34.899  1.00  0.00     0.150 C 
BRANCH  16  17
HETATM   17  C   UNL     1      -4.393  -3.051 -34.041  1.00  0.00     0.253 C 
BRANCH  17  18
HETATM   18  N   UNL     1      -4.064  -2.118 -32.892  1.00  0.00    -0.077 N 
HETATM   19  H   UNL     1      -4.949  -1.960 -32.370  1.00  0.00     0.279 HD
HETATM   20  C   UNL     1      -3.095  -2.680 -31.888  1.00  0.00     0.269 C 
HETATM   21  C   UNL     1      -3.612  -0.767 -33.373  1.00  0.00     0.269 C 
ENDBRANCH  17  18
ENDBRANCH  16  17
ENDBRANCH  13  16
ENDBRANCH  11  12
ENDBRANCH   6  11
BRANCH   7  22
HETATM   22  C   UNL     1      -5.301   3.374 -33.507  1.00  0.00    -0.030 C 
HETATM   23  C   UNL     1      -4.265   2.688 -32.843  1.00  0.00     0.010 C 
HETATM   24  C   UNL     1      -3.030   3.305 -32.623  1.00  0.00     0.008 C 
HETATM   25  C   UNL     1      -2.784   4.598 -33.096  1.00  0.00    -0.055 C 
HETATM   26  C   UNL     1      -3.744   5.199 -33.918  1.00  0.00     0.008 C 
HETATM   27  C   UNL     1      -4.982   4.590 -34.134  1.00  0.00     0.010 C 
BRANCH  25  28
HETATM   28  C   UNL     1      -1.545   5.354 -32.641  1.00  0.00     0.010 C 
HETATM   29  C   UNL     1      -1.494   6.785 -33.173  1.00  0.00     0.015 C 
HETATM   30  C   UNL     1      -1.447   5.339 -31.110  1.00  0.00     0.015 C 
ENDBRANCH  25  28
ENDBRANCH   7  22
BRANCH  10  31
HETATM   31  C   UNL     1      -8.839   4.176 -33.667  1.00  0.00     0.294 C 
HETATM   32  O   UNL     1      -8.844   5.208 -34.328  1.00  0.00    -0.259 OA
BRANCH  31  33
HETATM   33  O   UNL     1      -9.819   3.285 -33.462  1.00  0.00    -0.313 OA
BRANCH  33  34
HETATM   34  C   UNL     1     -10.133   2.437 -34.579  1.00  0.00     0.217 C 
BRANCH  34  35
HETATM   35  C   UNL     1     -11.444   1.745 -34.337  1.00  0.00    -0.034 A 
HETATM   36  C   UNL     1     -12.637   2.315 -34.803  1.00  0.00     0.009 A 
HETATM   37  C   UNL     1     -13.856   1.673 -34.589  1.00  0.00     0.001 A 
HETATM   38  C   UNL     1     -13.897   0.462 -33.901  1.00  0.00     0.000 A 
HETATM   39  C   UNL     1     -12.718  -0.108 -33.424  1.00  0.00     0.001 A 
HETATM   40  C   UNL     1     -11.496   0.531 -33.638  1.00  0.00     0.009 A 
ENDBRANCH  34  35
ENDBRANCH  33  34
ENDBRANCH  31  33
ENDBRANCH  10  31
TORSDOF 11
ENDMDL
MODEL 9
REMARK VINA RESULT:      -8.1      2.835      6.169
REMARK  11 active torsions:
REMARK  status: ('A' for Active; 'I' for Inactive)
REMARK    1  A    between atoms: C_6  and  C_7 
REMARK    2  A    between atoms: C_7  and  C_8 
REMARK       I    between atoms: C_8  and  N_9 
REMARK    3  A    between atoms: N_9  and  C_10 
REMARK    4  A    between atoms: C_10  and  C_11 
REMARK    5  A    between atoms: C_11  and  N_12 
REMARK    6  A    between atoms: C_17  and  C_18 
REMARK    7  A    between atoms: C_21  and  C_22 
REMARK    8  A    between atoms: C_29  and  C_30 
REMARK    9  A    between atoms: C_30  and  O_31 
REMARK   10  A    between atoms: O_31  and  C_32 
REMARK   11  A    between atoms: C_32  and  C_33 
ROOT
HETATM    1  C   UNL     1      -8.784   4.935 -34.361  1.00  0.00     0.071 C 
HETATM    2  C   UNL     1      -7.752   4.000 -33.786  1.00  0.00     0.048 C 
HETATM    3  N   UNL     1      -6.441   4.292 -34.169  1.00  0.00    -0.229 NA
HETATM    4  C   UNL     1      -5.517   3.920 -33.347  1.00  0.00     0.170 C 
HETATM    5  N   UNL     1      -5.828   3.088 -32.075  1.00  0.00    -0.319 N 
HETATM    6  C   UNL     1      -5.130   3.520 -31.085  1.00  0.00     0.011 C 
HETATM    7  C   UNL     1      -6.944   2.158 -32.323  1.00  0.00     0.166 C 
HETATM    8  S   UNL     1      -3.900   4.523 -33.301  1.00  0.00    -0.086 SA
HETATM    9  C   UNL     1      -3.869   4.274 -31.482  1.00  0.00     0.135 C 
HETATM   10  C   UNL     1      -8.025   3.025 -32.888  1.00  0.00     0.069 C 
ENDROOT
BRANCH   6  11
HETATM   11  C   UNL     1      -5.640   3.414 -29.679  1.00  0.00     0.156 C 
BRANCH  11  12
HETATM   12  C   UNL     1      -6.219   4.755 -29.264  1.00  0.00     0.223 C 
HETATM   13  N   UNL     1      -7.069   5.357 -30.153  1.00  0.00    -0.359 N 
HETATM   14  H   UNL     1      -7.447   4.828 -30.945  1.00  0.00     0.162 HD
HETATM   15  O   UNL     1      -5.816   5.336 -28.259  1.00  0.00    -0.273 OA
BRANCH  13  16
HETATM   16  C   UNL     1      -7.349   6.801 -30.146  1.00  0.00     0.150 C 
BRANCH  16  17
HETATM   17  C   UNL     1      -6.439   7.708 -31.012  1.00  0.00     0.253 C 
BRANCH  17  18
HETATM   18  N   UNL     1      -5.423   8.491 -30.206  1.00  0.00    -0.077 N 
HETATM   19  H   UNL     1      -4.599   7.869 -30.074  1.00  0.00     0.279 HD
HETATM   20  C   UNL     1      -4.896   9.722 -30.890  1.00  0.00     0.269 C 
HETATM   21  C   UNL     1      -5.926   8.820 -28.827  1.00  0.00     0.269 C 
ENDBRANCH  17  18
ENDBRANCH  16  17
ENDBRANCH  13  16
ENDBRANCH  11  12
ENDBRANCH   6  11
BRANCH   7  22
HETATM   22  C   UNL     1      -6.418   1.065 -33.271  1.00  0.00    -0.030 C 
HETATM   23  C   UNL     1      -7.262   0.546 -34.273  1.00  0.00     0.010 C 
HETATM   24  C   UNL     1      -6.989  -0.690 -34.865  1.00  0.00     0.008 C 
HETATM   25  C   UNL     1      -5.848  -1.416 -34.506  1.00  0.00    -0.055 C 
HETATM   26  C   UNL     1      -4.916  -0.811 -33.656  1.00  0.00     0.008 C 
HETATM   27  C   UNL     1      -5.188   0.420 -33.056  1.00  0.00     0.010 C 
BRANCH  25  28
HETATM   28  C   UNL     1      -5.688  -2.859 -34.959  1.00  0.00     0.010 C 
HETATM   29  C   UNL     1      -4.438  -3.526 -34.389  1.00  0.00     0.015 C 
HETATM   30  C   UNL     1      -6.944  -3.668 -34.608  1.00  0.00     0.015 C 
ENDBRANCH  25  28
ENDBRANCH   7  22
BRANCH  10  31
HETATM   31  C   UNL     1      -9.248   3.005 -32.085  1.00  0.00     0.294 C 
HETATM   32  O   UNL     1      -9.184   3.323 -30.903  1.00  0.00    -0.259 OA
BRANCH  31  33
HETATM   33  O   UNL     1     -10.256   2.445 -32.768  1.00  0.00    -0.313 OA
BRANCH  33  34
HETATM   34  C   UNL     1     -11.509   3.146 -32.715  1.00  0.00     0.217 C 
BRANCH  34  35
HETATM   35  C   UNL     1     -12.620   2.231 -33.144  1.00  0.00    -0.034 A 
HETATM   36  C   UNL     1     -13.947   2.527 -32.804  1.00  0.00     0.009 A 
HETATM   37  C   UNL     1     -14.984   1.686 -33.206  1.00  0.00     0.001 A 
HETATM   38  C   UNL     1     -14.705   0.538 -33.945  1.00  0.00     0.000 A 
HETATM   39  C   UNL     1     -13.388   0.228 -34.280  1.00  0.00     0.001 A 
HETATM   40  C   UNL     1     -12.349   1.068 -33.880  1.00  0.00     0.009 A 
ENDBRANCH  34  35
ENDBRANCH  33  34
ENDBRANCH  31  33
ENDBRANCH  10  31
TORSDOF 11
ENDMDL
MODEL 10
REMARK VINA RESULT:      -7.8      2.225      8.024
REMARK  11 active torsions:
REMARK  status: ('A' for Active; 'I' for Inactive)
REMARK    1  A    between atoms: C_6  and  C_7 
REMARK    2  A    between atoms: C_7  and  C_8 
REMARK       I    between atoms: C_8  and  N_9 
REMARK    3  A    between atoms: N_9  and  C_10 
REMARK    4  A    between atoms: C_10  and  C_11 
REMARK    5  A    between atoms: C_11  and  N_12 
REMARK    6  A    between atoms: C_17  and  C_18 
REMARK    7  A    between atoms: C_21  and  C_22 
REMARK    8  A    between atoms: C_29  and  C_30 
REMARK    9  A    between atoms: C_30  and  O_31 
REMARK   10  A    between atoms: O_31  and  C_32 
REMARK   11  A    between atoms: C_32  and  C_33 
ROOT
HETATM    1  C   UNL     1      -4.375   4.902 -34.847  1.00  0.00     0.071 C 
HETATM    2  C   UNL     1      -4.483   5.340 -33.409  1.00  0.00     0.048 C 
HETATM    3  N   UNL     1      -5.134   6.563 -33.232  1.00  0.00    -0.229 NA
HETATM    4  C   UNL     1      -5.718   6.731 -32.092  1.00  0.00     0.170 C 
HETATM    5  N   UNL     1      -5.601   5.696 -30.942  1.00  0.00    -0.319 N 
HETATM    6  C   UNL     1      -6.741   5.548 -30.366  1.00  0.00     0.011 C 
HETATM    7  C   UNL     1      -4.269   5.064 -30.946  1.00  0.00     0.166 C 
HETATM    8  S   UNL     1      -6.955   7.886 -31.749  1.00  0.00    -0.086 SA
HETATM    9  C   UNL     1      -7.694   6.721 -30.538  1.00  0.00     0.135 C 
HETATM   10  C   UNL     1      -4.095   4.587 -32.354  1.00  0.00     0.069 C 
ENDROOT
BRANCH   6  11
HETATM   11  C   UNL     1      -7.119   4.242 -29.733  1.00  0.00     0.156 C 
BRANCH  11  12
HETATM   12  C   UNL     1      -8.237   3.608 -30.541  1.00  0.00     0.223 C 
HETATM   13  N   UNL     1      -7.940   3.267 -31.834  1.00  0.00    -0.359 N 
HETATM   14  H   UNL     1      -6.967   3.250 -32.153  1.00  0.00     0.162 HD
HETATM   15  O   UNL     1      -9.385   3.557 -30.106  1.00  0.00    -0.273 OA
BRANCH  13  16
HETATM   16  C   UNL     1      -8.965   3.086 -32.873  1.00  0.00     0.150 C 
BRANCH  16  17
HETATM   17  C   UNL     1      -9.715   1.731 -32.907  1.00  0.00     0.253 C 
BRANCH  17  18
HETATM   18  N   UNL     1     -11.222   1.871 -32.817  1.00  0.00    -0.077 N 
HETATM   19  H   UNL     1     -11.479   1.721 -31.821  1.00  0.00     0.279 HD
HETATM   20  C   UNL     1     -11.745   3.236 -33.170  1.00  0.00     0.269 C 
HETATM   21  C   UNL     1     -11.936   0.805 -33.602  1.00  0.00     0.269 C 
ENDBRANCH  17  18
ENDBRANCH  16  17
ENDBRANCH  13  16
ENDBRANCH  11  12
ENDBRANCH   6  11
BRANCH   7  22
HETATM   22  C   UNL     1      -3.262   6.134 -30.487  1.00  0.00    -0.030 C 
HETATM   23  C   UNL     1      -2.033   6.270 -31.163  1.00  0.00     0.010 C 
HETATM   24  C   UNL     1      -0.952   6.911 -30.553  1.00  0.00     0.008 C 
HETATM   25  C   UNL     1      -1.081   7.470 -29.277  1.00  0.00    -0.055 C 
HETATM   26  C   UNL     1      -2.351   7.503 -28.692  1.00  0.00     0.008 C 
HETATM   27  C   UNL     1      -3.433   6.856 -29.294  1.00  0.00     0.010 C 
BRANCH  25  28
HETATM   28  C   UNL     1       0.153   7.938 -28.521  1.00  0.00     0.010 C 
HETATM   29  C   UNL     1      -0.100   9.198 -27.695  1.00  0.00     0.015 C 
HETATM   30  C   UNL     1       0.693   6.807 -27.635  1.00  0.00     0.015 C 
ENDBRANCH  25  28
ENDBRANCH   7  22
BRANCH  10  31
HETATM   31  C   UNL     1      -3.891   3.140 -32.443  1.00  0.00     0.294 C 
HETATM   32  O   UNL     1      -2.758   2.714 -32.631  1.00  0.00    -0.259 OA
BRANCH  31  33
HETATM   33  O   UNL     1      -5.066   2.497 -32.481  1.00  0.00    -0.313 OA
BRANCH  33  34
HETATM   34  C   UNL     1      -5.060   1.159 -31.956  1.00  0.00     0.217 C 
BRANCH  34  35
HETATM   35  C   UNL     1      -5.531   0.199 -33.010  1.00  0.00    -0.034 A 
HETATM   36  C   UNL     1      -5.100  -1.134 -32.991  1.00  0.00     0.009 A 
HETATM   37  C   UNL     1      -5.540  -2.033 -33.962  1.00  0.00     0.001 A 
HETATM   38  C   UNL     1      -6.407  -1.607 -34.966  1.00  0.00     0.000 A 
HETATM   39  C   UNL     1      -6.834  -0.281 -35.001  1.00  0.00     0.001 A 
HETATM   40  C   UNL     1      -6.397   0.620 -34.030  1.00  0.00     0.009 A 
ENDBRANCH  34  35
ENDBRANCH  33  34
ENDBRANCH  31  33
ENDBRANCH  10  31
TORSDOF 11
ENDMDL
