MODEL 1
REMARK VINA RESULT:      -8.6      0.000      0.000
REMARK  7 active torsions:
REMARK  status: ('A' for Active; 'I' for Inactive)
REMARK    1  A    between atoms: C_8  and  C_9 
REMARK    2  A    between atoms: C_9  and  N_10 
REMARK    3  A    between atoms: C_9  and  C_14 
REMARK       I    between atoms: C_14  and  N_15 
REMARK    4  A    between atoms: N_15  and  C_16 
REMARK    5  A    between atoms: C_16  and  C_17 
REMARK    6  A    between atoms: C_17  and  C_18 
REMARK    7  A    between atoms: C_20  and  C_21 
ROOT
HETATM    1  C   UNL     1     -10.614   1.199 -34.120  1.00  0.00     0.253 C 
HETATM    2  N   UNL     1      -9.444   1.729 -34.607  1.00  0.00    -0.359 N 
HETATM    3  O   UNL     1     -10.662   0.348 -33.229  1.00  0.00    -0.271 OA
HETATM    4  H   UNL     1      -9.444   2.228 -35.494  1.00  0.00     0.162 HD
ENDROOT
BRANCH   1   5
HETATM    5  C   UNL     1     -11.936   1.776 -34.678  1.00  0.00     0.311 C 
BRANCH   5   6
HETATM    6  C   UNL     1     -12.901   2.138 -33.603  1.00  0.00     0.031 A 
HETATM    7  C   UNL     1     -12.760   3.038 -32.554  1.00  0.00     0.035 A 
HETATM    8  C   UNL     1     -11.659   3.938 -32.125  1.00  0.00     0.070 C 
HETATM    9  N   UNL     1     -13.928   2.968 -31.839  1.00  0.00    -0.282 N 
HETATM   10  H   UNL     1     -14.176   3.448 -30.976  1.00  0.00     0.189 HD
HETATM   11  N   UNL     1     -14.817   2.124 -32.370  1.00  0.00    -0.179 NA
HETATM   12  C   UNL     1     -14.210   1.604 -33.435  1.00  0.00     0.061 A 
HETATM   13  C   UNL     1     -14.925   0.595 -34.263  1.00  0.00     0.073 C 
ENDBRANCH   5   6
BRANCH   5  14
HETATM   14  N   UNL     1     -11.631   2.964 -35.538  1.00  0.00    -0.062 N 
HETATM   15  H   UNL     1     -12.286   2.977 -36.328  1.00  0.00     0.275 HD
HETATM   16  H   UNL     1     -11.818   3.826 -35.011  1.00  0.00     0.275 HD
HETATM   17  H   UNL     1     -10.670   2.955 -35.891  1.00  0.00     0.275 HD
ENDBRANCH   5  14
ENDBRANCH   1   5
BRANCH   2  18
HETATM   18  C   UNL     1      -8.138   1.272 -34.146  1.00  0.00     0.127 C 
BRANCH  18  19
HETATM   19  C   UNL     1      -7.339   0.538 -35.230  1.00  0.00     0.058 C 
BRANCH  19  20
HETATM   20  C   UNL     1      -6.428  -0.535 -34.679  1.00  0.00    -0.056 A 
HETATM   21  C   UNL     1      -6.671  -1.886 -34.965  1.00  0.00     0.023 A 
HETATM   22  C   UNL     1      -5.832  -2.898 -34.465  1.00  0.00     0.048 A 
HETATM   23  C   UNL     1      -4.734  -2.538 -33.675  1.00  0.00     0.016 A 
HETATM   24  C   UNL     1      -4.494  -1.198 -33.368  1.00  0.00     0.001 A 
HETATM   25  C   UNL     1      -5.337  -0.203 -33.864  1.00  0.00     0.007 A 
BRANCH  22  26
HETATM   26  C   UNL     1      -6.093  -4.342 -34.813  1.00  0.00     0.417 C 
HETATM   27  F   UNL     1      -7.286  -4.794 -34.336  1.00  0.00    -0.166 F 
HETATM   28  F   UNL     1      -6.156  -4.535 -36.166  1.00  0.00    -0.166 F 
HETATM   29  F   UNL     1      -5.147  -5.201 -34.353  1.00  0.00    -0.166 F 
ENDBRANCH  22  26
ENDBRANCH  19  20
ENDBRANCH  18  19
ENDBRANCH   2  18
TORSDOF 7
ENDMDL
MODEL 2
REMARK VINA RESULT:      -8.4      5.141      6.894
REMARK  7 active torsions:
REMARK  status: ('A' for Active; 'I' for Inactive)
REMARK    1  A    between atoms: C_8  and  C_9 
REMARK    2  A    between atoms: C_9  and  N_10 
REMARK    3  A    between atoms: C_9  and  C_14 
REMARK       I    between atoms: C_14  and  N_15 
REMARK    4  A    between atoms: N_15  and  C_16 
REMARK    5  A    between atoms: C_16  and  C_17 
REMARK    6  A    between atoms: C_17  and  C_18 
REMARK    7  A    between atoms: C_20  and  C_21 
ROOT
HETATM    1  C   UNL     1      -4.292   2.921 -31.530  1.00  0.00     0.253 C 
HETATM    2  N   UNL     1      -3.324   1.979 -31.780  1.00  0.00    -0.359 N 
HETATM    3  O   UNL     1      -5.418   2.651 -31.107  1.00  0.00    -0.271 OA
HETATM    4  H   UNL     1      -2.519   2.219 -32.353  1.00  0.00     0.162 HD
ENDROOT
BRANCH   1   5
HETATM    5  C   UNL     1      -3.898   4.404 -31.720  1.00  0.00     0.311 C 
BRANCH   5   6
HETATM    6  C   UNL     1      -3.734   4.773 -33.153  1.00  0.00     0.031 A 
HETATM    7  C   UNL     1      -2.601   5.206 -33.831  1.00  0.00     0.035 A 
HETATM    8  C   UNL     1      -1.197   5.451 -33.415  1.00  0.00     0.070 C 
HETATM    9  N   UNL     1      -3.002   5.441 -35.122  1.00  0.00    -0.282 N 
HETATM   10  H   UNL     1      -2.458   5.812 -35.900  1.00  0.00     0.189 HD
HETATM   11  N   UNL     1      -4.290   5.154 -35.330  1.00  0.00    -0.179 NA
HETATM   12  C   UNL     1      -4.754   4.757 -34.147  1.00  0.00     0.061 A 
HETATM   13  C   UNL     1      -6.185   4.372 -34.016  1.00  0.00     0.073 C 
ENDBRANCH   5   6
BRANCH   5  14
HETATM   14  N   UNL     1      -4.926   5.275 -31.064  1.00  0.00    -0.062 N 
HETATM   15  H   UNL     1      -5.246   4.819 -30.203  1.00  0.00     0.275 HD
HETATM   16  H   UNL     1      -4.488   6.155 -30.763  1.00  0.00     0.275 HD
HETATM   17  H   UNL     1      -5.728   5.459 -31.673  1.00  0.00     0.275 HD
ENDBRANCH   5  14
ENDBRANCH   1   5
BRANCH   2  18
HETATM   18  C   UNL     1      -3.577   0.552 -31.623  1.00  0.00     0.127 C 
BRANCH  18  19
HETATM   19  C   UNL     1      -3.346  -0.247 -32.913  1.00  0.00     0.058 C 
BRANCH  19  20
HETATM   20  C   UNL     1      -4.626  -0.751 -33.541  1.00  0.00    -0.056 A 
HETATM   21  C   UNL     1      -4.762  -2.104 -33.880  1.00  0.00     0.023 A 
HETATM   22  C   UNL     1      -5.946  -2.593 -34.461  1.00  0.00     0.048 A 
HETATM   23  C   UNL     1      -7.002  -1.705 -34.695  1.00  0.00     0.016 A 
HETATM   24  C   UNL     1      -6.870  -0.353 -34.378  1.00  0.00     0.001 A 
HETATM   25  C   UNL     1      -5.688   0.122 -33.808  1.00  0.00     0.007 A 
BRANCH  22  26
HETATM   26  C   UNL     1      -6.083  -4.059 -34.788  1.00  0.00     0.417 C 
HETATM   27  F   UNL     1      -5.098  -4.820 -34.232  1.00  0.00    -0.166 F 
HETATM   28  F   UNL     1      -7.250  -4.581 -34.302  1.00  0.00    -0.166 F 
HETATM   29  F   UNL     1      -6.072  -4.333 -36.118  1.00  0.00    -0.166 F 
ENDBRANCH  22  26
ENDBRANCH  19  20
ENDBRANCH  18  19
ENDBRANCH   2  18
TORSDOF 7
ENDMDL
MODEL 3
REMARK VINA RESULT:      -8.3      5.209      7.105
REMARK  7 active torsions:
REMARK  status: ('A' for Active; 'I' for Inactive)
REMARK    1  A    between atoms: C_8  and  C_9 
REMARK    2  A    between atoms: C_9  and  N_10 
REMARK    3  A    between atoms: C_9  and  C_14 
REMARK       I    between atoms: C_14  and  N_15 
REMARK    4  A    between atoms: N_15  and  C_16 
REMARK    5  A    between atoms: C_16  and  C_17 
REMARK    6  A    between atoms: C_17  and  C_18 
REMARK    7  A    between atoms: C_20  and  C_21 
ROOT
HETATM    1  C   UNL     1      -4.251   2.758 -31.393  1.00  0.00     0.253 C 
HETATM    2  N   UNL     1      -3.295   1.802 -31.637  1.00  0.00    -0.359 N 
HETATM    3  O   UNL     1      -5.389   2.503 -30.996  1.00  0.00    -0.271 OA
HETATM    4  H   UNL     1      -2.474   2.035 -32.191  1.00  0.00     0.162 HD
ENDROOT
BRANCH   1   5
HETATM    5  C   UNL     1      -3.826   4.236 -31.554  1.00  0.00     0.311 C 
BRANCH   5   6
HETATM    6  C   UNL     1      -3.714   4.647 -32.981  1.00  0.00     0.031 A 
HETATM    7  C   UNL     1      -4.681   4.653 -33.979  1.00  0.00     0.035 A 
HETATM    8  C   UNL     1      -6.117   4.278 -34.007  1.00  0.00     0.070 C 
HETATM    9  N   UNL     1      -4.047   5.090 -35.114  1.00  0.00    -0.282 N 
HETATM   10  H   UNL     1      -4.422   5.181 -36.057  1.00  0.00     0.189 HD
HETATM   11  N   UNL     1      -2.763   5.400 -34.910  1.00  0.00    -0.179 NA
HETATM   12  C   UNL     1      -2.539   5.130 -33.626  1.00  0.00     0.061 A 
HETATM   13  C   UNL     1      -1.181   5.348 -33.060  1.00  0.00     0.073 C 
ENDBRANCH   5   6
BRANCH   5  14
HETATM   14  N   UNL     1      -4.800   5.111 -30.827  1.00  0.00    -0.062 N 
HETATM   15  H   UNL     1      -4.504   6.089 -30.925  1.00  0.00     0.275 HD
HETATM   16  H   UNL     1      -5.719   5.055 -31.283  1.00  0.00     0.275 HD
HETATM   17  H   UNL     1      -4.872   4.874 -29.833  1.00  0.00     0.275 HD
ENDBRANCH   5  14
ENDBRANCH   1   5
BRANCH   2  18
HETATM   18  C   UNL     1      -3.577   0.377 -31.506  1.00  0.00     0.127 C 
BRANCH  18  19
HETATM   19  C   UNL     1      -3.320  -0.411 -32.797  1.00  0.00     0.058 C 
BRANCH  19  20
HETATM   20  C   UNL     1      -4.589  -0.859 -33.487  1.00  0.00    -0.056 A 
HETATM   21  C   UNL     1      -4.766  -2.205 -33.836  1.00  0.00     0.023 A 
HETATM   22  C   UNL     1      -5.941  -2.643 -34.473  1.00  0.00     0.048 A 
HETATM   23  C   UNL     1      -6.947  -1.710 -34.753  1.00  0.00     0.016 A 
HETATM   24  C   UNL     1      -6.772  -0.365 -34.427  1.00  0.00     0.001 A 
HETATM   25  C   UNL     1      -5.600   0.059 -33.801  1.00  0.00     0.007 A 
BRANCH  22  26
HETATM   26  C   UNL     1      -6.124  -4.102 -34.810  1.00  0.00     0.417 C 
HETATM   27  F   UNL     1      -5.146  -4.893 -34.288  1.00  0.00    -0.166 F 
HETATM   28  F   UNL     1      -7.292  -4.598 -34.300  1.00  0.00    -0.166 F 
HETATM   29  F   UNL     1      -6.154  -4.362 -36.143  1.00  0.00    -0.166 F 
ENDBRANCH  22  26
ENDBRANCH  19  20
ENDBRANCH  18  19
ENDBRANCH   2  18
TORSDOF 7
ENDMDL
MODEL 4
REMARK VINA RESULT:      -8.1      2.776      3.997
REMARK  7 active torsions:
REMARK  status: ('A' for Active; 'I' for Inactive)
REMARK    1  A    between atoms: C_8  and  C_9 
REMARK    2  A    between atoms: C_9  and  N_10 
REMARK    3  A    between atoms: C_9  and  C_14 
REMARK       I    between atoms: C_14  and  N_15 
REMARK    4  A    between atoms: N_15  and  C_16 
REMARK    5  A    between atoms: C_16  and  C_17 
REMARK    6  A    between atoms: C_17  and  C_18 
REMARK    7  A    between atoms: C_20  and  C_21 
ROOT
HETATM    1  C   UNL     1      -7.855   2.978 -31.339  1.00  0.00     0.253 C 
HETATM    2  N   UNL     1      -7.450   2.291 -30.220  1.00  0.00    -0.359 N 
HETATM    3  O   UNL     1      -7.092   3.323 -32.244  1.00  0.00    -0.271 OA
HETATM    4  H   UNL     1      -8.054   2.253 -29.403  1.00  0.00     0.162 HD
ENDROOT
BRANCH   1   5
HETATM    5  C   UNL     1      -9.369   3.252 -31.489  1.00  0.00     0.311 C 
BRANCH   5   6
HETATM    6  C   UNL     1      -9.913   2.765 -32.786  1.00  0.00     0.031 A 
HETATM    7  C   UNL     1      -9.965   1.472 -33.295  1.00  0.00     0.035 A 
HETATM    8  C   UNL     1      -9.528   0.154 -32.771  1.00  0.00     0.070 C 
HETATM    9  N   UNL     1     -10.532   1.581 -34.539  1.00  0.00    -0.282 N 
HETATM   10  H   UNL     1     -10.691   0.850 -35.232  1.00  0.00     0.189 HD
HETATM   11  N   UNL     1     -10.882   2.833 -34.848  1.00  0.00    -0.179 NA
HETATM   12  C   UNL     1     -10.506   3.567 -33.803  1.00  0.00     0.061 A 
HETATM   13  C   UNL     1     -10.735   5.037 -33.823  1.00  0.00     0.073 C 
ENDBRANCH   5   6
BRANCH   5  14
HETATM   14  N   UNL     1     -10.099   2.626 -30.341  1.00  0.00    -0.062 N 
HETATM   15  H   UNL     1     -10.338   1.658 -30.588  1.00  0.00     0.275 HD
HETATM   16  H   UNL     1      -9.471   2.556 -29.531  1.00  0.00     0.275 HD
HETATM   17  H   UNL     1     -10.953   3.136 -30.096  1.00  0.00     0.275 HD
ENDBRANCH   5  14
ENDBRANCH   1   5
BRANCH   2  18
HETATM   18  C   UNL     1      -6.049   1.966 -29.978  1.00  0.00     0.127 C 
BRANCH  18  19
HETATM   19  C   UNL     1      -5.783   0.457 -29.910  1.00  0.00     0.058 C 
BRANCH  19  20
HETATM   20  C   UNL     1      -5.170  -0.101 -31.175  1.00  0.00    -0.056 A 
HETATM   21  C   UNL     1      -5.985  -0.642 -32.178  1.00  0.00     0.023 A 
HETATM   22  C   UNL     1      -5.434  -1.161 -33.363  1.00  0.00     0.048 A 
HETATM   23  C   UNL     1      -4.045  -1.124 -33.537  1.00  0.00     0.016 A 
HETATM   24  C   UNL     1      -3.223  -0.605 -32.536  1.00  0.00     0.001 A 
HETATM   25  C   UNL     1      -3.781  -0.099 -31.361  1.00  0.00     0.007 A 
BRANCH  22  26
HETATM   26  C   UNL     1      -6.333  -1.708 -34.443  1.00  0.00     0.417 C 
HETATM   27  F   UNL     1      -7.423  -2.358 -33.946  1.00  0.00    -0.166 F 
HETATM   28  F   UNL     1      -6.843  -0.714 -35.232  1.00  0.00    -0.166 F 
HETATM   29  F   UNL     1      -5.719  -2.581 -35.284  1.00  0.00    -0.166 F 
ENDBRANCH  22  26
ENDBRANCH  19  20
ENDBRANCH  18  19
ENDBRANCH   2  18
TORSDOF 7
ENDMDL
MODEL 5
REMARK VINA RESULT:      -8.1      3.558      5.244
REMARK  7 active torsions:
REMARK  status: ('A' for Active; 'I' for Inactive)
REMARK    1  A    between atoms: C_8  and  C_9 
REMARK    2  A    between atoms: C_9  and  N_10 
REMARK    3  A    between atoms: C_9  and  C_14 
REMARK       I    between atoms: C_14  and  N_15 
REMARK    4  A    between atoms: N_15  and  C_16 
REMARK    5  A    between atoms: C_16  and  C_17 
REMARK    6  A    between atoms: C_17  and  C_18 
REMARK    7  A    between atoms: C_20  and  C_21 
ROOT
HETATM    1  C   UNL     1      -5.457   1.359 -30.399  1.00  0.00     0.253 C 
HETATM    2  N   UNL     1      -4.389   1.184 -31.245  1.00  0.00    -0.359 N 
HETATM    3  O   UNL     1      -5.812   0.527 -29.563  1.00  0.00    -0.271 OA
HETATM    4  H   UNL     1      -4.292   1.772 -32.069  1.00  0.00     0.162 HD
ENDROOT
BRANCH   1   5
HETATM    5  C   UNL     1      -6.190   2.719 -30.463  1.00  0.00     0.311 C 
BRANCH   5   6
HETATM    6  C   UNL     1      -6.849   2.953 -31.777  1.00  0.00     0.031 A 
HETATM    7  C   UNL     1      -7.942   2.310 -32.347  1.00  0.00     0.035 A 
HETATM    8  C   UNL     1      -8.825   1.207 -31.890  1.00  0.00     0.070 C 
HETATM    9  N   UNL     1      -8.117   2.886 -33.579  1.00  0.00    -0.282 N 
HETATM   10  H   UNL     1      -8.791   2.644 -34.304  1.00  0.00     0.189 HD
HETATM   11  N   UNL     1      -7.249   3.871 -33.825  1.00  0.00    -0.179 NA
HETATM   12  C   UNL     1      -6.466   3.921 -32.749  1.00  0.00     0.061 A 
HETATM   13  C   UNL     1      -5.360   4.915 -32.697  1.00  0.00     0.073 C 
ENDBRANCH   5   6
BRANCH   5  14
HETATM   14  N   UNL     1      -7.189   2.794 -29.350  1.00  0.00    -0.062 N 
HETATM   15  H   UNL     1      -7.070   1.975 -28.742  1.00  0.00     0.275 HD
HETATM   16  H   UNL     1      -6.983   3.608 -28.758  1.00  0.00     0.275 HD
HETATM   17  H   UNL     1      -8.154   2.828 -29.692  1.00  0.00     0.275 HD
ENDBRANCH   5  14
ENDBRANCH   1   5
BRANCH   2  18
HETATM   18  C   UNL     1      -3.615  -0.053 -31.265  1.00  0.00     0.127 C 
BRANCH  18  19
HETATM   19  C   UNL     1      -3.301  -0.546 -32.684  1.00  0.00     0.058 C 
BRANCH  19  20
HETATM   20  C   UNL     1      -4.527  -1.001 -33.444  1.00  0.00    -0.056 A 
HETATM   21  C   UNL     1      -4.695  -2.354 -33.768  1.00  0.00     0.023 A 
HETATM   22  C   UNL     1      -5.830  -2.798 -34.470  1.00  0.00     0.048 A 
HETATM   23  C   UNL     1      -6.806  -1.864 -34.840  1.00  0.00     0.016 A 
HETATM   24  C   UNL     1      -6.638  -0.513 -34.539  1.00  0.00     0.001 A 
HETATM   25  C   UNL     1      -5.504  -0.083 -33.848  1.00  0.00     0.007 A 
BRANCH  22  26
HETATM   26  C   UNL     1      -6.007  -4.264 -34.780  1.00  0.00     0.417 C 
HETATM   27  F   UNL     1      -7.201  -4.756 -34.346  1.00  0.00    -0.166 F 
HETATM   28  F   UNL     1      -5.992  -4.504 -36.126  1.00  0.00    -0.166 F 
HETATM   29  F   UNL     1      -5.048  -5.062 -34.243  1.00  0.00    -0.166 F 
ENDBRANCH  22  26
ENDBRANCH  19  20
ENDBRANCH  18  19
ENDBRANCH   2  18
TORSDOF 7
ENDMDL
MODEL 6
REMARK VINA RESULT:      -8.1      3.446      4.847
REMARK  7 active torsions:
REMARK  status: ('A' for Active; 'I' for Inactive)
REMARK    1  A    between atoms: C_8  and  C_9 
REMARK    2  A    between atoms: C_9  and  N_10 
REMARK    3  A    between atoms: C_9  and  C_14 
REMARK       I    between atoms: C_14  and  N_15 
REMARK    4  A    between atoms: N_15  and  C_16 
REMARK    5  A    between atoms: C_16  and  C_17 
REMARK    6  A    between atoms: C_17  and  C_18 
REMARK    7  A    between atoms: C_20  and  C_21 
ROOT
HETATM    1  C   UNL     1      -5.511   2.463 -31.258  1.00  0.00     0.253 C 
HETATM    2  N   UNL     1      -4.683   1.368 -31.292  1.00  0.00    -0.359 N 
HETATM    3  O   UNL     1      -5.559   3.314 -32.148  1.00  0.00    -0.271 OA
HETATM    4  H   UNL     1      -4.500   0.844 -30.440  1.00  0.00     0.162 HD
ENDROOT
BRANCH   1   5
HETATM    5  C   UNL     1      -6.489   2.571 -30.065  1.00  0.00     0.311 C 
BRANCH   5   6
HETATM    6  C   UNL     1      -7.898   2.780 -30.497  1.00  0.00     0.031 A 
HETATM    7  C   UNL     1      -8.747   1.928 -31.192  1.00  0.00     0.035 A 
HETATM    8  C   UNL     1      -8.588   0.557 -31.739  1.00  0.00     0.070 C 
HETATM    9  N   UNL     1      -9.919   2.620 -31.361  1.00  0.00    -0.282 N 
HETATM   10  H   UNL     1     -10.758   2.337 -31.864  1.00  0.00     0.189 HD
HETATM   11  N   UNL     1      -9.899   3.830 -30.794  1.00  0.00    -0.179 NA
HETATM   12  C   UNL     1      -8.680   3.950 -30.274  1.00  0.00     0.061 A 
HETATM   13  C   UNL     1      -8.307   5.207 -29.571  1.00  0.00     0.073 C 
ENDBRANCH   5   6
BRANCH   5  14
HETATM   14  N   UNL     1      -6.373   1.340 -29.219  1.00  0.00    -0.062 N 
HETATM   15  H   UNL     1      -5.439   1.318 -28.792  1.00  0.00     0.275 HD
HETATM   16  H   UNL     1      -7.033   1.399 -28.434  1.00  0.00     0.275 HD
HETATM   17  H   UNL     1      -6.522   0.481 -29.756  1.00  0.00     0.275 HD
ENDBRANCH   5  14
ENDBRANCH   1   5
BRANCH   2  18
HETATM   18  C   UNL     1      -3.728   1.155 -32.374  1.00  0.00     0.127 C 
BRANCH  18  19
HETATM   19  C   UNL     1      -3.604  -0.317 -32.788  1.00  0.00     0.058 C 
BRANCH  19  20
HETATM   20  C   UNL     1      -4.790  -0.818 -33.581  1.00  0.00    -0.056 A 
HETATM   21  C   UNL     1      -4.945  -2.188 -33.834  1.00  0.00     0.023 A 
HETATM   22  C   UNL     1      -6.044  -2.673 -34.565  1.00  0.00     0.048 A 
HETATM   23  C   UNL     1      -6.997  -1.764 -35.039  1.00  0.00     0.016 A 
HETATM   24  C   UNL     1      -6.842  -0.397 -34.809  1.00  0.00     0.001 A 
HETATM   25  C   UNL     1      -5.744   0.074 -34.088  1.00  0.00     0.007 A 
BRANCH  22  26
HETATM   26  C   UNL     1      -6.208  -4.155 -34.796  1.00  0.00     0.417 C 
HETATM   27  F   UNL     1      -5.218  -4.893 -34.220  1.00  0.00    -0.166 F 
HETATM   28  F   UNL     1      -7.368  -4.629 -34.248  1.00  0.00    -0.166 F 
HETATM   29  F   UNL     1      -6.236  -4.510 -36.107  1.00  0.00    -0.166 F 
ENDBRANCH  22  26
ENDBRANCH  19  20
ENDBRANCH  18  19
ENDBRANCH   2  18
TORSDOF 7
ENDMDL
MODEL 7
REMARK VINA RESULT:      -8.1      3.561      4.828
REMARK  7 active torsions:
REMARK  status: ('A' for Active; 'I' for Inactive)
REMARK    1  A    between atoms: C_8  and  C_9 
REMARK    2  A    between atoms: C_9  and  N_10 
REMARK    3  A    between atoms: C_9  and  C_14 
REMARK       I    between atoms: C_14  and  N_15 
REMARK    4  A    between atoms: N_15  and  C_16 
REMARK    5  A    between atoms: C_16  and  C_17 
REMARK    6  A    between atoms: C_17  and  C_18 
REMARK    7  A    between atoms: C_20  and  C_21 
ROOT
HETATM    1  C   UNL     1      -5.822   2.075 -31.665  1.00  0.00     0.253 C 
HETATM    2  N   UNL     1      -5.538   0.743 -31.845  1.00  0.00    -0.359 N 
HETATM    3  O   UNL     1      -5.593   2.944 -32.509  1.00  0.00    -0.271 OA
HETATM    4  H   UNL     1      -5.511   0.117 -31.044  1.00  0.00     0.162 HD
ENDROOT
BRANCH   1   5
HETATM    5  C   UNL     1      -6.542   2.471 -30.357  1.00  0.00     0.311 C 
BRANCH   5   6
HETATM    6  C   UNL     1      -7.981   2.790 -30.570  1.00  0.00     0.031 A 
HETATM    7  C   UNL     1      -8.977   2.030 -31.170  1.00  0.00     0.035 A 
HETATM    8  C   UNL     1      -8.992   0.682 -31.792  1.00  0.00     0.070 C 
HETATM    9  N   UNL     1     -10.111   2.801 -31.136  1.00  0.00    -0.282 N 
HETATM   10  H   UNL     1     -11.031   2.597 -31.524  1.00  0.00     0.189 HD
HETATM   11  N   UNL     1      -9.927   3.976 -30.528  1.00  0.00    -0.179 NA
HETATM   12  C   UNL     1      -8.641   3.993 -30.185  1.00  0.00     0.061 A 
HETATM   13  C   UNL     1      -8.086   5.186 -29.490  1.00  0.00     0.073 C 
ENDBRANCH   5   6
BRANCH   5  14
HETATM   14  N   UNL     1      -6.388   1.368 -29.355  1.00  0.00    -0.062 N 
HETATM   15  H   UNL     1      -5.389   1.160 -29.242  1.00  0.00     0.275 HD
HETATM   16  H   UNL     1      -6.707   1.695 -28.433  1.00  0.00     0.275 HD
HETATM   17  H   UNL     1      -6.886   0.517 -29.631  1.00  0.00     0.275 HD
ENDBRANCH   5  14
ENDBRANCH   1   5
BRANCH   2  18
HETATM   18  C   UNL     1      -4.872   0.250 -33.045  1.00  0.00     0.127 C 
BRANCH  18  19
HETATM   19  C   UNL     1      -5.850  -0.231 -34.125  1.00  0.00     0.058 C 
BRANCH  19  20
HETATM   20  C   UNL     1      -5.844  -1.731 -34.314  1.00  0.00    -0.056 A 
HETATM   21  C   UNL     1      -4.752  -2.494 -33.877  1.00  0.00     0.023 A 
HETATM   22  C   UNL     1      -4.730  -3.891 -34.039  1.00  0.00     0.048 A 
HETATM   23  C   UNL     1      -5.825  -4.520 -34.643  1.00  0.00     0.016 A 
HETATM   24  C   UNL     1      -6.907  -3.767 -35.099  1.00  0.00     0.001 A 
HETATM   25  C   UNL     1      -6.916  -2.381 -34.939  1.00  0.00     0.007 A 
BRANCH  22  26
HETATM   26  C   UNL     1      -3.560  -4.696 -33.531  1.00  0.00     0.417 C 
HETATM   27  F   UNL     1      -3.924  -5.925 -33.068  1.00  0.00    -0.166 F 
HETATM   28  F   UNL     1      -2.647  -4.945 -34.519  1.00  0.00    -0.166 F 
HETATM   29  F   UNL     1      -2.873  -4.097 -32.524  1.00  0.00    -0.166 F 
ENDBRANCH  22  26
ENDBRANCH  19  20
ENDBRANCH  18  19
ENDBRANCH   2  18
TORSDOF 7
ENDMDL
MODEL 8
REMARK VINA RESULT:      -8.1      1.430      2.214
REMARK  7 active torsions:
REMARK  status: ('A' for Active; 'I' for Inactive)
REMARK    1  A    between atoms: C_8  and  C_9 
REMARK    2  A    between atoms: C_9  and  N_10 
REMARK    3  A    between atoms: C_9  and  C_14 
REMARK       I    between atoms: C_14  and  N_15 
REMARK    4  A    between atoms: N_15  and  C_16 
REMARK    5  A    between atoms: C_16  and  C_17 
REMARK    6  A    between atoms: C_17  and  C_18 
REMARK    7  A    between atoms: C_20  and  C_21 
ROOT
HETATM    1  C   UNL     1      -9.456   2.358 -32.669  1.00  0.00     0.253 C 
HETATM    2  N   UNL     1      -8.488   2.370 -33.643  1.00  0.00    -0.359 N 
HETATM    3  O   UNL     1      -9.362   1.723 -31.617  1.00  0.00    -0.271 OA
HETATM    4  H   UNL     1      -8.715   2.696 -34.580  1.00  0.00     0.162 HD
ENDROOT
BRANCH   1   5
HETATM    5  C   UNL     1     -10.690   3.263 -32.890  1.00  0.00     0.311 C 
BRANCH   5   6
HETATM    6  C   UNL     1     -11.339   3.033 -34.210  1.00  0.00     0.031 A 
HETATM    7  C   UNL     1     -11.332   3.827 -35.351  1.00  0.00     0.035 A 
HETATM    8  C   UNL     1     -10.708   5.134 -35.677  1.00  0.00     0.070 C 
HETATM    9  N   UNL     1     -12.110   3.171 -36.270  1.00  0.00    -0.282 N 
HETATM   10  H   UNL     1     -12.376   3.469 -37.207  1.00  0.00     0.189 HD
HETATM   11  N   UNL     1     -12.580   2.003 -35.821  1.00  0.00    -0.179 NA
HETATM   12  C   UNL     1     -12.132   1.906 -34.571  1.00  0.00     0.061 A 
HETATM   13  C   UNL     1     -12.490   0.713 -33.758  1.00  0.00     0.073 C 
ENDBRANCH   5   6
BRANCH   5  14
HETATM   14  N   UNL     1     -11.667   3.048 -31.775  1.00  0.00    -0.062 N 
HETATM   15  H   UNL     1     -11.235   2.442 -31.068  1.00  0.00     0.275 HD
HETATM   16  H   UNL     1     -11.847   3.941 -31.299  1.00  0.00     0.275 HD
HETATM   17  H   UNL     1     -12.541   2.625 -32.099  1.00  0.00     0.275 HD
ENDBRANCH   5  14
ENDBRANCH   1   5
BRANCH   2  18
HETATM   18  C   UNL     1      -7.276   1.566 -33.537  1.00  0.00     0.127 C 
BRANCH  18  19
HETATM   19  C   UNL     1      -7.115   0.562 -34.686  1.00  0.00     0.058 C 
BRANCH  19  20
HETATM   20  C   UNL     1      -6.179  -0.579 -34.358  1.00  0.00    -0.056 A 
HETATM   21  C   UNL     1      -6.502  -1.890 -34.734  1.00  0.00     0.023 A 
HETATM   22  C   UNL     1      -5.641  -2.964 -34.442  1.00  0.00     0.048 A 
HETATM   23  C   UNL     1      -4.440  -2.705 -33.770  1.00  0.00     0.016 A 
HETATM   24  C   UNL     1      -4.118  -1.407 -33.376  1.00  0.00     0.001 A 
HETATM   25  C   UNL     1      -4.983  -0.350 -33.665  1.00  0.00     0.007 A 
BRANCH  22  26
HETATM   26  C   UNL     1      -5.994  -4.362 -34.884  1.00  0.00     0.417 C 
HETATM   27  F   UNL     1      -7.200  -4.780 -34.407  1.00  0.00    -0.166 F 
HETATM   28  F   UNL     1      -6.100  -4.452 -36.245  1.00  0.00    -0.166 F 
HETATM   29  F   UNL     1      -5.088  -5.304 -34.513  1.00  0.00    -0.166 F 
ENDBRANCH  22  26
ENDBRANCH  19  20
ENDBRANCH  18  19
ENDBRANCH   2  18
TORSDOF 7
ENDMDL
MODEL 9
REMARK VINA RESULT:      -7.9      5.874      8.436
REMARK  7 active torsions:
REMARK  status: ('A' for Active; 'I' for Inactive)
REMARK    1  A    between atoms: C_8  and  C_9 
REMARK    2  A    between atoms: C_9  and  N_10 
REMARK    3  A    between atoms: C_9  and  C_14 
REMARK       I    between atoms: C_14  and  N_15 
REMARK    4  A    between atoms: N_15  and  C_16 
REMARK    5  A    between atoms: C_16  and  C_17 
REMARK    6  A    between atoms: C_17  and  C_18 
REMARK    7  A    between atoms: C_20  and  C_21 
ROOT
HETATM    1  C   UNL     1      -3.161   4.130 -31.552  1.00  0.00     0.253 C 
HETATM    2  N   UNL     1      -3.317   2.769 -31.445  1.00  0.00    -0.359 N 
HETATM    3  O   UNL     1      -4.084   4.937 -31.430  1.00  0.00    -0.271 OA
HETATM    4  H   UNL     1      -2.593   2.146 -31.796  1.00  0.00     0.162 HD
ENDROOT
BRANCH   1   5
HETATM    5  C   UNL     1      -1.723   4.660 -31.757  1.00  0.00     0.311 C 
BRANCH   5   6
HETATM    6  C   UNL     1      -1.693   5.987 -32.430  1.00  0.00     0.031 A 
HETATM    7  C   UNL     1      -1.741   7.262 -31.878  1.00  0.00     0.035 A 
HETATM    8  C   UNL     1      -1.833   7.763 -30.483  1.00  0.00     0.070 C 
HETATM    9  N   UNL     1      -1.717   8.132 -32.937  1.00  0.00    -0.282 N 
HETATM   10  H   UNL     1      -1.784   9.149 -32.927  1.00  0.00     0.189 HD
HETATM   11  N   UNL     1      -1.616   7.516 -34.119  1.00  0.00    -0.179 NA
HETATM   12  C   UNL     1      -1.610   6.216 -33.834  1.00  0.00     0.061 A 
HETATM   13  C   UNL     1      -1.524   5.226 -34.941  1.00  0.00     0.073 C 
ENDBRANCH   5   6
BRANCH   5  14
HETATM   14  N   UNL     1      -1.027   4.724 -30.432  1.00  0.00    -0.062 N 
HETATM   15  H   UNL     1      -0.314   5.461 -30.466  1.00  0.00     0.275 HD
HETATM   16  H   UNL     1      -1.694   5.020 -29.708  1.00  0.00     0.275 HD
HETATM   17  H   UNL     1      -0.587   3.835 -30.178  1.00  0.00     0.275 HD
ENDBRANCH   5  14
ENDBRANCH   1   5
BRANCH   2  18
HETATM   18  C   UNL     1      -4.624   2.155 -31.239  1.00  0.00     0.127 C 
BRANCH  18  19
HETATM   19  C   UNL     1      -4.612   0.632 -31.423  1.00  0.00     0.058 C 
BRANCH  19  20
HETATM   20  C   UNL     1      -5.323   0.175 -32.677  1.00  0.00    -0.056 A 
HETATM   21  C   UNL     1      -5.238  -1.161 -33.091  1.00  0.00     0.023 A 
HETATM   22  C   UNL     1      -5.896  -1.607 -34.251  1.00  0.00     0.048 A 
HETATM   23  C   UNL     1      -6.651  -0.692 -34.994  1.00  0.00     0.016 A 
HETATM   24  C   UNL     1      -6.727   0.644 -34.601  1.00  0.00     0.001 A 
HETATM   25  C   UNL     1      -6.064   1.076 -33.452  1.00  0.00     0.007 A 
BRANCH  22  26
HETATM   26  C   UNL     1      -5.818  -3.057 -34.660  1.00  0.00     0.417 C 
HETATM   27  F   UNL     1      -4.873  -3.752 -33.966  1.00  0.00    -0.166 F 
HETATM   28  F   UNL     1      -6.992  -3.716 -34.419  1.00  0.00    -0.166 F 
HETATM   29  F   UNL     1      -5.541  -3.246 -35.976  1.00  0.00    -0.166 F 
ENDBRANCH  22  26
ENDBRANCH  19  20
ENDBRANCH  18  19
ENDBRANCH   2  18
TORSDOF 7
ENDMDL
MODEL 10
REMARK VINA RESULT:      -7.9      2.825      3.739
REMARK  7 active torsions:
REMARK  status: ('A' for Active; 'I' for Inactive)
REMARK    1  A    between atoms: C_8  and  C_9 
REMARK    2  A    between atoms: C_9  and  N_10 
REMARK    3  A    between atoms: C_9  and  C_14 
REMARK       I    between atoms: C_14  and  N_15 
REMARK    4  A    between atoms: N_15  and  C_16 
REMARK    5  A    between atoms: C_16  and  C_17 
REMARK    6  A    between atoms: C_17  and  C_18 
REMARK    7  A    between atoms: C_20  and  C_21 
ROOT
HETATM    1  C   UNL     1      -7.227   2.373 -31.788  1.00  0.00     0.253 C 
HETATM    2  N   UNL     1      -6.915   1.048 -31.600  1.00  0.00    -0.359 N 
HETATM    3  O   UNL     1      -6.398   3.237 -32.078  1.00  0.00    -0.271 OA
HETATM    4  H   UNL     1      -7.573   0.434 -31.125  1.00  0.00     0.162 HD
ENDROOT
BRANCH   1   5
HETATM    5  C   UNL     1      -8.720   2.763 -31.704  1.00  0.00     0.311 C 
BRANCH   5   6
HETATM    6  C   UNL     1      -9.450   2.513 -32.978  1.00  0.00     0.031 A 
HETATM    7  C   UNL     1      -9.762   3.392 -34.007  1.00  0.00     0.035 A 
HETATM    8  C   UNL     1      -9.502   4.838 -34.225  1.00  0.00     0.070 C 
HETATM    9  N   UNL     1     -10.469   2.660 -34.927  1.00  0.00    -0.282 N 
HETATM   10  H   UNL     1     -10.905   2.975 -35.792  1.00  0.00     0.189 HD
HETATM   11  N   UNL     1     -10.598   1.375 -34.585  1.00  0.00    -0.179 NA
HETATM   12  C   UNL     1      -9.996   1.267 -33.402  1.00  0.00     0.061 A 
HETATM   13  C   UNL     1      -9.969  -0.052 -32.714  1.00  0.00     0.073 C 
ENDBRANCH   5   6
BRANCH   5  14
HETATM   14  N   UNL     1      -9.363   2.021 -30.573  1.00  0.00    -0.062 N 
HETATM   15  H   UNL     1      -9.649   1.093 -30.905  1.00  0.00     0.275 HD
HETATM   16  H   UNL     1      -8.666   1.846 -29.838  1.00  0.00     0.275 HD
HETATM   17  H   UNL     1     -10.176   2.513 -30.193  1.00  0.00     0.275 HD
ENDBRANCH   5  14
ENDBRANCH   1   5
BRANCH   2  18
HETATM   18  C   UNL     1      -5.542   0.561 -31.668  1.00  0.00     0.127 C 
BRANCH  18  19
HETATM   19  C   UNL     1      -5.042   0.362 -33.105  1.00  0.00     0.058 C 
BRANCH  19  20
HETATM   20  C   UNL     1      -5.312  -1.024 -33.646  1.00  0.00    -0.056 A 
HETATM   21  C   UNL     1      -4.407  -2.066 -33.404  1.00  0.00     0.023 A 
HETATM   22  C   UNL     1      -4.643  -3.363 -33.894  1.00  0.00     0.048 A 
HETATM   23  C   UNL     1      -5.808  -3.607 -34.631  1.00  0.00     0.016 A 
HETATM   24  C   UNL     1      -6.706  -2.571 -34.894  1.00  0.00     0.001 A 
HETATM   25  C   UNL     1      -6.458  -1.287 -34.408  1.00  0.00     0.007 A 
BRANCH  22  26
HETATM   26  C   UNL     1      -3.672  -4.478 -33.593  1.00  0.00     0.417 C 
HETATM   27  F   UNL     1      -2.913  -4.234 -32.488  1.00  0.00    -0.166 F 
HETATM   28  F   UNL     1      -4.317  -5.655 -33.329  1.00  0.00    -0.166 F 
HETATM   29  F   UNL     1      -2.803  -4.742 -34.603  1.00  0.00    -0.166 F 
ENDBRANCH  22  26
ENDBRANCH  19  20
ENDBRANCH  18  19
ENDBRANCH   2  18
TORSDOF 7
ENDMDL
