MODEL 1
REMARK VINA RESULT:      -9.3      0.000      0.000
REMARK  9 active torsions:
REMARK  status: ('A' for Active; 'I' for Inactive)
REMARK    1  A    between atoms: C_2  and  O_3 
REMARK    2  A    between atoms: O_3  and  C_4 
REMARK    3  A    between atoms: C_5  and  O_6 
REMARK    4  A    between atoms: C_9  and  C_10 
REMARK    5  A    between atoms: C_10  and  N_11 
REMARK    6  A    between atoms: C_13  and  C_14 
REMARK       I    between atoms: C_14  and  N_15 
REMARK    7  A    between atoms: N_15  and  C_16 
REMARK    8  A    between atoms: C_28  and  S_29 
REMARK    9  A    between atoms: S_29  and  C_30 
ROOT
HETATM    1  N   UNL     1      -8.055   1.380 -33.382  1.00  0.00    -0.053 N 
HETATM    2  H   UNL     1      -7.339   1.004 -34.018  1.00  0.00     0.281 HD
HETATM    3  C   UNL     1      -8.305   2.821 -33.854  1.00  0.00     0.281 C 
HETATM    4  C   UNL     1      -9.716   3.111 -33.382  1.00  0.00     0.060 C 
HETATM    5  C   UNL     1     -10.454   1.767 -33.481  1.00  0.00     0.082 C 
HETATM    6  C   UNL     1      -9.370   0.685 -33.647  1.00  0.00     0.252 C 
ENDROOT
BRANCH   3   7
HETATM    7  C   UNL     1      -7.182   3.813 -33.514  1.00  0.00     0.253 C 
HETATM    8  N   UNL     1      -5.948   3.543 -34.073  1.00  0.00    -0.325 N 
HETATM    9  H   UNL     1      -5.866   2.800 -34.758  1.00  0.00     0.169 HD
HETATM   10  O   UNL     1      -7.429   4.725 -32.728  1.00  0.00    -0.271 OA
BRANCH   8  11
HETATM   11  C   UNL     1      -4.725   4.191 -33.763  1.00  0.00     0.037 A 
HETATM   12  C   UNL     1      -3.951   3.895 -32.634  1.00  0.00     0.062 A 
HETATM   13  C   UNL     1      -2.715   4.545 -32.419  1.00  0.00     0.077 A 
HETATM   14  C   UNL     1      -2.284   5.498 -33.339  1.00  0.00     0.035 A 
HETATM   15  N   UNL     1      -1.857   4.313 -31.359  1.00  0.00    -0.245 NA
HETATM   16  S   UNL     1      -0.762   6.118 -32.830  1.00  0.00    -0.073 SA
HETATM   17  C   UNL     1      -3.046   5.824 -34.471  1.00  0.00     0.023 A 
HETATM   18  C   UNL     1      -0.787   5.069 -31.471  1.00  0.00     0.072 A 
HETATM   19  C   UNL     1       0.345   5.059 -30.504  1.00  0.00     0.079 C 
HETATM   20  C   UNL     1      -4.262   5.151 -34.668  1.00  0.00     0.031 A 
ENDBRANCH   8  11
ENDBRANCH   3   7
BRANCH   1  21
HETATM   21  C   UNL     1      -7.468   1.126 -32.002  1.00  0.00     0.274 C 
BRANCH  21  22
HETATM   22  C   UNL     1      -6.174   0.359 -31.932  1.00  0.00    -0.030 A 
HETATM   23  C   UNL     1      -5.195   0.717 -30.987  1.00  0.00     0.012 A 
HETATM   24  C   UNL     1      -3.987   0.027 -30.917  1.00  0.00     0.040 A 
HETATM   25  C   UNL     1      -3.756  -1.023 -31.791  1.00  0.00     0.099 A 
HETATM   26  C   UNL     1      -4.706  -1.408 -32.739  1.00  0.00     0.102 A 
HETATM   27  C   UNL     1      -5.927  -0.732 -32.789  1.00  0.00     0.048 A 
BRANCH  25  28
HETATM   28  O   UNL     1      -2.558  -1.677 -31.700  1.00  0.00    -0.358 OA
HETATM   29  H   UNL     1      -2.340  -1.704 -30.748  1.00  0.00     0.218 HD
ENDBRANCH  25  28
BRANCH  26  30
HETATM   30  O   UNL     1      -4.330  -2.452 -33.540  1.00  0.00    -0.349 OA
BRANCH  30  31
HETATM   31  C   UNL     1      -5.116  -2.691 -34.707  1.00  0.00     0.171 C 
HETATM   32  C   UNL     1      -5.491  -4.161 -34.717  1.00  0.00     0.034 C 
ENDBRANCH  30  31
ENDBRANCH  26  30
ENDBRANCH  21  22
ENDBRANCH   1  21
BRANCH   5  33
HETATM   33  S   UNL     1     -11.596   1.791 -34.913  1.00  0.00    -0.104 SA
BRANCH  33  34
HETATM   34  C   UNL     1     -13.171   1.782 -34.068  1.00  0.00     0.093 A 
HETATM   35  N   UNL     1     -14.162   1.031 -34.603  1.00  0.00    -0.254 NA
HETATM   36  C   UNL     1     -15.349   1.033 -33.950  1.00  0.00     0.118 A 
HETATM   37  C   UNL     1     -15.600   1.769 -32.804  1.00  0.00     0.019 A 
HETATM   38  C   UNL     1     -14.572   2.546 -32.288  1.00  0.00     0.004 A 
HETATM   39  C   UNL     1     -13.334   2.554 -32.925  1.00  0.00     0.039 A 
ENDBRANCH  33  34
ENDBRANCH   5  33
TORSDOF 9
ENDMDL
MODEL 2
REMARK VINA RESULT:      -8.9      1.567      2.305
REMARK  9 active torsions:
REMARK  status: ('A' for Active; 'I' for Inactive)
REMARK    1  A    between atoms: C_2  and  O_3 
REMARK    2  A    between atoms: O_3  and  C_4 
REMARK    3  A    between atoms: C_5  and  O_6 
REMARK    4  A    between atoms: C_9  and  C_10 
REMARK    5  A    between atoms: C_10  and  N_11 
REMARK    6  A    between atoms: C_13  and  C_14 
REMARK       I    between atoms: C_14  and  N_15 
REMARK    7  A    between atoms: N_15  and  C_16 
REMARK    8  A    between atoms: C_28  and  S_29 
REMARK    9  A    between atoms: S_29  and  C_30 
ROOT
HETATM    1  N   UNL     1      -8.354   1.872 -33.834  1.00  0.00    -0.053 N 
HETATM    2  H   UNL     1      -7.973   1.544 -34.731  1.00  0.00     0.281 HD
HETATM    3  C   UNL     1      -8.088   3.385 -33.805  1.00  0.00     0.281 C 
HETATM    4  C   UNL     1      -9.158   3.917 -32.873  1.00  0.00     0.060 C 
HETATM    5  C   UNL     1     -10.375   3.009 -33.102  1.00  0.00     0.082 C 
HETATM    6  C   UNL     1      -9.861   1.776 -33.868  1.00  0.00     0.252 C 
ENDROOT
BRANCH   3   7
HETATM    7  C   UNL     1      -6.622   3.777 -33.565  1.00  0.00     0.253 C 
HETATM    8  N   UNL     1      -6.350   4.385 -32.355  1.00  0.00    -0.325 N 
HETATM    9  H   UNL     1      -7.077   4.435 -31.651  1.00  0.00     0.169 HD
HETATM   10  O   UNL     1      -5.814   3.592 -34.473  1.00  0.00    -0.271 OA
BRANCH   8  11
HETATM   11  C   UNL     1      -5.129   5.003 -31.981  1.00  0.00     0.037 A 
HETATM   12  C   UNL     1      -3.932   4.305 -31.784  1.00  0.00     0.062 A 
HETATM   13  C   UNL     1      -2.740   4.995 -31.465  1.00  0.00     0.077 A 
HETATM   14  C   UNL     1      -2.779   6.382 -31.332  1.00  0.00     0.035 A 
HETATM   15  N   UNL     1      -1.499   4.416 -31.277  1.00  0.00    -0.245 NA
HETATM   16  S   UNL     1      -1.201   6.950 -30.946  1.00  0.00    -0.073 SA
HETATM   17  C   UNL     1      -3.967   7.104 -31.510  1.00  0.00     0.023 A 
HETATM   18  C   UNL     1      -0.603   5.342 -31.014  1.00  0.00     0.072 A 
HETATM   19  C   UNL     1       0.839   5.061 -30.772  1.00  0.00     0.079 C 
HETATM   20  C   UNL     1      -5.132   6.395 -31.843  1.00  0.00     0.031 A 
ENDBRANCH   8  11
ENDBRANCH   3   7
BRANCH   1  21
HETATM   21  C   UNL     1      -7.681   0.966 -32.814  1.00  0.00     0.274 C 
BRANCH  21  22
HETATM   22  C   UNL     1      -6.848  -0.172 -33.344  1.00  0.00    -0.030 A 
HETATM   23  C   UNL     1      -7.434  -1.143 -34.177  1.00  0.00     0.012 A 
HETATM   24  C   UNL     1      -6.681  -2.208 -34.665  1.00  0.00     0.040 A 
HETATM   25  C   UNL     1      -5.342  -2.305 -34.322  1.00  0.00     0.099 A 
HETATM   26  C   UNL     1      -4.727  -1.357 -33.501  1.00  0.00     0.102 A 
HETATM   27  C   UNL     1      -5.477  -0.275 -33.036  1.00  0.00     0.048 A 
BRANCH  25  28
HETATM   28  O   UNL     1      -4.632  -3.366 -34.814  1.00  0.00    -0.358 OA
HETATM   29  H   UNL     1      -5.255  -4.118 -34.833  1.00  0.00     0.218 HD
ENDBRANCH  25  28
BRANCH  26  30
HETATM   30  O   UNL     1      -3.405  -1.592 -33.241  1.00  0.00    -0.349 OA
BRANCH  30  31
HETATM   31  C   UNL     1      -3.052  -1.890 -31.891  1.00  0.00     0.171 C 
HETATM   32  C   UNL     1      -2.945  -3.399 -31.765  1.00  0.00     0.034 C 
ENDBRANCH  30  31
ENDBRANCH  26  30
ENDBRANCH  21  22
ENDBRANCH   1  21
BRANCH   5  33
HETATM   33  S   UNL     1     -11.649   3.908 -34.063  1.00  0.00    -0.104 SA
BRANCH  33  34
HETATM   34  C   UNL     1     -13.091   2.920 -33.691  1.00  0.00     0.093 A 
HETATM   35  N   UNL     1     -13.782   3.224 -32.567  1.00  0.00    -0.254 NA
HETATM   36  C   UNL     1     -14.874   2.468 -32.299  1.00  0.00     0.118 A 
HETATM   37  C   UNL     1     -15.292   1.408 -33.086  1.00  0.00     0.019 A 
HETATM   38  C   UNL     1     -14.552   1.105 -34.222  1.00  0.00     0.004 A 
HETATM   39  C   UNL     1     -13.434   1.873 -34.535  1.00  0.00     0.039 A 
ENDBRANCH  33  34
ENDBRANCH   5  33
TORSDOF 9
ENDMDL
MODEL 3
REMARK VINA RESULT:      -8.9      1.946      8.670
REMARK  9 active torsions:
REMARK  status: ('A' for Active; 'I' for Inactive)
REMARK    1  A    between atoms: C_2  and  O_3 
REMARK    2  A    between atoms: O_3  and  C_4 
REMARK    3  A    between atoms: C_5  and  O_6 
REMARK    4  A    between atoms: C_9  and  C_10 
REMARK    5  A    between atoms: C_10  and  N_11 
REMARK    6  A    between atoms: C_13  and  C_14 
REMARK       I    between atoms: C_14  and  N_15 
REMARK    7  A    between atoms: N_15  and  C_16 
REMARK    8  A    between atoms: C_28  and  S_29 
REMARK    9  A    between atoms: S_29  and  C_30 
ROOT
HETATM    1  N   UNL     1      -5.941   2.693 -32.423  1.00  0.00    -0.053 N 
HETATM    2  H   UNL     1      -5.811   2.198 -31.531  1.00  0.00     0.281 HD
HETATM    3  C   UNL     1      -7.242   3.494 -32.262  1.00  0.00     0.281 C 
HETATM    4  C   UNL     1      -7.077   4.641 -33.239  1.00  0.00     0.060 C 
HETATM    5  C   UNL     1      -5.574   4.955 -33.237  1.00  0.00     0.082 C 
HETATM    6  C   UNL     1      -4.879   3.760 -32.557  1.00  0.00     0.252 C 
ENDROOT
BRANCH   3   7
HETATM    7  C   UNL     1      -8.526   2.652 -32.304  1.00  0.00     0.253 C 
HETATM    8  N   UNL     1      -9.457   3.019 -33.256  1.00  0.00    -0.325 N 
HETATM    9  H   UNL     1      -9.213   3.722 -33.943  1.00  0.00     0.169 HD
HETATM   10  O   UNL     1      -8.671   1.769 -31.461  1.00  0.00    -0.271 OA
BRANCH   8  11
HETATM   11  C   UNL     1     -10.783   2.526 -33.367  1.00  0.00     0.037 A 
HETATM   12  C   UNL     1     -11.860   3.015 -32.618  1.00  0.00     0.062 A 
HETATM   13  C   UNL     1     -13.165   2.513 -32.822  1.00  0.00     0.077 A 
HETATM   14  C   UNL     1     -13.362   1.510 -33.769  1.00  0.00     0.035 A 
HETATM   15  N   UNL     1     -14.305   2.939 -32.164  1.00  0.00    -0.245 NA
HETATM   16  S   UNL     1     -15.032   1.095 -33.805  1.00  0.00    -0.073 SA
HETATM   17  C   UNL     1     -12.298   0.992 -34.522  1.00  0.00     0.023 A 
HETATM   18  C   UNL     1     -15.354   2.280 -32.605  1.00  0.00     0.072 A 
HETATM   19  C   UNL     1     -16.743   2.503 -32.117  1.00  0.00     0.079 C 
HETATM   20  C   UNL     1     -11.016   1.521 -34.311  1.00  0.00     0.031 A 
ENDBRANCH   8  11
ENDBRANCH   3   7
BRANCH   1  21
HETATM   21  C   UNL     1      -5.859   1.581 -33.457  1.00  0.00     0.274 C 
BRANCH  21  22
HETATM   22  C   UNL     1      -5.117   0.329 -33.069  1.00  0.00    -0.030 A 
HETATM   23  C   UNL     1      -4.234   0.347 -31.974  1.00  0.00     0.012 A 
HETATM   24  C   UNL     1      -3.529  -0.798 -31.610  1.00  0.00     0.040 A 
HETATM   25  C   UNL     1      -3.706  -1.962 -32.339  1.00  0.00     0.099 A 
HETATM   26  C   UNL     1      -4.576  -2.017 -33.430  1.00  0.00     0.102 A 
HETATM   27  C   UNL     1      -5.302  -0.875 -33.776  1.00  0.00     0.048 A 
BRANCH  25  28
HETATM   28  O   UNL     1      -2.996  -3.068 -31.959  1.00  0.00    -0.358 OA
HETATM   29  H   UNL     1      -2.497  -3.350 -32.751  1.00  0.00     0.218 HD
ENDBRANCH  25  28
BRANCH  26  30
HETATM   30  O   UNL     1      -4.636  -3.231 -34.059  1.00  0.00    -0.349 OA
BRANCH  30  31
HETATM   31  C   UNL     1      -5.514  -3.340 -35.179  1.00  0.00     0.171 C 
HETATM   32  C   UNL     1      -6.455  -4.501 -34.915  1.00  0.00     0.034 C 
ENDBRANCH  30  31
ENDBRANCH  26  30
ENDBRANCH  21  22
ENDBRANCH   1  21
BRANCH   5  33
HETATM   33  S   UNL     1      -5.266   6.513 -32.323  1.00  0.00    -0.104 SA
BRANCH  33  34
HETATM   34  C   UNL     1      -3.508   6.698 -32.586  1.00  0.00     0.093 A 
HETATM   35  N   UNL     1      -3.060   6.665 -33.863  1.00  0.00    -0.254 NA
HETATM   36  C   UNL     1      -1.726   6.808 -34.046  1.00  0.00     0.118 A 
HETATM   37  C   UNL     1      -0.816   6.958 -33.014  1.00  0.00     0.019 A 
HETATM   38  C   UNL     1      -1.300   6.968 -31.712  1.00  0.00     0.004 A 
HETATM   39  C   UNL     1      -2.668   6.839 -31.489  1.00  0.00     0.039 A 
ENDBRANCH  33  34
ENDBRANCH   5  33
TORSDOF 9
ENDMDL
MODEL 4
REMARK VINA RESULT:      -8.4      3.318      8.872
REMARK  9 active torsions:
REMARK  status: ('A' for Active; 'I' for Inactive)
REMARK    1  A    between atoms: C_2  and  O_3 
REMARK    2  A    between atoms: O_3  and  C_4 
REMARK    3  A    between atoms: C_5  and  O_6 
REMARK    4  A    between atoms: C_9  and  C_10 
REMARK    5  A    between atoms: C_10  and  N_11 
REMARK    6  A    between atoms: C_13  and  C_14 
REMARK       I    between atoms: C_14  and  N_15 
REMARK    7  A    between atoms: N_15  and  C_16 
REMARK    8  A    between atoms: C_28  and  S_29 
REMARK    9  A    between atoms: S_29  and  C_30 
ROOT
HETATM    1  N   UNL     1      -6.298   4.443 -31.792  1.00  0.00    -0.053 N 
HETATM    2  H   UNL     1      -6.858   4.430 -32.655  1.00  0.00     0.281 HD
HETATM    3  C   UNL     1      -4.888   4.000 -32.213  1.00  0.00     0.281 C 
HETATM    4  C   UNL     1      -3.991   4.620 -31.160  1.00  0.00     0.060 C 
HETATM    5  C   UNL     1      -4.672   5.945 -30.785  1.00  0.00     0.082 C 
HETATM    6  C   UNL     1      -6.104   5.874 -31.347  1.00  0.00     0.252 C 
ENDROOT
BRANCH   3   7
HETATM    7  C   UNL     1      -4.750   2.502 -32.527  1.00  0.00     0.253 C 
HETATM    8  N   UNL     1      -5.540   2.027 -33.556  1.00  0.00    -0.325 N 
HETATM    9  H   UNL     1      -6.066   2.684 -34.122  1.00  0.00     0.169 HD
HETATM   10  O   UNL     1      -4.015   1.823 -31.814  1.00  0.00    -0.271 OA
BRANCH   8  11
HETATM   11  C   UNL     1      -5.733   0.666 -33.907  1.00  0.00     0.037 A 
HETATM   12  C   UNL     1      -4.803  -0.346 -33.641  1.00  0.00     0.062 A 
HETATM   13  C   UNL     1      -5.088  -1.690 -33.972  1.00  0.00     0.077 A 
HETATM   14  C   UNL     1      -6.304  -1.992 -34.582  1.00  0.00     0.035 A 
HETATM   15  N   UNL     1      -4.261  -2.772 -33.731  1.00  0.00    -0.245 NA
HETATM   16  S   UNL     1      -6.381  -3.688 -34.866  1.00  0.00    -0.073 SA
HETATM   17  C   UNL     1      -7.247  -0.996 -34.872  1.00  0.00     0.023 A 
HETATM   18  C   UNL     1      -4.836  -3.881 -34.142  1.00  0.00     0.072 A 
HETATM   19  C   UNL     1      -4.222  -5.232 -34.021  1.00  0.00     0.079 C 
HETATM   20  C   UNL     1      -6.945   0.328 -34.518  1.00  0.00     0.031 A 
ENDBRANCH   8  11
ENDBRANCH   3   7
BRANCH   1  21
HETATM   21  C   UNL     1      -7.107   3.583 -30.834  1.00  0.00     0.274 C 
BRANCH  21  22
HETATM   22  C   UNL     1      -8.152   2.677 -31.432  1.00  0.00    -0.030 A 
HETATM   23  C   UNL     1      -8.139   1.301 -31.140  1.00  0.00     0.012 A 
HETATM   24  C   UNL     1      -9.090   0.447 -31.694  1.00  0.00     0.040 A 
HETATM   25  C   UNL     1     -10.054   0.967 -32.543  1.00  0.00     0.099 A 
HETATM   26  C   UNL     1     -10.099   2.329 -32.852  1.00  0.00     0.102 A 
HETATM   27  C   UNL     1      -9.162   3.187 -32.273  1.00  0.00     0.048 A 
BRANCH  25  28
HETATM   28  O   UNL     1     -10.970   0.102 -33.075  1.00  0.00    -0.358 OA
HETATM   29  H   UNL     1     -10.809  -0.758 -32.640  1.00  0.00     0.218 HD
ENDBRANCH  25  28
BRANCH  26  30
HETATM   30  O   UNL     1     -11.099   2.691 -33.712  1.00  0.00    -0.349 OA
BRANCH  30  31
HETATM   31  C   UNL     1     -10.744   3.546 -34.798  1.00  0.00     0.171 C 
HETATM   32  C   UNL     1     -11.792   4.640 -34.884  1.00  0.00     0.034 C 
ENDBRANCH  30  31
ENDBRANCH  26  30
ENDBRANCH  21  22
ENDBRANCH   1  21
BRANCH   5  33
HETATM   33  S   UNL     1      -3.741   7.347 -31.507  1.00  0.00    -0.104 SA
BRANCH  33  34
HETATM   34  C   UNL     1      -2.130   7.069 -30.787  1.00  0.00     0.093 A 
HETATM   35  N   UNL     1      -2.045   7.047 -29.436  1.00  0.00    -0.254 NA
HETATM   36  C   UNL     1      -0.817   6.833 -28.905  1.00  0.00     0.118 A 
HETATM   37  C   UNL     1       0.332   6.666 -29.658  1.00  0.00     0.019 A 
HETATM   38  C   UNL     1       0.220   6.714 -31.041  1.00  0.00     0.004 A 
HETATM   39  C   UNL     1      -1.030   6.916 -31.620  1.00  0.00     0.039 A 
ENDBRANCH  33  34
ENDBRANCH   5  33
TORSDOF 9
ENDMDL
MODEL 5
REMARK VINA RESULT:      -8.4      3.387      8.934
REMARK  9 active torsions:
REMARK  status: ('A' for Active; 'I' for Inactive)
REMARK    1  A    between atoms: C_2  and  O_3 
REMARK    2  A    between atoms: O_3  and  C_4 
REMARK    3  A    between atoms: C_5  and  O_6 
REMARK    4  A    between atoms: C_9  and  C_10 
REMARK    5  A    between atoms: C_10  and  N_11 
REMARK    6  A    between atoms: C_13  and  C_14 
REMARK       I    between atoms: C_14  and  N_15 
REMARK    7  A    between atoms: N_15  and  C_16 
REMARK    8  A    between atoms: C_28  and  S_29 
REMARK    9  A    between atoms: S_29  and  C_30 
ROOT
HETATM    1  N   UNL     1      -6.521   5.361 -31.660  1.00  0.00    -0.053 N 
HETATM    2  H   UNL     1      -7.207   5.603 -32.387  1.00  0.00     0.281 HD
HETATM    3  C   UNL     1      -5.278   4.867 -32.418  1.00  0.00     0.281 C 
HETATM    4  C   UNL     1      -4.142   5.133 -31.450  1.00  0.00     0.060 C 
HETATM    5  C   UNL     1      -4.548   6.409 -30.698  1.00  0.00     0.082 C 
HETATM    6  C   UNL     1      -6.046   6.626 -30.984  1.00  0.00     0.252 C 
ENDROOT
BRANCH   3   7
HETATM    7  C   UNL     1      -5.419   3.471 -33.044  1.00  0.00     0.253 C 
HETATM    8  N   UNL     1      -4.996   2.414 -32.262  1.00  0.00    -0.325 N 
HETATM    9  H   UNL     1      -4.736   2.583 -31.297  1.00  0.00     0.169 HD
HETATM   10  O   UNL     1      -5.825   3.390 -34.201  1.00  0.00    -0.271 OA
BRANCH   8  11
HETATM   11  C   UNL     1      -4.848   1.066 -32.680  1.00  0.00     0.037 A 
HETATM   12  C   UNL     1      -5.894   0.291 -33.194  1.00  0.00     0.062 A 
HETATM   13  C   UNL     1      -5.659  -1.029 -33.642  1.00  0.00     0.077 A 
HETATM   14  C   UNL     1      -4.372  -1.554 -33.549  1.00  0.00     0.035 A 
HETATM   15  N   UNL     1      -6.606  -1.874 -34.193  1.00  0.00    -0.245 NA
HETATM   16  S   UNL     1      -4.379  -3.162 -34.163  1.00  0.00    -0.073 SA
HETATM   17  C   UNL     1      -3.308  -0.804 -33.025  1.00  0.00     0.023 A 
HETATM   18  C   UNL     1      -6.052  -3.020 -34.521  1.00  0.00     0.072 A 
HETATM   19  C   UNL     1      -6.787  -4.151 -35.151  1.00  0.00     0.079 C 
HETATM   20  C   UNL     1      -3.567   0.509 -32.603  1.00  0.00     0.031 A 
ENDBRANCH   8  11
ENDBRANCH   3   7
BRANCH   1  21
HETATM   21  C   UNL     1      -7.286   4.406 -30.757  1.00  0.00     0.274 C 
BRANCH  21  22
HETATM   22  C   UNL     1      -8.691   4.046 -31.166  1.00  0.00    -0.030 A 
HETATM   23  C   UNL     1      -9.784   4.517 -30.415  1.00  0.00     0.012 A 
HETATM   24  C   UNL     1     -11.088   4.183 -30.771  1.00  0.00     0.040 A 
HETATM   25  C   UNL     1     -11.303   3.378 -31.877  1.00  0.00     0.099 A 
HETATM   26  C   UNL     1     -10.243   2.895 -32.648  1.00  0.00     0.102 A 
HETATM   27  C   UNL     1      -8.937   3.254 -32.305  1.00  0.00     0.048 A 
BRANCH  25  28
HETATM   28  O   UNL     1     -12.595   3.064 -32.198  1.00  0.00    -0.358 OA
HETATM   29  H   UNL     1     -13.129   3.842 -31.944  1.00  0.00     0.218 HD
ENDBRANCH  25  28
BRANCH  26  30
HETATM   30  O   UNL     1     -10.610   2.103 -33.701  1.00  0.00    -0.349 OA
BRANCH  30  31
HETATM   31  C   UNL     1      -9.801   0.957 -33.964  1.00  0.00     0.171 C 
HETATM   32  C   UNL     1     -10.100  -0.074 -32.891  1.00  0.00     0.034 C 
ENDBRANCH  30  31
ENDBRANCH  26  30
ENDBRANCH  21  22
ENDBRANCH   1  21
BRANCH   5  33
HETATM   33  S   UNL     1      -3.545   7.823 -31.289  1.00  0.00    -0.104 SA
BRANCH  33  34
HETATM   34  C   UNL     1      -1.925   7.329 -30.719  1.00  0.00     0.093 A 
HETATM   35  N   UNL     1      -1.762   7.136 -29.389  1.00  0.00    -0.254 NA
HETATM   36  C   UNL     1      -0.529   6.760 -28.973  1.00  0.00     0.118 A 
HETATM   37  C   UNL     1       0.554   6.591 -29.819  1.00  0.00     0.019 A 
HETATM   38  C   UNL     1       0.365   6.816 -31.176  1.00  0.00     0.004 A 
HETATM   39  C   UNL     1      -0.894   7.188 -31.639  1.00  0.00     0.039 A 
ENDBRANCH  33  34
ENDBRANCH   5  33
TORSDOF 9
ENDMDL
MODEL 6
REMARK VINA RESULT:      -8.3      1.970      8.863
REMARK  9 active torsions:
REMARK  status: ('A' for Active; 'I' for Inactive)
REMARK    1  A    between atoms: C_2  and  O_3 
REMARK    2  A    between atoms: O_3  and  C_4 
REMARK    3  A    between atoms: C_5  and  O_6 
REMARK    4  A    between atoms: C_9  and  C_10 
REMARK    5  A    between atoms: C_10  and  N_11 
REMARK    6  A    between atoms: C_13  and  C_14 
REMARK       I    between atoms: C_14  and  N_15 
REMARK    7  A    between atoms: N_15  and  C_16 
REMARK    8  A    between atoms: C_28  and  S_29 
REMARK    9  A    between atoms: S_29  and  C_30 
ROOT
HETATM    1  N   UNL     1      -6.310   2.637 -33.040  1.00  0.00    -0.053 N 
HETATM    2  H   UNL     1      -6.007   1.895 -32.394  1.00  0.00     0.281 HD
HETATM    3  C   UNL     1      -7.451   3.370 -32.316  1.00  0.00     0.281 C 
HETATM    4  C   UNL     1      -7.431   4.755 -32.932  1.00  0.00     0.060 C 
HETATM    5  C   UNL     1      -5.953   5.034 -33.240  1.00  0.00     0.082 C 
HETATM    6  C   UNL     1      -5.223   3.682 -33.140  1.00  0.00     0.252 C 
ENDROOT
BRANCH   3   7
HETATM    7  C   UNL     1      -8.776   2.595 -32.255  1.00  0.00     0.253 C 
HETATM    8  N   UNL     1      -9.697   2.895 -33.240  1.00  0.00    -0.325 N 
HETATM    9  H   UNL     1      -9.424   3.500 -34.006  1.00  0.00     0.169 HD
HETATM   10  O   UNL     1      -8.957   1.824 -31.314  1.00  0.00    -0.271 OA
BRANCH   8  11
HETATM   11  C   UNL     1     -11.047   2.462 -33.288  1.00  0.00     0.037 A 
HETATM   12  C   UNL     1     -12.089   3.082 -32.588  1.00  0.00     0.062 A 
HETATM   13  C   UNL     1     -13.420   2.627 -32.727  1.00  0.00     0.077 A 
HETATM   14  C   UNL     1     -13.678   1.540 -33.559  1.00  0.00     0.035 A 
HETATM   15  N   UNL     1     -14.528   3.179 -32.111  1.00  0.00    -0.245 NA
HETATM   16  S   UNL     1     -15.367   1.209 -33.539  1.00  0.00    -0.073 SA
HETATM   17  C   UNL     1     -12.651   0.891 -34.260  1.00  0.00     0.023 A 
HETATM   18  C   UNL     1     -15.614   2.530 -32.470  1.00  0.00     0.072 A 
HETATM   19  C   UNL     1     -16.984   2.874 -31.999  1.00  0.00     0.079 C 
HETATM   20  C   UNL     1     -11.341   1.374 -34.116  1.00  0.00     0.031 A 
ENDBRANCH   8  11
ENDBRANCH   3   7
BRANCH   1  21
HETATM   21  C   UNL     1      -6.591   1.885 -34.331  1.00  0.00     0.274 C 
BRANCH  21  22
HETATM   22  C   UNL     1      -6.309   0.406 -34.346  1.00  0.00    -0.030 A 
HETATM   23  C   UNL     1      -7.233  -0.480 -34.932  1.00  0.00     0.012 A 
HETATM   24  C   UNL     1      -6.993  -1.852 -34.942  1.00  0.00     0.040 A 
HETATM   25  C   UNL     1      -5.831  -2.341 -34.368  1.00  0.00     0.099 A 
HETATM   26  C   UNL     1      -4.891  -1.491 -33.781  1.00  0.00     0.102 A 
HETATM   27  C   UNL     1      -5.120  -0.113 -33.796  1.00  0.00     0.048 A 
BRANCH  25  28
HETATM   28  O   UNL     1      -5.628  -3.694 -34.390  1.00  0.00    -0.358 OA
HETATM   29  H   UNL     1      -4.689  -3.826 -34.153  1.00  0.00     0.218 HD
ENDBRANCH  25  28
BRANCH  26  30
HETATM   30  O   UNL     1      -3.801  -2.120 -33.245  1.00  0.00    -0.349 OA
BRANCH  30  31
HETATM   31  C   UNL     1      -3.549  -1.912 -31.856  1.00  0.00     0.171 C 
HETATM   32  C   UNL     1      -2.443  -0.879 -31.739  1.00  0.00     0.034 C 
ENDBRANCH  30  31
ENDBRANCH  26  30
ENDBRANCH  21  22
ENDBRANCH   1  21
BRANCH   5  33
HETATM   33  S   UNL     1      -5.286   6.242 -32.035  1.00  0.00    -0.104 SA
BRANCH  33  34
HETATM   34  C   UNL     1      -3.535   5.926 -32.198  1.00  0.00     0.093 A 
HETATM   35  N   UNL     1      -2.915   5.297 -31.171  1.00  0.00    -0.254 NA
HETATM   36  C   UNL     1      -1.588   5.063 -31.310  1.00  0.00     0.118 A 
HETATM   37  C   UNL     1      -0.847   5.448 -32.414  1.00  0.00     0.019 A 
HETATM   38  C   UNL     1      -1.503   6.109 -33.444  1.00  0.00     0.004 A 
HETATM   39  C   UNL     1      -2.870   6.352 -33.340  1.00  0.00     0.039 A 
ENDBRANCH  33  34
ENDBRANCH   5  33
TORSDOF 9
ENDMDL
MODEL 7
REMARK VINA RESULT:      -8.3      2.989      8.394
REMARK  9 active torsions:
REMARK  status: ('A' for Active; 'I' for Inactive)
REMARK    1  A    between atoms: C_2  and  O_3 
REMARK    2  A    between atoms: O_3  and  C_4 
REMARK    3  A    between atoms: C_5  and  O_6 
REMARK    4  A    between atoms: C_9  and  C_10 
REMARK    5  A    between atoms: C_10  and  N_11 
REMARK    6  A    between atoms: C_13  and  C_14 
REMARK       I    between atoms: C_14  and  N_15 
REMARK    7  A    between atoms: N_15  and  C_16 
REMARK    8  A    between atoms: C_28  and  S_29 
REMARK    9  A    between atoms: S_29  and  C_30 
ROOT
HETATM    1  N   UNL     1      -7.570   4.199 -32.015  1.00  0.00    -0.053 N 
HETATM    2  H   UNL     1      -7.874   4.105 -32.994  1.00  0.00     0.281 HD
HETATM    3  C   UNL     1      -6.104   3.742 -31.996  1.00  0.00     0.281 C 
HETATM    4  C   UNL     1      -5.522   4.462 -30.795  1.00  0.00     0.060 C 
HETATM    5  C   UNL     1      -6.266   5.804 -30.736  1.00  0.00     0.082 C 
HETATM    6  C   UNL     1      -7.491   5.665 -31.659  1.00  0.00     0.252 C 
ENDROOT
BRANCH   3   7
HETATM    7  C   UNL     1      -5.900   2.225 -32.131  1.00  0.00     0.253 C 
HETATM    8  N   UNL     1      -5.806   1.741 -33.421  1.00  0.00    -0.325 N 
HETATM    9  H   UNL     1      -5.752   2.396 -34.193  1.00  0.00     0.169 HD
HETATM   10  O   UNL     1      -5.904   1.543 -31.108  1.00  0.00    -0.271 OA
BRANCH   8  11
HETATM   11  C   UNL     1      -5.808   0.377 -33.809  1.00  0.00     0.037 A 
HETATM   12  C   UNL     1      -4.805  -0.534 -33.457  1.00  0.00     0.062 A 
HETATM   13  C   UNL     1      -4.901  -1.893 -33.835  1.00  0.00     0.077 A 
HETATM   14  C   UNL     1      -6.004  -2.309 -34.578  1.00  0.00     0.035 A 
HETATM   15  N   UNL     1      -3.989  -2.884 -33.520  1.00  0.00    -0.245 NA
HETATM   16  S   UNL     1      -5.860  -3.996 -34.891  1.00  0.00    -0.073 SA
HETATM   17  C   UNL     1      -7.016  -1.415 -34.957  1.00  0.00     0.023 A 
HETATM   18  C   UNL     1      -4.390  -4.038 -34.006  1.00  0.00     0.072 A 
HETATM   19  C   UNL     1      -3.647  -5.316 -33.837  1.00  0.00     0.079 C 
HETATM   20  C   UNL     1      -6.902  -0.076 -34.554  1.00  0.00     0.031 A 
ENDBRANCH   8  11
ENDBRANCH   3   7
BRANCH   1  21
HETATM   21  C   UNL     1      -8.619   3.413 -31.244  1.00  0.00     0.274 C 
BRANCH  21  22
HETATM   22  C   UNL     1      -9.687   2.714 -32.045  1.00  0.00    -0.030 A 
HETATM   23  C   UNL     1      -9.476   1.399 -32.500  1.00  0.00     0.012 A 
HETATM   24  C   UNL     1     -10.447   0.743 -33.252  1.00  0.00     0.040 A 
HETATM   25  C   UNL     1     -11.630   1.400 -33.552  1.00  0.00     0.099 A 
HETATM   26  C   UNL     1     -11.874   2.703 -33.114  1.00  0.00     0.102 A 
HETATM   27  C   UNL     1     -10.910   3.349 -32.336  1.00  0.00     0.048 A 
BRANCH  25  28
HETATM   28  O   UNL     1     -12.561   0.730 -34.297  1.00  0.00    -0.358 OA
HETATM   29  H   UNL     1     -12.054   0.170 -34.917  1.00  0.00     0.218 HD
ENDBRANCH  25  28
BRANCH  26  30
HETATM   30  O   UNL     1     -13.080   3.224 -33.498  1.00  0.00    -0.349 OA
BRANCH  30  31
HETATM   31  C   UNL     1     -13.922   3.740 -32.468  1.00  0.00     0.171 C 
HETATM   32  C   UNL     1     -14.818   2.610 -31.996  1.00  0.00     0.034 C 
ENDBRANCH  30  31
ENDBRANCH  26  30
ENDBRANCH  21  22
ENDBRANCH   1  21
BRANCH   5  33
HETATM   33  S   UNL     1      -5.160   7.153 -31.295  1.00  0.00    -0.104 SA
BRANCH  33  34
HETATM   34  C   UNL     1      -4.052   6.240 -32.360  1.00  0.00     0.093 A 
HETATM   35  N   UNL     1      -4.435   6.051 -33.644  1.00  0.00    -0.254 NA
HETATM   36  C   UNL     1      -3.584   5.359 -34.439  1.00  0.00     0.118 A 
HETATM   37  C   UNL     1      -2.382   4.826 -34.006  1.00  0.00     0.019 A 
HETATM   38  C   UNL     1      -2.023   5.017 -32.678  1.00  0.00     0.004 A 
HETATM   39  C   UNL     1      -2.867   5.738 -31.838  1.00  0.00     0.039 A 
ENDBRANCH  33  34
ENDBRANCH   5  33
TORSDOF 9
ENDMDL
MODEL 8
REMARK VINA RESULT:      -8.2      4.668      7.315
REMARK  9 active torsions:
REMARK  status: ('A' for Active; 'I' for Inactive)
REMARK    1  A    between atoms: C_2  and  O_3 
REMARK    2  A    between atoms: O_3  and  C_4 
REMARK    3  A    between atoms: C_5  and  O_6 
REMARK    4  A    between atoms: C_9  and  C_10 
REMARK    5  A    between atoms: C_10  and  N_11 
REMARK    6  A    between atoms: C_13  and  C_14 
REMARK       I    between atoms: C_14  and  N_15 
REMARK    7  A    between atoms: N_15  and  C_16 
REMARK    8  A    between atoms: C_28  and  S_29 
REMARK    9  A    between atoms: S_29  and  C_30 
ROOT
HETATM    1  N   UNL     1      -4.850   2.497 -32.798  1.00  0.00    -0.053 N 
HETATM    2  H   UNL     1      -5.130   3.309 -33.363  1.00  0.00     0.281 HD
HETATM    3  C   UNL     1      -5.902   2.391 -31.682  1.00  0.00     0.281 C 
HETATM    4  C   UNL     1      -5.867   0.926 -31.296  1.00  0.00     0.060 C 
HETATM    5  C   UNL     1      -5.555   0.177 -32.601  1.00  0.00     0.082 C 
HETATM    6  C   UNL     1      -5.059   1.236 -33.604  1.00  0.00     0.252 C 
ENDROOT
BRANCH   3   7
HETATM    7  C   UNL     1      -5.783   3.459 -30.583  1.00  0.00     0.253 C 
HETATM    8  N   UNL     1      -5.915   4.770 -30.999  1.00  0.00    -0.325 N 
HETATM    9  H   UNL     1      -6.198   4.961 -31.953  1.00  0.00     0.169 HD
HETATM   10  O   UNL     1      -5.515   3.092 -29.441  1.00  0.00    -0.271 OA
BRANCH   8  11
HETATM   11  C   UNL     1      -5.660   5.928 -30.220  1.00  0.00     0.037 A 
HETATM   12  C   UNL     1      -4.401   6.530 -30.110  1.00  0.00     0.062 A 
HETATM   13  C   UNL     1      -4.233   7.714 -29.358  1.00  0.00     0.077 A 
HETATM   14  C   UNL     1      -5.337   8.266 -28.713  1.00  0.00     0.035 A 
HETATM   15  N   UNL     1      -3.047   8.410 -29.204  1.00  0.00    -0.245 NA
HETATM   16  S   UNL     1      -4.844   9.691 -27.883  1.00  0.00    -0.073 SA
HETATM   17  C   UNL     1      -6.607   7.676 -28.795  1.00  0.00     0.023 A 
HETATM   18  C   UNL     1      -3.242   9.477 -28.462  1.00  0.00     0.072 A 
HETATM   19  C   UNL     1      -2.176  10.454 -28.110  1.00  0.00     0.079 C 
HETATM   20  C   UNL     1      -6.748   6.510 -29.561  1.00  0.00     0.031 A 
ENDBRANCH   8  11
ENDBRANCH   3   7
BRANCH   1  21
HETATM   21  C   UNL     1      -3.401   2.795 -32.447  1.00  0.00     0.274 C 
BRANCH  21  22
HETATM   22  C   UNL     1      -2.861   4.148 -32.829  1.00  0.00    -0.030 A 
HETATM   23  C   UNL     1      -3.406   4.836 -33.929  1.00  0.00     0.012 A 
HETATM   24  C   UNL     1      -2.910   6.082 -34.304  1.00  0.00     0.040 A 
HETATM   25  C   UNL     1      -1.870   6.644 -33.580  1.00  0.00     0.099 A 
HETATM   26  C   UNL     1      -1.308   5.991 -32.481  1.00  0.00     0.102 A 
HETATM   27  C   UNL     1      -1.825   4.753 -32.090  1.00  0.00     0.048 A 
BRANCH  25  28
HETATM   28  O   UNL     1      -1.402   7.866 -33.977  1.00  0.00    -0.358 OA
HETATM   29  H   UNL     1      -0.757   7.687 -34.689  1.00  0.00     0.218 HD
ENDBRANCH  25  28
BRANCH  26  30
HETATM   30  O   UNL     1      -0.282   6.662 -31.875  1.00  0.00    -0.349 OA
BRANCH  30  31
HETATM   31  C   UNL     1       0.422   5.976 -30.840  1.00  0.00     0.171 C 
HETATM   32  C   UNL     1       0.363   6.839 -29.593  1.00  0.00     0.034 C 
ENDBRANCH  30  31
ENDBRANCH  26  30
ENDBRANCH  21  22
ENDBRANCH   1  21
BRANCH   5  33
HETATM   33  S   UNL     1      -7.064  -0.663 -33.210  1.00  0.00    -0.104 SA
BRANCH  33  34
HETATM   34  C   UNL     1      -6.352  -2.161 -33.876  1.00  0.00     0.093 A 
HETATM   35  N   UNL     1      -5.005  -2.287 -33.829  1.00  0.00    -0.254 NA
HETATM   36  C   UNL     1      -4.480  -3.428 -34.335  1.00  0.00     0.118 A 
HETATM   37  C   UNL     1      -5.235  -4.437 -34.909  1.00  0.00     0.019 A 
HETATM   38  C   UNL     1      -6.612  -4.273 -34.963  1.00  0.00     0.004 A 
HETATM   39  C   UNL     1      -7.186  -3.119 -34.437  1.00  0.00     0.039 A 
ENDBRANCH  33  34
ENDBRANCH   5  33
TORSDOF 9
ENDMDL
MODEL 9
REMARK VINA RESULT:      -8.0      2.058      3.140
REMARK  9 active torsions:
REMARK  status: ('A' for Active; 'I' for Inactive)
REMARK    1  A    between atoms: C_2  and  O_3 
REMARK    2  A    between atoms: O_3  and  C_4 
REMARK    3  A    between atoms: C_5  and  O_6 
REMARK    4  A    between atoms: C_9  and  C_10 
REMARK    5  A    between atoms: C_10  and  N_11 
REMARK    6  A    between atoms: C_13  and  C_14 
REMARK       I    between atoms: C_14  and  N_15 
REMARK    7  A    between atoms: N_15  and  C_16 
REMARK    8  A    between atoms: C_28  and  S_29 
REMARK    9  A    between atoms: S_29  and  C_30 
ROOT
HETATM    1  N   UNL     1      -7.425   4.181 -33.542  1.00  0.00    -0.053 N 
HETATM    2  H   UNL     1      -7.202   5.136 -33.853  1.00  0.00     0.281 HD
HETATM    3  C   UNL     1      -7.428   4.241 -32.006  1.00  0.00     0.281 C 
HETATM    4  C   UNL     1      -8.340   3.098 -31.607  1.00  0.00     0.060 C 
HETATM    5  C   UNL     1      -9.400   3.028 -32.716  1.00  0.00     0.082 C 
HETATM    6  C   UNL     1      -8.863   3.869 -33.888  1.00  0.00     0.252 C 
ENDROOT
BRANCH   3   7
HETATM    7  C   UNL     1      -6.036   4.348 -31.364  1.00  0.00     0.253 C 
HETATM    8  N   UNL     1      -5.217   5.343 -31.862  1.00  0.00    -0.325 N 
HETATM    9  H   UNL     1      -5.597   6.016 -32.519  1.00  0.00     0.169 HD
HETATM   10  O   UNL     1      -5.720   3.517 -30.516  1.00  0.00    -0.271 OA
BRANCH   8  11
HETATM   11  C   UNL     1      -3.840   5.521 -31.573  1.00  0.00     0.037 A 
HETATM   12  C   UNL     1      -3.356   6.417 -30.611  1.00  0.00     0.062 A 
HETATM   13  C   UNL     1      -1.971   6.501 -30.339  1.00  0.00     0.077 A 
HETATM   14  C   UNL     1      -1.093   5.690 -31.054  1.00  0.00     0.035 A 
HETATM   15  N   UNL     1      -1.385   7.324 -29.395  1.00  0.00    -0.245 NA
HETATM   16  S   UNL     1       0.514   5.999 -30.518  1.00  0.00    -0.073 SA
HETATM   17  C   UNL     1      -1.549   4.795 -32.032  1.00  0.00     0.023 A 
HETATM   18  C   UNL     1      -0.083   7.141 -29.383  1.00  0.00     0.072 A 
HETATM   19  C   UNL     1       0.851   7.860 -28.474  1.00  0.00     0.079 C 
HETATM   20  C   UNL     1      -2.930   4.720 -32.270  1.00  0.00     0.031 A 
ENDBRANCH   8  11
ENDBRANCH   3   7
BRANCH   1  21
HETATM   21  C   UNL     1      -6.396   3.326 -34.265  1.00  0.00     0.274 C 
BRANCH  21  22
HETATM   22  C   UNL     1      -6.546   1.831 -34.164  1.00  0.00    -0.030 A 
HETATM   23  C   UNL     1      -7.398   1.149 -35.054  1.00  0.00     0.012 A 
HETATM   24  C   UNL     1      -7.558  -0.232 -34.966  1.00  0.00     0.040 A 
HETATM   25  C   UNL     1      -6.868  -0.933 -33.990  1.00  0.00     0.099 A 
HETATM   26  C   UNL     1      -6.012  -0.289 -33.094  1.00  0.00     0.102 A 
HETATM   27  C   UNL     1      -5.832   1.092 -33.201  1.00  0.00     0.048 A 
BRANCH  25  28
HETATM   28  O   UNL     1      -7.050  -2.287 -33.927  1.00  0.00    -0.358 OA
HETATM   29  H   UNL     1      -7.612  -2.517 -34.694  1.00  0.00     0.218 HD
ENDBRANCH  25  28
BRANCH  26  30
HETATM   30  O   UNL     1      -5.411  -1.111 -32.180  1.00  0.00    -0.349 OA
BRANCH  30  31
HETATM   31  C   UNL     1      -4.005  -1.315 -32.316  1.00  0.00     0.171 C 
HETATM   32  C   UNL     1      -3.312  -0.451 -31.278  1.00  0.00     0.034 C 
ENDBRANCH  30  31
ENDBRANCH  26  30
ENDBRANCH  21  22
ENDBRANCH   1  21
BRANCH   5  33
HETATM   33  S   UNL     1     -10.992   3.689 -32.096  1.00  0.00    -0.104 SA
BRANCH  33  34
HETATM   34  C   UNL     1     -12.138   2.583 -32.906  1.00  0.00     0.093 A 
HETATM   35  N   UNL     1     -13.460   2.795 -32.704  1.00  0.00    -0.254 NA
HETATM   36  C   UNL     1     -14.316   1.950 -33.326  1.00  0.00     0.118 A 
HETATM   37  C   UNL     1     -13.914   0.889 -34.120  1.00  0.00     0.019 A 
HETATM   38  C   UNL     1     -12.552   0.682 -34.294  1.00  0.00     0.004 A 
HETATM   39  C   UNL     1     -11.645   1.542 -33.682  1.00  0.00     0.039 A 
ENDBRANCH  33  34
ENDBRANCH   5  33
TORSDOF 9
ENDMDL
MODEL 10
REMARK VINA RESULT:      -7.9      4.365      8.225
REMARK  9 active torsions:
REMARK  status: ('A' for Active; 'I' for Inactive)
REMARK    1  A    between atoms: C_2  and  O_3 
REMARK    2  A    between atoms: O_3  and  C_4 
REMARK    3  A    between atoms: C_5  and  O_6 
REMARK    4  A    between atoms: C_9  and  C_10 
REMARK    5  A    between atoms: C_10  and  N_11 
REMARK    6  A    between atoms: C_13  and  C_14 
REMARK       I    between atoms: C_14  and  N_15 
REMARK    7  A    between atoms: N_15  and  C_16 
REMARK    8  A    between atoms: C_28  and  S_29 
REMARK    9  A    between atoms: S_29  and  C_30 
ROOT
HETATM    1  N   UNL     1      -5.665   4.544 -30.976  1.00  0.00    -0.053 N 
HETATM    2  H   UNL     1      -4.667   4.483 -30.735  1.00  0.00     0.281 HD
HETATM    3  C   UNL     1      -6.355   3.454 -30.140  1.00  0.00     0.281 C 
HETATM    4  C   UNL     1      -7.778   3.958 -30.003  1.00  0.00     0.060 C 
HETATM    5  C   UNL     1      -7.657   5.488 -29.948  1.00  0.00     0.082 C 
HETATM    6  C   UNL     1      -6.232   5.830 -30.421  1.00  0.00     0.252 C 
ENDROOT
BRANCH   3   7
HETATM    7  C   UNL     1      -6.111   2.018 -30.628  1.00  0.00     0.253 C 
HETATM    8  N   UNL     1      -5.775   1.883 -31.961  1.00  0.00    -0.325 N 
HETATM    9  H   UNL     1      -5.589   2.712 -32.513  1.00  0.00     0.169 HD
HETATM   10  O   UNL     1      -6.293   1.095 -29.837  1.00  0.00    -0.271 OA
BRANCH   8  11
HETATM   11  C   UNL     1      -5.689   0.666 -32.686  1.00  0.00     0.037 A 
HETATM   12  C   UNL     1      -4.720  -0.316 -32.446  1.00  0.00     0.062 A 
HETATM   13  C   UNL     1      -4.728  -1.528 -33.173  1.00  0.00     0.077 A 
HETATM   14  C   UNL     1      -5.707  -1.725 -34.144  1.00  0.00     0.035 A 
HETATM   15  N   UNL     1      -3.842  -2.576 -33.002  1.00  0.00    -0.245 NA
HETATM   16  S   UNL     1      -5.478  -3.273 -34.861  1.00  0.00    -0.073 SA
HETATM   17  C   UNL     1      -6.681  -0.753 -34.415  1.00  0.00     0.023 A 
HETATM   18  C   UNL     1      -4.142  -3.559 -33.822  1.00  0.00     0.072 A 
HETATM   19  C   UNL     1      -3.396  -4.845 -33.888  1.00  0.00     0.079 C 
HETATM   20  C   UNL     1      -6.658   0.434 -33.667  1.00  0.00     0.031 A 
ENDBRANCH   8  11
ENDBRANCH   3   7
BRANCH   1  21
HETATM   21  C   UNL     1      -5.668   4.449 -32.494  1.00  0.00     0.274 C 
BRANCH  21  22
HETATM   22  C   UNL     1      -4.368   4.721 -33.205  1.00  0.00    -0.030 A 
HETATM   23  C   UNL     1      -4.373   5.059 -34.572  1.00  0.00     0.012 A 
HETATM   24  C   UNL     1      -3.180   5.301 -35.248  1.00  0.00     0.040 A 
HETATM   25  C   UNL     1      -1.980   5.206 -34.561  1.00  0.00     0.099 A 
HETATM   26  C   UNL     1      -1.939   4.877 -33.204  1.00  0.00     0.102 A 
HETATM   27  C   UNL     1      -3.138   4.662 -32.521  1.00  0.00     0.048 A 
BRANCH  25  28
HETATM   28  O   UNL     1      -0.826   5.445 -35.255  1.00  0.00    -0.358 OA
HETATM   29  H   UNL     1      -0.198   5.819 -34.606  1.00  0.00     0.218 HD
ENDBRANCH  25  28
BRANCH  26  30
HETATM   30  O   UNL     1      -0.682   4.809 -32.666  1.00  0.00    -0.349 OA
BRANCH  30  31
HETATM   31  C   UNL     1      -0.511   5.332 -31.349  1.00  0.00     0.171 C 
HETATM   32  C   UNL     1       0.042   6.739 -31.481  1.00  0.00     0.034 C 
ENDBRANCH  30  31
ENDBRANCH  26  30
ENDBRANCH  21  22
ENDBRANCH   1  21
BRANCH   5  33
HETATM   33  S   UNL     1      -7.950   6.072 -28.237  1.00  0.00    -0.104 SA
BRANCH  33  34
HETATM   34  C   UNL     1      -6.384   6.862 -27.894  1.00  0.00     0.093 A 
HETATM   35  N   UNL     1      -6.246   8.159 -28.257  1.00  0.00    -0.254 NA
HETATM   36  C   UNL     1      -5.054   8.745 -27.989  1.00  0.00     0.118 A 
HETATM   37  C   UNL     1      -3.987   8.090 -27.400  1.00  0.00     0.019 A 
HETATM   38  C   UNL     1      -4.148   6.754 -27.057  1.00  0.00     0.004 A 
HETATM   39  C   UNL     1      -5.366   6.126 -27.304  1.00  0.00     0.039 A 
ENDBRANCH  33  34
ENDBRANCH   5  33
TORSDOF 9
ENDMDL
