MODEL 1
REMARK VINA RESULT:      -9.2      0.000      0.000
REMARK  6 active torsions:
REMARK  status: ('A' for Active; 'I' for Inactive)
REMARK    1  A    between atoms: O_2  and  C_3 
REMARK    2  A    between atoms: C_8  and  C_9 
REMARK    3  A    between atoms: C_9  and  N_10 
REMARK    4  A    between atoms: N_13  and  C_26 
REMARK    5  A    between atoms: N_18  and  C_22 
REMARK    6  A    between atoms: C_29  and  C_32 
ROOT
HETATM    1  N   UNL     1      -5.451   3.573 -30.528  1.00  0.00    -0.318 N 
HETATM    2  C   UNL     1      -5.750   2.214 -30.735  1.00  0.00     0.326 C 
HETATM    3  O   UNL     1      -6.221   1.488 -29.877  1.00  0.00    -0.247 OA
HETATM    4  N   UNL     1      -5.406   1.911 -32.071  1.00  0.00    -0.297 N 
HETATM    5  C   UNL     1      -5.046   3.124 -32.770  1.00  0.00     0.165 C 
HETATM    6  C   UNL     1      -4.669   4.118 -31.638  1.00  0.00     0.057 C 
HETATM    7  C   UNL     1      -5.049   5.563 -31.991  1.00  0.00     0.060 C 
HETATM    8  C   UNL     1      -4.148   6.166 -33.060  1.00  0.00     0.238 C 
HETATM    9  N   UNL     1      -2.696   6.051 -32.692  1.00  0.00    -0.063 N 
HETATM   10  H   UNL     1      -2.135   6.378 -33.500  1.00  0.00     0.280 HD
HETATM   11  C   UNL     1      -2.268   4.648 -32.375  1.00  0.00     0.238 C 
HETATM   12  C   UNL     1      -3.159   4.013 -31.315  1.00  0.00     0.060 C 
ENDROOT
BRANCH   4  13
HETATM   13  C   UNL     1      -5.513   0.640 -32.697  1.00  0.00     0.039 A 
HETATM   14  C   UNL     1      -6.743   0.146 -33.145  1.00  0.00     0.030 A 
HETATM   15  C   UNL     1      -6.854  -1.126 -33.726  1.00  0.00     0.014 A 
HETATM   16  C   UNL     1      -5.736  -1.948 -33.875  1.00  0.00    -0.023 A 
HETATM   17  C   UNL     1      -4.499  -1.456 -33.445  1.00  0.00     0.014 A 
HETATM   18  C   UNL     1      -4.390  -0.181 -32.864  1.00  0.00     0.030 A 
BRANCH  16  19
HETATM   19  C   UNL     1      -5.842  -3.274 -34.461  1.00  0.00     0.010 A 
HETATM   20  C   UNL     1      -4.911  -4.338 -34.525  1.00  0.00     0.152 A 
HETATM   21  N   UNL     1      -5.400  -5.420 -35.137  1.00  0.00    -0.187 NA
HETATM   22  N   UNL     1      -6.644  -5.054 -35.480  1.00  0.00    -0.289 N 
HETATM   23  H   UNL     1      -7.225  -5.723 -35.973  1.00  0.00     0.188 HD
HETATM   24  C   UNL     1      -6.960  -3.784 -35.091  1.00  0.00     0.123 A 
ENDBRANCH  16  19
ENDBRANCH   4  13
BRANCH   1  25
HETATM   25  C   UNL     1      -5.632   4.192 -29.220  1.00  0.00     0.167 C 
BRANCH  25  26
HETATM   26  C   UNL     1      -6.879   5.036 -29.121  1.00  0.00    -0.035 A 
HETATM   27  C   UNL     1      -6.934   6.183 -28.320  1.00  0.00     0.051 A 
HETATM   28  C   UNL     1      -8.082   6.971 -28.308  1.00  0.00     0.119 A 
HETATM   29  C   UNL     1      -9.181   6.663 -29.101  1.00  0.00     0.079 A 
HETATM   30  F   UNL     1      -8.125   8.049 -27.515  1.00  0.00    -0.206 F 
HETATM   31  C   UNL     1      -9.131   5.547 -29.930  1.00  0.00     0.071 A 
HETATM   32  C   UNL     1      -7.990   4.734 -29.927  1.00  0.00     0.045 A 
BRANCH  31  33
HETATM   33  O   UNL     1     -10.127   5.136 -30.773  1.00  0.00    -0.356 OA
HETATM   34  C   UNL     1     -10.423   3.741 -30.751  1.00  0.00     0.210 C 
ENDBRANCH  31  33
ENDBRANCH  25  26
ENDBRANCH   1  25
BRANCH   9  35
HETATM   35  C   UNL     1      -2.351   6.991 -31.538  1.00  0.00     0.235 C 
HETATM   36  C   UNL     1      -1.026   7.782 -31.742  1.00  0.00     0.203 C 
HETATM   37  O   UNL     1      -1.772   8.848 -32.392  1.00  0.00    -0.387 OA
HETATM   38  C   UNL     1      -2.965   8.414 -31.682  1.00  0.00     0.203 C 
ENDBRANCH   9  35
TORSDOF 6
ENDMDL
MODEL 2
REMARK VINA RESULT:      -9.2      1.215      1.911
REMARK  6 active torsions:
REMARK  status: ('A' for Active; 'I' for Inactive)
REMARK    1  A    between atoms: O_2  and  C_3 
REMARK    2  A    between atoms: C_8  and  C_9 
REMARK    3  A    between atoms: C_9  and  N_10 
REMARK    4  A    between atoms: N_13  and  C_26 
REMARK    5  A    between atoms: N_18  and  C_22 
REMARK    6  A    between atoms: C_29  and  C_32 
ROOT
HETATM    1  N   UNL     1      -5.426   3.545 -30.604  1.00  0.00    -0.318 N 
HETATM    2  C   UNL     1      -5.691   2.177 -30.798  1.00  0.00     0.326 C 
HETATM    3  O   UNL     1      -6.192   1.459 -29.951  1.00  0.00    -0.247 OA
HETATM    4  N   UNL     1      -5.275   1.855 -32.109  1.00  0.00    -0.297 N 
HETATM    5  C   UNL     1      -4.900   3.061 -32.813  1.00  0.00     0.165 C 
HETATM    6  C   UNL     1      -4.599   4.082 -31.684  1.00  0.00     0.057 C 
HETATM    7  C   UNL     1      -4.984   5.513 -32.084  1.00  0.00     0.060 C 
HETATM    8  C   UNL     1      -4.041   6.113 -33.118  1.00  0.00     0.238 C 
HETATM    9  N   UNL     1      -2.608   6.031 -32.676  1.00  0.00    -0.063 N 
HETATM   10  H   UNL     1      -2.012   6.353 -33.461  1.00  0.00     0.280 HD
HETATM   11  C   UNL     1      -2.172   4.642 -32.310  1.00  0.00     0.238 C 
HETATM   12  C   UNL     1      -3.105   4.011 -31.284  1.00  0.00     0.060 C 
ENDROOT
BRANCH   4  13
HETATM   13  C   UNL     1      -5.328   0.570 -32.714  1.00  0.00     0.039 A 
HETATM   14  C   UNL     1      -6.528   0.041 -33.204  1.00  0.00     0.030 A 
HETATM   15  C   UNL     1      -6.587  -1.244 -33.764  1.00  0.00     0.014 A 
HETATM   16  C   UNL     1      -5.446  -2.043 -33.850  1.00  0.00    -0.023 A 
HETATM   17  C   UNL     1      -4.239  -1.516 -33.379  1.00  0.00     0.014 A 
HETATM   18  C   UNL     1      -4.182  -0.229 -32.819  1.00  0.00     0.030 A 
BRANCH  16  19
HETATM   19  C   UNL     1      -5.499  -3.382 -34.414  1.00  0.00     0.010 A 
HETATM   20  C   UNL     1      -6.476  -4.012 -35.221  1.00  0.00     0.152 A 
HETATM   21  N   UNL     1      -6.144  -5.261 -35.559  1.00  0.00    -0.187 NA
HETATM   22  N   UNL     1      -4.958  -5.445 -34.961  1.00  0.00    -0.289 N 
HETATM   23  H   UNL     1      -4.497  -6.342 -35.070  1.00  0.00     0.188 HD
HETATM   24  C   UNL     1      -4.524  -4.349 -34.272  1.00  0.00     0.123 A 
ENDBRANCH  16  19
ENDBRANCH   4  13
BRANCH   1  25
HETATM   25  C   UNL     1      -5.684   4.186 -29.320  1.00  0.00     0.167 C 
BRANCH  25  26
HETATM   26  C   UNL     1      -6.929   5.037 -29.310  1.00  0.00    -0.035 A 
HETATM   27  C   UNL     1      -8.058   4.703 -30.067  1.00  0.00     0.051 A 
HETATM   28  C   UNL     1      -9.211   5.479 -29.979  1.00  0.00     0.119 A 
HETATM   29  C   UNL     1      -9.284   6.575 -29.128  1.00  0.00     0.079 A 
HETATM   30  F   UNL     1     -10.272   5.159 -30.730  1.00  0.00    -0.206 F 
HETATM   31  C   UNL     1      -8.183   6.901 -28.342  1.00  0.00     0.071 A 
HETATM   32  C   UNL     1      -7.010   6.142 -28.446  1.00  0.00     0.045 A 
BRANCH  31  33
HETATM   33  O   UNL     1      -8.120   7.938 -27.452  1.00  0.00    -0.356 OA
HETATM   34  C   UNL     1      -7.022   8.833 -27.618  1.00  0.00     0.210 C 
ENDBRANCH  31  33
ENDBRANCH  25  26
ENDBRANCH   1  25
BRANCH   9  35
HETATM   35  C   UNL     1      -2.338   6.999 -31.525  1.00  0.00     0.235 C 
HETATM   36  C   UNL     1      -1.040   7.839 -31.698  1.00  0.00     0.203 C 
HETATM   37  O   UNL     1      -1.806   8.866 -32.387  1.00  0.00    -0.387 OA
HETATM   38  C   UNL     1      -3.003   8.393 -31.708  1.00  0.00     0.203 C 
ENDBRANCH   9  35
TORSDOF 6
ENDMDL
MODEL 3
REMARK VINA RESULT:      -9.2      2.820      5.357
REMARK  6 active torsions:
REMARK  status: ('A' for Active; 'I' for Inactive)
REMARK    1  A    between atoms: O_2  and  C_3 
REMARK    2  A    between atoms: C_8  and  C_9 
REMARK    3  A    between atoms: C_9  and  N_10 
REMARK    4  A    between atoms: N_13  and  C_26 
REMARK    5  A    between atoms: N_18  and  C_22 
REMARK    6  A    between atoms: C_29  and  C_32 
ROOT
HETATM    1  N   UNL     1      -4.038   4.599 -31.776  1.00  0.00    -0.318 N 
HETATM    2  C   UNL     1      -3.836   3.433 -32.538  1.00  0.00     0.326 C 
HETATM    3  O   UNL     1      -2.938   3.305 -33.352  1.00  0.00    -0.247 OA
HETATM    4  N   UNL     1      -4.840   2.513 -32.163  1.00  0.00    -0.297 N 
HETATM    5  C   UNL     1      -5.581   3.030 -31.035  1.00  0.00     0.165 C 
HETATM    6  C   UNL     1      -5.324   4.560 -31.081  1.00  0.00     0.057 C 
HETATM    7  C   UNL     1      -5.269   5.177 -29.676  1.00  0.00     0.060 C 
HETATM    8  C   UNL     1      -6.635   5.249 -29.008  1.00  0.00     0.238 C 
HETATM    9  N   UNL     1      -7.642   5.946 -29.878  1.00  0.00    -0.063 N 
HETATM   10  H   UNL     1      -8.569   5.868 -29.419  1.00  0.00     0.280 HD
HETATM   11  C   UNL     1      -7.760   5.354 -31.251  1.00  0.00     0.238 C 
HETATM   12  C   UNL     1      -6.405   5.258 -31.941  1.00  0.00     0.060 C 
ENDROOT
BRANCH   4  13
HETATM   13  C   UNL     1      -5.032   1.214 -32.707  1.00  0.00     0.039 A 
HETATM   14  C   UNL     1      -5.986   0.970 -33.701  1.00  0.00     0.030 A 
HETATM   15  C   UNL     1      -6.203  -0.320 -34.207  1.00  0.00     0.014 A 
HETATM   16  C   UNL     1      -5.473  -1.411 -33.733  1.00  0.00    -0.023 A 
HETATM   17  C   UNL     1      -4.505  -1.174 -32.752  1.00  0.00     0.014 A 
HETATM   18  C   UNL     1      -4.289   0.119 -32.245  1.00  0.00     0.030 A 
BRANCH  16  19
HETATM   19  C   UNL     1      -5.700  -2.754 -34.240  1.00  0.00     0.010 A 
HETATM   20  C   UNL     1      -4.810  -3.837 -34.434  1.00  0.00     0.152 A 
HETATM   21  N   UNL     1      -5.416  -4.930 -34.905  1.00  0.00    -0.187 NA
HETATM   22  N   UNL     1      -6.697  -4.552 -35.027  1.00  0.00    -0.289 N 
HETATM   23  H   UNL     1      -7.367  -5.228 -35.380  1.00  0.00     0.188 HD
HETATM   24  C   UNL     1      -6.921  -3.264 -34.634  1.00  0.00     0.123 A 
ENDBRANCH  16  19
ENDBRANCH   4  13
BRANCH   1  25
HETATM   25  C   UNL     1      -3.201   5.777 -31.969  1.00  0.00     0.167 C 
BRANCH  25  26
HETATM   26  C   UNL     1      -1.977   5.797 -31.087  1.00  0.00    -0.035 A 
HETATM   27  C   UNL     1      -0.780   5.178 -31.469  1.00  0.00     0.051 A 
HETATM   28  C   UNL     1       0.346   5.277 -30.657  1.00  0.00     0.119 A 
HETATM   29  C   UNL     1       0.326   6.007 -29.474  1.00  0.00     0.079 A 
HETATM   30  F   UNL     1       1.474   4.656 -31.026  1.00  0.00    -0.206 F 
HETATM   31  C   UNL     1      -0.844   6.658 -29.097  1.00  0.00     0.071 A 
HETATM   32  C   UNL     1      -1.990   6.540 -29.895  1.00  0.00     0.045 A 
BRANCH  31  33
HETATM   33  O   UNL     1      -1.003   7.421 -27.973  1.00  0.00    -0.356 OA
HETATM   34  C   UNL     1      -1.041   6.709 -26.738  1.00  0.00     0.210 C 
ENDBRANCH  31  33
ENDBRANCH  25  26
ENDBRANCH   1  25
BRANCH   9  35
HETATM   35  C   UNL     1      -7.344   7.442 -29.962  1.00  0.00     0.235 C 
HETATM   36  C   UNL     1      -8.616   8.336 -30.034  1.00  0.00     0.203 C 
HETATM   37  O   UNL     1      -8.631   8.418 -28.582  1.00  0.00    -0.387 OA
HETATM   38  C   UNL     1      -7.204   8.135 -28.575  1.00  0.00     0.203 C 
ENDBRANCH   9  35
TORSDOF 6
ENDMDL
MODEL 4
REMARK VINA RESULT:      -8.7      4.633      8.269
REMARK  6 active torsions:
REMARK  status: ('A' for Active; 'I' for Inactive)
REMARK    1  A    between atoms: O_2  and  C_3 
REMARK    2  A    between atoms: C_8  and  C_9 
REMARK    3  A    between atoms: C_9  and  N_10 
REMARK    4  A    between atoms: N_13  and  C_26 
REMARK    5  A    between atoms: N_18  and  C_22 
REMARK    6  A    between atoms: C_29  and  C_32 
ROOT
HETATM    1  N   UNL     1      -7.444   1.629 -33.846  1.00  0.00    -0.318 N 
HETATM    2  C   UNL     1      -8.835   1.566 -34.049  1.00  0.00     0.326 C 
HETATM    3  O   UNL     1      -9.356   0.960 -34.968  1.00  0.00    -0.247 OA
HETATM    4  N   UNL     1      -9.440   2.312 -33.013  1.00  0.00    -0.297 N 
HETATM    5  C   UNL     1      -8.441   2.710 -32.048  1.00  0.00     0.165 C 
HETATM    6  C   UNL     1      -7.102   2.625 -32.830  1.00  0.00     0.057 C 
HETATM    7  C   UNL     1      -5.936   2.193 -31.929  1.00  0.00     0.060 C 
HETATM    8  C   UNL     1      -5.503   3.283 -30.959  1.00  0.00     0.238 C 
HETATM    9  N   UNL     1      -5.203   4.572 -31.671  1.00  0.00    -0.063 N 
HETATM   10  H   UNL     1      -5.020   5.297 -30.953  1.00  0.00     0.280 HD
HETATM   11  C   UNL     1      -6.330   5.055 -32.535  1.00  0.00     0.238 C 
HETATM   12  C   UNL     1      -6.793   3.981 -33.510  1.00  0.00     0.060 C 
ENDROOT
BRANCH   4  13
HETATM   13  C   UNL     1     -10.833   2.542 -32.849  1.00  0.00     0.039 A 
HETATM   14  C   UNL     1     -11.314   3.624 -32.104  1.00  0.00     0.030 A 
HETATM   15  C   UNL     1     -12.688   3.825 -31.908  1.00  0.00     0.014 A 
HETATM   16  C   UNL     1     -13.628   2.948 -32.451  1.00  0.00    -0.023 A 
HETATM   17  C   UNL     1     -13.158   1.874 -33.212  1.00  0.00     0.014 A 
HETATM   18  C   UNL     1     -11.780   1.673 -33.407  1.00  0.00     0.030 A 
BRANCH  16  19
HETATM   19  C   UNL     1     -15.054   3.139 -32.242  1.00  0.00     0.010 A 
HETATM   20  C   UNL     1     -15.801   4.302 -31.940  1.00  0.00     0.152 A 
HETATM   21  N   UNL     1     -17.113   4.068 -31.846  1.00  0.00    -0.187 NA
HETATM   22  N   UNL     1     -17.215   2.750 -32.074  1.00  0.00    -0.289 N 
HETATM   23  H   UNL     1     -18.136   2.326 -32.049  1.00  0.00     0.188 HD
HETATM   24  C   UNL     1     -16.014   2.150 -32.325  1.00  0.00     0.123 A 
ENDBRANCH  16  19
ENDBRANCH   4  13
BRANCH   1  25
HETATM   25  C   UNL     1      -6.518   1.008 -34.785  1.00  0.00     0.167 C 
BRANCH  25  26
HETATM   26  C   UNL     1      -6.158  -0.412 -34.427  1.00  0.00    -0.035 A 
HETATM   27  C   UNL     1      -6.871  -1.506 -34.933  1.00  0.00     0.051 A 
HETATM   28  C   UNL     1      -6.466  -2.803 -34.632  1.00  0.00     0.119 A 
HETATM   29  C   UNL     1      -5.340  -3.049 -33.855  1.00  0.00     0.079 A 
HETATM   30  F   UNL     1      -7.176  -3.835 -35.103  1.00  0.00    -0.206 F 
HETATM   31  C   UNL     1      -4.599  -1.975 -33.372  1.00  0.00     0.071 A 
HETATM   32  C   UNL     1      -5.017  -0.666 -33.648  1.00  0.00     0.045 A 
BRANCH  31  33
HETATM   33  O   UNL     1      -3.465  -2.067 -32.613  1.00  0.00    -0.356 OA
HETATM   34  C   UNL     1      -3.198  -0.959 -31.756  1.00  0.00     0.210 C 
ENDBRANCH  31  33
ENDBRANCH  25  26
ENDBRANCH   1  25
BRANCH   9  35
HETATM   35  C   UNL     1      -3.914   4.457 -32.483  1.00  0.00     0.235 C 
HETATM   36  C   UNL     1      -3.197   5.816 -32.727  1.00  0.00     0.203 C 
HETATM   37  O   UNL     1      -2.443   5.629 -31.497  1.00  0.00    -0.387 OA
HETATM   38  C   UNL     1      -2.647   4.194 -31.619  1.00  0.00     0.203 C 
ENDBRANCH   9  35
TORSDOF 6
ENDMDL
MODEL 5
REMARK VINA RESULT:      -8.6      2.014      2.653
REMARK  6 active torsions:
REMARK  status: ('A' for Active; 'I' for Inactive)
REMARK    1  A    between atoms: O_2  and  C_3 
REMARK    2  A    between atoms: C_8  and  C_9 
REMARK    3  A    between atoms: C_9  and  N_10 
REMARK    4  A    between atoms: N_13  and  C_26 
REMARK    5  A    between atoms: N_18  and  C_22 
REMARK    6  A    between atoms: C_29  and  C_32 
ROOT
HETATM    1  N   UNL     1      -7.137   3.907 -31.649  1.00  0.00    -0.318 N 
HETATM    2  C   UNL     1      -7.329   2.533 -31.882  1.00  0.00     0.326 C 
HETATM    3  O   UNL     1      -8.262   1.894 -31.428  1.00  0.00    -0.247 OA
HETATM    4  N   UNL     1      -6.268   2.100 -32.708  1.00  0.00    -0.297 N 
HETATM    5  C   UNL     1      -5.492   3.238 -33.144  1.00  0.00     0.165 C 
HETATM    6  C   UNL     1      -5.816   4.341 -32.101  1.00  0.00     0.057 C 
HETATM    7  C   UNL     1      -5.823   5.743 -32.728  1.00  0.00     0.060 C 
HETATM    8  C   UNL     1      -4.428   6.240 -33.080  1.00  0.00     0.238 C 
HETATM    9  N   UNL     1      -3.499   6.168 -31.901  1.00  0.00    -0.063 N 
HETATM   10  H   UNL     1      -2.547   6.415 -32.230  1.00  0.00     0.280 HD
HETATM   11  C   UNL     1      -3.429   4.805 -31.277  1.00  0.00     0.238 C 
HETATM   12  C   UNL     1      -4.813   4.276 -30.924  1.00  0.00     0.060 C 
ENDROOT
BRANCH   4  13
HETATM   13  C   UNL     1      -6.050   0.772 -33.165  1.00  0.00     0.039 A 
HETATM   14  C   UNL     1      -6.798   0.227 -34.214  1.00  0.00     0.030 A 
HETATM   15  C   UNL     1      -6.609  -1.098 -34.637  1.00  0.00     0.014 A 
HETATM   16  C   UNL     1      -5.666  -1.921 -34.021  1.00  0.00    -0.023 A 
HETATM   17  C   UNL     1      -4.901  -1.379 -32.983  1.00  0.00     0.014 A 
HETATM   18  C   UNL     1      -5.092  -0.053 -32.561  1.00  0.00     0.030 A 
BRANCH  16  19
HETATM   19  C   UNL     1      -5.473  -3.299 -34.441  1.00  0.00     0.010 A 
HETATM   20  C   UNL     1      -6.280  -4.152 -35.231  1.00  0.00     0.152 A 
HETATM   21  N   UNL     1      -5.739  -5.359 -35.413  1.00  0.00    -0.187 NA
HETATM   22  N   UNL     1      -4.586  -5.294 -34.731  1.00  0.00    -0.289 N 
HETATM   23  H   UNL     1      -3.987  -6.113 -34.716  1.00  0.00     0.188 HD
HETATM   24  C   UNL     1      -4.376  -4.082 -34.139  1.00  0.00     0.123 A 
ENDBRANCH  16  19
ENDBRANCH   4  13
BRANCH   1  25
HETATM   25  C   UNL     1      -8.034   4.653 -30.773  1.00  0.00     0.167 C 
BRANCH  25  26
HETATM   26  C   UNL     1      -9.460   4.691 -31.262  1.00  0.00    -0.035 A 
HETATM   27  C   UNL     1     -10.532   4.312 -30.444  1.00  0.00     0.051 A 
HETATM   28  C   UNL     1     -11.839   4.426 -30.911  1.00  0.00     0.119 A 
HETATM   29  C   UNL     1     -12.117   4.939 -32.173  1.00  0.00     0.079 A 
HETATM   30  F   UNL     1     -12.849   4.034 -30.125  1.00  0.00    -0.206 F 
HETATM   31  C   UNL     1     -11.066   5.354 -32.985  1.00  0.00     0.071 A 
HETATM   32  C   UNL     1      -9.747   5.216 -32.533  1.00  0.00     0.045 A 
BRANCH  31  33
HETATM   33  O   UNL     1     -11.191   5.890 -34.237  1.00  0.00    -0.356 OA
HETATM   34  C   UNL     1     -10.050   5.767 -35.083  1.00  0.00     0.210 C 
ENDBRANCH  31  33
ENDBRANCH  25  26
ENDBRANCH   1  25
BRANCH   9  35
HETATM   35  C   UNL     1      -3.865   7.220 -30.856  1.00  0.00     0.235 C 
HETATM   36  C   UNL     1      -2.787   7.413 -29.750  1.00  0.00     0.203 C 
HETATM   37  O   UNL     1      -2.150   8.438 -30.563  1.00  0.00    -0.387 OA
HETATM   38  C   UNL     1      -3.421   8.663 -31.233  1.00  0.00     0.203 C 
ENDBRANCH   9  35
TORSDOF 6
ENDMDL
MODEL 6
REMARK VINA RESULT:      -8.6      2.468      5.814
REMARK  6 active torsions:
REMARK  status: ('A' for Active; 'I' for Inactive)
REMARK    1  A    between atoms: O_2  and  C_3 
REMARK    2  A    between atoms: C_8  and  C_9 
REMARK    3  A    between atoms: C_9  and  N_10 
REMARK    4  A    between atoms: N_13  and  C_26 
REMARK    5  A    between atoms: N_18  and  C_22 
REMARK    6  A    between atoms: C_29  and  C_32 
ROOT
HETATM    1  N   UNL     1      -7.599   4.019 -33.096  1.00  0.00    -0.318 N 
HETATM    2  C   UNL     1      -6.787   3.008 -33.643  1.00  0.00     0.326 C 
HETATM    3  O   UNL     1      -5.877   3.221 -34.424  1.00  0.00    -0.247 OA
HETATM    4  N   UNL     1      -7.238   1.780 -33.110  1.00  0.00    -0.297 N 
HETATM    5  C   UNL     1      -8.230   2.024 -32.088  1.00  0.00     0.165 C 
HETATM    6  C   UNL     1      -8.754   3.452 -32.401  1.00  0.00     0.057 C 
HETATM    7  C   UNL     1      -9.128   4.220 -31.126  1.00  0.00     0.060 C 
HETATM    8  C   UNL     1     -10.405   3.704 -30.477  1.00  0.00     0.238 C 
HETATM    9  N   UNL     1     -11.547   3.665 -31.453  1.00  0.00    -0.063 N 
HETATM   10  H   UNL     1     -12.351   3.207 -30.985  1.00  0.00     0.280 HD
HETATM   11  C   UNL     1     -11.241   2.891 -32.702  1.00  0.00     0.238 C 
HETATM   12  C   UNL     1      -9.961   3.378 -33.367  1.00  0.00     0.060 C 
ENDROOT
BRANCH   4  13
HETATM   13  C   UNL     1      -6.721   0.492 -33.419  1.00  0.00     0.039 A 
HETATM   14  C   UNL     1      -7.366  -0.358 -34.324  1.00  0.00     0.030 A 
HETATM   15  C   UNL     1      -6.877  -1.644 -34.596  1.00  0.00     0.014 A 
HETATM   16  C   UNL     1      -5.727  -2.124 -33.969  1.00  0.00    -0.023 A 
HETATM   17  C   UNL     1      -5.066  -1.275 -33.075  1.00  0.00     0.014 A 
HETATM   18  C   UNL     1      -5.557   0.013 -32.803  1.00  0.00     0.030 A 
BRANCH  16  19
HETATM   19  C   UNL     1      -5.221  -3.461 -34.231  1.00  0.00     0.010 A 
HETATM   20  C   UNL     1      -5.801  -4.557 -34.913  1.00  0.00     0.152 A 
HETATM   21  N   UNL     1      -4.998  -5.623 -34.962  1.00  0.00    -0.187 NA
HETATM   22  N   UNL     1      -3.901  -5.222 -34.302  1.00  0.00    -0.289 N 
HETATM   23  H   UNL     1      -3.133  -5.878 -34.201  1.00  0.00     0.188 HD
HETATM   24  C   UNL     1      -3.980  -3.936 -33.853  1.00  0.00     0.123 A 
ENDBRANCH  16  19
ENDBRANCH   4  13
BRANCH   1  25
HETATM   25  C   UNL     1      -7.434   5.412 -33.493  1.00  0.00     0.167 C 
BRANCH  25  26
HETATM   26  C   UNL     1      -6.360   6.136 -32.721  1.00  0.00    -0.035 A 
HETATM   27  C   UNL     1      -6.649   6.875 -31.567  1.00  0.00     0.051 A 
HETATM   28  C   UNL     1      -5.620   7.473 -30.845  1.00  0.00     0.119 A 
HETATM   29  C   UNL     1      -4.290   7.333 -31.226  1.00  0.00     0.079 A 
HETATM   30  F   UNL     1      -5.918   8.197 -29.760  1.00  0.00    -0.206 F 
HETATM   31  C   UNL     1      -3.981   6.573 -32.350  1.00  0.00     0.071 A 
HETATM   32  C   UNL     1      -5.014   5.991 -33.097  1.00  0.00     0.045 A 
BRANCH  31  33
HETATM   33  O   UNL     1      -2.722   6.337 -32.830  1.00  0.00    -0.356 OA
HETATM   34  C   UNL     1      -2.551   5.122 -33.557  1.00  0.00     0.210 C 
ENDBRANCH  31  33
ENDBRANCH  25  26
ENDBRANCH   1  25
BRANCH   9  35
HETATM   35  C   UNL     1     -12.015   5.077 -31.798  1.00  0.00     0.235 C 
HETATM   36  C   UNL     1     -13.255   5.120 -32.738  1.00  0.00     0.203 C 
HETATM   37  O   UNL     1     -14.127   5.111 -31.574  1.00  0.00    -0.387 OA
HETATM   38  C   UNL     1     -13.038   5.666 -30.784  1.00  0.00     0.203 C 
ENDBRANCH   9  35
TORSDOF 6
ENDMDL
MODEL 7
REMARK VINA RESULT:      -8.5      2.427      5.563
REMARK  6 active torsions:
REMARK  status: ('A' for Active; 'I' for Inactive)
REMARK    1  A    between atoms: O_2  and  C_3 
REMARK    2  A    between atoms: C_8  and  C_9 
REMARK    3  A    between atoms: C_9  and  N_10 
REMARK    4  A    between atoms: N_13  and  C_26 
REMARK    5  A    between atoms: N_18  and  C_22 
REMARK    6  A    between atoms: C_29  and  C_32 
ROOT
HETATM    1  N   UNL     1      -5.433   4.867 -32.108  1.00  0.00    -0.318 N 
HETATM    2  C   UNL     1      -5.177   3.728 -32.894  1.00  0.00     0.326 C 
HETATM    3  O   UNL     1      -4.524   3.750 -33.922  1.00  0.00    -0.247 OA
HETATM    4  N   UNL     1      -5.804   2.634 -32.257  1.00  0.00    -0.297 N 
HETATM    5  C   UNL     1      -6.317   3.046 -30.970  1.00  0.00     0.165 C 
HETATM    6  C   UNL     1      -6.443   4.589 -31.087  1.00  0.00     0.057 C 
HETATM    7  C   UNL     1      -6.161   5.292 -29.752  1.00  0.00     0.060 C 
HETATM    8  C   UNL     1      -7.278   5.102 -28.735  1.00  0.00     0.238 C 
HETATM    9  N   UNL     1      -8.613   5.501 -29.298  1.00  0.00    -0.063 N 
HETATM   10  H   UNL     1      -9.340   5.249 -28.603  1.00  0.00     0.280 HD
HETATM   11  C   UNL     1      -8.951   4.809 -30.586  1.00  0.00     0.238 C 
HETATM   12  C   UNL     1      -7.845   4.972 -31.620  1.00  0.00     0.060 C 
ENDROOT
BRANCH   4  13
HETATM   13  C   UNL     1      -5.828   1.293 -32.725  1.00  0.00     0.039 A 
HETATM   14  C   UNL     1      -4.910   0.341 -32.268  1.00  0.00     0.030 A 
HETATM   15  C   UNL     1      -4.909  -0.972 -32.761  1.00  0.00     0.014 A 
HETATM   16  C   UNL     1      -5.826  -1.376 -33.732  1.00  0.00    -0.023 A 
HETATM   17  C   UNL     1      -6.759  -0.436 -34.183  1.00  0.00     0.014 A 
HETATM   18  C   UNL     1      -6.759   0.879 -33.688  1.00  0.00     0.030 A 
BRANCH  16  19
HETATM   19  C   UNL     1      -5.824  -2.730 -34.262  1.00  0.00     0.010 A 
HETATM   20  C   UNL     1      -6.872  -3.525 -34.784  1.00  0.00     0.152 A 
HETATM   21  N   UNL     1      -6.457  -4.725 -35.197  1.00  0.00    -0.187 NA
HETATM   22  N   UNL     1      -5.142  -4.713 -34.932  1.00  0.00    -0.289 N 
HETATM   23  H   UNL     1      -4.597  -5.539 -35.158  1.00  0.00     0.188 HD
HETATM   24  C   UNL     1      -4.713  -3.540 -34.381  1.00  0.00     0.123 A 
ENDBRANCH  16  19
ENDBRANCH   4  13
BRANCH   1  25
HETATM   25  C   UNL     1      -4.973   6.186 -32.524  1.00  0.00     0.167 C 
BRANCH  25  26
HETATM   26  C   UNL     1      -3.510   6.429 -32.248  1.00  0.00    -0.035 A 
HETATM   27  C   UNL     1      -2.588   6.639 -33.280  1.00  0.00     0.051 A 
HETATM   28  C   UNL     1      -1.259   6.926 -32.981  1.00  0.00     0.119 A 
HETATM   29  C   UNL     1      -0.820   7.041 -31.666  1.00  0.00     0.079 A 
HETATM   30  F   UNL     1      -0.386   7.097 -33.981  1.00  0.00    -0.206 F 
HETATM   31  C   UNL     1      -1.731   6.871 -30.628  1.00  0.00     0.071 A 
HETATM   32  C   UNL     1      -3.064   6.554 -30.922  1.00  0.00     0.045 A 
BRANCH  31  33
HETATM   33  O   UNL     1      -1.444   6.972 -29.294  1.00  0.00    -0.356 OA
HETATM   34  C   UNL     1      -1.253   8.294 -28.797  1.00  0.00     0.210 C 
ENDBRANCH  31  33
ENDBRANCH  25  26
ENDBRANCH   1  25
BRANCH   9  35
HETATM   35  C   UNL     1      -8.703   7.017 -29.463  1.00  0.00     0.235 C 
HETATM   36  C   UNL     1     -10.148   7.542 -29.704  1.00  0.00     0.203 C 
HETATM   37  O   UNL     1     -10.327   7.684 -28.267  1.00  0.00    -0.387 OA
HETATM   38  C   UNL     1      -8.883   7.786 -28.122  1.00  0.00     0.203 C 
ENDBRANCH   9  35
TORSDOF 6
ENDMDL
MODEL 8
REMARK VINA RESULT:      -8.5      3.487      5.097
REMARK  6 active torsions:
REMARK  status: ('A' for Active; 'I' for Inactive)
REMARK    1  A    between atoms: O_2  and  C_3 
REMARK    2  A    between atoms: C_8  and  C_9 
REMARK    3  A    between atoms: C_9  and  N_10 
REMARK    4  A    between atoms: N_13  and  C_26 
REMARK    5  A    between atoms: N_18  and  C_22 
REMARK    6  A    between atoms: C_29  and  C_32 
ROOT
HETATM    1  N   UNL     1      -9.695   3.830 -33.573  1.00  0.00    -0.318 N 
HETATM    2  C   UNL     1      -9.464   2.520 -34.031  1.00  0.00     0.326 C 
HETATM    3  O   UNL     1     -10.264   1.887 -34.697  1.00  0.00    -0.247 OA
HETATM    4  N   UNL     1      -8.182   2.140 -33.575  1.00  0.00    -0.297 N 
HETATM    5  C   UNL     1      -7.523   3.275 -32.970  1.00  0.00     0.165 C 
HETATM    6  C   UNL     1      -8.684   4.235 -32.597  1.00  0.00     0.057 C 
HETATM    7  C   UNL     1      -8.276   5.709 -32.727  1.00  0.00     0.060 C 
HETATM    8  C   UNL     1      -7.320   6.158 -31.630  1.00  0.00     0.238 C 
HETATM    9  N   UNL     1      -7.863   5.854 -30.263  1.00  0.00    -0.063 N 
HETATM   10  H   UNL     1      -7.126   6.081 -29.569  1.00  0.00     0.280 HD
HETATM   11  C   UNL     1      -8.240   4.414 -30.074  1.00  0.00     0.238 C 
HETATM   12  C   UNL     1      -9.189   3.933 -31.165  1.00  0.00     0.060 C 
ENDROOT
BRANCH   4  13
HETATM   13  C   UNL     1      -7.558   0.881 -33.783  1.00  0.00     0.039 A 
HETATM   14  C   UNL     1      -7.513   0.286 -35.048  1.00  0.00     0.030 A 
HETATM   15  C   UNL     1      -6.932  -0.976 -35.244  1.00  0.00     0.014 A 
HETATM   16  C   UNL     1      -6.379  -1.687 -34.177  1.00  0.00    -0.023 A 
HETATM   17  C   UNL     1      -6.405  -1.092 -32.911  1.00  0.00     0.014 A 
HETATM   18  C   UNL     1      -6.987   0.172 -32.717  1.00  0.00     0.030 A 
BRANCH  16  19
HETATM   19  C   UNL     1      -5.790  -3.002 -34.365  1.00  0.00     0.010 A 
HETATM   20  C   UNL     1      -6.350  -4.213 -34.836  1.00  0.00     0.152 A 
HETATM   21  N   UNL     1      -5.465  -5.211 -34.886  1.00  0.00    -0.187 NA
HETATM   22  N   UNL     1      -4.332  -4.651 -34.436  1.00  0.00    -0.289 N 
HETATM   23  H   UNL     1      -3.500  -5.228 -34.376  1.00  0.00     0.188 HD
HETATM   24  C   UNL     1      -4.471  -3.330 -34.120  1.00  0.00     0.123 A 
ENDBRANCH  16  19
ENDBRANCH   4  13
BRANCH   1  25
HETATM   25  C   UNL     1     -10.966   4.500 -33.821  1.00  0.00     0.167 C 
BRANCH  25  26
HETATM   26  C   UNL     1     -12.082   4.030 -32.921  1.00  0.00    -0.035 A 
HETATM   27  C   UNL     1     -12.363   4.659 -31.702  1.00  0.00     0.051 A 
HETATM   28  C   UNL     1     -13.444   4.237 -30.932  1.00  0.00     0.119 A 
HETATM   29  C   UNL     1     -14.281   3.212 -31.358  1.00  0.00     0.079 A 
HETATM   30  F   UNL     1     -13.681   4.833 -29.757  1.00  0.00    -0.206 F 
HETATM   31  C   UNL     1     -14.038   2.600 -32.583  1.00  0.00     0.071 A 
HETATM   32  C   UNL     1     -12.936   3.000 -33.350  1.00  0.00     0.045 A 
BRANCH  31  33
HETATM   33  O   UNL     1     -14.785   1.595 -33.133  1.00  0.00    -0.356 OA
HETATM   34  C   UNL     1     -14.306   1.068 -34.368  1.00  0.00     0.210 C 
ENDBRANCH  31  33
ENDBRANCH  25  26
ENDBRANCH   1  25
BRANCH   9  35
HETATM   35  C   UNL     1      -9.042   6.766 -29.931  1.00  0.00     0.235 C 
HETATM   36  C   UNL     1      -9.094   7.215 -28.442  1.00  0.00     0.203 C 
HETATM   37  O   UNL     1      -8.284   8.377 -28.773  1.00  0.00    -0.387 OA
HETATM   38  C   UNL     1      -8.748   8.279 -30.148  1.00  0.00     0.203 C 
ENDBRANCH   9  35
TORSDOF 6
ENDMDL
MODEL 9
REMARK VINA RESULT:      -8.3      3.819      9.640
REMARK  6 active torsions:
REMARK  status: ('A' for Active; 'I' for Inactive)
REMARK    1  A    between atoms: O_2  and  C_3 
REMARK    2  A    between atoms: C_8  and  C_9 
REMARK    3  A    between atoms: C_9  and  N_10 
REMARK    4  A    between atoms: N_13  and  C_26 
REMARK    5  A    between atoms: N_18  and  C_22 
REMARK    6  A    between atoms: C_29  and  C_32 
ROOT
HETATM    1  N   UNL     1      -7.578   1.639 -31.611  1.00  0.00    -0.318 N 
HETATM    2  C   UNL     1      -6.772   2.285 -30.656  1.00  0.00     0.326 C 
HETATM    3  O   UNL     1      -6.082   1.695 -29.844  1.00  0.00    -0.247 OA
HETATM    4  N   UNL     1      -6.935   3.675 -30.847  1.00  0.00    -0.297 N 
HETATM    5  C   UNL     1      -7.715   3.917 -32.039  1.00  0.00     0.165 C 
HETATM    6  C   UNL     1      -8.477   2.585 -32.272  1.00  0.00     0.057 C 
HETATM    7  C   UNL     1      -8.674   2.288 -33.765  1.00  0.00     0.060 C 
HETATM    8  C   UNL     1      -9.707   3.196 -34.418  1.00  0.00     0.238 C 
HETATM    9  N   UNL     1     -11.012   3.176 -33.674  1.00  0.00    -0.063 N 
HETATM   10  H   UNL     1     -11.633   3.889 -34.100  1.00  0.00     0.280 HD
HETATM   11  C   UNL     1     -10.876   3.499 -32.215  1.00  0.00     0.238 C 
HETATM   12  C   UNL     1      -9.839   2.612 -31.537  1.00  0.00     0.060 C 
ENDROOT
BRANCH   4  13
HETATM   13  C   UNL     1      -6.329   4.704 -30.076  1.00  0.00     0.039 A 
HETATM   14  C   UNL     1      -5.161   5.346 -30.503  1.00  0.00     0.030 A 
HETATM   15  C   UNL     1      -4.541   6.333 -29.722  1.00  0.00     0.014 A 
HETATM   16  C   UNL     1      -5.068   6.708 -28.486  1.00  0.00    -0.023 A 
HETATM   17  C   UNL     1      -6.245   6.084 -28.059  1.00  0.00     0.014 A 
HETATM   18  C   UNL     1      -6.865   5.095 -28.842  1.00  0.00     0.030 A 
BRANCH  16  19
HETATM   19  C   UNL     1      -4.425   7.718 -27.661  1.00  0.00     0.010 A 
HETATM   20  C   UNL     1      -4.128   7.737 -26.278  1.00  0.00     0.152 A 
HETATM   21  N   UNL     1      -3.501   8.852 -25.896  1.00  0.00    -0.187 NA
HETATM   22  N   UNL     1      -3.403   9.563 -27.029  1.00  0.00    -0.289 N 
HETATM   23  H   UNL     1      -2.957  10.474 -26.990  1.00  0.00     0.188 HD
HETATM   24  C   UNL     1      -3.932   8.925 -28.115  1.00  0.00     0.123 A 
ENDBRANCH  16  19
ENDBRANCH   4  13
BRANCH   1  25
HETATM   25  C   UNL     1      -7.686   0.185 -31.644  1.00  0.00     0.167 C 
BRANCH  25  26
HETATM   26  C   UNL     1      -6.740  -0.468 -32.621  1.00  0.00    -0.035 A 
HETATM   27  C   UNL     1      -5.375  -0.160 -32.645  1.00  0.00     0.051 A 
HETATM   28  C   UNL     1      -4.524  -0.834 -33.517  1.00  0.00     0.119 A 
HETATM   29  C   UNL     1      -4.992  -1.839 -34.356  1.00  0.00     0.079 A 
HETATM   30  F   UNL     1      -3.225  -0.508 -33.545  1.00  0.00    -0.206 F 
HETATM   31  C   UNL     1      -6.340  -2.182 -34.320  1.00  0.00     0.071 A 
HETATM   32  C   UNL     1      -7.207  -1.489 -33.465  1.00  0.00     0.045 A 
BRANCH  31  33
HETATM   33  O   UNL     1      -6.933  -3.157 -35.074  1.00  0.00    -0.356 OA
HETATM   34  C   UNL     1      -6.253  -4.409 -35.118  1.00  0.00     0.210 C 
ENDBRANCH  31  33
ENDBRANCH  25  26
ENDBRANCH   1  25
BRANCH   9  35
HETATM   35  C   UNL     1     -11.725   1.838 -33.863  1.00  0.00     0.235 C 
HETATM   36  C   UNL     1     -13.260   1.899 -33.614  1.00  0.00     0.203 C 
HETATM   37  O   UNL     1     -13.467   2.212 -35.020  1.00  0.00    -0.387 OA
HETATM   38  C   UNL     1     -12.194   1.576 -35.324  1.00  0.00     0.203 C 
ENDBRANCH   9  35
TORSDOF 6
ENDMDL
MODEL 10
REMARK VINA RESULT:      -8.3      3.779      9.467
REMARK  6 active torsions:
REMARK  status: ('A' for Active; 'I' for Inactive)
REMARK    1  A    between atoms: O_2  and  C_3 
REMARK    2  A    between atoms: C_8  and  C_9 
REMARK    3  A    between atoms: C_9  and  N_10 
REMARK    4  A    between atoms: N_13  and  C_26 
REMARK    5  A    between atoms: N_18  and  C_22 
REMARK    6  A    between atoms: C_29  and  C_32 
ROOT
HETATM    1  N   UNL     1      -6.865   1.958 -31.510  1.00  0.00    -0.318 N 
HETATM    2  C   UNL     1      -5.839   2.603 -30.796  1.00  0.00     0.326 C 
HETATM    3  O   UNL     1      -5.112   2.038 -29.998  1.00  0.00    -0.247 OA
HETATM    4  N   UNL     1      -5.845   3.959 -31.194  1.00  0.00    -0.297 N 
HETATM    5  C   UNL     1      -6.766   4.142 -32.293  1.00  0.00     0.165 C 
HETATM    6  C   UNL     1      -7.725   2.925 -32.192  1.00  0.00     0.057 C 
HETATM    7  C   UNL     1      -8.195   2.447 -33.573  1.00  0.00     0.060 C 
HETATM    8  C   UNL     1      -9.190   3.399 -34.222  1.00  0.00     0.238 C 
HETATM    9  N   UNL     1     -10.351   3.692 -33.314  1.00  0.00    -0.063 N 
HETATM   10  H   UNL     1     -10.931   4.423 -33.765  1.00  0.00     0.280 HD
HETATM   11  C   UNL     1      -9.941   4.199 -31.963  1.00  0.00     0.238 C 
HETATM   12  C   UNL     1      -8.936   3.272 -31.293  1.00  0.00     0.060 C 
ENDROOT
BRANCH   4  13
HETATM   13  C   UNL     1      -4.993   4.982 -30.698  1.00  0.00     0.039 A 
HETATM   14  C   UNL     1      -3.770   5.277 -31.310  1.00  0.00     0.030 A 
HETATM   15  C   UNL     1      -2.911   6.260 -30.795  1.00  0.00     0.014 A 
HETATM   16  C   UNL     1      -3.247   6.978 -29.647  1.00  0.00    -0.023 A 
HETATM   17  C   UNL     1      -4.476   6.702 -29.038  1.00  0.00     0.014 A 
HETATM   18  C   UNL     1      -5.335   5.717 -29.555  1.00  0.00     0.030 A 
BRANCH  16  19
HETATM   19  C   UNL     1      -2.358   7.987 -29.096  1.00  0.00     0.010 A 
HETATM   20  C   UNL     1      -2.552   9.370 -28.865  1.00  0.00     0.152 A 
HETATM   21  N   UNL     1      -1.487   9.959 -28.315  1.00  0.00    -0.187 NA
HETATM   22  N   UNL     1      -0.598   8.961 -28.200  1.00  0.00    -0.289 N 
HETATM   23  H   UNL     1       0.312   9.169 -27.803  1.00  0.00     0.188 HD
HETATM   24  C   UNL     1      -1.073   7.760 -28.644  1.00  0.00     0.123 A 
ENDBRANCH  16  19
ENDBRANCH   4  13
BRANCH   1  25
HETATM   25  C   UNL     1      -7.168   0.549 -31.283  1.00  0.00     0.167 C 
BRANCH  25  26
HETATM   26  C   UNL     1      -6.364  -0.388 -32.151  1.00  0.00    -0.035 A 
HETATM   27  C   UNL     1      -6.785  -0.749 -33.436  1.00  0.00     0.051 A 
HETATM   28  C   UNL     1      -5.982  -1.563 -34.230  1.00  0.00     0.119 A 
HETATM   29  C   UNL     1      -4.742  -2.011 -33.788  1.00  0.00     0.079 A 
HETATM   30  F   UNL     1      -6.413  -1.920 -35.446  1.00  0.00    -0.206 F 
HETATM   31  C   UNL     1      -4.292  -1.633 -32.527  1.00  0.00     0.071 A 
HETATM   32  C   UNL     1      -5.108  -0.837 -31.712  1.00  0.00     0.045 A 
BRANCH  31  33
HETATM   33  O   UNL     1      -3.092  -1.984 -31.972  1.00  0.00    -0.356 OA
HETATM   34  C   UNL     1      -2.910  -3.374 -31.713  1.00  0.00     0.210 C 
ENDBRANCH  31  33
ENDBRANCH  25  26
ENDBRANCH   1  25
BRANCH   9  35
HETATM   35  C   UNL     1     -11.255   2.468 -33.177  1.00  0.00     0.235 C 
HETATM   36  C   UNL     1     -12.771   2.809 -33.095  1.00  0.00     0.203 C 
HETATM   37  O   UNL     1     -12.862   2.718 -34.543  1.00  0.00    -0.387 OA
HETATM   38  C   UNL     1     -11.692   1.853 -34.538  1.00  0.00     0.203 C 
ENDBRANCH   9  35
TORSDOF 6
ENDMDL
