MODEL 1
REMARK VINA RESULT:      -8.8      0.000      0.000
REMARK  4 active torsions:
REMARK  status: ('A' for Active; 'I' for Inactive)
REMARK    1  A    between atoms: C_3  and  C_4 
REMARK       I    between atoms: C_4  and  N_5 
REMARK    2  A    between atoms: N_5  and  C_6 
REMARK    3  A    between atoms: C_13  and  C_14 
REMARK       I    between atoms: C_14  and  N_15 
REMARK    4  A    between atoms: C_25  and  O_26 
ROOT
HETATM    1  C   UNL     1      -4.152   2.063 -31.918  1.00  0.00     0.280 C 
HETATM    2  N   UNL     1      -3.159   2.772 -32.570  1.00  0.00    -0.321 N 
HETATM    3  O   UNL     1      -4.712   2.409 -30.884  1.00  0.00    -0.265 OA
HETATM    4  H   UNL     1      -2.800   2.317 -33.402  1.00  0.00     0.169 HD
ENDROOT
BRANCH   2   5
HETATM    5  C   UNL     1      -2.635   4.041 -32.256  1.00  0.00     0.036 A 
HETATM    6  C   UNL     1      -1.725   4.274 -31.217  1.00  0.00     0.046 A 
HETATM    7  C   UNL     1      -1.285   5.591 -30.957  1.00  0.00     0.030 A 
HETATM    8  C   UNL     1      -1.763   6.626 -31.749  1.00  0.00     0.063 A 
HETATM    9  C   UNL     1      -0.408   6.218 -30.019  1.00  0.00     0.156 A 
HETATM   10  N   UNL     1      -1.174   7.759 -31.262  1.00  0.00    -0.277 N 
HETATM   11  C   UNL     1      -2.661   6.430 -32.800  1.00  0.00     0.034 A 
HETATM   12  H   UNL     1      -1.296   8.708 -31.598  1.00  0.00     0.189 HD
HETATM   13  N   UNL     1      -0.352   7.555 -30.219  1.00  0.00    -0.168 NA
HETATM   14  C   UNL     1      -3.086   5.117 -33.034  1.00  0.00     0.032 A 
BRANCH   9  15
HETATM   15  C   UNL     1       0.363   5.577 -28.946  1.00  0.00     0.270 C 
HETATM   16  N   UNL     1       1.082   4.484 -29.351  1.00  0.00    -0.365 N 
HETATM   17  H   UNL     1       1.035   4.208 -30.323  1.00  0.00     0.159 HD
HETATM   18  H   UNL     1       1.644   3.982 -28.683  1.00  0.00     0.159 HD
HETATM   19  O   UNL     1       0.389   5.955 -27.780  1.00  0.00    -0.266 OA
ENDBRANCH   9  15
ENDBRANCH   2   5
BRANCH   1  20
HETATM   20  C   UNL     1      -4.498   0.830 -32.611  1.00  0.00     0.150 A 
HETATM   21  C   UNL     1      -3.882  -0.416 -32.636  1.00  0.00    -0.009 A 
HETATM   22  C   UNL     1      -2.629  -0.797 -31.933  1.00  0.00     0.052 C 
HETATM   23  C   UNL     1      -4.713  -1.254 -33.440  1.00  0.00     0.009 A 
HETATM   24  C   UNL     1      -5.763  -0.456 -33.872  1.00  0.00     0.087 A 
HETATM   25  C   UNL     1      -4.700  -2.603 -33.842  1.00  0.00     0.051 A 
HETATM   26  O   UNL     1      -5.635   0.803 -33.380  1.00  0.00    -0.304 OA
HETATM   27  C   UNL     1      -6.798  -0.900 -34.689  1.00  0.00     0.041 A 
HETATM   28  C   UNL     1      -6.766  -2.248 -35.070  1.00  0.00     0.039 A 
HETATM   29  C   UNL     1      -5.739  -3.098 -34.647  1.00  0.00     0.069 A 
BRANCH  29  30
HETATM   30  O   UNL     1      -5.627  -4.428 -34.952  1.00  0.00    -0.356 OA
HETATM   31  C   UNL     1      -4.647  -5.173 -34.239  1.00  0.00     0.210 C 
ENDBRANCH  29  30
ENDBRANCH   1  20
TORSDOF 4
ENDMDL
MODEL 2
REMARK VINA RESULT:      -8.8      1.331      2.094
REMARK  4 active torsions:
REMARK  status: ('A' for Active; 'I' for Inactive)
REMARK    1  A    between atoms: C_3  and  C_4 
REMARK       I    between atoms: C_4  and  N_5 
REMARK    2  A    between atoms: N_5  and  C_6 
REMARK    3  A    between atoms: C_13  and  C_14 
REMARK       I    between atoms: C_14  and  N_15 
REMARK    4  A    between atoms: C_25  and  O_26 
ROOT
HETATM    1  C   UNL     1      -4.174   1.591 -31.790  1.00  0.00     0.280 C 
HETATM    2  N   UNL     1      -3.368   2.368 -32.604  1.00  0.00    -0.321 N 
HETATM    3  O   UNL     1      -4.750   1.981 -30.780  1.00  0.00    -0.265 OA
HETATM    4  H   UNL     1      -2.959   1.866 -33.385  1.00  0.00     0.169 HD
ENDROOT
BRANCH   2   5
HETATM    5  C   UNL     1      -3.094   3.746 -32.513  1.00  0.00     0.036 A 
HETATM    6  C   UNL     1      -2.290   4.318 -31.518  1.00  0.00     0.046 A 
HETATM    7  C   UNL     1      -2.105   5.718 -31.490  1.00  0.00     0.030 A 
HETATM    8  C   UNL     1      -2.723   6.496 -32.460  1.00  0.00     0.063 A 
HETATM    9  C   UNL     1      -1.399   6.647 -30.666  1.00  0.00     0.156 A 
HETATM   10  N   UNL     1      -2.369   7.784 -32.173  1.00  0.00    -0.277 N 
HETATM   11  C   UNL     1      -3.522   5.960 -33.472  1.00  0.00     0.034 A 
HETATM   12  H   UNL     1      -2.644   8.622 -32.673  1.00  0.00     0.189 HD
HETATM   13  N   UNL     1      -1.574   7.917 -31.099  1.00  0.00    -0.168 NA
HETATM   14  C   UNL     1      -3.694   4.570 -33.476  1.00  0.00     0.032 A 
BRANCH   9  15
HETATM   15  C   UNL     1      -0.577   6.353 -29.485  1.00  0.00     0.270 C 
HETATM   16  N   UNL     1      -1.271   6.365 -28.304  1.00  0.00    -0.365 N 
HETATM   17  H   UNL     1      -2.263   6.564 -28.328  1.00  0.00     0.159 HD
HETATM   18  H   UNL     1      -0.790   6.171 -27.441  1.00  0.00     0.159 HD
HETATM   19  O   UNL     1       0.625   6.114 -29.510  1.00  0.00    -0.266 OA
ENDBRANCH   9  15
ENDBRANCH   2   5
BRANCH   1  20
HETATM   20  C   UNL     1      -4.296   0.223 -32.274  1.00  0.00     0.150 A 
HETATM   21  C   UNL     1      -5.119  -0.341 -33.241  1.00  0.00    -0.009 A 
HETATM   22  C   UNL     1      -6.153   0.364 -34.042  1.00  0.00     0.052 C 
HETATM   23  C   UNL     1      -4.743  -1.716 -33.330  1.00  0.00     0.009 A 
HETATM   24  C   UNL     1      -3.738  -1.902 -32.391  1.00  0.00     0.087 A 
HETATM   25  C   UNL     1      -5.135  -2.822 -34.106  1.00  0.00     0.051 A 
HETATM   26  O   UNL     1      -3.467  -0.737 -31.748  1.00  0.00    -0.304 OA
HETATM   27  C   UNL     1      -3.099  -3.117 -32.160  1.00  0.00     0.041 A 
HETATM   28  C   UNL     1      -3.502  -4.202 -32.950  1.00  0.00     0.039 A 
HETATM   29  C   UNL     1      -4.500  -4.061 -33.920  1.00  0.00     0.069 A 
BRANCH  29  30
HETATM   30  O   UNL     1      -4.952  -5.053 -34.749  1.00  0.00    -0.356 OA
HETATM   31  C   UNL     1      -6.196  -4.831 -35.400  1.00  0.00     0.210 C 
ENDBRANCH  29  30
ENDBRANCH   1  20
TORSDOF 4
ENDMDL
MODEL 3
REMARK VINA RESULT:      -8.7      4.027      4.554
REMARK  4 active torsions:
REMARK  status: ('A' for Active; 'I' for Inactive)
REMARK    1  A    between atoms: C_3  and  C_4 
REMARK       I    between atoms: C_4  and  N_5 
REMARK    2  A    between atoms: N_5  and  C_6 
REMARK    3  A    between atoms: C_13  and  C_14 
REMARK       I    between atoms: C_14  and  N_15 
REMARK    4  A    between atoms: C_25  and  O_26 
ROOT
HETATM    1  C   UNL     1      -6.354   2.196 -32.733  1.00  0.00     0.280 C 
HETATM    2  N   UNL     1      -7.047   2.195 -31.535  1.00  0.00    -0.321 N 
HETATM    3  O   UNL     1      -6.046   3.193 -33.375  1.00  0.00    -0.265 OA
HETATM    4  H   UNL     1      -7.230   1.270 -31.161  1.00  0.00     0.169 HD
ENDROOT
BRANCH   2   5
HETATM    5  C   UNL     1      -7.474   3.294 -30.766  1.00  0.00     0.036 A 
HETATM    6  C   UNL     1      -6.632   4.027 -29.918  1.00  0.00     0.046 A 
HETATM    7  C   UNL     1      -7.164   5.092 -29.158  1.00  0.00     0.030 A 
HETATM    8  C   UNL     1      -8.515   5.392 -29.277  1.00  0.00     0.063 A 
HETATM    9  C   UNL     1      -6.658   6.033 -28.208  1.00  0.00     0.156 A 
HETATM   10  N   UNL     1      -8.729   6.445 -28.431  1.00  0.00    -0.277 N 
HETATM   11  C   UNL     1      -9.380   4.692 -30.119  1.00  0.00     0.034 A 
HETATM   12  H   UNL     1      -9.605   6.924 -28.259  1.00  0.00     0.189 HD
HETATM   13  N   UNL     1      -7.636   6.858 -27.769  1.00  0.00    -0.168 NA
HETATM   14  C   UNL     1      -8.830   3.638 -30.859  1.00  0.00     0.032 A 
BRANCH   9  15
HETATM   15  C   UNL     1      -5.281   6.155 -27.714  1.00  0.00     0.270 C 
HETATM   16  N   UNL     1      -4.966   5.272 -26.716  1.00  0.00    -0.365 N 
HETATM   17  H   UNL     1      -5.676   4.621 -26.404  1.00  0.00     0.159 HD
HETATM   18  H   UNL     1      -4.042   5.280 -26.316  1.00  0.00     0.159 HD
HETATM   19  O   UNL     1      -4.456   6.961 -28.129  1.00  0.00    -0.266 OA
ENDBRANCH   9  15
ENDBRANCH   2   5
BRANCH   1  20
HETATM   20  C   UNL     1      -5.995   0.853 -33.166  1.00  0.00     0.150 A 
HETATM   21  C   UNL     1      -4.821   0.121 -33.017  1.00  0.00    -0.009 A 
HETATM   22  C   UNL     1      -3.571   0.581 -32.360  1.00  0.00     0.052 C 
HETATM   23  C   UNL     1      -5.079  -1.161 -33.589  1.00  0.00     0.009 A 
HETATM   24  C   UNL     1      -6.379  -1.115 -34.072  1.00  0.00     0.087 A 
HETATM   25  C   UNL     1      -4.360  -2.361 -33.743  1.00  0.00     0.051 A 
HETATM   26  O   UNL     1      -6.934   0.100 -33.824  1.00  0.00    -0.304 OA
HETATM   27  C   UNL     1      -7.015  -2.176 -34.710  1.00  0.00     0.041 A 
HETATM   28  C   UNL     1      -6.280  -3.361 -34.846  1.00  0.00     0.039 A 
HETATM   29  C   UNL     1      -4.972  -3.464 -34.361  1.00  0.00     0.069 A 
BRANCH  29  30
HETATM   30  O   UNL     1      -4.180  -4.578 -34.433  1.00  0.00    -0.356 OA
HETATM   31  C   UNL     1      -3.295  -4.811 -33.344  1.00  0.00     0.210 C 
ENDBRANCH  29  30
ENDBRANCH   1  20
TORSDOF 4
ENDMDL
MODEL 4
REMARK VINA RESULT:      -8.6      3.182      9.216
REMARK  4 active torsions:
REMARK  status: ('A' for Active; 'I' for Inactive)
REMARK    1  A    between atoms: C_3  and  C_4 
REMARK       I    between atoms: C_4  and  N_5 
REMARK    2  A    between atoms: N_5  and  C_6 
REMARK    3  A    between atoms: C_13  and  C_14 
REMARK       I    between atoms: C_14  and  N_15 
REMARK    4  A    between atoms: C_25  and  O_26 
ROOT
HETATM    1  C   UNL     1      -4.393   1.635 -31.724  1.00  0.00     0.280 C 
HETATM    2  N   UNL     1      -4.760   1.318 -33.021  1.00  0.00    -0.321 N 
HETATM    3  O   UNL     1      -4.510   0.898 -30.753  1.00  0.00    -0.265 OA
HETATM    4  H   UNL     1      -4.607   2.064 -33.691  1.00  0.00     0.169 HD
ENDROOT
BRANCH   2   5
HETATM    5  C   UNL     1      -5.259   0.100 -33.520  1.00  0.00     0.036 A 
HETATM    6  C   UNL     1      -4.604  -1.131 -33.373  1.00  0.00     0.046 A 
HETATM    7  C   UNL     1      -5.168  -2.294 -33.943  1.00  0.00     0.030 A 
HETATM    8  C   UNL     1      -6.369  -2.188 -34.632  1.00  0.00     0.063 A 
HETATM    9  C   UNL     1      -4.817  -3.677 -34.021  1.00  0.00     0.156 A 
HETATM   10  N   UNL     1      -6.653  -3.454 -35.064  1.00  0.00    -0.277 N 
HETATM   11  C   UNL     1      -7.054  -0.982 -34.790  1.00  0.00     0.034 A 
HETATM   12  H   UNL     1      -7.455  -3.751 -35.607  1.00  0.00     0.189 HD
HETATM   13  N   UNL     1      -5.741  -4.377 -34.717  1.00  0.00    -0.168 NA
HETATM   14  C   UNL     1      -6.472   0.157 -34.220  1.00  0.00     0.032 A 
BRANCH   9  15
HETATM   15  C   UNL     1      -3.631  -4.334 -33.458  1.00  0.00     0.270 C 
HETATM   16  N   UNL     1      -3.112  -5.323 -34.250  1.00  0.00    -0.365 N 
HETATM   17  H   UNL     1      -3.563  -5.521 -35.134  1.00  0.00     0.159 HD
HETATM   18  H   UNL     1      -2.295  -5.828 -33.946  1.00  0.00     0.159 HD
HETATM   19  O   UNL     1      -3.119  -4.052 -32.380  1.00  0.00    -0.266 OA
ENDBRANCH   9  15
ENDBRANCH   2   5
BRANCH   1  20
HETATM   20  C   UNL     1      -3.816   2.968 -31.623  1.00  0.00     0.150 A 
HETATM   21  C   UNL     1      -4.275   4.125 -31.004  1.00  0.00    -0.009 A 
HETATM   22  C   UNL     1      -5.559   4.287 -30.274  1.00  0.00     0.052 C 
HETATM   23  C   UNL     1      -3.250   5.103 -31.181  1.00  0.00     0.009 A 
HETATM   24  C   UNL     1      -2.251   4.485 -31.920  1.00  0.00     0.087 A 
HETATM   25  C   UNL     1      -3.052   6.441 -30.792  1.00  0.00     0.051 A 
HETATM   26  O   UNL     1      -2.589   3.199 -32.193  1.00  0.00    -0.304 OA
HETATM   27  C   UNL     1      -1.069   5.108 -32.311  1.00  0.00     0.041 A 
HETATM   28  C   UNL     1      -0.892   6.437 -31.905  1.00  0.00     0.039 A 
HETATM   29  C   UNL     1      -1.863   7.099 -31.145  1.00  0.00     0.069 A 
BRANCH  29  30
HETATM   30  O   UNL     1      -1.778   8.387 -30.690  1.00  0.00    -0.356 OA
HETATM   31  C   UNL     1      -2.904   9.226 -30.916  1.00  0.00     0.210 C 
ENDBRANCH  29  30
ENDBRANCH   1  20
TORSDOF 4
ENDMDL
MODEL 5
REMARK VINA RESULT:      -8.3      5.540      8.908
REMARK  4 active torsions:
REMARK  status: ('A' for Active; 'I' for Inactive)
REMARK    1  A    between atoms: C_3  and  C_4 
REMARK       I    between atoms: C_4  and  N_5 
REMARK    2  A    between atoms: N_5  and  C_6 
REMARK    3  A    between atoms: C_13  and  C_14 
REMARK       I    between atoms: C_14  and  N_15 
REMARK    4  A    between atoms: C_25  and  O_26 
ROOT
HETATM    1  C   UNL     1      -9.428   0.855 -33.728  1.00  0.00     0.280 C 
HETATM    2  N   UNL     1      -8.256   0.664 -34.439  1.00  0.00    -0.321 N 
HETATM    3  O   UNL     1      -9.803   0.174 -32.780  1.00  0.00    -0.265 OA
HETATM    4  H   UNL     1      -8.124   1.315 -35.206  1.00  0.00     0.169 HD
ENDROOT
BRANCH   2   5
HETATM    5  C   UNL     1      -7.225  -0.265 -34.202  1.00  0.00     0.036 A 
HETATM    6  C   UNL     1      -6.245  -0.109 -33.213  1.00  0.00     0.046 A 
HETATM    7  C   UNL     1      -5.229  -1.081 -33.078  1.00  0.00     0.030 A 
HETATM    8  C   UNL     1      -5.232  -2.177 -33.930  1.00  0.00     0.063 A 
HETATM    9  C   UNL     1      -4.090  -1.269 -32.236  1.00  0.00     0.156 A 
HETATM   10  N   UNL     1      -4.145  -2.923 -33.567  1.00  0.00    -0.277 N 
HETATM   11  C   UNL     1      -6.198  -2.371 -34.919  1.00  0.00     0.034 A 
HETATM   12  H   UNL     1      -3.834  -3.794 -33.979  1.00  0.00     0.189 HD
HETATM   13  N   UNL     1      -3.432  -2.408 -32.552  1.00  0.00    -0.168 NA
HETATM   14  C   UNL     1      -7.192  -1.392 -35.036  1.00  0.00     0.032 A 
BRANCH   9  15
HETATM   15  C   UNL     1      -3.619  -0.394 -31.155  1.00  0.00     0.270 C 
HETATM   16  N   UNL     1      -2.259  -0.391 -30.992  1.00  0.00    -0.365 N 
HETATM   17  H   UNL     1      -1.697  -0.967 -31.606  1.00  0.00     0.159 HD
HETATM   18  H   UNL     1      -1.844   0.183 -30.276  1.00  0.00     0.159 HD
HETATM   19  O   UNL     1      -4.344   0.289 -30.440  1.00  0.00    -0.266 OA
ENDBRANCH   9  15
ENDBRANCH   2   5
BRANCH   1  20
HETATM   20  C   UNL     1     -10.193   1.993 -34.216  1.00  0.00     0.150 A 
HETATM   21  C   UNL     1     -11.535   2.123 -34.555  1.00  0.00    -0.009 A 
HETATM   22  C   UNL     1     -12.564   1.051 -34.520  1.00  0.00     0.052 C 
HETATM   23  C   UNL     1     -11.725   3.494 -34.906  1.00  0.00     0.009 A 
HETATM   24  C   UNL     1     -10.482   4.099 -34.785  1.00  0.00     0.087 A 
HETATM   25  C   UNL     1     -12.813   4.293 -35.305  1.00  0.00     0.051 A 
HETATM   26  O   UNL     1      -9.554   3.197 -34.374  1.00  0.00    -0.304 OA
HETATM   27  C   UNL     1     -10.238   5.445 -35.044  1.00  0.00     0.041 A 
HETATM   28  C   UNL     1     -11.338   6.221 -35.432  1.00  0.00     0.039 A 
HETATM   29  C   UNL     1     -12.615   5.661 -35.553  1.00  0.00     0.069 A 
BRANCH  29  30
HETATM   30  O   UNL     1     -13.751   6.336 -35.911  1.00  0.00    -0.356 OA
HETATM   31  C   UNL     1     -13.628   7.300 -36.950  1.00  0.00     0.210 C 
ENDBRANCH  29  30
ENDBRANCH   1  20
TORSDOF 4
ENDMDL
MODEL 6
REMARK VINA RESULT:      -8.0      2.440      2.978
REMARK  4 active torsions:
REMARK  status: ('A' for Active; 'I' for Inactive)
REMARK    1  A    between atoms: C_3  and  C_4 
REMARK       I    between atoms: C_4  and  N_5 
REMARK    2  A    between atoms: N_5  and  C_6 
REMARK    3  A    between atoms: C_13  and  C_14 
REMARK       I    between atoms: C_14  and  N_15 
REMARK    4  A    between atoms: C_25  and  O_26 
ROOT
HETATM    1  C   UNL     1      -5.388   2.431 -31.537  1.00  0.00     0.280 C 
HETATM    2  N   UNL     1      -5.172   3.514 -32.372  1.00  0.00    -0.321 N 
HETATM    3  O   UNL     1      -5.702   2.497 -30.355  1.00  0.00    -0.265 OA
HETATM    4  H   UNL     1      -4.899   3.263 -33.316  1.00  0.00     0.169 HD
ENDROOT
BRANCH   2   5
HETATM    5  C   UNL     1      -5.333   4.884 -32.093  1.00  0.00     0.036 A 
HETATM    6  C   UNL     1      -4.267   5.785 -31.969  1.00  0.00     0.046 A 
HETATM    7  C   UNL     1      -4.529   7.136 -31.650  1.00  0.00     0.030 A 
HETATM    8  C   UNL     1      -5.846   7.540 -31.475  1.00  0.00     0.063 A 
HETATM    9  C   UNL     1      -3.749   8.313 -31.433  1.00  0.00     0.156 A 
HETATM   10  N   UNL     1      -5.781   8.873 -31.175  1.00  0.00    -0.277 N 
HETATM   11  C   UNL     1      -6.933   6.674 -31.601  1.00  0.00     0.034 A 
HETATM   12  H   UNL     1      -6.555   9.496 -30.980  1.00  0.00     0.189 HD
HETATM   13  N   UNL     1      -4.535   9.374 -31.139  1.00  0.00    -0.168 NA
HETATM   14  C   UNL     1      -6.647   5.339 -31.913  1.00  0.00     0.032 A 
BRANCH   9  15
HETATM   15  C   UNL     1      -2.288   8.444 -31.493  1.00  0.00     0.270 C 
HETATM   16  N   UNL     1      -1.644   8.037 -30.355  1.00  0.00    -0.365 N 
HETATM   17  H   UNL     1      -2.198   7.686 -29.584  1.00  0.00     0.159 HD
HETATM   18  H   UNL     1      -0.639   8.087 -30.305  1.00  0.00     0.159 HD
HETATM   19  O   UNL     1      -1.661   8.873 -32.455  1.00  0.00    -0.266 OA
ENDBRANCH   9  15
ENDBRANCH   2   5
BRANCH   1  20
HETATM   20  C   UNL     1      -5.220   1.159 -32.226  1.00  0.00     0.150 A 
HETATM   21  C   UNL     1      -4.285   0.142 -32.067  1.00  0.00    -0.009 A 
HETATM   22  C   UNL     1      -3.149   0.128 -31.109  1.00  0.00     0.052 C 
HETATM   23  C   UNL     1      -4.661  -0.890 -32.979  1.00  0.00     0.009 A 
HETATM   24  C   UNL     1      -5.781  -0.420 -33.652  1.00  0.00     0.087 A 
HETATM   25  C   UNL     1      -4.184  -2.173 -33.305  1.00  0.00     0.051 A 
HETATM   26  O   UNL     1      -6.119   0.816 -33.205  1.00  0.00    -0.304 OA
HETATM   27  C   UNL     1      -6.457  -1.134 -34.638  1.00  0.00     0.041 A 
HETATM   28  C   UNL     1      -5.967  -2.411 -34.940  1.00  0.00     0.039 A 
HETATM   29  C   UNL     1      -4.852  -2.935 -34.278  1.00  0.00     0.069 A 
BRANCH  29  30
HETATM   30  O   UNL     1      -4.307  -4.174 -34.490  1.00  0.00    -0.356 OA
HETATM   31  C   UNL     1      -3.543  -4.732 -33.429  1.00  0.00     0.210 C 
ENDBRANCH  29  30
ENDBRANCH   1  20
TORSDOF 4
ENDMDL
MODEL 7
REMARK VINA RESULT:      -7.9      2.323      3.357
REMARK  4 active torsions:
REMARK  status: ('A' for Active; 'I' for Inactive)
REMARK    1  A    between atoms: C_3  and  C_4 
REMARK       I    between atoms: C_4  and  N_5 
REMARK    2  A    between atoms: N_5  and  C_6 
REMARK    3  A    between atoms: C_13  and  C_14 
REMARK       I    between atoms: C_14  and  N_15 
REMARK    4  A    between atoms: C_25  and  O_26 
ROOT
HETATM    1  C   UNL     1      -4.049   2.051 -31.566  1.00  0.00     0.280 C 
HETATM    2  N   UNL     1      -3.255   2.841 -32.379  1.00  0.00    -0.321 N 
HETATM    3  O   UNL     1      -4.600   2.421 -30.536  1.00  0.00    -0.265 OA
HETATM    4  H   UNL     1      -2.866   2.355 -33.180  1.00  0.00     0.169 HD
ENDROOT
BRANCH   2   5
HETATM    5  C   UNL     1      -2.969   4.214 -32.263  1.00  0.00     0.036 A 
HETATM    6  C   UNL     1      -3.881   5.163 -31.780  1.00  0.00     0.046 A 
HETATM    7  C   UNL     1      -3.512   6.526 -31.736  1.00  0.00     0.030 A 
HETATM    8  C   UNL     1      -2.244   6.892 -32.167  1.00  0.00     0.063 A 
HETATM    9  C   UNL     1      -4.134   7.749 -31.339  1.00  0.00     0.156 A 
HETATM   10  N   UNL     1      -2.184   8.248 -32.013  1.00  0.00    -0.277 N 
HETATM   11  C   UNL     1      -1.306   5.973 -32.644  1.00  0.00     0.034 A 
HETATM   12  H   UNL     1      -1.405   8.857 -32.232  1.00  0.00     0.189 HD
HETATM   13  N   UNL     1      -3.304   8.801 -31.519  1.00  0.00    -0.168 NA
HETATM   14  C   UNL     1      -1.697   4.629 -32.682  1.00  0.00     0.032 A 
BRANCH   9  15
HETATM   15  C   UNL     1      -5.490   7.933 -30.806  1.00  0.00     0.270 C 
HETATM   16  N   UNL     1      -6.118   9.063 -31.256  1.00  0.00    -0.365 N 
HETATM   17  H   UNL     1      -5.625   9.667 -31.902  1.00  0.00     0.159 HD
HETATM   18  H   UNL     1      -7.054   9.272 -30.946  1.00  0.00     0.159 HD
HETATM   19  O   UNL     1      -6.046   7.168 -30.026  1.00  0.00    -0.266 OA
ENDBRANCH   9  15
ENDBRANCH   2   5
BRANCH   1  20
HETATM   20  C   UNL     1      -4.191   0.696 -32.078  1.00  0.00     0.150 A 
HETATM   21  C   UNL     1      -5.006   0.168 -33.074  1.00  0.00    -0.009 A 
HETATM   22  C   UNL     1      -6.007   0.911 -33.882  1.00  0.00     0.052 C 
HETATM   23  C   UNL     1      -4.659  -1.213 -33.180  1.00  0.00     0.009 A 
HETATM   24  C   UNL     1      -3.678  -1.439 -32.225  1.00  0.00     0.087 A 
HETATM   25  C   UNL     1      -5.059  -2.295 -33.985  1.00  0.00     0.051 A 
HETATM   26  O   UNL     1      -3.396  -0.293 -31.554  1.00  0.00    -0.304 OA
HETATM   27  C   UNL     1      -3.072  -2.672 -32.003  1.00  0.00     0.041 A 
HETATM   28  C   UNL     1      -3.483  -3.733 -32.822  1.00  0.00     0.039 A 
HETATM   29  C   UNL     1      -4.456  -3.551 -33.810  1.00  0.00     0.069 A 
BRANCH  29  30
HETATM   30  O   UNL     1      -4.912  -4.517 -34.667  1.00  0.00    -0.356 OA
HETATM   31  C   UNL     1      -6.282  -4.449 -35.044  1.00  0.00     0.210 C 
ENDBRANCH  29  30
ENDBRANCH   1  20
TORSDOF 4
ENDMDL
MODEL 8
REMARK VINA RESULT:      -7.9      2.339      3.140
REMARK  4 active torsions:
REMARK  status: ('A' for Active; 'I' for Inactive)
REMARK    1  A    between atoms: C_3  and  C_4 
REMARK       I    between atoms: C_4  and  N_5 
REMARK    2  A    between atoms: N_5  and  C_6 
REMARK    3  A    between atoms: C_13  and  C_14 
REMARK       I    between atoms: C_14  and  N_15 
REMARK    4  A    between atoms: C_25  and  O_26 
ROOT
HETATM    1  C   UNL     1      -5.569   2.009 -32.356  1.00  0.00     0.280 C 
HETATM    2  N   UNL     1      -4.534   2.676 -31.725  1.00  0.00    -0.321 N 
HETATM    3  O   UNL     1      -6.644   2.504 -32.675  1.00  0.00    -0.265 OA
HETATM    4  H   UNL     1      -3.727   2.096 -31.521  1.00  0.00     0.169 HD
ENDROOT
BRANCH   2   5
HETATM    5  C   UNL     1      -4.444   4.040 -31.386  1.00  0.00     0.036 A 
HETATM    6  C   UNL     1      -3.504   4.921 -31.937  1.00  0.00     0.046 A 
HETATM    7  C   UNL     1      -3.470   6.265 -31.504  1.00  0.00     0.030 A 
HETATM    8  C   UNL     1      -4.382   6.683 -30.544  1.00  0.00     0.063 A 
HETATM    9  C   UNL     1      -2.687   7.423 -31.801  1.00  0.00     0.156 A 
HETATM   10  N   UNL     1      -4.104   8.005 -30.330  1.00  0.00    -0.277 N 
HETATM   11  C   UNL     1      -5.339   5.837 -29.981  1.00  0.00     0.034 A 
HETATM   12  H   UNL     1      -4.571   8.634 -29.687  1.00  0.00     0.189 HD
HETATM   13  N   UNL     1      -3.089   8.486 -31.067  1.00  0.00    -0.168 NA
HETATM   14  C   UNL     1      -5.349   4.509 -30.423  1.00  0.00     0.032 A 
BRANCH   9  15
HETATM   15  C   UNL     1      -1.574   7.533 -32.752  1.00  0.00     0.270 C 
HETATM   16  N   UNL     1      -0.421   6.925 -32.335  1.00  0.00    -0.365 N 
HETATM   17  H   UNL     1      -0.417   6.458 -31.436  1.00  0.00     0.159 HD
HETATM   18  H   UNL     1       0.396   6.946 -32.923  1.00  0.00     0.159 HD
HETATM   19  O   UNL     1      -1.631   8.109 -33.833  1.00  0.00    -0.266 OA
ENDBRANCH   9  15
ENDBRANCH   2   5
BRANCH   1  20
HETATM   20  C   UNL     1      -5.243   0.617 -32.634  1.00  0.00     0.150 A 
HETATM   21  C   UNL     1      -5.704  -0.259 -33.610  1.00  0.00    -0.009 A 
HETATM   22  C   UNL     1      -6.725   0.033 -34.649  1.00  0.00     0.052 C 
HETATM   23  C   UNL     1      -4.975  -1.473 -33.430  1.00  0.00     0.009 A 
HETATM   24  C   UNL     1      -4.141  -1.264 -32.340  1.00  0.00     0.087 A 
HETATM   25  C   UNL     1      -4.921  -2.724 -34.073  1.00  0.00     0.051 A 
HETATM   26  O   UNL     1      -4.302  -0.007 -31.854  1.00  0.00    -0.304 OA
HETATM   27  C   UNL     1      -3.260  -2.217 -31.835  1.00  0.00     0.041 A 
HETATM   28  C   UNL     1      -3.220  -3.452 -32.496  1.00  0.00     0.039 A 
HETATM   29  C   UNL     1      -4.029  -3.705 -33.609  1.00  0.00     0.069 A 
BRANCH  29  30
HETATM   30  O   UNL     1      -4.053  -4.870 -34.329  1.00  0.00    -0.356 OA
HETATM   31  C   UNL     1      -5.272  -5.198 -34.984  1.00  0.00     0.210 C 
ENDBRANCH  29  30
ENDBRANCH   1  20
TORSDOF 4
ENDMDL
MODEL 9
REMARK VINA RESULT:      -7.9      1.736      2.263
REMARK  4 active torsions:
REMARK  status: ('A' for Active; 'I' for Inactive)
REMARK    1  A    between atoms: C_3  and  C_4 
REMARK       I    between atoms: C_4  and  N_5 
REMARK    2  A    between atoms: N_5  and  C_6 
REMARK    3  A    between atoms: C_13  and  C_14 
REMARK       I    between atoms: C_14  and  N_15 
REMARK    4  A    between atoms: C_25  and  O_26 
ROOT
HETATM    1  C   UNL     1      -5.235   2.428 -31.368  1.00  0.00     0.280 C 
HETATM    2  N   UNL     1      -4.575   3.357 -32.154  1.00  0.00    -0.321 N 
HETATM    3  O   UNL     1      -5.602   2.606 -30.213  1.00  0.00    -0.265 OA
HETATM    4  H   UNL     1      -4.333   3.022 -33.080  1.00  0.00     0.169 HD
ENDROOT
BRANCH   2   5
HETATM    5  C   UNL     1      -4.253   4.694 -31.851  1.00  0.00     0.036 A 
HETATM    6  C   UNL     1      -3.020   5.099 -31.323  1.00  0.00     0.046 A 
HETATM    7  C   UNL     1      -2.806   6.461 -31.017  1.00  0.00     0.030 A 
HETATM    8  C   UNL     1      -3.828   7.371 -31.256  1.00  0.00     0.063 A 
HETATM    9  C   UNL     1      -1.737   7.240 -30.477  1.00  0.00     0.156 A 
HETATM   10  N   UNL     1      -3.335   8.584 -30.862  1.00  0.00    -0.277 N 
HETATM   11  C   UNL     1      -5.065   7.006 -31.791  1.00  0.00     0.034 A 
HETATM   12  H   UNL     1      -3.811   9.478 -30.890  1.00  0.00     0.189 HD
HETATM   13  N   UNL     1      -2.080   8.546 -30.386  1.00  0.00    -0.168 NA
HETATM   14  C   UNL     1      -5.254   5.649 -32.081  1.00  0.00     0.032 A 
BRANCH   9  15
HETATM   15  C   UNL     1      -0.415   6.770 -30.045  1.00  0.00     0.270 C 
HETATM   16  N   UNL     1      -0.432   6.046 -28.882  1.00  0.00    -0.365 N 
HETATM   17  H   UNL     1      -1.320   5.890 -28.422  1.00  0.00     0.159 HD
HETATM   18  H   UNL     1       0.429   5.680 -28.510  1.00  0.00     0.159 HD
HETATM   19  O   UNL     1       0.635   6.983 -30.642  1.00  0.00    -0.266 OA
ENDBRANCH   9  15
ENDBRANCH   2   5
BRANCH   1  20
HETATM   20  C   UNL     1      -5.481   1.179 -32.077  1.00  0.00     0.150 A 
HETATM   21  C   UNL     1      -6.662   0.564 -32.476  1.00  0.00    -0.009 A 
HETATM   22  C   UNL     1      -8.042   1.060 -32.234  1.00  0.00     0.052 C 
HETATM   23  C   UNL     1      -6.276  -0.610 -33.190  1.00  0.00     0.009 A 
HETATM   24  C   UNL     1      -4.890  -0.647 -33.152  1.00  0.00     0.087 A 
HETATM   25  C   UNL     1      -6.946  -1.643 -33.872  1.00  0.00     0.051 A 
HETATM   26  O   UNL     1      -4.405   0.428 -32.478  1.00  0.00    -0.304 OA
HETATM   27  C   UNL     1      -4.117  -1.646 -33.737  1.00  0.00     0.041 A 
HETATM   28  C   UNL     1      -4.807  -2.660 -34.416  1.00  0.00     0.039 A 
HETATM   29  C   UNL     1      -6.203  -2.659 -34.496  1.00  0.00     0.069 A 
BRANCH  29  30
HETATM   30  O   UNL     1      -6.966  -3.592 -35.146  1.00  0.00    -0.356 OA
HETATM   31  C   UNL     1      -6.336  -4.825 -35.472  1.00  0.00     0.210 C 
ENDBRANCH  29  30
ENDBRANCH   1  20
TORSDOF 4
ENDMDL
MODEL 10
REMARK VINA RESULT:      -7.7      2.935      3.808
REMARK  4 active torsions:
REMARK  status: ('A' for Active; 'I' for Inactive)
REMARK    1  A    between atoms: C_3  and  C_4 
REMARK       I    between atoms: C_4  and  N_5 
REMARK    2  A    between atoms: N_5  and  C_6 
REMARK    3  A    between atoms: C_13  and  C_14 
REMARK       I    between atoms: C_14  and  N_15 
REMARK    4  A    between atoms: C_25  and  O_26 
ROOT
HETATM    1  C   UNL     1      -4.746   2.240 -32.545  1.00  0.00     0.280 C 
HETATM    2  N   UNL     1      -4.592   3.609 -32.677  1.00  0.00    -0.321 N 
HETATM    3  O   UNL     1      -3.857   1.449 -32.250  1.00  0.00    -0.265 OA
HETATM    4  H   UNL     1      -5.437   4.099 -32.947  1.00  0.00     0.169 HD
ENDROOT
BRANCH   2   5
HETATM    5  C   UNL     1      -3.446   4.391 -32.436  1.00  0.00     0.036 A 
HETATM    6  C   UNL     1      -3.223   5.105 -31.251  1.00  0.00     0.046 A 
HETATM    7  C   UNL     1      -2.057   5.892 -31.120  1.00  0.00     0.030 A 
HETATM    8  C   UNL     1      -1.153   5.933 -32.173  1.00  0.00     0.063 A 
HETATM    9  C   UNL     1      -1.495   6.740 -30.117  1.00  0.00     0.156 A 
HETATM   10  N   UNL     1      -0.151   6.765 -31.760  1.00  0.00    -0.277 N 
HETATM   11  C   UNL     1      -1.337   5.227 -33.364  1.00  0.00     0.034 A 
HETATM   12  H   UNL     1       0.678   7.031 -32.278  1.00  0.00     0.189 HD
HETATM   13  N   UNL     1      -0.322   7.273 -30.528  1.00  0.00    -0.168 NA
HETATM   14  C   UNL     1      -2.502   4.458 -33.471  1.00  0.00     0.032 A 
BRANCH   9  15
HETATM   15  C   UNL     1      -2.051   7.055 -28.795  1.00  0.00     0.270 C 
HETATM   16  N   UNL     1      -1.347   6.517 -27.751  1.00  0.00    -0.365 N 
HETATM   17  H   UNL     1      -0.524   5.965 -27.956  1.00  0.00     0.159 HD
HETATM   18  H   UNL     1      -1.652   6.683 -26.805  1.00  0.00     0.159 HD
HETATM   19  O   UNL     1      -3.052   7.735 -28.599  1.00  0.00    -0.266 OA
ENDBRANCH   9  15
ENDBRANCH   2   5
BRANCH   1  20
HETATM   20  C   UNL     1      -6.118   1.813 -32.779  1.00  0.00     0.150 A 
HETATM   21  C   UNL     1      -6.834   0.718 -32.309  1.00  0.00    -0.009 A 
HETATM   22  C   UNL     1      -6.323  -0.356 -31.418  1.00  0.00     0.052 C 
HETATM   23  C   UNL     1      -8.158   0.858 -32.824  1.00  0.00     0.009 A 
HETATM   24  C   UNL     1      -8.151   2.011 -33.596  1.00  0.00     0.087 A 
HETATM   25  C   UNL     1      -9.365   0.142 -32.717  1.00  0.00     0.051 A 
HETATM   26  O   UNL     1      -6.922   2.588 -33.576  1.00  0.00    -0.304 OA
HETATM   27  C   UNL     1      -9.260   2.501 -34.281  1.00  0.00     0.041 A 
HETATM   28  C   UNL     1     -10.451   1.774 -34.153  1.00  0.00     0.039 A 
HETATM   29  C   UNL     1     -10.514   0.614 -33.373  1.00  0.00     0.069 A 
BRANCH  29  30
HETATM   30  O   UNL     1     -11.629  -0.154 -33.175  1.00  0.00    -0.356 OA
HETATM   31  C   UNL     1     -12.859   0.353 -33.677  1.00  0.00     0.210 C 
ENDBRANCH  29  30
ENDBRANCH   1  20
TORSDOF 4
ENDMDL
