MODEL 1
REMARK VINA RESULT:      -9.5      0.000      0.000
REMARK  8 active torsions:
REMARK  status: ('A' for Active; 'I' for Inactive)
REMARK    1  A    between atoms: C_5  and  C_6 
REMARK       I    between atoms: C_6  and  N_7 
REMARK    2  A    between atoms: N_7  and  N_8 
REMARK       I    between atoms: N_8  and  C_9 
REMARK    3  A    between atoms: C_9  and  C_10 
REMARK    4  A    between atoms: C_10  and  S_11 
REMARK    5  A    between atoms: S_11  and  C_12 
REMARK    6  A    between atoms: N_13  and  C_14 
REMARK    7  A    between atoms: C_21  and  C_22 
REMARK    8  A    between atoms: C_22  and  N_23 
ROOT
HETATM    1  C   UNL     1      -4.645   6.065 -30.231  1.00  0.00     0.196 A 
HETATM    2  N   UNL     1      -3.443   6.565 -30.698  1.00  0.00    -0.274 N 
HETATM    3  C   UNL     1      -3.072   7.501 -29.730  1.00  0.00     0.166 A 
HETATM    4  N   UNL     1      -3.943   7.463 -28.739  1.00  0.00    -0.131 NA
HETATM    5  N   UNL     1      -4.925   6.575 -29.056  1.00  0.00    -0.122 NA
ENDROOT
BRANCH   1   6
HETATM    6  S   UNL     1      -5.580   4.816 -30.982  1.00  0.00    -0.080 SA
BRANCH   6   7
HETATM    7  C   UNL     1      -5.778   3.685 -29.576  1.00  0.00     0.187 C 
BRANCH   7   8
HETATM    8  C   UNL     1      -5.986   2.270 -30.085  1.00  0.00     0.245 C 
HETATM    9  N   UNL     1      -6.176   2.200 -31.449  1.00  0.00    -0.267 N 
HETATM   10  H   UNL     1      -6.210   3.011 -32.069  1.00  0.00     0.190 HD
HETATM   11  O   UNL     1      -5.970   1.278 -29.353  1.00  0.00    -0.271 OA
BRANCH   9  12
HETATM   12  N   UNL     1      -6.449   0.973 -32.063  1.00  0.00    -0.263 N 
HETATM   13  C   UNL     1      -5.377   0.335 -32.664  1.00  0.00     0.270 C 
HETATM   14  O   UNL     1      -4.242   0.808 -32.592  1.00  0.00    -0.266 OA
HETATM   15  H   UNL     1      -7.424   0.719 -32.178  1.00  0.00     0.190 HD
BRANCH  13  16
HETATM   16  C   UNL     1      -5.635  -0.922 -33.423  1.00  0.00     0.033 A 
HETATM   17  C   UNL     1      -6.914  -1.346 -33.802  1.00  0.00     0.017 A 
HETATM   18  C   UNL     1      -7.077  -2.541 -34.514  1.00  0.00     0.007 A 
HETATM   19  C   UNL     1      -5.970  -3.327 -34.856  1.00  0.00    -0.062 A 
HETATM   20  C   UNL     1      -6.139  -4.622 -35.594  1.00  0.00     0.048 C 
HETATM   21  C   UNL     1      -4.695  -2.912 -34.460  1.00  0.00     0.007 A 
HETATM   22  C   UNL     1      -4.529  -1.719 -33.752  1.00  0.00     0.017 A 
ENDBRANCH  13  16
ENDBRANCH   9  12
ENDBRANCH   7   8
ENDBRANCH   6   7
ENDBRANCH   1   6
BRANCH   2  23
HETATM   23  C   UNL     1      -2.751   6.244 -31.891  1.00  0.00     0.043 A 
HETATM   24  C   UNL     1      -2.950   7.009 -33.049  1.00  0.00     0.033 A 
HETATM   25  C   UNL     1      -2.242   6.703 -34.213  1.00  0.00     0.044 A 
HETATM   26  C   UNL     1      -1.352   5.637 -34.217  1.00  0.00     0.116 A 
HETATM   27  F   UNL     1      -0.673   5.346 -35.333  1.00  0.00    -0.206 F 
HETATM   28  C   UNL     1      -1.157   4.863 -33.078  1.00  0.00     0.044 A 
HETATM   29  C   UNL     1      -1.857   5.163 -31.907  1.00  0.00     0.033 A 
ENDBRANCH   2  23
BRANCH   3  30
HETATM   30  C   UNL     1      -1.953   8.498 -29.837  1.00  0.00     0.255 C 
HETATM   31  C   UNL     1      -2.368   9.897 -29.364  1.00  0.00     0.049 C 
BRANCH  30  32
HETATM   32  N   UNL     1      -0.651   8.111 -29.080  1.00  0.00    -0.060 N 
HETATM   33  H   UNL     1       0.099   8.186 -29.777  1.00  0.00     0.280 HD
HETATM   34  C   UNL     1      -0.265   9.033 -27.935  1.00  0.00     0.236 C 
HETATM   35  C   UNL     1       1.136   8.667 -27.455  1.00  0.00     0.028 C 
HETATM   36  C   UNL     1       1.220   7.204 -27.035  1.00  0.00     0.003 C 
HETATM   37  C   UNL     1       0.731   6.280 -28.145  1.00  0.00     0.028 C 
HETATM   38  C   UNL     1      -0.664   6.664 -28.626  1.00  0.00     0.236 C 
ENDBRANCH  30  32
ENDBRANCH   3  30
TORSDOF 8
ENDMDL
MODEL 2
REMARK VINA RESULT:      -9.5      3.172      9.900
REMARK  8 active torsions:
REMARK  status: ('A' for Active; 'I' for Inactive)
REMARK    1  A    between atoms: C_5  and  C_6 
REMARK       I    between atoms: C_6  and  N_7 
REMARK    2  A    between atoms: N_7  and  N_8 
REMARK       I    between atoms: N_8  and  C_9 
REMARK    3  A    between atoms: C_9  and  C_10 
REMARK    4  A    between atoms: C_10  and  S_11 
REMARK    5  A    between atoms: S_11  and  C_12 
REMARK    6  A    between atoms: N_13  and  C_14 
REMARK    7  A    between atoms: C_21  and  C_22 
REMARK    8  A    between atoms: C_22  and  N_23 
ROOT
HETATM    1  C   UNL     1      -4.103   3.722 -33.016  1.00  0.00     0.196 A 
HETATM    2  N   UNL     1      -5.059   2.800 -32.630  1.00  0.00    -0.274 N 
HETATM    3  C   UNL     1      -4.310   1.728 -32.138  1.00  0.00     0.166 A 
HETATM    4  N   UNL     1      -3.032   2.056 -32.149  1.00  0.00    -0.131 NA
HETATM    5  N   UNL     1      -2.904   3.293 -32.703  1.00  0.00    -0.122 NA
ENDROOT
BRANCH   1   6
HETATM    6  S   UNL     1      -4.419   5.296 -33.662  1.00  0.00    -0.080 SA
BRANCH   6   7
HETATM    7  C   UNL     1      -2.792   5.677 -34.370  1.00  0.00     0.187 C 
BRANCH   7   8
HETATM    8  C   UNL     1      -2.001   6.536 -33.399  1.00  0.00     0.245 C 
HETATM    9  N   UNL     1      -1.863   5.967 -32.150  1.00  0.00    -0.267 N 
HETATM   10  H   UNL     1      -2.272   5.072 -31.876  1.00  0.00     0.190 HD
HETATM   11  O   UNL     1      -1.515   7.627 -33.702  1.00  0.00    -0.271 OA
BRANCH   9  12
HETATM   12  N   UNL     1      -1.218   6.664 -31.123  1.00  0.00    -0.263 N 
HETATM   13  C   UNL     1      -0.488   5.901 -30.228  1.00  0.00     0.270 C 
HETATM   14  O   UNL     1      -0.371   4.685 -30.385  1.00  0.00    -0.266 OA
HETATM   15  H   UNL     1      -1.464   7.640 -31.000  1.00  0.00     0.190 HD
BRANCH  13  16
HETATM   16  C   UNL     1       0.130   6.583 -29.055  1.00  0.00     0.033 A 
HETATM   17  C   UNL     1       0.070   6.081 -27.749  1.00  0.00     0.017 A 
HETATM   18  C   UNL     1       0.676   6.780 -26.698  1.00  0.00     0.007 A 
HETATM   19  C   UNL     1       1.348   7.985 -26.933  1.00  0.00    -0.062 A 
HETATM   20  C   UNL     1       1.975   8.753 -25.807  1.00  0.00     0.048 C 
HETATM   21  C   UNL     1       1.391   8.495 -28.234  1.00  0.00     0.007 A 
HETATM   22  C   UNL     1       0.790   7.799 -29.286  1.00  0.00     0.017 A 
ENDBRANCH  13  16
ENDBRANCH   9  12
ENDBRANCH   7   8
ENDBRANCH   6   7
ENDBRANCH   1   6
BRANCH   2  23
HETATM   23  C   UNL     1      -6.469   2.887 -32.733  1.00  0.00     0.043 A 
HETATM   24  C   UNL     1      -7.120   2.425 -33.886  1.00  0.00     0.033 A 
HETATM   25  C   UNL     1      -8.514   2.488 -33.967  1.00  0.00     0.044 A 
HETATM   26  C   UNL     1      -9.242   3.016 -32.908  1.00  0.00     0.116 A 
HETATM   27  F   UNL     1     -10.577   3.073 -32.987  1.00  0.00    -0.206 F 
HETATM   28  C   UNL     1      -8.604   3.488 -31.766  1.00  0.00     0.044 A 
HETATM   29  C   UNL     1      -7.212   3.427 -31.673  1.00  0.00     0.033 A 
ENDBRANCH   2  23
BRANCH   3  30
HETATM   30  C   UNL     1      -4.833   0.366 -31.781  1.00  0.00     0.255 C 
HETATM   31  C   UNL     1      -6.020   0.429 -30.812  1.00  0.00     0.049 C 
BRANCH  30  32
HETATM   32  N   UNL     1      -5.258  -0.515 -32.991  1.00  0.00    -0.060 N 
HETATM   33  H   UNL     1      -5.089   0.066 -33.820  1.00  0.00     0.280 HD
HETATM   34  C   UNL     1      -4.450  -1.787 -33.186  1.00  0.00     0.236 C 
HETATM   35  C   UNL     1      -4.823  -2.408 -34.528  1.00  0.00     0.028 C 
HETATM   36  C   UNL     1      -6.319  -2.689 -34.620  1.00  0.00     0.003 C 
HETATM   37  C   UNL     1      -7.135  -1.437 -34.318  1.00  0.00     0.028 C 
HETATM   38  C   UNL     1      -6.745  -0.816 -32.982  1.00  0.00     0.236 C 
ENDBRANCH  30  32
ENDBRANCH   3  30
TORSDOF 8
ENDMDL
MODEL 3
REMARK VINA RESULT:      -9.4      2.197      9.262
REMARK  8 active torsions:
REMARK  status: ('A' for Active; 'I' for Inactive)
REMARK    1  A    between atoms: C_5  and  C_6 
REMARK       I    between atoms: C_6  and  N_7 
REMARK    2  A    between atoms: N_7  and  N_8 
REMARK       I    between atoms: N_8  and  C_9 
REMARK    3  A    between atoms: C_9  and  C_10 
REMARK    4  A    between atoms: C_10  and  S_11 
REMARK    5  A    between atoms: S_11  and  C_12 
REMARK    6  A    between atoms: N_13  and  C_14 
REMARK    7  A    between atoms: C_21  and  C_22 
REMARK    8  A    between atoms: C_22  and  N_23 
ROOT
HETATM    1  C   UNL     1      -5.799   4.098 -31.186  1.00  0.00     0.196 A 
HETATM    2  N   UNL     1      -4.867   3.531 -32.035  1.00  0.00    -0.274 N 
HETATM    3  C   UNL     1      -5.127   2.162 -31.951  1.00  0.00     0.166 A 
HETATM    4  N   UNL     1      -6.189   1.972 -31.192  1.00  0.00    -0.131 NA
HETATM    5  N   UNL     1      -6.602   3.176 -30.711  1.00  0.00    -0.122 NA
ENDROOT
BRANCH   1   6
HETATM    6  S   UNL     1      -6.014   5.793 -30.906  1.00  0.00    -0.080 SA
BRANCH   6   7
HETATM    7  C   UNL     1      -6.574   5.756 -29.180  1.00  0.00     0.187 C 
BRANCH   7   8
HETATM    8  C   UNL     1      -5.529   6.407 -28.290  1.00  0.00     0.245 C 
HETATM    9  N   UNL     1      -4.241   6.263 -28.761  1.00  0.00    -0.267 N 
HETATM   10  H   UNL     1      -3.990   5.744 -29.604  1.00  0.00     0.190 HD
HETATM   11  O   UNL     1      -5.807   7.020 -27.257  1.00  0.00    -0.271 OA
BRANCH   9  12
HETATM   12  N   UNL     1      -3.159   6.748 -28.019  1.00  0.00    -0.263 N 
HETATM   13  C   UNL     1      -2.037   7.120 -28.741  1.00  0.00     0.270 C 
HETATM   14  O   UNL     1      -2.039   7.081 -29.971  1.00  0.00    -0.266 OA
HETATM   15  H   UNL     1      -3.199   6.634 -27.012  1.00  0.00     0.190 HD
BRANCH  13  16
HETATM   16  C   UNL     1      -0.820   7.543 -27.991  1.00  0.00     0.033 A 
HETATM   17  C   UNL     1       0.344   8.014 -28.610  1.00  0.00     0.017 A 
HETATM   18  C   UNL     1       1.448   8.393 -27.837  1.00  0.00     0.007 A 
HETATM   19  C   UNL     1       1.407   8.308 -26.441  1.00  0.00    -0.062 A 
HETATM   20  C   UNL     1       2.597   8.686 -25.608  1.00  0.00     0.048 C 
HETATM   21  C   UNL     1       0.252   7.819 -25.824  1.00  0.00     0.007 A 
HETATM   22  C   UNL     1      -0.853   7.443 -26.592  1.00  0.00     0.017 A 
ENDBRANCH  13  16
ENDBRANCH   9  12
ENDBRANCH   7   8
ENDBRANCH   6   7
ENDBRANCH   1   6
BRANCH   2  23
HETATM   23  C   UNL     1      -3.855   4.168 -32.794  1.00  0.00     0.043 A 
HETATM   24  C   UNL     1      -2.555   4.283 -32.279  1.00  0.00     0.033 A 
HETATM   25  C   UNL     1      -1.556   4.887 -33.046  1.00  0.00     0.044 A 
HETATM   26  C   UNL     1      -1.860   5.376 -34.310  1.00  0.00     0.116 A 
HETATM   27  F   UNL     1      -0.900   5.953 -35.044  1.00  0.00    -0.206 F 
HETATM   28  C   UNL     1      -3.148   5.279 -34.825  1.00  0.00     0.044 A 
HETATM   29  C   UNL     1      -4.154   4.674 -34.067  1.00  0.00     0.033 A 
ENDBRANCH   2  23
BRANCH   3  30
HETATM   30  C   UNL     1      -4.272   1.057 -32.505  1.00  0.00     0.255 C 
HETATM   31  C   UNL     1      -3.281   0.509 -31.471  1.00  0.00     0.049 C 
BRANCH  30  32
HETATM   32  N   UNL     1      -5.056  -0.151 -33.093  1.00  0.00    -0.060 N 
HETATM   33  H   UNL     1      -5.570  -0.551 -32.299  1.00  0.00     0.280 HD
HETATM   34  C   UNL     1      -6.097   0.198 -34.145  1.00  0.00     0.236 C 
HETATM   35  C   UNL     1      -6.932  -1.042 -34.444  1.00  0.00     0.028 C 
HETATM   36  C   UNL     1      -6.063  -2.209 -34.897  1.00  0.00     0.003 C 
HETATM   37  C   UNL     1      -4.951  -2.492 -33.893  1.00  0.00     0.028 C 
HETATM   38  C   UNL     1      -4.130  -1.243 -33.591  1.00  0.00     0.236 C 
ENDBRANCH  30  32
ENDBRANCH   3  30
TORSDOF 8
ENDMDL
MODEL 4
REMARK VINA RESULT:      -9.4      3.627     10.066
REMARK  8 active torsions:
REMARK  status: ('A' for Active; 'I' for Inactive)
REMARK    1  A    between atoms: C_5  and  C_6 
REMARK       I    between atoms: C_6  and  N_7 
REMARK    2  A    between atoms: N_7  and  N_8 
REMARK       I    between atoms: N_8  and  C_9 
REMARK    3  A    between atoms: C_9  and  C_10 
REMARK    4  A    between atoms: C_10  and  S_11 
REMARK    5  A    between atoms: S_11  and  C_12 
REMARK    6  A    between atoms: N_13  and  C_14 
REMARK    7  A    between atoms: C_21  and  C_22 
REMARK    8  A    between atoms: C_22  and  N_23 
ROOT
HETATM    1  C   UNL     1      -5.345   3.260 -32.083  1.00  0.00     0.196 A 
HETATM    2  N   UNL     1      -6.412   2.458 -32.441  1.00  0.00    -0.274 N 
HETATM    3  C   UNL     1      -7.525   3.139 -31.945  1.00  0.00     0.166 A 
HETATM    4  N   UNL     1      -7.132   4.291 -31.434  1.00  0.00    -0.131 NA
HETATM    5  N   UNL     1      -5.774   4.361 -31.513  1.00  0.00    -0.122 NA
ENDROOT
BRANCH   1   6
HETATM    6  S   UNL     1      -3.684   2.968 -32.472  1.00  0.00    -0.080 SA
BRANCH   6   7
HETATM    7  C   UNL     1      -3.309   4.479 -33.404  1.00  0.00     0.187 C 
BRANCH   7   8
HETATM    8  C   UNL     1      -2.592   5.470 -32.503  1.00  0.00     0.245 C 
HETATM    9  N   UNL     1      -2.486   5.045 -31.195  1.00  0.00    -0.267 N 
HETATM   10  H   UNL     1      -2.875   4.170 -30.840  1.00  0.00     0.190 HD
HETATM   11  O   UNL     1      -2.133   6.541 -32.906  1.00  0.00    -0.271 OA
BRANCH   9  12
HETATM   12  N   UNL     1      -1.912   5.876 -30.228  1.00  0.00    -0.263 N 
HETATM   13  C   UNL     1      -0.577   5.647 -29.937  1.00  0.00     0.270 C 
HETATM   14  O   UNL     1       0.067   4.801 -30.558  1.00  0.00    -0.266 OA
HETATM   15  H   UNL     1      -2.539   6.461 -29.687  1.00  0.00     0.190 HD
BRANCH  13  16
HETATM   16  C   UNL     1       0.054   6.434 -28.838  1.00  0.00     0.033 A 
HETATM   17  C   UNL     1      -0.050   6.090 -27.485  1.00  0.00     0.017 A 
HETATM   18  C   UNL     1       0.571   6.879 -26.509  1.00  0.00     0.007 A 
HETATM   19  C   UNL     1       1.302   8.018 -26.868  1.00  0.00    -0.062 A 
HETATM   20  C   UNL     1       1.945   8.884 -25.825  1.00  0.00     0.048 C 
HETATM   21  C   UNL     1       1.389   8.371 -28.218  1.00  0.00     0.007 A 
HETATM   22  C   UNL     1       0.773   7.584 -29.194  1.00  0.00     0.017 A 
ENDBRANCH  13  16
ENDBRANCH   9  12
ENDBRANCH   7   8
ENDBRANCH   6   7
ENDBRANCH   1   6
BRANCH   2  23
HETATM   23  C   UNL     1      -6.399   1.215 -33.121  1.00  0.00     0.043 A 
HETATM   24  C   UNL     1      -6.772   1.147 -34.471  1.00  0.00     0.033 A 
HETATM   25  C   UNL     1      -6.729  -0.078 -35.142  1.00  0.00     0.044 A 
HETATM   26  C   UNL     1      -6.325  -1.221 -34.463  1.00  0.00     0.116 A 
HETATM   27  F   UNL     1      -6.283  -2.393 -35.108  1.00  0.00    -0.206 F 
HETATM   28  C   UNL     1      -5.966  -1.166 -33.120  1.00  0.00     0.044 A 
HETATM   29  C   UNL     1      -6.003   0.054 -32.441  1.00  0.00     0.033 A 
ENDBRANCH   2  23
BRANCH   3  30
HETATM   30  C   UNL     1      -8.930   2.613 -31.865  1.00  0.00     0.255 C 
HETATM   31  C   UNL     1      -9.760   3.320 -30.786  1.00  0.00     0.049 C 
BRANCH  30  32
HETATM   32  N   UNL     1      -9.734   2.676 -33.194  1.00  0.00    -0.060 N 
HETATM   33  H   UNL     1      -9.054   2.457 -33.932  1.00  0.00     0.280 HD
HETATM   34  C   UNL     1     -10.854   1.656 -33.328  1.00  0.00     0.236 C 
HETATM   35  C   UNL     1     -11.382   1.685 -34.758  1.00  0.00     0.028 C 
HETATM   36  C   UNL     1     -11.860   3.079 -35.151  1.00  0.00     0.003 C 
HETATM   37  C   UNL     1     -10.773   4.122 -34.917  1.00  0.00     0.028 C 
HETATM   38  C   UNL     1     -10.242   4.074 -33.489  1.00  0.00     0.236 C 
ENDBRANCH  30  32
ENDBRANCH   3  30
TORSDOF 8
ENDMDL
MODEL 5
REMARK VINA RESULT:      -9.3      2.357      3.690
REMARK  8 active torsions:
REMARK  status: ('A' for Active; 'I' for Inactive)
REMARK    1  A    between atoms: C_5  and  C_6 
REMARK       I    between atoms: C_6  and  N_7 
REMARK    2  A    between atoms: N_7  and  N_8 
REMARK       I    between atoms: N_8  and  C_9 
REMARK    3  A    between atoms: C_9  and  C_10 
REMARK    4  A    between atoms: C_10  and  S_11 
REMARK    5  A    between atoms: S_11  and  C_12 
REMARK    6  A    between atoms: N_13  and  C_14 
REMARK    7  A    between atoms: C_21  and  C_22 
REMARK    8  A    between atoms: C_22  and  N_23 
ROOT
HETATM    1  C   UNL     1      -3.562   5.292 -31.171  1.00  0.00     0.196 A 
HETATM    2  N   UNL     1      -2.578   6.174 -30.764  1.00  0.00    -0.274 N 
HETATM    3  C   UNL     1      -1.398   5.435 -30.877  1.00  0.00     0.166 A 
HETATM    4  N   UNL     1      -1.678   4.258 -31.404  1.00  0.00    -0.131 NA
HETATM    5  N   UNL     1      -3.025   4.167 -31.579  1.00  0.00    -0.122 NA
ENDROOT
BRANCH   1   6
HETATM    6  S   UNL     1      -5.251   5.651 -31.301  1.00  0.00    -0.080 SA
BRANCH   6   7
HETATM    7  C   UNL     1      -5.356   6.026 -33.074  1.00  0.00     0.187 C 
BRANCH   7   8
HETATM    8  C   UNL     1      -5.415   4.731 -33.867  1.00  0.00     0.245 C 
HETATM    9  N   UNL     1      -5.967   3.682 -33.163  1.00  0.00    -0.267 N 
HETATM   10  H   UNL     1      -6.281   3.740 -32.193  1.00  0.00     0.190 HD
HETATM   11  O   UNL     1      -5.024   4.633 -35.032  1.00  0.00    -0.271 OA
BRANCH   9  12
HETATM   12  N   UNL     1      -6.030   2.405 -33.732  1.00  0.00    -0.263 N 
HETATM   13  C   UNL     1      -5.822   1.340 -32.872  1.00  0.00     0.270 C 
HETATM   14  O   UNL     1      -5.660   1.526 -31.666  1.00  0.00    -0.266 OA
HETATM   15  H   UNL     1      -6.049   2.349 -34.744  1.00  0.00     0.190 HD
BRANCH  13  16
HETATM   16  C   UNL     1      -5.773  -0.036 -33.447  1.00  0.00     0.033 A 
HETATM   17  C   UNL     1      -4.603  -0.801 -33.520  1.00  0.00     0.017 A 
HETATM   18  C   UNL     1      -4.637  -2.086 -34.074  1.00  0.00     0.007 A 
HETATM   19  C   UNL     1      -5.834  -2.624 -34.562  1.00  0.00    -0.062 A 
HETATM   20  C   UNL     1      -5.871  -3.989 -35.183  1.00  0.00     0.048 C 
HETATM   21  C   UNL     1      -6.998  -1.852 -34.506  1.00  0.00     0.007 A 
HETATM   22  C   UNL     1      -6.968  -0.570 -33.951  1.00  0.00     0.017 A 
ENDBRANCH  13  16
ENDBRANCH   9  12
ENDBRANCH   7   8
ENDBRANCH   6   7
ENDBRANCH   1   6
BRANCH   2  23
HETATM   23  C   UNL     1      -2.715   7.506 -30.303  1.00  0.00     0.043 A 
HETATM   24  C   UNL     1      -3.150   7.758 -28.994  1.00  0.00     0.033 A 
HETATM   25  C   UNL     1      -3.254   9.074 -28.538  1.00  0.00     0.044 A 
HETATM   26  C   UNL     1      -2.936  10.124 -29.390  1.00  0.00     0.116 A 
HETATM   27  F   UNL     1      -3.035  11.385 -28.951  1.00  0.00    -0.206 F 
HETATM   28  C   UNL     1      -2.517   9.886 -30.695  1.00  0.00     0.044 A 
HETATM   29  C   UNL     1      -2.405   8.574 -31.159  1.00  0.00     0.033 A 
ENDBRANCH   2  23
BRANCH   3  30
HETATM   30  C   UNL     1      -0.045   5.833 -30.362  1.00  0.00     0.255 C 
HETATM   31  C   UNL     1       0.739   6.683 -31.371  1.00  0.00     0.049 C 
BRANCH  30  32
HETATM   32  N   UNL     1      -0.053   6.598 -29.008  1.00  0.00    -0.060 N 
HETATM   33  H   UNL     1      -1.025   6.903 -28.877  1.00  0.00     0.280 HD
HETATM   34  C   UNL     1       0.303   5.765 -27.787  1.00  0.00     0.236 C 
HETATM   35  C   UNL     1       0.021   6.583 -26.532  1.00  0.00     0.028 C 
HETATM   36  C   UNL     1       0.784   7.902 -26.538  1.00  0.00     0.003 C 
HETATM   37  C   UNL     1       0.512   8.693 -27.813  1.00  0.00     0.028 C 
HETATM   38  C   UNL     1       0.784   7.862 -29.062  1.00  0.00     0.236 C 
ENDBRANCH  30  32
ENDBRANCH   3  30
TORSDOF 8
ENDMDL
MODEL 6
REMARK VINA RESULT:      -8.9      3.993      7.290
REMARK  8 active torsions:
REMARK  status: ('A' for Active; 'I' for Inactive)
REMARK    1  A    between atoms: C_5  and  C_6 
REMARK       I    between atoms: C_6  and  N_7 
REMARK    2  A    between atoms: N_7  and  N_8 
REMARK       I    between atoms: N_8  and  C_9 
REMARK    3  A    between atoms: C_9  and  C_10 
REMARK    4  A    between atoms: C_10  and  S_11 
REMARK    5  A    between atoms: S_11  and  C_12 
REMARK    6  A    between atoms: N_13  and  C_14 
REMARK    7  A    between atoms: C_21  and  C_22 
REMARK    8  A    between atoms: C_22  and  N_23 
ROOT
HETATM    1  C   UNL     1      -5.505   4.042 -30.793  1.00  0.00     0.196 A 
HETATM    2  N   UNL     1      -4.658   3.479 -31.730  1.00  0.00    -0.274 N 
HETATM    3  C   UNL     1      -4.922   2.111 -31.641  1.00  0.00     0.166 A 
HETATM    4  N   UNL     1      -5.914   1.919 -30.792  1.00  0.00    -0.131 NA
HETATM    5  N   UNL     1      -6.270   3.121 -30.260  1.00  0.00    -0.122 NA
ENDROOT
BRANCH   1   6
HETATM    6  S   UNL     1      -5.677   5.735 -30.473  1.00  0.00    -0.080 SA
BRANCH   6   7
HETATM    7  C   UNL     1      -6.798   6.197 -31.824  1.00  0.00     0.187 C 
BRANCH   7   8
HETATM    8  C   UNL     1      -8.081   5.390 -31.720  1.00  0.00     0.245 C 
HETATM    9  N   UNL     1      -8.150   4.349 -32.622  1.00  0.00    -0.267 N 
HETATM   10  H   UNL     1      -7.433   4.144 -33.321  1.00  0.00     0.190 HD
HETATM   11  O   UNL     1      -8.968   5.632 -30.898  1.00  0.00    -0.271 OA
BRANCH   9  12
HETATM   12  N   UNL     1      -9.298   3.554 -32.698  1.00  0.00    -0.263 N 
HETATM   13  C   UNL     1     -10.112   3.757 -33.800  1.00  0.00     0.270 C 
HETATM   14  O   UNL     1      -9.789   4.550 -34.685  1.00  0.00    -0.266 OA
HETATM   15  H   UNL     1      -9.546   3.018 -31.874  1.00  0.00     0.190 HD
BRANCH  13  16
HETATM   16  C   UNL     1     -11.402   3.011 -33.875  1.00  0.00     0.033 A 
HETATM   17  C   UNL     1     -12.443   3.175 -32.953  1.00  0.00     0.017 A 
HETATM   18  C   UNL     1     -13.626   2.438 -33.090  1.00  0.00     0.007 A 
HETATM   19  C   UNL     1     -13.786   1.531 -34.144  1.00  0.00    -0.062 A 
HETATM   20  C   UNL     1     -15.038   0.717 -34.280  1.00  0.00     0.048 C 
HETATM   21  C   UNL     1     -12.738   1.354 -35.052  1.00  0.00     0.007 A 
HETATM   22  C   UNL     1     -11.557   2.090 -34.920  1.00  0.00     0.017 A 
ENDBRANCH  13  16
ENDBRANCH   9  12
ENDBRANCH   7   8
ENDBRANCH   6   7
ENDBRANCH   1   6
BRANCH   2  23
HETATM   23  C   UNL     1      -3.713   4.118 -32.570  1.00  0.00     0.043 A 
HETATM   24  C   UNL     1      -4.100   4.597 -33.830  1.00  0.00     0.033 A 
HETATM   25  C   UNL     1      -3.168   5.251 -34.639  1.00  0.00     0.044 A 
HETATM   26  C   UNL     1      -1.863   5.414 -34.193  1.00  0.00     0.116 A 
HETATM   27  F   UNL     1      -0.972   6.043 -34.969  1.00  0.00    -0.206 F 
HETATM   28  C   UNL     1      -1.465   4.931 -32.950  1.00  0.00     0.044 A 
HETATM   29  C   UNL     1      -2.390   4.279 -32.132  1.00  0.00     0.033 A 
ENDBRANCH   2  23
BRANCH   3  30
HETATM   30  C   UNL     1      -4.132   1.007 -32.284  1.00  0.00     0.255 C 
HETATM   31  C   UNL     1      -3.144   0.351 -31.312  1.00  0.00     0.049 C 
BRANCH  30  32
HETATM   32  N   UNL     1      -4.984  -0.126 -32.925  1.00  0.00    -0.060 N 
HETATM   33  H   UNL     1      -5.487  -0.560 -32.143  1.00  0.00     0.280 HD
HETATM   34  C   UNL     1      -6.043   0.336 -33.913  1.00  0.00     0.236 C 
HETATM   35  C   UNL     1      -6.938  -0.847 -34.267  1.00  0.00     0.028 C 
HETATM   36  C   UNL     1      -6.132  -2.012 -34.830  1.00  0.00     0.003 C 
HETATM   37  C   UNL     1      -5.000  -2.408 -33.888  1.00  0.00     0.028 C 
HETATM   38  C   UNL     1      -4.120  -1.216 -33.531  1.00  0.00     0.236 C 
ENDBRANCH  30  32
ENDBRANCH   3  30
TORSDOF 8
ENDMDL
MODEL 7
REMARK VINA RESULT:      -8.8      3.525     10.357
REMARK  8 active torsions:
REMARK  status: ('A' for Active; 'I' for Inactive)
REMARK    1  A    between atoms: C_5  and  C_6 
REMARK       I    between atoms: C_6  and  N_7 
REMARK    2  A    between atoms: N_7  and  N_8 
REMARK       I    between atoms: N_8  and  C_9 
REMARK    3  A    between atoms: C_9  and  C_10 
REMARK    4  A    between atoms: C_10  and  S_11 
REMARK    5  A    between atoms: S_11  and  C_12 
REMARK    6  A    between atoms: N_13  and  C_14 
REMARK    7  A    between atoms: C_21  and  C_22 
REMARK    8  A    between atoms: C_22  and  N_23 
ROOT
HETATM    1  C   UNL     1      -7.443   1.687 -31.452  1.00  0.00     0.196 A 
HETATM    2  N   UNL     1      -8.074   1.051 -32.505  1.00  0.00    -0.274 N 
HETATM    3  C   UNL     1      -7.218  -0.008 -32.818  1.00  0.00     0.166 A 
HETATM    4  N   UNL     1      -6.228  -0.032 -31.946  1.00  0.00    -0.131 NA
HETATM    5  N   UNL     1      -6.365   1.027 -31.101  1.00  0.00    -0.122 NA
ENDROOT
BRANCH   1   6
HETATM    6  S   UNL     1      -8.052   3.057 -30.586  1.00  0.00    -0.080 SA
BRANCH   6   7
HETATM    7  C   UNL     1      -7.317   4.397 -31.564  1.00  0.00     0.187 C 
BRANCH   7   8
HETATM    8  C   UNL     1      -6.379   5.211 -30.690  1.00  0.00     0.245 C 
HETATM    9  N   UNL     1      -5.051   4.873 -30.847  1.00  0.00    -0.267 N 
HETATM   10  H   UNL     1      -4.714   4.129 -31.461  1.00  0.00     0.190 HD
HETATM   11  O   UNL     1      -6.764   6.099 -29.927  1.00  0.00    -0.271 OA
BRANCH   9  12
HETATM   12  N   UNL     1      -4.068   5.485 -30.063  1.00  0.00    -0.263 N 
HETATM   13  C   UNL     1      -3.109   6.218 -30.741  1.00  0.00     0.270 C 
HETATM   14  O   UNL     1      -3.176   6.365 -31.962  1.00  0.00    -0.266 OA
HETATM   15  H   UNL     1      -4.020   5.215 -29.086  1.00  0.00     0.190 HD
BRANCH  13  16
HETATM   16  C   UNL     1      -1.980   6.801 -29.962  1.00  0.00     0.033 A 
HETATM   17  C   UNL     1      -2.149   7.482 -28.750  1.00  0.00     0.017 A 
HETATM   18  C   UNL     1      -1.038   8.004 -28.075  1.00  0.00     0.007 A 
HETATM   19  C   UNL     1       0.252   7.853 -28.597  1.00  0.00    -0.062 A 
HETATM   20  C   UNL     1       1.443   8.434 -27.894  1.00  0.00     0.048 C 
HETATM   21  C   UNL     1       0.418   7.190 -29.816  1.00  0.00     0.007 A 
HETATM   22  C   UNL     1      -0.688   6.666 -30.491  1.00  0.00     0.017 A 
ENDBRANCH  13  16
ENDBRANCH   9  12
ENDBRANCH   7   8
ENDBRANCH   6   7
ENDBRANCH   1   6
BRANCH   2  23
HETATM   23  C   UNL     1      -9.286   1.395 -33.153  1.00  0.00     0.043 A 
HETATM   24  C   UNL     1      -9.348   2.532 -33.971  1.00  0.00     0.033 A 
HETATM   25  C   UNL     1     -10.540   2.848 -34.629  1.00  0.00     0.044 A 
HETATM   26  C   UNL     1     -11.655   2.038 -34.460  1.00  0.00     0.116 A 
HETATM   27  F   UNL     1     -12.795   2.341 -35.093  1.00  0.00    -0.206 F 
HETATM   28  C   UNL     1     -11.607   0.915 -33.640  1.00  0.00     0.044 A 
HETATM   29  C   UNL     1     -10.420   0.588 -32.981  1.00  0.00     0.033 A 
ENDBRANCH   2  23
BRANCH   3  30
HETATM   30  C   UNL     1      -7.306  -0.898 -34.025  1.00  0.00     0.255 C 
HETATM   31  C   UNL     1      -6.942  -0.166 -35.322  1.00  0.00     0.049 C 
BRANCH  30  32
HETATM   32  N   UNL     1      -6.443  -2.190 -33.955  1.00  0.00    -0.060 N 
HETATM   33  H   UNL     1      -6.555  -2.538 -32.995  1.00  0.00     0.280 HD
HETATM   34  C   UNL     1      -6.884  -3.319 -34.873  1.00  0.00     0.236 C 
HETATM   35  C   UNL     1      -6.100  -4.578 -34.520  1.00  0.00     0.028 C 
HETATM   36  C   UNL     1      -4.596  -4.348 -34.615  1.00  0.00     0.003 C 
HETATM   37  C   UNL     1      -4.166  -3.149 -33.778  1.00  0.00     0.028 C 
HETATM   38  C   UNL     1      -4.965  -1.899 -34.129  1.00  0.00     0.236 C 
ENDBRANCH  30  32
ENDBRANCH   3  30
TORSDOF 8
ENDMDL
MODEL 8
REMARK VINA RESULT:      -8.7      3.043      9.783
REMARK  8 active torsions:
REMARK  status: ('A' for Active; 'I' for Inactive)
REMARK    1  A    between atoms: C_5  and  C_6 
REMARK       I    between atoms: C_6  and  N_7 
REMARK    2  A    between atoms: N_7  and  N_8 
REMARK       I    between atoms: N_8  and  C_9 
REMARK    3  A    between atoms: C_9  and  C_10 
REMARK    4  A    between atoms: C_10  and  S_11 
REMARK    5  A    between atoms: S_11  and  C_12 
REMARK    6  A    between atoms: N_13  and  C_14 
REMARK    7  A    between atoms: C_21  and  C_22 
REMARK    8  A    between atoms: C_22  and  N_23 
ROOT
HETATM    1  C   UNL     1      -5.089   3.344 -33.159  1.00  0.00     0.196 A 
HETATM    2  N   UNL     1      -5.770   2.179 -32.860  1.00  0.00    -0.274 N 
HETATM    3  C   UNL     1      -4.797   1.359 -32.285  1.00  0.00     0.166 A 
HETATM    4  N   UNL     1      -3.673   2.041 -32.172  1.00  0.00    -0.131 NA
HETATM    5  N   UNL     1      -3.854   3.273 -32.723  1.00  0.00    -0.122 NA
ENDROOT
BRANCH   1   6
HETATM    6  S   UNL     1      -5.781   4.772 -33.849  1.00  0.00    -0.080 SA
BRANCH   6   7
HETATM    7  C   UNL     1      -6.726   5.382 -32.425  1.00  0.00     0.187 C 
BRANCH   7   8
HETATM    8  C   UNL     1      -5.771   5.846 -31.339  1.00  0.00     0.245 C 
HETATM    9  N   UNL     1      -4.832   6.752 -31.785  1.00  0.00    -0.267 N 
HETATM   10  H   UNL     1      -4.749   7.067 -32.753  1.00  0.00     0.190 HD
HETATM   11  O   UNL     1      -5.840   5.464 -30.169  1.00  0.00    -0.271 OA
BRANCH   9  12
HETATM   12  N   UNL     1      -3.838   7.223 -30.921  1.00  0.00    -0.263 N 
HETATM   13  C   UNL     1      -2.531   6.927 -31.270  1.00  0.00     0.270 C 
HETATM   14  O   UNL     1      -2.277   6.341 -32.322  1.00  0.00    -0.266 OA
HETATM   15  H   UNL     1      -4.139   7.589 -30.024  1.00  0.00     0.190 HD
BRANCH  13  16
HETATM   16  C   UNL     1      -1.441   7.314 -30.328  1.00  0.00     0.033 A 
HETATM   17  C   UNL     1      -0.181   6.705 -30.314  1.00  0.00     0.017 A 
HETATM   18  C   UNL     1       0.793   7.124 -29.399  1.00  0.00     0.007 A 
HETATM   19  C   UNL     1       0.523   8.151 -28.487  1.00  0.00    -0.062 A 
HETATM   20  C   UNL     1       1.551   8.585 -27.485  1.00  0.00     0.048 C 
HETATM   21  C   UNL     1      -0.742   8.745 -28.489  1.00  0.00     0.007 A 
HETATM   22  C   UNL     1      -1.715   8.332 -29.403  1.00  0.00     0.017 A 
ENDBRANCH  13  16
ENDBRANCH   9  12
ENDBRANCH   7   8
ENDBRANCH   6   7
ENDBRANCH   1   6
BRANCH   2  23
HETATM   23  C   UNL     1      -7.128   1.858 -33.104  1.00  0.00     0.043 A 
HETATM   24  C   UNL     1      -7.539   1.458 -34.384  1.00  0.00     0.033 A 
HETATM   25  C   UNL     1      -8.874   1.115 -34.609  1.00  0.00     0.044 A 
HETATM   26  C   UNL     1      -9.787   1.181 -33.564  1.00  0.00     0.116 A 
HETATM   27  F   UNL     1     -11.066   0.851 -33.781  1.00  0.00    -0.206 F 
HETATM   28  C   UNL     1      -9.393   1.589 -32.294  1.00  0.00     0.044 A 
HETATM   29  C   UNL     1      -8.059   1.931 -32.058  1.00  0.00     0.033 A 
ENDBRANCH   2  23
BRANCH   3  30
HETATM   30  C   UNL     1      -4.937  -0.103 -31.968  1.00  0.00     0.255 C 
HETATM   31  C   UNL     1      -6.055  -0.378 -30.955  1.00  0.00     0.049 C 
BRANCH  30  32
HETATM   32  N   UNL     1      -5.177  -1.024 -33.197  1.00  0.00    -0.060 N 
HETATM   33  H   UNL     1      -5.044  -0.420 -34.017  1.00  0.00     0.280 HD
HETATM   34  C   UNL     1      -4.197  -2.176 -33.350  1.00  0.00     0.236 C 
HETATM   35  C   UNL     1      -4.413  -2.832 -34.709  1.00  0.00     0.028 C 
HETATM   36  C   UNL     1      -5.851  -3.309 -34.880  1.00  0.00     0.003 C 
HETATM   37  C   UNL     1      -6.842  -2.180 -34.621  1.00  0.00     0.028 C 
HETATM   38  C   UNL     1      -6.608  -1.521 -33.266  1.00  0.00     0.236 C 
ENDBRANCH  30  32
ENDBRANCH   3  30
TORSDOF 8
ENDMDL
MODEL 9
REMARK VINA RESULT:      -8.7      1.446      1.625
REMARK  8 active torsions:
REMARK  status: ('A' for Active; 'I' for Inactive)
REMARK    1  A    between atoms: C_5  and  C_6 
REMARK       I    between atoms: C_6  and  N_7 
REMARK    2  A    between atoms: N_7  and  N_8 
REMARK       I    between atoms: N_8  and  C_9 
REMARK    3  A    between atoms: C_9  and  C_10 
REMARK    4  A    between atoms: C_10  and  S_11 
REMARK    5  A    between atoms: S_11  and  C_12 
REMARK    6  A    between atoms: N_13  and  C_14 
REMARK    7  A    between atoms: C_21  and  C_22 
REMARK    8  A    between atoms: C_22  and  N_23 
ROOT
HETATM    1  C   UNL     1      -5.291   6.653 -29.130  1.00  0.00     0.196 A 
HETATM    2  N   UNL     1      -4.031   7.218 -29.202  1.00  0.00    -0.274 N 
HETATM    3  C   UNL     1      -3.869   7.834 -27.959  1.00  0.00     0.166 A 
HETATM    4  N   UNL     1      -4.913   7.556 -27.203  1.00  0.00    -0.131 NA
HETATM    5  N   UNL     1      -5.800   6.829 -27.935  1.00  0.00    -0.122 NA
ENDROOT
BRANCH   1   6
HETATM    6  S   UNL     1      -6.043   5.698 -30.363  1.00  0.00    -0.080 SA
BRANCH   6   7
HETATM    7  C   UNL     1      -5.126   4.145 -30.158  1.00  0.00     0.187 C 
BRANCH   7   8
HETATM    8  C   UNL     1      -5.860   3.021 -30.868  1.00  0.00     0.245 C 
HETATM    9  N   UNL     1      -5.019   2.102 -31.459  1.00  0.00    -0.267 N 
HETATM   10  H   UNL     1      -3.999   2.171 -31.459  1.00  0.00     0.190 HD
HETATM   11  O   UNL     1      -7.089   2.929 -30.899  1.00  0.00    -0.271 OA
BRANCH   9  12
HETATM   12  N   UNL     1      -5.542   1.045 -32.210  1.00  0.00    -0.263 N 
HETATM   13  C   UNL     1      -4.776  -0.108 -32.263  1.00  0.00     0.270 C 
HETATM   14  O   UNL     1      -3.729  -0.198 -31.622  1.00  0.00    -0.266 OA
HETATM   15  H   UNL     1      -6.344   1.245 -32.797  1.00  0.00     0.190 HD
BRANCH  13  16
HETATM   16  C   UNL     1      -5.238  -1.226 -33.136  1.00  0.00     0.033 A 
HETATM   17  C   UNL     1      -6.570  -1.400 -33.527  1.00  0.00     0.017 A 
HETATM   18  C   UNL     1      -6.927  -2.476 -34.349  1.00  0.00     0.007 A 
HETATM   19  C   UNL     1      -5.964  -3.389 -34.791  1.00  0.00    -0.062 A 
HETATM   20  C   UNL     1      -6.344  -4.560 -35.648  1.00  0.00     0.048 C 
HETATM   21  C   UNL     1      -4.636  -3.226 -34.384  1.00  0.00     0.007 A 
HETATM   22  C   UNL     1      -4.276  -2.152 -33.566  1.00  0.00     0.017 A 
ENDBRANCH  13  16
ENDBRANCH   9  12
ENDBRANCH   7   8
ENDBRANCH   6   7
ENDBRANCH   1   6
BRANCH   2  23
HETATM   23  C   UNL     1      -3.116   7.213 -30.284  1.00  0.00     0.043 A 
HETATM   24  C   UNL     1      -3.150   8.240 -31.238  1.00  0.00     0.033 A 
HETATM   25  C   UNL     1      -2.225   8.244 -32.286  1.00  0.00     0.044 A 
HETATM   26  C   UNL     1      -1.286   7.225 -32.378  1.00  0.00     0.116 A 
HETATM   27  F   UNL     1      -0.400   7.231 -33.382  1.00  0.00    -0.206 F 
HETATM   28  C   UNL     1      -1.252   6.195 -31.444  1.00  0.00     0.044 A 
HETATM   29  C   UNL     1      -2.170   6.183 -30.391  1.00  0.00     0.033 A 
ENDBRANCH   2  23
BRANCH   3  30
HETATM   30  C   UNL     1      -2.767   8.779 -27.570  1.00  0.00     0.255 C 
HETATM   31  C   UNL     1      -2.979   9.382 -26.176  1.00  0.00     0.049 C 
BRANCH  30  32
HETATM   32  N   UNL     1      -1.335   8.173 -27.608  1.00  0.00    -0.060 N 
HETATM   33  H   UNL     1      -1.257   7.723 -28.528  1.00  0.00     0.280 HD
HETATM   34  C   UNL     1      -0.199   9.180 -27.527  1.00  0.00     0.236 C 
HETATM   35  C   UNL     1       1.117   8.466 -27.814  1.00  0.00     0.028 C 
HETATM   36  C   UNL     1       1.345   7.302 -26.856  1.00  0.00     0.003 C 
HETATM   37  C   UNL     1       0.158   6.345 -26.857  1.00  0.00     0.028 C 
HETATM   38  C   UNL     1      -1.154   7.071 -26.582  1.00  0.00     0.236 C 
ENDBRANCH  30  32
ENDBRANCH   3  30
TORSDOF 8
ENDMDL
MODEL 10
REMARK VINA RESULT:      -8.5      3.987      5.605
REMARK  8 active torsions:
REMARK  status: ('A' for Active; 'I' for Inactive)
REMARK    1  A    between atoms: C_5  and  C_6 
REMARK       I    between atoms: C_6  and  N_7 
REMARK    2  A    between atoms: N_7  and  N_8 
REMARK       I    between atoms: N_8  and  C_9 
REMARK    3  A    between atoms: C_9  and  C_10 
REMARK    4  A    between atoms: C_10  and  S_11 
REMARK    5  A    between atoms: S_11  and  C_12 
REMARK    6  A    between atoms: N_13  and  C_14 
REMARK    7  A    between atoms: C_21  and  C_22 
REMARK    8  A    between atoms: C_22  and  N_23 
ROOT
HETATM    1  C   UNL     1      -9.819   5.032 -32.765  1.00  0.00     0.196 A 
HETATM    2  N   UNL     1      -8.559   5.043 -32.196  1.00  0.00    -0.274 N 
HETATM    3  C   UNL     1      -8.050   6.299 -32.531  1.00  0.00     0.166 A 
HETATM    4  N   UNL     1      -8.987   6.989 -33.155  1.00  0.00    -0.131 NA
HETATM    5  N   UNL     1     -10.083   6.197 -33.307  1.00  0.00    -0.122 NA
ENDROOT
BRANCH   1   6
HETATM    6  S   UNL     1     -10.972   3.747 -32.646  1.00  0.00    -0.080 SA
BRANCH   6   7
HETATM    7  C   UNL     1     -10.548   2.806 -34.139  1.00  0.00     0.187 C 
BRANCH   7   8
HETATM    8  C   UNL     1      -9.894   1.492 -33.746  1.00  0.00     0.245 C 
HETATM    9  N   UNL     1      -8.922   1.076 -34.631  1.00  0.00    -0.267 N 
HETATM   10  H   UNL     1      -8.674   1.571 -35.490  1.00  0.00     0.190 HD
HETATM   11  O   UNL     1     -10.192   0.867 -32.726  1.00  0.00    -0.271 OA
BRANCH   9  12
HETATM   12  N   UNL     1      -8.275  -0.150 -34.445  1.00  0.00    -0.263 N 
HETATM   13  C   UNL     1      -6.893  -0.132 -34.528  1.00  0.00     0.270 C 
HETATM   14  O   UNL     1      -6.284   0.926 -34.689  1.00  0.00    -0.266 OA
HETATM   15  H   UNL     1      -8.853  -0.983 -34.437  1.00  0.00     0.190 HD
BRANCH  13  16
HETATM   16  C   UNL     1      -6.162  -1.430 -34.443  1.00  0.00     0.033 A 
HETATM   17  C   UNL     1      -6.675  -2.638 -34.927  1.00  0.00     0.017 A 
HETATM   18  C   UNL     1      -5.928  -3.817 -34.811  1.00  0.00     0.007 A 
HETATM   19  C   UNL     1      -4.663  -3.806 -34.212  1.00  0.00    -0.062 A 
HETATM   20  C   UNL     1      -3.869  -5.070 -34.058  1.00  0.00     0.048 C 
HETATM   21  C   UNL     1      -4.159  -2.602 -33.711  1.00  0.00     0.007 A 
HETATM   22  C   UNL     1      -4.901  -1.424 -33.828  1.00  0.00     0.017 A 
ENDBRANCH  13  16
ENDBRANCH   9  12
ENDBRANCH   7   8
ENDBRANCH   6   7
ENDBRANCH   1   6
BRANCH   2  23
HETATM   23  C   UNL     1      -7.904   4.018 -31.470  1.00  0.00     0.043 A 
HETATM   24  C   UNL     1      -7.284   2.959 -32.149  1.00  0.00     0.033 A 
HETATM   25  C   UNL     1      -6.616   1.968 -31.426  1.00  0.00     0.044 A 
HETATM   26  C   UNL     1      -6.579   2.034 -30.039  1.00  0.00     0.116 A 
HETATM   27  F   UNL     1      -5.936   1.085 -29.349  1.00  0.00    -0.206 F 
HETATM   28  C   UNL     1      -7.202   3.073 -29.355  1.00  0.00     0.044 A 
HETATM   29  C   UNL     1      -7.870   4.071 -30.069  1.00  0.00     0.033 A 
ENDBRANCH   2  23
BRANCH   3  30
HETATM   30  C   UNL     1      -6.634   6.765 -32.351  1.00  0.00     0.255 C 
HETATM   31  C   UNL     1      -6.429   7.519 -31.031  1.00  0.00     0.049 C 
BRANCH  30  32
HETATM   32  N   UNL     1      -5.557   5.644 -32.425  1.00  0.00    -0.060 N 
HETATM   33  H   UNL     1      -6.081   4.763 -32.365  1.00  0.00     0.280 HD
HETATM   34  C   UNL     1      -4.767   5.585 -33.722  1.00  0.00     0.236 C 
HETATM   35  C   UNL     1      -3.934   4.309 -33.736  1.00  0.00     0.028 C 
HETATM   36  C   UNL     1      -3.010   4.228 -32.526  1.00  0.00     0.003 C 
HETATM   37  C   UNL     1      -3.787   4.394 -31.225  1.00  0.00     0.028 C 
HETATM   38  C   UNL     1      -4.627   5.667 -31.228  1.00  0.00     0.236 C 
ENDBRANCH  30  32
ENDBRANCH   3  30
TORSDOF 8
ENDMDL
