MODEL 1
REMARK VINA RESULT:      -9.0      0.000      0.000
REMARK  13 active torsions:
REMARK  status: ('A' for Active; 'I' for Inactive)
REMARK    1  A    between atoms: C_2  and  O_3 
REMARK    2  A    between atoms: O_3  and  C_4 
REMARK    3  A    between atoms: C_5  and  O_6 
REMARK    4  A    between atoms: C_9  and  C_10 
REMARK    5  A    between atoms: N_11  and  C_12 
REMARK    6  A    between atoms: C_12  and  C_13 
REMARK    7  A    between atoms: C_13  and  N_14 
REMARK    8  A    between atoms: C_23  and  O_24 
REMARK    9  A    between atoms: C_25  and  C_26 
REMARK   10  A    between atoms: C_26  and  C_27 
REMARK   11  A    between atoms: C_31  and  O_32 
REMARK   12  A    between atoms: O_32  and  C_33 
REMARK   13  A    between atoms: C_33  and  C_34 
ROOT
HETATM    1  C   UNL     1      -7.718   0.992 -31.948  1.00  0.00     0.161 A 
HETATM    2  N   UNL     1      -8.000   0.041 -33.023  1.00  0.00    -0.332 N 
HETATM    3  C   UNL     1      -6.918  -0.758 -33.282  1.00  0.00     0.278 A 
HETATM    4  O   UNL     1      -6.790  -1.515 -34.230  1.00  0.00    -0.265 OA
HETATM    5  C   UNL     1      -5.876  -0.455 -32.291  1.00  0.00     0.146 A 
HETATM    6  C   UNL     1      -6.342   0.546 -31.531  1.00  0.00     0.059 A 
ENDROOT
BRANCH   6   7
HETATM    7  C   UNL     1      -5.691   1.187 -30.368  1.00  0.00     0.194 C 
HETATM    8  O   UNL     1      -5.807   0.718 -29.243  1.00  0.00    -0.287 OA
BRANCH   7   9
HETATM    9  C   UNL     1      -4.873   2.392 -30.596  1.00  0.00     0.021 A 
HETATM   10  C   UNL     1      -5.341   3.667 -30.240  1.00  0.00    -0.045 A 
HETATM   11  C   UNL     1      -6.608   3.870 -29.466  1.00  0.00     0.049 C 
HETATM   12  C   UNL     1      -4.561   4.778 -30.599  1.00  0.00     0.044 A 
HETATM   13  C   UNL     1      -3.365   4.626 -31.310  1.00  0.00     0.069 A 
HETATM   14  C   UNL     1      -2.889   3.348 -31.598  1.00  0.00     0.038 A 
HETATM   15  C   UNL     1      -3.641   2.227 -31.240  1.00  0.00     0.019 A 
BRANCH  13  16
HETATM   16  O   UNL     1      -2.750   5.798 -31.655  1.00  0.00    -0.347 OA
BRANCH  16  17
HETATM   17  C   UNL     1      -1.345   5.723 -31.896  1.00  0.00     0.214 C 
BRANCH  17  18
HETATM   18  C   UNL     1      -0.622   6.111 -30.631  1.00  0.00    -0.034 A 
HETATM   19  C   UNL     1       0.124   5.159 -29.922  1.00  0.00     0.009 A 
HETATM   20  C   UNL     1       0.794   5.513 -28.750  1.00  0.00     0.001 A 
HETATM   21  C   UNL     1       0.718   6.820 -28.272  1.00  0.00     0.000 A 
HETATM   22  C   UNL     1      -0.032   7.771 -28.959  1.00  0.00     0.001 A 
HETATM   23  C   UNL     1      -0.703   7.418 -30.131  1.00  0.00     0.009 A 
ENDBRANCH  17  18
ENDBRANCH  16  17
ENDBRANCH  13  16
ENDBRANCH   7   9
ENDBRANCH   6   7
BRANCH   1  24
HETATM   24  C   UNL     1      -7.831   2.409 -32.483  1.00  0.00    -0.028 A 
HETATM   25  C   UNL     1      -9.024   3.125 -32.264  1.00  0.00     0.012 A 
HETATM   26  C   UNL     1      -9.217   4.382 -32.835  1.00  0.00     0.040 A 
HETATM   27  C   UNL     1      -8.213   4.938 -33.612  1.00  0.00     0.099 A 
HETATM   28  C   UNL     1      -7.002   4.275 -33.812  1.00  0.00     0.102 A 
HETATM   29  C   UNL     1      -6.820   3.002 -33.269  1.00  0.00     0.049 A 
BRANCH  27  30
HETATM   30  O   UNL     1      -8.436   6.163 -34.173  1.00  0.00    -0.358 OA
HETATM   31  H   UNL     1      -7.745   6.756 -33.819  1.00  0.00     0.218 HD
ENDBRANCH  27  30
BRANCH  28  32
HETATM   32  O   UNL     1      -6.087   4.921 -34.600  1.00  0.00    -0.349 OA
BRANCH  32  33
HETATM   33  C   UNL     1      -4.793   4.312 -34.649  1.00  0.00     0.171 C 
HETATM   34  C   UNL     1      -3.785   5.381 -35.027  1.00  0.00     0.034 C 
ENDBRANCH  32  33
ENDBRANCH  28  32
ENDBRANCH   1  24
BRANCH   5  35
HETATM   35  O   UNL     1      -4.689  -1.114 -32.234  1.00  0.00    -0.355 OA
HETATM   36  H   UNL     1      -4.383  -1.097 -31.306  1.00  0.00     0.218 HD
ENDBRANCH   5  35
BRANCH   2  37
HETATM   37  C   UNL     1      -9.287  -0.048 -33.713  1.00  0.00     0.155 C 
BRANCH  37  38
HETATM   38  C   UNL     1     -10.502  -0.225 -32.775  1.00  0.00     0.255 C 
BRANCH  38  39
HETATM   39  N   UNL     1     -11.708   0.554 -33.256  1.00  0.00    -0.066 N 
HETATM   40  H   UNL     1     -11.981   1.200 -32.500  1.00  0.00     0.280 HD
HETATM   41  C   UNL     1     -11.432   1.470 -34.443  1.00  0.00     0.261 C 
HETATM   42  C   UNL     1     -12.706   2.264 -34.768  1.00  0.00     0.195 C 
HETATM   43  O   UNL     1     -13.801   1.382 -35.045  1.00  0.00    -0.388 OA
HETATM   44  C   UNL     1     -14.108   0.547 -33.922  1.00  0.00     0.195 C 
HETATM   45  C   UNL     1     -12.910  -0.332 -33.545  1.00  0.00     0.261 C 
ENDBRANCH  38  39
ENDBRANCH  37  38
ENDBRANCH   2  37
TORSDOF 13
ENDMDL
MODEL 2
REMARK VINA RESULT:      -8.7      1.187      2.186
REMARK  13 active torsions:
REMARK  status: ('A' for Active; 'I' for Inactive)
REMARK    1  A    between atoms: C_2  and  O_3 
REMARK    2  A    between atoms: O_3  and  C_4 
REMARK    3  A    between atoms: C_5  and  O_6 
REMARK    4  A    between atoms: C_9  and  C_10 
REMARK    5  A    between atoms: N_11  and  C_12 
REMARK    6  A    between atoms: C_12  and  C_13 
REMARK    7  A    between atoms: C_13  and  N_14 
REMARK    8  A    between atoms: C_23  and  O_24 
REMARK    9  A    between atoms: C_25  and  C_26 
REMARK   10  A    between atoms: C_26  and  C_27 
REMARK   11  A    between atoms: C_31  and  O_32 
REMARK   12  A    between atoms: O_32  and  C_33 
REMARK   13  A    between atoms: C_33  and  C_34 
ROOT
HETATM    1  C   UNL     1      -7.383   1.421 -32.491  1.00  0.00     0.161 A 
HETATM    2  N   UNL     1      -7.865   0.696 -33.667  1.00  0.00    -0.332 N 
HETATM    3  C   UNL     1      -6.853   0.005 -34.279  1.00  0.00     0.278 A 
HETATM    4  O   UNL     1      -6.908  -0.540 -35.369  1.00  0.00    -0.265 OA
HETATM    5  C   UNL     1      -5.642   0.141 -33.458  1.00  0.00     0.146 A 
HETATM    6  C   UNL     1      -5.954   0.951 -32.437  1.00  0.00     0.059 A 
ENDROOT
BRANCH   6   7
HETATM    7  C   UNL     1      -5.093   1.368 -31.308  1.00  0.00     0.194 C 
HETATM    8  O   UNL     1      -5.005   0.684 -30.297  1.00  0.00    -0.287 OA
BRANCH   7   9
HETATM    9  C   UNL     1      -4.320   2.617 -31.438  1.00  0.00     0.021 A 
HETATM   10  C   UNL     1      -4.664   3.765 -30.709  1.00  0.00    -0.045 A 
HETATM   11  C   UNL     1      -5.718   3.753 -29.642  1.00  0.00     0.049 C 
HETATM   12  C   UNL     1      -3.961   4.950 -30.975  1.00  0.00     0.044 A 
HETATM   13  C   UNL     1      -2.961   4.996 -31.954  1.00  0.00     0.069 A 
HETATM   14  C   UNL     1      -2.593   3.829 -32.622  1.00  0.00     0.038 A 
HETATM   15  C   UNL     1      -3.271   2.636 -32.365  1.00  0.00     0.019 A 
BRANCH  13  16
HETATM   16  O   UNL     1      -2.412   6.232 -32.156  1.00  0.00    -0.347 OA
BRANCH  16  17
HETATM   17  C   UNL     1      -0.990   6.278 -32.273  1.00  0.00     0.214 C 
BRANCH  17  18
HETATM   18  C   UNL     1      -0.398   6.298 -30.886  1.00  0.00    -0.034 A 
HETATM   19  C   UNL     1      -0.466   7.459 -30.104  1.00  0.00     0.009 A 
HETATM   20  C   UNL     1       0.082   7.483 -28.821  1.00  0.00     0.001 A 
HETATM   21  C   UNL     1       0.708   6.348 -28.310  1.00  0.00     0.000 A 
HETATM   22  C   UNL     1       0.796   5.192 -29.082  1.00  0.00     0.001 A 
HETATM   23  C   UNL     1       0.249   5.168 -30.366  1.00  0.00     0.009 A 
ENDBRANCH  17  18
ENDBRANCH  16  17
ENDBRANCH  13  16
ENDBRANCH   7   9
ENDBRANCH   6   7
BRANCH   1  24
HETATM   24  C   UNL     1      -7.592   2.912 -32.694  1.00  0.00    -0.028 A 
HETATM   25  C   UNL     1      -6.802   3.585 -33.647  1.00  0.00     0.012 A 
HETATM   26  C   UNL     1      -6.876   4.970 -33.785  1.00  0.00     0.040 A 
HETATM   27  C   UNL     1      -7.752   5.688 -32.986  1.00  0.00     0.099 A 
HETATM   28  C   UNL     1      -8.580   5.047 -32.064  1.00  0.00     0.102 A 
HETATM   29  C   UNL     1      -8.483   3.664 -31.900  1.00  0.00     0.049 A 
BRANCH  27  30
HETATM   30  O   UNL     1      -7.792   7.045 -33.130  1.00  0.00    -0.358 OA
HETATM   31  H   UNL     1      -8.737   7.287 -33.180  1.00  0.00     0.218 HD
ENDBRANCH  27  30
BRANCH  28  32
HETATM   32  O   UNL     1      -9.401   5.860 -31.328  1.00  0.00    -0.349 OA
BRANCH  32  33
HETATM   33  C   UNL     1      -9.470   5.548 -29.933  1.00  0.00     0.171 C 
HETATM   34  C   UNL     1      -8.402   6.356 -29.218  1.00  0.00     0.034 C 
ENDBRANCH  32  33
ENDBRANCH  28  32
ENDBRANCH   1  24
BRANCH   5  35
HETATM   35  O   UNL     1      -4.467  -0.472 -33.758  1.00  0.00    -0.355 OA
HETATM   36  H   UNL     1      -3.855  -0.326 -33.010  1.00  0.00     0.218 HD
ENDBRANCH   5  35
BRANCH   2  37
HETATM   37  C   UNL     1      -9.260   0.701 -34.110  1.00  0.00     0.155 C 
BRANCH  37  38
HETATM   38  C   UNL     1     -10.282   0.381 -32.997  1.00  0.00     0.255 C 
BRANCH  38  39
HETATM   39  N   UNL     1     -11.668   0.888 -33.337  1.00  0.00    -0.066 N 
HETATM   40  H   UNL     1     -12.012   1.422 -32.524  1.00  0.00     0.280 HD
HETATM   41  C   UNL     1     -11.705   1.895 -34.482  1.00  0.00     0.261 C 
HETATM   42  C   UNL     1     -13.146   2.394 -34.662  1.00  0.00     0.195 C 
HETATM   43  O   UNL     1     -14.038   1.300 -34.912  1.00  0.00    -0.388 OA
HETATM   44  C   UNL     1     -14.055   0.369 -33.824  1.00  0.00     0.195 C 
HETATM   45  C   UNL     1     -12.664  -0.233 -33.592  1.00  0.00     0.261 C 
ENDBRANCH  38  39
ENDBRANCH  37  38
ENDBRANCH   2  37
TORSDOF 13
ENDMDL
MODEL 3
REMARK VINA RESULT:      -8.7      1.775      4.039
REMARK  13 active torsions:
REMARK  status: ('A' for Active; 'I' for Inactive)
REMARK    1  A    between atoms: C_2  and  O_3 
REMARK    2  A    between atoms: O_3  and  C_4 
REMARK    3  A    between atoms: C_5  and  O_6 
REMARK    4  A    between atoms: C_9  and  C_10 
REMARK    5  A    between atoms: N_11  and  C_12 
REMARK    6  A    between atoms: C_12  and  C_13 
REMARK    7  A    between atoms: C_13  and  N_14 
REMARK    8  A    between atoms: C_23  and  O_24 
REMARK    9  A    between atoms: C_25  and  C_26 
REMARK   10  A    between atoms: C_26  and  C_27 
REMARK   11  A    between atoms: C_31  and  O_32 
REMARK   12  A    between atoms: O_32  and  C_33 
REMARK   13  A    between atoms: C_33  and  C_34 
ROOT
HETATM    1  C   UNL     1      -8.108   2.556 -33.474  1.00  0.00     0.161 A 
HETATM    2  N   UNL     1      -9.222   2.255 -32.575  1.00  0.00    -0.332 N 
HETATM    3  C   UNL     1      -9.161   3.009 -31.432  1.00  0.00     0.278 A 
HETATM    4  O   UNL     1      -9.840   2.857 -30.431  1.00  0.00    -0.265 OA
HETATM    5  C   UNL     1      -8.046   3.956 -31.566  1.00  0.00     0.146 A 
HETATM    6  C   UNL     1      -7.449   3.691 -32.737  1.00  0.00     0.059 A 
ENDROOT
BRANCH   6   7
HETATM    7  C   UNL     1      -6.302   4.392 -33.355  1.00  0.00     0.194 C 
HETATM    8  O   UNL     1      -6.428   4.994 -34.414  1.00  0.00    -0.287 OA
BRANCH   7   9
HETATM    9  C   UNL     1      -5.006   4.372 -32.653  1.00  0.00     0.021 A 
HETATM   10  C   UNL     1      -4.472   5.536 -32.078  1.00  0.00    -0.045 A 
HETATM   11  C   UNL     1      -5.244   6.818 -31.994  1.00  0.00     0.049 C 
HETATM   12  C   UNL     1      -3.179   5.468 -31.535  1.00  0.00     0.044 A 
HETATM   13  C   UNL     1      -2.433   4.285 -31.582  1.00  0.00     0.069 A 
HETATM   14  C   UNL     1      -3.007   3.125 -32.102  1.00  0.00     0.038 A 
HETATM   15  C   UNL     1      -4.296   3.165 -32.637  1.00  0.00     0.019 A 
BRANCH  13  16
HETATM   16  O   UNL     1      -1.165   4.385 -31.081  1.00  0.00    -0.347 OA
BRANCH  16  17
HETATM   17  C   UNL     1      -0.471   5.601 -31.365  1.00  0.00     0.214 C 
BRANCH  17  18
HETATM   18  C   UNL     1      -0.086   6.246 -30.058  1.00  0.00    -0.034 A 
HETATM   19  C   UNL     1      -0.328   7.611 -29.844  1.00  0.00     0.009 A 
HETATM   20  C   UNL     1       0.028   8.213 -28.636  1.00  0.00     0.001 A 
HETATM   21  C   UNL     1       0.636   7.458 -27.634  1.00  0.00     0.000 A 
HETATM   22  C   UNL     1       0.895   6.106 -27.840  1.00  0.00     0.001 A 
HETATM   23  C   UNL     1       0.540   5.503 -29.048  1.00  0.00     0.009 A 
ENDBRANCH  17  18
ENDBRANCH  16  17
ENDBRANCH  13  16
ENDBRANCH   7   9
ENDBRANCH   6   7
BRANCH   1  24
HETATM   24  C   UNL     1      -7.266   1.307 -33.672  1.00  0.00    -0.028 A 
HETATM   25  C   UNL     1      -7.296   0.659 -34.922  1.00  0.00     0.012 A 
HETATM   26  C   UNL     1      -6.634  -0.553 -35.114  1.00  0.00     0.040 A 
HETATM   27  C   UNL     1      -5.923  -1.113 -34.065  1.00  0.00     0.099 A 
HETATM   28  C   UNL     1      -5.836  -0.476 -32.827  1.00  0.00     0.102 A 
HETATM   29  C   UNL     1      -6.526   0.721 -32.623  1.00  0.00     0.049 A 
BRANCH  27  30
HETATM   30  O   UNL     1      -5.298  -2.309 -34.275  1.00  0.00    -0.358 OA
HETATM   31  H   UNL     1      -5.060  -2.330 -35.222  1.00  0.00     0.218 HD
ENDBRANCH  27  30
BRANCH  28  32
HETATM   32  O   UNL     1      -5.110  -1.126 -31.865  1.00  0.00    -0.349 OA
BRANCH  32  33
HETATM   33  C   UNL     1      -4.019  -0.376 -31.320  1.00  0.00     0.171 C 
HETATM   34  C   UNL     1      -2.730  -0.941 -31.890  1.00  0.00     0.034 C 
ENDBRANCH  32  33
ENDBRANCH  28  32
ENDBRANCH   1  24
BRANCH   5  35
HETATM   35  O   UNL     1      -7.744   4.889 -30.625  1.00  0.00    -0.355 OA
HETATM   36  H   UNL     1      -8.195   5.720 -30.874  1.00  0.00     0.218 HD
ENDBRANCH   5  35
BRANCH   2  37
HETATM   37  C   UNL     1     -10.273   1.284 -32.879  1.00  0.00     0.155 C 
BRANCH  37  38
HETATM   38  C   UNL     1     -10.984   1.518 -34.230  1.00  0.00     0.255 C 
BRANCH  38  39
HETATM   39  N   UNL     1     -12.475   1.722 -34.059  1.00  0.00    -0.066 N 
HETATM   40  H   UNL     1     -12.819   2.211 -34.899  1.00  0.00     0.280 HD
HETATM   41  C   UNL     1     -13.286   0.432 -34.025  1.00  0.00     0.261 C 
HETATM   42  C   UNL     1     -14.779   0.781 -33.941  1.00  0.00     0.195 C 
HETATM   43  O   UNL     1     -15.051   1.588 -32.788  1.00  0.00    -0.388 OA
HETATM   44  C   UNL     1     -14.335   2.828 -32.827  1.00  0.00     0.195 C 
HETATM   45  C   UNL     1     -12.821   2.591 -32.860  1.00  0.00     0.261 C 
ENDBRANCH  38  39
ENDBRANCH  37  38
ENDBRANCH   2  37
TORSDOF 13
ENDMDL
MODEL 4
REMARK VINA RESULT:      -8.5      3.494      8.806
REMARK  13 active torsions:
REMARK  status: ('A' for Active; 'I' for Inactive)
REMARK    1  A    between atoms: C_2  and  O_3 
REMARK    2  A    between atoms: O_3  and  C_4 
REMARK    3  A    between atoms: C_5  and  O_6 
REMARK    4  A    between atoms: C_9  and  C_10 
REMARK    5  A    between atoms: N_11  and  C_12 
REMARK    6  A    between atoms: C_12  and  C_13 
REMARK    7  A    between atoms: C_13  and  N_14 
REMARK    8  A    between atoms: C_23  and  O_24 
REMARK    9  A    between atoms: C_25  and  C_26 
REMARK   10  A    between atoms: C_26  and  C_27 
REMARK   11  A    between atoms: C_31  and  O_32 
REMARK   12  A    between atoms: O_32  and  C_33 
REMARK   13  A    between atoms: C_33  and  C_34 
ROOT
HETATM    1  C   UNL     1      -6.175   4.579 -30.069  1.00  0.00     0.161 A 
HETATM    2  N   UNL     1      -6.309   5.723 -29.167  1.00  0.00    -0.332 N 
HETATM    3  C   UNL     1      -7.622   6.081 -29.004  1.00  0.00     0.278 A 
HETATM    4  O   UNL     1      -8.031   7.093 -28.462  1.00  0.00    -0.265 OA
HETATM    5  C   UNL     1      -8.456   5.099 -29.710  1.00  0.00     0.146 A 
HETATM    6  C   UNL     1      -7.621   4.243 -30.315  1.00  0.00     0.059 A 
ENDROOT
BRANCH   6   7
HETATM    7  C   UNL     1      -7.964   3.048 -31.118  1.00  0.00     0.194 C 
HETATM    8  O   UNL     1      -9.091   2.896 -31.571  1.00  0.00    -0.287 OA
BRANCH   7   9
HETATM    9  C   UNL     1      -6.909   2.053 -31.382  1.00  0.00     0.021 A 
HETATM   10  C   UNL     1      -6.438   1.821 -32.684  1.00  0.00    -0.045 A 
HETATM   11  C   UNL     1      -6.848   2.669 -33.850  1.00  0.00     0.049 C 
HETATM   12  C   UNL     1      -5.522   0.774 -32.875  1.00  0.00     0.044 A 
HETATM   13  C   UNL     1      -5.105  -0.030 -31.808  1.00  0.00     0.069 A 
HETATM   14  C   UNL     1      -5.538   0.258 -30.514  1.00  0.00     0.038 A 
HETATM   15  C   UNL     1      -6.440   1.302 -30.298  1.00  0.00     0.019 A 
BRANCH  13  16
HETATM   16  O   UNL     1      -4.270  -1.056 -32.155  1.00  0.00    -0.347 OA
BRANCH  16  17
HETATM   17  C   UNL     1      -4.020  -1.219 -33.551  1.00  0.00     0.214 C 
BRANCH  17  18
HETATM   18  C   UNL     1      -4.717  -2.472 -34.017  1.00  0.00    -0.034 A 
HETATM   19  C   UNL     1      -6.001  -2.402 -34.576  1.00  0.00     0.009 A 
HETATM   20  C   UNL     1      -6.650  -3.559 -35.008  1.00  0.00     0.001 A 
HETATM   21  C   UNL     1      -6.027  -4.799 -34.877  1.00  0.00     0.000 A 
HETATM   22  C   UNL     1      -4.758  -4.884 -34.309  1.00  0.00     0.001 A 
HETATM   23  C   UNL     1      -4.107  -3.727 -33.876  1.00  0.00     0.009 A 
ENDBRANCH  17  18
ENDBRANCH  16  17
ENDBRANCH  13  16
ENDBRANCH   7   9
ENDBRANCH   6   7
BRANCH   1  24
HETATM   24  C   UNL     1      -5.364   4.987 -31.287  1.00  0.00    -0.028 A 
HETATM   25  C   UNL     1      -5.995   5.724 -32.308  1.00  0.00     0.012 A 
HETATM   26  C   UNL     1      -5.325   6.018 -33.494  1.00  0.00     0.040 A 
HETATM   27  C   UNL     1      -4.016   5.595 -33.659  1.00  0.00     0.099 A 
HETATM   28  C   UNL     1      -3.347   4.901 -32.650  1.00  0.00     0.102 A 
HETATM   29  C   UNL     1      -4.027   4.576 -31.476  1.00  0.00     0.049 A 
BRANCH  27  30
HETATM   30  O   UNL     1      -3.389   5.882 -34.838  1.00  0.00    -0.358 OA
HETATM   31  H   UNL     1      -2.834   5.107 -35.048  1.00  0.00     0.218 HD
ENDBRANCH  27  30
BRANCH  28  32
HETATM   32  O   UNL     1      -2.058   4.531 -32.929  1.00  0.00    -0.349 OA
BRANCH  32  33
HETATM   33  C   UNL     1      -1.080   4.990 -31.990  1.00  0.00     0.171 C 
HETATM   34  C   UNL     1      -0.761   6.438 -32.315  1.00  0.00     0.034 C 
ENDBRANCH  32  33
ENDBRANCH  28  32
ENDBRANCH   1  24
BRANCH   5  35
HETATM   35  O   UNL     1      -9.815   5.134 -29.702  1.00  0.00    -0.355 OA
HETATM   36  H   UNL     1     -10.090   5.941 -29.223  1.00  0.00     0.218 HD
ENDBRANCH   5  35
BRANCH   2  37
HETATM   37  C   UNL     1      -5.178   6.380 -28.512  1.00  0.00     0.155 C 
BRANCH  37  38
HETATM   38  C   UNL     1      -5.070   6.102 -26.997  1.00  0.00     0.255 C 
BRANCH  38  39
HETATM   39  N   UNL     1      -3.849   6.757 -26.385  1.00  0.00    -0.066 N 
HETATM   40  H   UNL     1      -3.368   6.045 -25.814  1.00  0.00     0.280 HD
HETATM   41  C   UNL     1      -2.794   7.189 -27.398  1.00  0.00     0.261 C 
HETATM   42  C   UNL     1      -1.579   7.749 -26.646  1.00  0.00     0.195 C 
HETATM   43  O   UNL     1      -1.959   8.844 -25.804  1.00  0.00    -0.388 OA
HETATM   44  C   UNL     1      -2.913   8.445 -24.812  1.00  0.00     0.195 C 
HETATM   45  C   UNL     1      -4.195   7.914 -25.462  1.00  0.00     0.261 C 
ENDBRANCH  38  39
ENDBRANCH  37  38
ENDBRANCH   2  37
TORSDOF 13
ENDMDL
MODEL 5
REMARK VINA RESULT:      -8.5      3.572      8.532
REMARK  13 active torsions:
REMARK  status: ('A' for Active; 'I' for Inactive)
REMARK    1  A    between atoms: C_2  and  O_3 
REMARK    2  A    between atoms: O_3  and  C_4 
REMARK    3  A    between atoms: C_5  and  O_6 
REMARK    4  A    between atoms: C_9  and  C_10 
REMARK    5  A    between atoms: N_11  and  C_12 
REMARK    6  A    between atoms: C_12  and  C_13 
REMARK    7  A    between atoms: C_13  and  N_14 
REMARK    8  A    between atoms: C_23  and  O_24 
REMARK    9  A    between atoms: C_25  and  C_26 
REMARK   10  A    between atoms: C_26  and  C_27 
REMARK   11  A    between atoms: C_31  and  O_32 
REMARK   12  A    between atoms: O_32  and  C_33 
REMARK   13  A    between atoms: C_33  and  C_34 
ROOT
HETATM    1  C   UNL     1      -5.894   4.677 -29.692  1.00  0.00     0.161 A 
HETATM    2  N   UNL     1      -6.085   5.639 -28.607  1.00  0.00    -0.332 N 
HETATM    3  C   UNL     1      -7.396   6.025 -28.505  1.00  0.00     0.278 A 
HETATM    4  O   UNL     1      -7.828   6.939 -27.822  1.00  0.00    -0.265 OA
HETATM    5  C   UNL     1      -8.183   5.234 -29.460  1.00  0.00     0.146 A 
HETATM    6  C   UNL     1      -7.317   4.464 -30.134  1.00  0.00     0.059 A 
ENDROOT
BRANCH   6   7
HETATM    7  C   UNL     1      -7.612   3.458 -31.177  1.00  0.00     0.194 C 
HETATM    8  O   UNL     1      -8.606   3.557 -31.885  1.00  0.00    -0.287 OA
BRANCH   7   9
HETATM    9  C   UNL     1      -6.667   2.342 -31.364  1.00  0.00     0.021 A 
HETATM   10  C   UNL     1      -5.967   2.175 -32.569  1.00  0.00    -0.045 A 
HETATM   11  C   UNL     1      -6.006   3.193 -33.669  1.00  0.00     0.049 C 
HETATM   12  C   UNL     1      -5.179   1.023 -32.719  1.00  0.00     0.044 A 
HETATM   13  C   UNL     1      -5.107   0.056 -31.709  1.00  0.00     0.069 A 
HETATM   14  C   UNL     1      -5.760   0.273 -30.496  1.00  0.00     0.038 A 
HETATM   15  C   UNL     1      -6.540   1.418 -30.320  1.00  0.00     0.019 A 
BRANCH  13  16
HETATM   16  O   UNL     1      -4.361  -1.046 -32.021  1.00  0.00    -0.347 OA
BRANCH  16  17
HETATM   17  C   UNL     1      -4.033  -1.213 -33.401  1.00  0.00     0.214 C 
BRANCH  17  18
HETATM   18  C   UNL     1      -4.774  -2.417 -33.926  1.00  0.00    -0.034 A 
HETATM   19  C   UNL     1      -4.144  -3.667 -33.982  1.00  0.00     0.009 A 
HETATM   20  C   UNL     1      -4.825  -4.784 -34.468  1.00  0.00     0.001 A 
HETATM   21  C   UNL     1      -6.142  -4.659 -34.910  1.00  0.00     0.000 A 
HETATM   22  C   UNL     1      -6.774  -3.419 -34.873  1.00  0.00     0.001 A 
HETATM   23  C   UNL     1      -6.093  -2.301 -34.388  1.00  0.00     0.009 A 
ENDBRANCH  17  18
ENDBRANCH  16  17
ENDBRANCH  13  16
ENDBRANCH   7   9
ENDBRANCH   6   7
BRANCH   1  24
HETATM   24  C   UNL     1      -4.950   5.263 -30.728  1.00  0.00    -0.028 A 
HETATM   25  C   UNL     1      -5.464   6.154 -31.689  1.00  0.00     0.012 A 
HETATM   26  C   UNL     1      -4.662   6.624 -32.728  1.00  0.00     0.040 A 
HETATM   27  C   UNL     1      -3.338   6.221 -32.801  1.00  0.00     0.099 A 
HETATM   28  C   UNL     1      -2.785   5.375 -31.840  1.00  0.00     0.102 A 
HETATM   29  C   UNL     1      -3.596   4.876 -30.818  1.00  0.00     0.049 A 
BRANCH  27  30
HETATM   30  O   UNL     1      -2.580   6.684 -33.839  1.00  0.00    -0.358 OA
HETATM   31  H   UNL     1      -3.134   6.602 -34.639  1.00  0.00     0.218 HD
ENDBRANCH  27  30
BRANCH  28  32
HETATM   32  O   UNL     1      -1.469   5.043 -32.018  1.00  0.00    -0.349 OA
BRANCH  32  33
HETATM   33  C   UNL     1      -0.597   5.425 -30.949  1.00  0.00     0.171 C 
HETATM   34  C   UNL     1       0.231   6.607 -31.419  1.00  0.00     0.034 C 
ENDBRANCH  32  33
ENDBRANCH  28  32
ENDBRANCH   1  24
BRANCH   5  35
HETATM   35  O   UNL     1      -9.533   5.334 -29.575  1.00  0.00    -0.355 OA
HETATM   36  H   UNL     1      -9.815   6.141 -29.100  1.00  0.00     0.218 HD
ENDBRANCH   5  35
BRANCH   2  37
HETATM   37  C   UNL     1      -5.007   6.107 -27.735  1.00  0.00     0.155 C 
BRANCH  37  38
HETATM   38  C   UNL     1      -4.840   7.642 -27.696  1.00  0.00     0.255 C 
BRANCH  38  39
HETATM   39  N   UNL     1      -4.478   8.207 -29.054  1.00  0.00    -0.066 N 
HETATM   40  H   UNL     1      -4.692   7.484 -29.758  1.00  0.00     0.280 HD
HETATM   41  C   UNL     1      -5.323   9.401 -29.483  1.00  0.00     0.261 C 
HETATM   42  C   UNL     1      -4.917   9.815 -30.905  1.00  0.00     0.195 C 
HETATM   43  O   UNL     1      -3.520  10.127 -30.968  1.00  0.00    -0.388 OA
HETATM   44  C   UNL     1      -2.708   9.000 -30.616  1.00  0.00     0.195 C 
HETATM   45  C   UNL     1      -2.999   8.536 -29.185  1.00  0.00     0.261 C 
ENDBRANCH  38  39
ENDBRANCH  37  38
ENDBRANCH   2  37
TORSDOF 13
ENDMDL
MODEL 6
REMARK VINA RESULT:      -8.5      3.505      9.123
REMARK  13 active torsions:
REMARK  status: ('A' for Active; 'I' for Inactive)
REMARK    1  A    between atoms: C_2  and  O_3 
REMARK    2  A    between atoms: O_3  and  C_4 
REMARK    3  A    between atoms: C_5  and  O_6 
REMARK    4  A    between atoms: C_9  and  C_10 
REMARK    5  A    between atoms: N_11  and  C_12 
REMARK    6  A    between atoms: C_12  and  C_13 
REMARK    7  A    between atoms: C_13  and  N_14 
REMARK    8  A    between atoms: C_23  and  O_24 
REMARK    9  A    between atoms: C_25  and  C_26 
REMARK   10  A    between atoms: C_26  and  C_27 
REMARK   11  A    between atoms: C_31  and  O_32 
REMARK   12  A    between atoms: O_32  and  C_33 
REMARK   13  A    between atoms: C_33  and  C_34 
ROOT
HETATM    1  C   UNL     1      -5.962   5.344 -29.812  1.00  0.00     0.161 A 
HETATM    2  N   UNL     1      -6.228   5.854 -28.467  1.00  0.00    -0.332 N 
HETATM    3  C   UNL     1      -7.514   6.315 -28.352  1.00  0.00     0.278 A 
HETATM    4  O   UNL     1      -7.970   6.954 -27.419  1.00  0.00    -0.265 OA
HETATM    5  C   UNL     1      -8.221   6.020 -29.606  1.00  0.00     0.146 A 
HETATM    6  C   UNL     1      -7.326   5.464 -30.434  1.00  0.00     0.059 A 
ENDROOT
BRANCH   6   7
HETATM    7  C   UNL     1      -7.550   4.950 -31.804  1.00  0.00     0.194 C 
HETATM    8  O   UNL     1      -8.225   5.577 -32.610  1.00  0.00    -0.287 OA
BRANCH   7   9
HETATM    9  C   UNL     1      -6.918   3.674 -32.187  1.00  0.00     0.021 A 
HETATM   10  C   UNL     1      -6.015   3.601 -33.258  1.00  0.00    -0.045 A 
HETATM   11  C   UNL     1      -5.511   4.822 -33.969  1.00  0.00     0.049 C 
HETATM   12  C   UNL     1      -5.548   2.334 -33.642  1.00  0.00     0.044 A 
HETATM   13  C   UNL     1      -5.985   1.173 -32.994  1.00  0.00     0.069 A 
HETATM   14  C   UNL     1      -6.834   1.273 -31.892  1.00  0.00     0.038 A 
HETATM   15  C   UNL     1      -7.301   2.525 -31.484  1.00  0.00     0.019 A 
BRANCH  13  16
HETATM   16  O   UNL     1      -5.505   0.006 -33.521  1.00  0.00    -0.347 OA
BRANCH  16  17
HETATM   17  C   UNL     1      -6.385  -0.695 -34.400  1.00  0.00     0.214 C 
BRANCH  17  18
HETATM   18  C   UNL     1      -5.954  -2.139 -34.455  1.00  0.00    -0.034 A 
HETATM   19  C   UNL     1      -4.624  -2.491 -34.182  1.00  0.00     0.009 A 
HETATM   20  C   UNL     1      -4.221  -3.826 -34.233  1.00  0.00     0.001 A 
HETATM   21  C   UNL     1      -5.139  -4.820 -34.563  1.00  0.00     0.000 A 
HETATM   22  C   UNL     1      -6.459  -4.482 -34.851  1.00  0.00     0.001 A 
HETATM   23  C   UNL     1      -6.864  -3.147 -34.802  1.00  0.00     0.009 A 
ENDBRANCH  17  18
ENDBRANCH  16  17
ENDBRANCH  13  16
ENDBRANCH   7   9
ENDBRANCH   6   7
BRANCH   1  24
HETATM   24  C   UNL     1      -4.856   6.164 -30.455  1.00  0.00    -0.028 A 
HETATM   25  C   UNL     1      -5.091   7.526 -30.726  1.00  0.00     0.012 A 
HETATM   26  C   UNL     1      -4.151   8.287 -31.420  1.00  0.00     0.040 A 
HETATM   27  C   UNL     1      -2.966   7.698 -31.829  1.00  0.00     0.099 A 
HETATM   28  C   UNL     1      -2.683   6.363 -31.538  1.00  0.00     0.102 A 
HETATM   29  C   UNL     1      -3.637   5.590 -30.873  1.00  0.00     0.049 A 
BRANCH  27  30
HETATM   30  O   UNL     1      -2.072   8.462 -32.522  1.00  0.00    -0.358 OA
HETATM   31  H   UNL     1      -1.727   9.121 -31.889  1.00  0.00     0.218 HD
ENDBRANCH  27  30
BRANCH  28  32
HETATM   32  O   UNL     1      -1.483   5.889 -31.997  1.00  0.00    -0.349 OA
BRANCH  32  33
HETATM   33  C   UNL     1      -1.576   4.818 -32.942  1.00  0.00     0.171 C 
HETATM   34  C   UNL     1      -1.837   5.422 -34.310  1.00  0.00     0.034 C 
ENDBRANCH  32  33
ENDBRANCH  28  32
ENDBRANCH   1  24
BRANCH   5  35
HETATM   35  O   UNL     1      -9.536   6.301 -29.802  1.00  0.00    -0.355 OA
HETATM   36  H   UNL     1      -9.803   5.901 -30.653  1.00  0.00     0.218 HD
ENDBRANCH   5  35
BRANCH   2  37
HETATM   37  C   UNL     1      -5.244   5.848 -27.385  1.00  0.00     0.155 C 
BRANCH  37  38
HETATM   38  C   UNL     1      -4.410   7.144 -27.277  1.00  0.00     0.255 C 
BRANCH  38  39
HETATM   39  N   UNL     1      -2.928   6.882 -27.454  1.00  0.00    -0.066 N 
HETATM   40  H   UNL     1      -2.831   6.045 -28.049  1.00  0.00     0.280 HD
HETATM   41  C   UNL     1      -2.185   7.969 -28.222  1.00  0.00     0.261 C 
HETATM   42  C   UNL     1      -0.724   7.539 -28.410  1.00  0.00     0.195 C 
HETATM   43  O   UNL     1      -0.099   7.286 -27.145  1.00  0.00    -0.388 OA
HETATM   44  C   UNL     1      -0.754   6.231 -26.430  1.00  0.00     0.195 C 
HETATM   45  C   UNL     1      -2.217   6.586 -26.143  1.00  0.00     0.261 C 
ENDBRANCH  38  39
ENDBRANCH  37  38
ENDBRANCH   2  37
TORSDOF 13
ENDMDL
MODEL 7
REMARK VINA RESULT:      -8.5      3.140      4.911
REMARK  13 active torsions:
REMARK  status: ('A' for Active; 'I' for Inactive)
REMARK    1  A    between atoms: C_2  and  O_3 
REMARK    2  A    between atoms: O_3  and  C_4 
REMARK    3  A    between atoms: C_5  and  O_6 
REMARK    4  A    between atoms: C_9  and  C_10 
REMARK    5  A    between atoms: N_11  and  C_12 
REMARK    6  A    between atoms: C_12  and  C_13 
REMARK    7  A    between atoms: C_13  and  N_14 
REMARK    8  A    between atoms: C_23  and  O_24 
REMARK    9  A    between atoms: C_25  and  C_26 
REMARK   10  A    between atoms: C_26  and  C_27 
REMARK   11  A    between atoms: C_31  and  O_32 
REMARK   12  A    between atoms: O_32  and  C_33 
REMARK   13  A    between atoms: C_33  and  C_34 
ROOT
HETATM    1  C   UNL     1      -6.263   2.987 -32.679  1.00  0.00     0.161 A 
HETATM    2  N   UNL     1      -5.950   1.558 -32.648  1.00  0.00    -0.332 N 
HETATM    3  C   UNL     1      -6.023   1.058 -31.375  1.00  0.00     0.278 A 
HETATM    4  O   UNL     1      -5.646  -0.044 -31.010  1.00  0.00    -0.265 OA
HETATM    5  C   UNL     1      -6.514   2.123 -30.490  1.00  0.00     0.146 A 
HETATM    6  C   UNL     1      -6.650   3.222 -31.244  1.00  0.00     0.059 A 
ENDROOT
BRANCH   6   7
HETATM    7  C   UNL     1      -7.154   4.552 -30.835  1.00  0.00     0.194 C 
HETATM    8  O   UNL     1      -8.354   4.792 -30.816  1.00  0.00    -0.287 OA
BRANCH   7   9
HETATM    9  C   UNL     1      -6.177   5.577 -30.423  1.00  0.00     0.021 A 
HETATM   10  C   UNL     1      -5.908   6.691 -31.232  1.00  0.00    -0.045 A 
HETATM   11  C   UNL     1      -6.700   6.998 -32.468  1.00  0.00     0.049 C 
HETATM   12  C   UNL     1      -4.879   7.560 -30.835  1.00  0.00     0.044 A 
HETATM   13  C   UNL     1      -4.126   7.314 -29.681  1.00  0.00     0.069 A 
HETATM   14  C   UNL     1      -4.452   6.235 -28.859  1.00  0.00     0.038 A 
HETATM   15  C   UNL     1      -5.480   5.365 -29.227  1.00  0.00     0.019 A 
BRANCH  13  16
HETATM   16  O   UNL     1      -3.110   8.201 -29.458  1.00  0.00    -0.347 OA
BRANCH  16  17
HETATM   17  C   UNL     1      -2.804   8.476 -28.090  1.00  0.00     0.214 C 
BRANCH  17  18
HETATM   18  C   UNL     1      -1.305   8.497 -27.931  1.00  0.00    -0.034 A 
HETATM   19  C   UNL     1      -0.670   9.606 -27.354  1.00  0.00     0.009 A 
HETATM   20  C   UNL     1       0.717   9.630 -27.206  1.00  0.00     0.001 A 
HETATM   21  C   UNL     1       1.484   8.550 -27.640  1.00  0.00     0.000 A 
HETATM   22  C   UNL     1       0.866   7.449 -28.229  1.00  0.00     0.001 A 
HETATM   23  C   UNL     1      -0.521   7.424 -28.378  1.00  0.00     0.009 A 
ENDBRANCH  17  18
ENDBRANCH  16  17
ENDBRANCH  13  16
ENDBRANCH   7   9
ENDBRANCH   6   7
BRANCH   1  24
HETATM   24  C   UNL     1      -5.056   3.759 -33.184  1.00  0.00    -0.028 A 
HETATM   25  C   UNL     1      -5.151   4.440 -34.413  1.00  0.00     0.012 A 
HETATM   26  C   UNL     1      -4.035   5.063 -34.972  1.00  0.00     0.040 A 
HETATM   27  C   UNL     1      -2.826   5.025 -34.297  1.00  0.00     0.099 A 
HETATM   28  C   UNL     1      -2.708   4.397 -33.057  1.00  0.00     0.102 A 
HETATM   29  C   UNL     1      -3.815   3.744 -32.512  1.00  0.00     0.049 A 
BRANCH  27  30
HETATM   30  O   UNL     1      -1.746   5.628 -34.875  1.00  0.00    -0.358 OA
HETATM   31  H   UNL     1      -0.956   5.187 -34.506  1.00  0.00     0.218 HD
ENDBRANCH  27  30
BRANCH  28  32
HETATM   32  O   UNL     1      -1.463   4.420 -32.487  1.00  0.00    -0.349 OA
BRANCH  32  33
HETATM   33  C   UNL     1      -1.328   5.296 -31.362  1.00  0.00     0.171 C 
HETATM   34  C   UNL     1      -0.448   6.460 -31.778  1.00  0.00     0.034 C 
ENDBRANCH  32  33
ENDBRANCH  28  32
ENDBRANCH   1  24
BRANCH   5  35
HETATM   35  O   UNL     1      -6.752   1.939 -29.165  1.00  0.00    -0.355 OA
HETATM   36  H   UNL     1      -5.956   2.227 -28.676  1.00  0.00     0.218 HD
ENDBRANCH   5  35
BRANCH   2  37
HETATM   37  C   UNL     1      -5.622   0.771 -33.837  1.00  0.00     0.155 C 
BRANCH  37  38
HETATM   38  C   UNL     1      -6.689  -0.278 -34.220  1.00  0.00     0.255 C 
BRANCH  38  39
HETATM   39  N   UNL     1      -6.067  -1.597 -34.628  1.00  0.00    -0.066 N 
HETATM   40  H   UNL     1      -5.793  -1.518 -35.619  1.00  0.00     0.280 HD
HETATM   41  C   UNL     1      -4.762  -1.925 -33.910  1.00  0.00     0.261 C 
HETATM   42  C   UNL     1      -4.194  -3.233 -34.477  1.00  0.00     0.195 C 
HETATM   43  O   UNL     1      -5.138  -4.303 -34.339  1.00  0.00    -0.388 OA
HETATM   44  C   UNL     1      -6.352  -4.035 -35.049  1.00  0.00     0.195 C 
HETATM   45  C   UNL     1      -7.032  -2.767 -34.520  1.00  0.00     0.261 C 
ENDBRANCH  38  39
ENDBRANCH  37  38
ENDBRANCH   2  37
TORSDOF 13
ENDMDL
MODEL 8
REMARK VINA RESULT:      -8.4      1.845      4.315
REMARK  13 active torsions:
REMARK  status: ('A' for Active; 'I' for Inactive)
REMARK    1  A    between atoms: C_2  and  O_3 
REMARK    2  A    between atoms: O_3  and  C_4 
REMARK    3  A    between atoms: C_5  and  O_6 
REMARK    4  A    between atoms: C_9  and  C_10 
REMARK    5  A    between atoms: N_11  and  C_12 
REMARK    6  A    between atoms: C_12  and  C_13 
REMARK    7  A    between atoms: C_13  and  N_14 
REMARK    8  A    between atoms: C_23  and  O_24 
REMARK    9  A    between atoms: C_25  and  C_26 
REMARK   10  A    between atoms: C_26  and  C_27 
REMARK   11  A    between atoms: C_31  and  O_32 
REMARK   12  A    between atoms: O_32  and  C_33 
REMARK   13  A    between atoms: C_33  and  C_34 
ROOT
HETATM    1  C   UNL     1      -7.336   1.655 -33.099  1.00  0.00     0.161 A 
HETATM    2  N   UNL     1      -8.508   1.474 -32.241  1.00  0.00    -0.332 N 
HETATM    3  C   UNL     1      -8.670   2.532 -31.386  1.00  0.00     0.278 A 
HETATM    4  O   UNL     1      -9.440   2.585 -30.442  1.00  0.00    -0.265 OA
HETATM    5  C   UNL     1      -7.662   3.549 -31.717  1.00  0.00     0.146 A 
HETATM    6  C   UNL     1      -6.905   3.040 -32.699  1.00  0.00     0.059 A 
ENDROOT
BRANCH   6   7
HETATM    7  C   UNL     1      -5.781   3.687 -33.411  1.00  0.00     0.194 C 
HETATM    8  O   UNL     1      -5.829   3.883 -34.618  1.00  0.00    -0.287 OA
BRANCH   7   9
HETATM    9  C   UNL     1      -4.607   4.116 -32.628  1.00  0.00     0.021 A 
HETATM   10  C   UNL     1      -4.372   5.471 -32.352  1.00  0.00    -0.045 A 
HETATM   11  C   UNL     1      -5.366   6.543 -32.684  1.00  0.00     0.049 C 
HETATM   12  C   UNL     1      -3.172   5.814 -31.708  1.00  0.00     0.044 A 
HETATM   13  C   UNL     1      -2.226   4.839 -31.370  1.00  0.00     0.069 A 
HETATM   14  C   UNL     1      -2.508   3.492 -31.598  1.00  0.00     0.038 A 
HETATM   15  C   UNL     1      -3.701   3.127 -32.226  1.00  0.00     0.019 A 
BRANCH  13  16
HETATM   16  O   UNL     1      -1.074   5.325 -30.816  1.00  0.00    -0.347 OA
BRANCH  16  17
HETATM   17  C   UNL     1      -0.698   6.646 -31.205  1.00  0.00     0.214 C 
BRANCH  17  18
HETATM   18  C   UNL     1      -0.446   7.457 -29.959  1.00  0.00    -0.034 A 
HETATM   19  C   UNL     1      -1.438   8.312 -29.459  1.00  0.00     0.009 A 
HETATM   20  C   UNL     1      -1.209   9.065 -28.306  1.00  0.00     0.001 A 
HETATM   21  C   UNL     1       0.016   8.976 -27.647  1.00  0.00     0.000 A 
HETATM   22  C   UNL     1       1.015   8.142 -28.142  1.00  0.00     0.001 A 
HETATM   23  C   UNL     1       0.787   7.388 -29.295  1.00  0.00     0.009 A 
ENDBRANCH  17  18
ENDBRANCH  16  17
ENDBRANCH  13  16
ENDBRANCH   7   9
ENDBRANCH   6   7
BRANCH   1  24
HETATM   24  C   UNL     1      -6.339   0.540 -32.836  1.00  0.00    -0.028 A 
HETATM   25  C   UNL     1      -5.705   0.477 -31.580  1.00  0.00     0.012 A 
HETATM   26  C   UNL     1      -4.699  -0.457 -31.334  1.00  0.00     0.040 A 
HETATM   27  C   UNL     1      -4.334  -1.343 -32.335  1.00  0.00     0.099 A 
HETATM   28  C   UNL     1      -4.972  -1.337 -33.576  1.00  0.00     0.102 A 
HETATM   29  C   UNL     1      -5.956  -0.381 -33.835  1.00  0.00     0.049 A 
BRANCH  27  30
HETATM   30  O   UNL     1      -3.334  -2.235 -32.073  1.00  0.00    -0.358 OA
HETATM   31  H   UNL     1      -2.959  -2.487 -32.939  1.00  0.00     0.218 HD
ENDBRANCH  27  30
BRANCH  28  32
HETATM   32  O   UNL     1      -4.524  -2.256 -34.486  1.00  0.00    -0.349 OA
BRANCH  32  33
HETATM   33  C   UNL     1      -5.423  -3.340 -34.745  1.00  0.00     0.171 C 
HETATM   34  C   UNL     1      -4.717  -4.632 -34.376  1.00  0.00     0.034 C 
ENDBRANCH  32  33
ENDBRANCH  28  32
ENDBRANCH   1  24
BRANCH   5  35
HETATM   35  O   UNL     1      -7.584   4.751 -31.088  1.00  0.00    -0.355 OA
HETATM   36  H   UNL     1      -7.419   5.434 -31.769  1.00  0.00     0.218 HD
ENDBRANCH   5  35
BRANCH   2  37
HETATM   37  C   UNL     1      -9.397   0.315 -32.313  1.00  0.00     0.155 C 
BRANCH  37  38
HETATM   38  C   UNL     1     -10.400   0.353 -33.486  1.00  0.00     0.255 C 
BRANCH  38  39
HETATM   39  N   UNL     1     -11.620   1.191 -33.163  1.00  0.00    -0.066 N 
HETATM   40  H   UNL     1     -11.689   1.254 -32.135  1.00  0.00     0.280 HD
HETATM   41  C   UNL     1     -11.523   2.643 -33.616  1.00  0.00     0.261 C 
HETATM   42  C   UNL     1     -12.776   3.397 -33.148  1.00  0.00     0.195 C 
HETATM   43  O   UNL     1     -13.965   2.779 -33.657  1.00  0.00    -0.388 OA
HETATM   44  C   UNL     1     -14.099   1.428 -33.200  1.00  0.00     0.195 C 
HETATM   45  C   UNL     1     -12.915   0.570 -33.662  1.00  0.00     0.261 C 
ENDBRANCH  38  39
ENDBRANCH  37  38
ENDBRANCH   2  37
TORSDOF 13
ENDMDL
MODEL 9
REMARK VINA RESULT:      -8.4      2.696      4.874
REMARK  13 active torsions:
REMARK  status: ('A' for Active; 'I' for Inactive)
REMARK    1  A    between atoms: C_2  and  O_3 
REMARK    2  A    between atoms: O_3  and  C_4 
REMARK    3  A    between atoms: C_5  and  O_6 
REMARK    4  A    between atoms: C_9  and  C_10 
REMARK    5  A    between atoms: N_11  and  C_12 
REMARK    6  A    between atoms: C_12  and  C_13 
REMARK    7  A    between atoms: C_13  and  N_14 
REMARK    8  A    between atoms: C_23  and  O_24 
REMARK    9  A    between atoms: C_25  and  C_26 
REMARK   10  A    between atoms: C_26  and  C_27 
REMARK   11  A    between atoms: C_31  and  O_32 
REMARK   12  A    between atoms: O_32  and  C_33 
REMARK   13  A    between atoms: C_33  and  C_34 
ROOT
HETATM    1  C   UNL     1      -6.976   3.027 -32.920  1.00  0.00     0.161 A 
HETATM    2  N   UNL     1      -7.229   1.592 -33.051  1.00  0.00    -0.332 N 
HETATM    3  C   UNL     1      -8.155   1.161 -32.138  1.00  0.00     0.278 A 
HETATM    4  O   UNL     1      -8.435   0.001 -31.887  1.00  0.00    -0.265 OA
HETATM    5  C   UNL     1      -8.666   2.334 -31.415  1.00  0.00     0.146 A 
HETATM    6  C   UNL     1      -7.988   3.396 -31.869  1.00  0.00     0.059 A 
ENDROOT
BRANCH   6   7
HETATM    7  C   UNL     1      -8.157   4.816 -31.489  1.00  0.00     0.194 C 
HETATM    8  O   UNL     1      -9.091   5.477 -31.923  1.00  0.00    -0.287 OA
BRANCH   7   9
HETATM    9  C   UNL     1      -7.187   5.413 -30.553  1.00  0.00     0.021 A 
HETATM   10  C   UNL     1      -6.251   6.366 -30.984  1.00  0.00    -0.045 A 
HETATM   11  C   UNL     1      -6.281   6.955 -32.362  1.00  0.00     0.049 C 
HETATM   12  C   UNL     1      -5.281   6.799 -30.066  1.00  0.00     0.044 A 
HETATM   13  C   UNL     1      -5.231   6.282 -28.766  1.00  0.00     0.069 A 
HETATM   14  C   UNL     1      -6.208   5.383 -28.340  1.00  0.00     0.038 A 
HETATM   15  C   UNL     1      -7.191   4.948 -29.232  1.00  0.00     0.019 A 
BRANCH  13  16
HETATM   16  O   UNL     1      -4.190   6.739 -28.006  1.00  0.00    -0.347 OA
BRANCH  16  17
HETATM   17  C   UNL     1      -3.405   7.785 -28.580  1.00  0.00     0.214 C 
BRANCH  17  18
HETATM   18  C   UNL     1      -1.948   7.427 -28.426  1.00  0.00    -0.034 A 
HETATM   19  C   UNL     1      -1.071   7.551 -29.513  1.00  0.00     0.009 A 
HETATM   20  C   UNL     1       0.278   7.220 -29.375  1.00  0.00     0.001 A 
HETATM   21  C   UNL     1       0.761   6.756 -28.153  1.00  0.00     0.000 A 
HETATM   22  C   UNL     1      -0.103   6.614 -27.070  1.00  0.00     0.001 A 
HETATM   23  C   UNL     1      -1.453   6.944 -27.207  1.00  0.00     0.009 A 
ENDBRANCH  17  18
ENDBRANCH  16  17
ENDBRANCH  13  16
ENDBRANCH   7   9
ENDBRANCH   6   7
BRANCH   1  24
HETATM   24  C   UNL     1      -5.518   3.253 -32.558  1.00  0.00    -0.028 A 
HETATM   25  C   UNL     1      -5.040   2.763 -31.327  1.00  0.00     0.012 A 
HETATM   26  C   UNL     1      -3.744   3.048 -30.900  1.00  0.00     0.040 A 
HETATM   27  C   UNL     1      -2.913   3.808 -31.709  1.00  0.00     0.099 A 
HETATM   28  C   UNL     1      -3.340   4.271 -32.953  1.00  0.00     0.102 A 
HETATM   29  C   UNL     1      -4.649   4.016 -33.367  1.00  0.00     0.049 A 
BRANCH  27  30
HETATM   30  O   UNL     1      -1.654   4.086 -31.258  1.00  0.00    -0.358 OA
HETATM   31  H   UNL     1      -1.256   4.689 -31.916  1.00  0.00     0.218 HD
ENDBRANCH  27  30
BRANCH  28  32
HETATM   32  O   UNL     1      -2.434   5.014 -33.661  1.00  0.00    -0.349 OA
BRANCH  32  33
HETATM   33  C   UNL     1      -2.736   6.410 -33.754  1.00  0.00     0.171 C 
HETATM   34  C   UNL     1      -1.515   7.186 -33.293  1.00  0.00     0.034 C 
ENDBRANCH  32  33
ENDBRANCH  28  32
ENDBRANCH   1  24
BRANCH   5  35
HETATM   35  O   UNL     1      -9.642   2.259 -30.472  1.00  0.00    -0.355 OA
HETATM   36  H   UNL     1      -9.937   3.170 -30.276  1.00  0.00     0.218 HD
ENDBRANCH   5  35
BRANCH   2  37
HETATM   37  C   UNL     1      -6.582   0.740 -34.049  1.00  0.00     0.155 C 
BRANCH  37  38
HETATM   38  C   UNL     1      -5.389  -0.079 -33.510  1.00  0.00     0.255 C 
BRANCH  38  39
HETATM   39  N   UNL     1      -5.582  -1.567 -33.717  1.00  0.00    -0.066 N 
HETATM   40  H   UNL     1      -5.863  -1.972 -32.811  1.00  0.00     0.280 HD
HETATM   41  C   UNL     1      -6.729  -1.927 -34.654  1.00  0.00     0.261 C 
HETATM   42  C   UNL     1      -6.873  -3.455 -34.704  1.00  0.00     0.195 C 
HETATM   43  O   UNL     1      -5.651  -4.070 -35.130  1.00  0.00    -0.388 OA
HETATM   44  C   UNL     1      -4.572  -3.784 -34.233  1.00  0.00     0.195 C 
HETATM   45  C   UNL     1      -4.308  -2.276 -34.151  1.00  0.00     0.261 C 
ENDBRANCH  38  39
ENDBRANCH  37  38
ENDBRANCH   2  37
TORSDOF 13
ENDMDL
MODEL 10
REMARK VINA RESULT:      -8.3      3.951      9.460
REMARK  13 active torsions:
REMARK  status: ('A' for Active; 'I' for Inactive)
REMARK    1  A    between atoms: C_2  and  O_3 
REMARK    2  A    between atoms: O_3  and  C_4 
REMARK    3  A    between atoms: C_5  and  O_6 
REMARK    4  A    between atoms: C_9  and  C_10 
REMARK    5  A    between atoms: N_11  and  C_12 
REMARK    6  A    between atoms: C_12  and  C_13 
REMARK    7  A    between atoms: C_13  and  N_14 
REMARK    8  A    between atoms: C_23  and  O_24 
REMARK    9  A    between atoms: C_25  and  C_26 
REMARK   10  A    between atoms: C_26  and  C_27 
REMARK   11  A    between atoms: C_31  and  O_32 
REMARK   12  A    between atoms: O_32  and  C_33 
REMARK   13  A    between atoms: C_33  and  C_34 
ROOT
HETATM    1  C   UNL     1      -2.393   7.072 -31.053  1.00  0.00     0.161 A 
HETATM    2  N   UNL     1      -1.796   7.539 -29.801  1.00  0.00    -0.332 N 
HETATM    3  C   UNL     1      -0.961   6.596 -29.262  1.00  0.00     0.278 A 
HETATM    4  O   UNL     1      -0.466   6.624 -28.148  1.00  0.00    -0.265 OA
HETATM    5  C   UNL     1      -0.863   5.475 -30.207  1.00  0.00     0.146 A 
HETATM    6  C   UNL     1      -1.683   5.756 -31.229  1.00  0.00     0.059 A 
ENDROOT
BRANCH   6   7
HETATM    7  C   UNL     1      -1.913   4.964 -32.458  1.00  0.00     0.194 C 
HETATM    8  O   UNL     1      -1.188   5.095 -33.435  1.00  0.00    -0.287 OA
BRANCH   7   9
HETATM    9  C   UNL     1      -3.022   3.993 -32.470  1.00  0.00     0.021 A 
HETATM   10  C   UNL     1      -4.161   4.199 -33.262  1.00  0.00    -0.045 A 
HETATM   11  C   UNL     1      -4.256   5.316 -34.258  1.00  0.00     0.049 C 
HETATM   12  C   UNL     1      -5.228   3.296 -33.130  1.00  0.00     0.044 A 
HETATM   13  C   UNL     1      -5.170   2.233 -32.221  1.00  0.00     0.069 A 
HETATM   14  C   UNL     1      -4.004   2.010 -31.490  1.00  0.00     0.038 A 
HETATM   15  C   UNL     1      -2.925   2.889 -31.614  1.00  0.00     0.019 A 
BRANCH  13  16
HETATM   16  O   UNL     1      -6.308   1.479 -32.147  1.00  0.00    -0.347 OA
BRANCH  16  17
HETATM   17  C   UNL     1      -6.159   0.167 -31.603  1.00  0.00     0.214 C 
BRANCH  17  18
HETATM   18  C   UNL     1      -5.953  -0.801 -32.740  1.00  0.00    -0.034 A 
HETATM   19  C   UNL     1      -7.014  -1.118 -33.600  1.00  0.00     0.009 A 
HETATM   20  C   UNL     1      -6.829  -2.014 -34.654  1.00  0.00     0.001 A 
HETATM   21  C   UNL     1      -5.584  -2.608 -34.853  1.00  0.00     0.000 A 
HETATM   22  C   UNL     1      -4.526  -2.313 -33.997  1.00  0.00     0.001 A 
HETATM   23  C   UNL     1      -4.710  -1.417 -32.942  1.00  0.00     0.009 A 
ENDBRANCH  17  18
ENDBRANCH  16  17
ENDBRANCH  13  16
ENDBRANCH   7   9
ENDBRANCH   6   7
BRANCH   1  24
HETATM   24  C   UNL     1      -3.903   7.005 -30.900  1.00  0.00    -0.028 A 
HETATM   25  C   UNL     1      -4.695   7.958 -31.570  1.00  0.00     0.012 A 
HETATM   26  C   UNL     1      -6.074   8.008 -31.367  1.00  0.00     0.040 A 
HETATM   27  C   UNL     1      -6.669   7.097 -30.510  1.00  0.00     0.099 A 
HETATM   28  C   UNL     1      -5.919   6.112 -29.866  1.00  0.00     0.102 A 
HETATM   29  C   UNL     1      -4.535   6.082 -30.041  1.00  0.00     0.049 A 
BRANCH  27  30
HETATM   30  O   UNL     1      -8.018   7.180 -30.316  1.00  0.00    -0.358 OA
HETATM   31  H   UNL     1      -8.348   6.261 -30.288  1.00  0.00     0.218 HD
ENDBRANCH  27  30
BRANCH  28  32
HETATM   32  O   UNL     1      -6.615   5.270 -29.040  1.00  0.00    -0.349 OA
BRANCH  32  33
HETATM   33  C   UNL     1      -6.671   3.907 -29.473  1.00  0.00     0.171 C 
HETATM   34  C   UNL     1      -8.056   3.651 -30.039  1.00  0.00     0.034 C 
ENDBRANCH  32  33
ENDBRANCH  28  32
ENDBRANCH   1  24
BRANCH   5  35
HETATM   35  O   UNL     1      -0.067   4.394 -29.999  1.00  0.00    -0.355 OA
HETATM   36  H   UNL     1      -0.636   3.598 -30.008  1.00  0.00     0.218 HD
ENDBRANCH   5  35
BRANCH   2  37
HETATM   37  C   UNL     1      -2.053   8.857 -29.220  1.00  0.00     0.155 C 
BRANCH  37  38
HETATM   38  C   UNL     1      -3.107   8.860 -28.090  1.00  0.00     0.255 C 
BRANCH  38  39
HETATM   39  N   UNL     1      -2.477   8.667 -26.726  1.00  0.00    -0.066 N 
HETATM   40  H   UNL     1      -2.018   7.743 -26.725  1.00  0.00     0.280 HD
HETATM   41  C   UNL     1      -1.346   9.641 -26.413  1.00  0.00     0.261 C 
HETATM   42  C   UNL     1      -0.739   9.280 -25.050  1.00  0.00     0.195 C 
HETATM   43  O   UNL     1      -1.738   9.306 -24.023  1.00  0.00    -0.388 OA
HETATM   44  C   UNL     1      -2.784   8.360 -24.274  1.00  0.00     0.195 C 
HETATM   45  C   UNL     1      -3.496   8.665 -25.597  1.00  0.00     0.261 C 
ENDBRANCH  38  39
ENDBRANCH  37  38
ENDBRANCH   2  37
TORSDOF 13
ENDMDL
