MODEL 1
REMARK VINA RESULT:      -8.1      0.000      0.000
REMARK  8 active torsions:
REMARK  status: ('A' for Active; 'I' for Inactive)
REMARK    1  A    between atoms: C_2  and  N_3 
REMARK    2  A    between atoms: N_7  and  C_8 
REMARK    3  A    between atoms: C_11  and  N_12 
REMARK       I    between atoms: N_12  and  C_13 
REMARK    4  A    between atoms: C_13  and  C_14 
REMARK    5  A    between atoms: C_17  and  N_18 
REMARK       I    between atoms: N_18  and  C_19 
REMARK    6  A    between atoms: C_19  and  C_20 
REMARK    7  A    between atoms: C_20  and  S_21 
REMARK    8  A    between atoms: S_21  and  C_22 
ROOT
HETATM    1  N   UNL     1       2.956   8.254 -24.769  1.00  0.00    -0.323 N 
HETATM    2  C   UNL     1       1.925   8.931 -25.394  1.00  0.00     0.256 C 
HETATM    3  O   UNL     1       1.560  10.079 -25.179  1.00  0.00    -0.267 OA
HETATM    4  H   UNL     1       3.235   7.374 -25.184  1.00  0.00     0.169 HD
ENDROOT
BRANCH   2   5
HETATM    5  C   UNL     1       1.278   8.154 -26.487  1.00  0.00     0.032 A 
HETATM    6  C   UNL     1       1.468   8.505 -27.827  1.00  0.00     0.019 A 
HETATM    7  C   UNL     1       0.774   7.828 -28.834  1.00  0.00     0.030 A 
HETATM    8  C   UNL     1      -0.112   6.795 -28.517  1.00  0.00     0.034 A 
HETATM    9  C   UNL     1      -0.247   6.407 -27.177  1.00  0.00     0.030 A 
HETATM   10  C   UNL     1       0.445   7.080 -26.164  1.00  0.00     0.019 A 
BRANCH   8  11
HETATM   11  N   UNL     1      -0.910   6.131 -29.469  1.00  0.00    -0.327 N 
HETATM   12  C   UNL     1      -0.492   5.215 -30.425  1.00  0.00     0.231 C 
HETATM   13  O   UNL     1       0.639   4.749 -30.529  1.00  0.00    -0.272 OA
HETATM   14  H   UNL     1      -1.871   6.446 -29.551  1.00  0.00     0.169 HD
BRANCH  12  15
HETATM   15  C   UNL     1      -1.597   4.794 -31.382  1.00  0.00     0.185 C 
BRANCH  15  16
HETATM   16  S   UNL     1      -2.595   6.249 -31.842  1.00  0.00    -0.083 SA
BRANCH  16  17
HETATM   17  C   UNL     1      -3.404   5.628 -33.239  1.00  0.00     0.168 A 
HETATM   18  N   UNL     1      -4.604   4.969 -33.176  1.00  0.00    -0.339 N 
HETATM   19  C   UNL     1      -5.376   4.658 -31.998  1.00  0.00     0.158 C 
HETATM   20  C   UNL     1      -4.957   4.651 -34.461  1.00  0.00     0.112 A 
HETATM   21  C   UNL     1      -3.934   5.132 -35.244  1.00  0.00     0.136 A 
HETATM   22  N   UNL     1      -2.970   5.730 -34.473  1.00  0.00    -0.235 NA
ENDBRANCH  16  17
ENDBRANCH  15  16
ENDBRANCH  12  15
ENDBRANCH   8  11
ENDBRANCH   2   5
BRANCH   1  23
HETATM   23  C   UNL     1       3.727   8.686 -23.674  1.00  0.00     0.035 A 
HETATM   24  C   UNL     1       3.458   8.355 -22.351  1.00  0.00     0.032 A 
HETATM   25  C   UNL     1       4.293   8.807 -21.316  1.00  0.00     0.031 A 
HETATM   26  C   UNL     1       5.405   9.622 -21.566  1.00  0.00     0.030 A 
HETATM   27  C   UNL     1       5.665   9.930 -22.910  1.00  0.00     0.031 A 
HETATM   28  C   UNL     1       4.846   9.471 -23.949  1.00  0.00     0.032 A 
BRANCH  26  29
HETATM   29  N   UNL     1       6.261  10.091 -20.569  1.00  0.00    -0.378 N 
HETATM   30  C   UNL     1       7.564  10.680 -20.914  1.00  0.00     0.150 C 
HETATM   31  C   UNL     1       8.698   9.638 -20.845  1.00  0.00     0.254 C 
HETATM   32  N   UNL     1       8.705   8.934 -19.479  1.00  0.00    -0.068 N 
HETATM   33  H   UNL     1       8.848   9.668 -18.774  1.00  0.00     0.280 HD
HETATM   34  C   UNL     1       7.331   8.307 -19.208  1.00  0.00     0.254 C 
HETATM   35  C   UNL     1       6.225   9.383 -19.273  1.00  0.00     0.150 C 
BRANCH  32  36
HETATM   36  C   UNL     1       9.847   7.953 -19.378  1.00  0.00     0.230 C 
HETATM   37  C   UNL     1       9.332   6.528 -19.322  1.00  0.00     0.034 C 
ENDBRANCH  32  36
ENDBRANCH  26  29
ENDBRANCH   1  23
TORSDOF 8
ENDMDL
MODEL 2
REMARK VINA RESULT:      -7.9      1.581      2.031
REMARK  8 active torsions:
REMARK  status: ('A' for Active; 'I' for Inactive)
REMARK    1  A    between atoms: C_2  and  N_3 
REMARK    2  A    between atoms: N_7  and  C_8 
REMARK    3  A    between atoms: C_11  and  N_12 
REMARK       I    between atoms: N_12  and  C_13 
REMARK    4  A    between atoms: C_13  and  C_14 
REMARK    5  A    between atoms: C_17  and  N_18 
REMARK       I    between atoms: N_18  and  C_19 
REMARK    6  A    between atoms: C_19  and  C_20 
REMARK    7  A    between atoms: C_20  and  S_21 
REMARK    8  A    between atoms: S_21  and  C_22 
ROOT
HETATM    1  N   UNL     1       2.765   8.216 -24.852  1.00  0.00    -0.323 N 
HETATM    2  C   UNL     1       1.755   8.894 -25.509  1.00  0.00     0.256 C 
HETATM    3  O   UNL     1       1.410  10.054 -25.333  1.00  0.00    -0.267 OA
HETATM    4  H   UNL     1       3.032   7.318 -25.238  1.00  0.00     0.169 HD
ENDROOT
BRANCH   2   5
HETATM    5  C   UNL     1       1.106   8.097 -26.587  1.00  0.00     0.032 A 
HETATM    6  C   UNL     1       0.310   6.988 -26.280  1.00  0.00     0.019 A 
HETATM    7  C   UNL     1      -0.209   6.193 -27.305  1.00  0.00     0.030 A 
HETATM    8  C   UNL     1       0.055   6.495 -28.644  1.00  0.00     0.034 A 
HETATM    9  C   UNL     1       0.799   7.645 -28.944  1.00  0.00     0.030 A 
HETATM   10  C   UNL     1       1.321   8.446 -27.922  1.00  0.00     0.019 A 
BRANCH   8  11
HETATM   11  N   UNL     1      -0.359   5.690 -29.723  1.00  0.00    -0.327 N 
HETATM   12  C   UNL     1      -1.464   5.883 -30.542  1.00  0.00     0.231 C 
HETATM   13  O   UNL     1      -2.209   6.860 -30.525  1.00  0.00    -0.272 OA
HETATM   14  H   UNL     1       0.126   4.806 -29.839  1.00  0.00     0.169 HD
BRANCH  12  15
HETATM   15  C   UNL     1      -1.693   4.747 -31.526  1.00  0.00     0.185 C 
BRANCH  15  16
HETATM   16  S   UNL     1      -3.463   4.653 -31.950  1.00  0.00    -0.083 SA
BRANCH  16  17
HETATM   17  C   UNL     1      -3.708   2.944 -31.838  1.00  0.00     0.168 A 
HETATM   18  N   UNL     1      -4.766   2.301 -32.424  1.00  0.00    -0.339 N 
HETATM   19  C   UNL     1      -5.838   2.889 -33.190  1.00  0.00     0.158 C 
HETATM   20  C   UNL     1      -4.625   0.964 -32.157  1.00  0.00     0.112 A 
HETATM   21  C   UNL     1      -3.478   0.869 -31.403  1.00  0.00     0.136 A 
HETATM   22  N   UNL     1      -2.922   2.106 -31.204  1.00  0.00    -0.235 NA
ENDBRANCH  16  17
ENDBRANCH  15  16
ENDBRANCH  12  15
ENDBRANCH   8  11
ENDBRANCH   2   5
BRANCH   1  23
HETATM   23  C   UNL     1       3.531   8.665 -23.760  1.00  0.00     0.035 A 
HETATM   24  C   UNL     1       3.302   8.294 -22.440  1.00  0.00     0.032 A 
HETATM   25  C   UNL     1       4.130   8.769 -21.410  1.00  0.00     0.031 A 
HETATM   26  C   UNL     1       5.195   9.645 -21.661  1.00  0.00     0.030 A 
HETATM   27  C   UNL     1       5.416   9.992 -23.003  1.00  0.00     0.031 A 
HETATM   28  C   UNL     1       4.604   9.512 -24.037  1.00  0.00     0.032 A 
BRANCH  26  29
HETATM   29  N   UNL     1       6.042  10.138 -20.668  1.00  0.00    -0.378 N 
HETATM   30  C   UNL     1       7.367  10.677 -21.012  1.00  0.00     0.150 C 
HETATM   31  C   UNL     1       8.471   9.609 -20.870  1.00  0.00     0.254 C 
HETATM   32  N   UNL     1       8.432   8.970 -19.473  1.00  0.00    -0.068 N 
HETATM   33  H   UNL     1       8.580   9.733 -18.800  1.00  0.00     0.280 HD
HETATM   34  C   UNL     1       7.035   8.392 -19.203  1.00  0.00     0.254 C 
HETATM   35  C   UNL     1       5.960   9.491 -19.342  1.00  0.00     0.150 C 
BRANCH  32  36
HETATM   36  C   UNL     1       9.545   7.967 -19.302  1.00  0.00     0.230 C 
HETATM   37  C   UNL     1       9.018   6.549 -19.423  1.00  0.00     0.034 C 
ENDBRANCH  32  36
ENDBRANCH  26  29
ENDBRANCH   1  23
TORSDOF 8
ENDMDL
MODEL 3
REMARK VINA RESULT:      -7.8      5.478     14.014
REMARK  8 active torsions:
REMARK  status: ('A' for Active; 'I' for Inactive)
REMARK    1  A    between atoms: C_2  and  N_3 
REMARK    2  A    between atoms: N_7  and  C_8 
REMARK    3  A    between atoms: C_11  and  N_12 
REMARK       I    between atoms: N_12  and  C_13 
REMARK    4  A    between atoms: C_13  and  C_14 
REMARK    5  A    between atoms: C_17  and  N_18 
REMARK       I    between atoms: N_18  and  C_19 
REMARK    6  A    between atoms: C_19  and  C_20 
REMARK    7  A    between atoms: C_20  and  S_21 
REMARK    8  A    between atoms: S_21  and  C_22 
ROOT
HETATM    1  N   UNL     1      -2.711   3.901 -31.177  1.00  0.00    -0.323 N 
HETATM    2  C   UNL     1      -1.765   4.685 -31.812  1.00  0.00     0.256 C 
HETATM    3  O   UNL     1      -1.593   4.800 -33.018  1.00  0.00    -0.267 OA
HETATM    4  H   UNL     1      -2.830   4.054 -30.183  1.00  0.00     0.169 HD
ENDROOT
BRANCH   2   5
HETATM    5  C   UNL     1      -0.951   5.511 -30.878  1.00  0.00     0.032 A 
HETATM    6  C   UNL     1       0.103   4.946 -30.153  1.00  0.00     0.019 A 
HETATM    7  C   UNL     1       0.791   5.711 -29.207  1.00  0.00     0.030 A 
HETATM    8  C   UNL     1       0.442   7.044 -28.978  1.00  0.00     0.034 A 
HETATM    9  C   UNL     1      -0.572   7.620 -29.756  1.00  0.00     0.030 A 
HETATM   10  C   UNL     1      -1.265   6.861 -30.705  1.00  0.00     0.019 A 
BRANCH   8  11
HETATM   11  N   UNL     1       1.030   7.846 -27.981  1.00  0.00    -0.327 N 
HETATM   12  C   UNL     1       0.916   7.697 -26.605  1.00  0.00     0.231 C 
HETATM   13  O   UNL     1       0.362   6.766 -26.025  1.00  0.00    -0.272 OA
HETATM   14  H   UNL     1       1.483   8.697 -28.295  1.00  0.00     0.169 HD
BRANCH  12  15
HETATM   15  C   UNL     1       1.572   8.822 -25.819  1.00  0.00     0.185 C 
BRANCH  15  16
HETATM   16  S   UNL     1       0.296   9.771 -24.929  1.00  0.00    -0.083 SA
BRANCH  16  17
HETATM   17  C   UNL     1      -0.846  10.010 -26.205  1.00  0.00     0.168 A 
HETATM   18  N   UNL     1      -2.104   9.468 -26.193  1.00  0.00    -0.339 N 
HETATM   19  C   UNL     1      -2.687   8.619 -25.183  1.00  0.00     0.158 C 
HETATM   20  C   UNL     1      -2.736   9.886 -27.336  1.00  0.00     0.112 A 
HETATM   21  C   UNL     1      -1.809  10.663 -27.993  1.00  0.00     0.136 A 
HETATM   22  N   UNL     1      -0.636  10.726 -27.285  1.00  0.00    -0.235 NA
ENDBRANCH  16  17
ENDBRANCH  15  16
ENDBRANCH  12  15
ENDBRANCH   8  11
ENDBRANCH   2   5
BRANCH   1  23
HETATM   23  C   UNL     1      -3.595   2.977 -31.764  1.00  0.00     0.035 A 
HETATM   24  C   UNL     1      -3.401   1.600 -31.759  1.00  0.00     0.032 A 
HETATM   25  C   UNL     1      -4.345   0.743 -32.347  1.00  0.00     0.031 A 
HETATM   26  C   UNL     1      -5.497   1.232 -32.978  1.00  0.00     0.030 A 
HETATM   27  C   UNL     1      -5.678   2.624 -32.956  1.00  0.00     0.031 A 
HETATM   28  C   UNL     1      -4.749   3.484 -32.359  1.00  0.00     0.032 A 
BRANCH  26  29
HETATM   29  N   UNL     1      -6.460   0.417 -33.571  1.00  0.00    -0.378 N 
HETATM   30  C   UNL     1      -7.140   0.835 -34.807  1.00  0.00     0.150 C 
HETATM   31  C   UNL     1      -8.484   1.532 -34.511  1.00  0.00     0.254 C 
HETATM   32  N   UNL     1      -9.366   0.650 -33.615  1.00  0.00    -0.068 N 
HETATM   33  H   UNL     1      -9.521  -0.226 -34.131  1.00  0.00     0.280 HD
HETATM   34  C   UNL     1      -8.610   0.290 -32.328  1.00  0.00     0.254 C 
HETATM   35  C   UNL     1      -7.278  -0.415 -32.665  1.00  0.00     0.150 C 
BRANCH  32  36
HETATM   36  C   UNL     1     -10.708   1.294 -33.367  1.00  0.00     0.230 C 
HETATM   37  C   UNL     1     -10.539   2.691 -32.798  1.00  0.00     0.034 C 
ENDBRANCH  32  36
ENDBRANCH  26  29
ENDBRANCH   1  23
TORSDOF 8
ENDMDL
MODEL 4
REMARK VINA RESULT:      -7.8      4.909      7.993
REMARK  8 active torsions:
REMARK  status: ('A' for Active; 'I' for Inactive)
REMARK    1  A    between atoms: C_2  and  N_3 
REMARK    2  A    between atoms: N_7  and  C_8 
REMARK    3  A    between atoms: C_11  and  N_12 
REMARK       I    between atoms: N_12  and  C_13 
REMARK    4  A    between atoms: C_13  and  C_14 
REMARK    5  A    between atoms: C_17  and  N_18 
REMARK       I    between atoms: N_18  and  C_19 
REMARK    6  A    between atoms: C_19  and  C_20 
REMARK    7  A    between atoms: C_20  and  S_21 
REMARK    8  A    between atoms: S_21  and  C_22 
ROOT
HETATM    1  N   UNL     1      -1.959   6.009 -30.019  1.00  0.00    -0.323 N 
HETATM    2  C   UNL     1      -1.923   5.836 -31.391  1.00  0.00     0.256 C 
HETATM    3  O   UNL     1      -1.063   6.238 -32.162  1.00  0.00    -0.267 OA
HETATM    4  H   UNL     1      -2.650   5.467 -29.514  1.00  0.00     0.169 HD
ENDROOT
BRANCH   2   5
HETATM    5  C   UNL     1      -3.038   5.001 -31.916  1.00  0.00     0.032 A 
HETATM    6  C   UNL     1      -3.158   3.655 -31.555  1.00  0.00     0.019 A 
HETATM    7  C   UNL     1      -4.151   2.860 -32.135  1.00  0.00     0.030 A 
HETATM    8  C   UNL     1      -5.034   3.397 -33.075  1.00  0.00     0.034 A 
HETATM    9  C   UNL     1      -4.948   4.762 -33.382  1.00  0.00     0.030 A 
HETATM   10  C   UNL     1      -3.957   5.564 -32.804  1.00  0.00     0.019 A 
BRANCH   8  11
HETATM   11  N   UNL     1      -5.999   2.636 -33.765  1.00  0.00    -0.327 N 
HETATM   12  C   UNL     1      -7.304   2.375 -33.370  1.00  0.00     0.231 C 
HETATM   13  O   UNL     1      -7.871   2.859 -32.393  1.00  0.00    -0.272 OA
HETATM   14  H   UNL     1      -5.672   2.119 -34.574  1.00  0.00     0.169 HD
BRANCH  12  15
HETATM   15  C   UNL     1      -8.030   1.404 -34.288  1.00  0.00     0.185 C 
BRANCH  15  16
HETATM   16  S   UNL     1      -8.221  -0.204 -33.451  1.00  0.00    -0.083 SA
BRANCH  16  17
HETATM   17  C   UNL     1      -6.558  -0.621 -33.220  1.00  0.00     0.168 A 
HETATM   18  N   UNL     1      -5.930  -0.541 -32.005  1.00  0.00    -0.339 N 
HETATM   19  C   UNL     1      -6.490  -0.097 -30.752  1.00  0.00     0.158 C 
HETATM   20  C   UNL     1      -4.642  -0.973 -32.187  1.00  0.00     0.112 A 
HETATM   21  C   UNL     1      -4.555  -1.286 -33.524  1.00  0.00     0.136 A 
HETATM   22  N   UNL     1      -5.749  -1.056 -34.157  1.00  0.00    -0.235 NA
ENDBRANCH  16  17
ENDBRANCH  15  16
ENDBRANCH  12  15
ENDBRANCH   8  11
ENDBRANCH   2   5
BRANCH   1  23
HETATM   23  C   UNL     1      -1.088   6.781 -29.228  1.00  0.00     0.035 A 
HETATM   24  C   UNL     1       0.055   6.284 -28.613  1.00  0.00     0.032 A 
HETATM   25  C   UNL     1       0.886   7.129 -27.859  1.00  0.00     0.031 A 
HETATM   26  C   UNL     1       0.590   8.487 -27.676  1.00  0.00     0.030 A 
HETATM   27  C   UNL     1      -0.560   8.968 -28.321  1.00  0.00     0.031 A 
HETATM   28  C   UNL     1      -1.386   8.135 -29.086  1.00  0.00     0.032 A 
BRANCH  26  29
HETATM   29  N   UNL     1       1.389   9.360 -26.938  1.00  0.00    -0.378 N 
HETATM   30  C   UNL     1       2.322   8.847 -25.922  1.00  0.00     0.150 C 
HETATM   31  C   UNL     1       1.694   8.860 -24.513  1.00  0.00     0.254 C 
HETATM   32  N   UNL     1       1.152  10.257 -24.174  1.00  0.00    -0.068 N 
HETATM   33  H   UNL     1       1.954  10.899 -24.216  1.00  0.00     0.280 HD
HETATM   34  C   UNL     1       0.155  10.706 -25.251  1.00  0.00     0.254 C 
HETATM   35  C   UNL     1       0.822  10.692 -26.643  1.00  0.00     0.150 C 
BRANCH  32  36
HETATM   36  C   UNL     1       0.589  10.298 -22.775  1.00  0.00     0.230 C 
HETATM   37  C   UNL     1      -0.899  10.002 -22.782  1.00  0.00     0.034 C 
ENDBRANCH  32  36
ENDBRANCH  26  29
ENDBRANCH   1  23
TORSDOF 8
ENDMDL
MODEL 5
REMARK VINA RESULT:      -7.7      7.309     13.419
REMARK  8 active torsions:
REMARK  status: ('A' for Active; 'I' for Inactive)
REMARK    1  A    between atoms: C_2  and  N_3 
REMARK    2  A    between atoms: N_7  and  C_8 
REMARK    3  A    between atoms: C_11  and  N_12 
REMARK       I    between atoms: N_12  and  C_13 
REMARK    4  A    between atoms: C_13  and  C_14 
REMARK    5  A    between atoms: C_17  and  N_18 
REMARK       I    between atoms: N_18  and  C_19 
REMARK    6  A    between atoms: C_19  and  C_20 
REMARK    7  A    between atoms: C_20  and  S_21 
REMARK    8  A    between atoms: S_21  and  C_22 
ROOT
HETATM    1  N   UNL     1      -6.385   3.580 -32.332  1.00  0.00    -0.323 N 
HETATM    2  C   UNL     1      -6.876   2.735 -33.311  1.00  0.00     0.256 C 
HETATM    3  O   UNL     1      -6.240   2.196 -34.205  1.00  0.00    -0.267 OA
HETATM    4  H   UNL     1      -7.014   3.801 -31.569  1.00  0.00     0.169 HD
ENDROOT
BRANCH   2   5
HETATM    5  C   UNL     1      -8.325   2.428 -33.161  1.00  0.00     0.032 A 
HETATM    6  C   UNL     1      -8.813   1.137 -33.389  1.00  0.00     0.019 A 
HETATM    7  C   UNL     1     -10.188   0.889 -33.343  1.00  0.00     0.030 A 
HETATM    8  C   UNL     1     -11.088   1.921 -33.066  1.00  0.00     0.034 A 
HETATM    9  C   UNL     1     -10.586   3.197 -32.775  1.00  0.00     0.030 A 
HETATM   10  C   UNL     1      -9.211   3.452 -32.818  1.00  0.00     0.019 A 
BRANCH   8  11
HETATM   11  N   UNL     1     -12.488   1.764 -33.091  1.00  0.00    -0.327 N 
HETATM   12  C   UNL     1     -13.286   1.503 -34.197  1.00  0.00     0.231 C 
HETATM   13  O   UNL     1     -12.884   1.257 -35.332  1.00  0.00    -0.272 OA
HETATM   14  H   UNL     1     -12.983   1.990 -32.235  1.00  0.00     0.169 HD
BRANCH  12  15
HETATM   15  C   UNL     1     -14.774   1.530 -33.888  1.00  0.00     0.185 C 
BRANCH  15  16
HETATM   16  S   UNL     1     -15.029   2.008 -32.148  1.00  0.00    -0.083 SA
BRANCH  16  17
HETATM   17  C   UNL     1     -16.525   2.863 -32.287  1.00  0.00     0.168 A 
HETATM   18  N   UNL     1     -16.654   4.196 -31.997  1.00  0.00    -0.339 N 
HETATM   19  C   UNL     1     -15.632   5.095 -31.521  1.00  0.00     0.158 C 
HETATM   20  C   UNL     1     -17.957   4.541 -32.247  1.00  0.00     0.112 A 
HETATM   21  C   UNL     1     -18.559   3.379 -32.673  1.00  0.00     0.136 A 
HETATM   22  N   UNL     1     -17.662   2.342 -32.686  1.00  0.00    -0.235 NA
ENDBRANCH  16  17
ENDBRANCH  15  16
ENDBRANCH  12  15
ENDBRANCH   8  11
ENDBRANCH   2   5
BRANCH   1  23
HETATM   23  C   UNL     1      -5.082   4.100 -32.221  1.00  0.00     0.035 A 
HETATM   24  C   UNL     1      -3.934   3.320 -32.151  1.00  0.00     0.032 A 
HETATM   25  C   UNL     1      -2.666   3.919 -32.067  1.00  0.00     0.031 A 
HETATM   26  C   UNL     1      -2.507   5.311 -32.026  1.00  0.00     0.030 A 
HETATM   27  C   UNL     1      -3.680   6.077 -32.115  1.00  0.00     0.031 A 
HETATM   28  C   UNL     1      -4.946   5.487 -32.213  1.00  0.00     0.032 A 
BRANCH  26  29
HETATM   29  N   UNL     1      -1.268   5.946 -31.945  1.00  0.00    -0.378 N 
HETATM   30  C   UNL     1      -0.079   5.215 -31.481  1.00  0.00     0.150 C 
HETATM   31  C   UNL     1       0.163   5.418 -29.971  1.00  0.00     0.254 C 
HETATM   32  N   UNL     1       0.210   6.915 -29.626  1.00  0.00    -0.068 N 
HETATM   33  H   UNL     1       0.985   7.314 -30.172  1.00  0.00     0.280 HD
HETATM   34  C   UNL     1      -1.078   7.601 -30.100  1.00  0.00     0.254 C 
HETATM   35  C   UNL     1      -1.278   7.386 -31.616  1.00  0.00     0.150 C 
BRANCH  32  36
HETATM   36  C   UNL     1       0.506   7.127 -28.162  1.00  0.00     0.230 C 
HETATM   37  C   UNL     1       1.334   8.381 -27.955  1.00  0.00     0.034 C 
ENDBRANCH  32  36
ENDBRANCH  26  29
ENDBRANCH   1  23
TORSDOF 8
ENDMDL
MODEL 6
REMARK VINA RESULT:      -7.7      5.157     14.145
REMARK  8 active torsions:
REMARK  status: ('A' for Active; 'I' for Inactive)
REMARK    1  A    between atoms: C_2  and  N_3 
REMARK    2  A    between atoms: N_7  and  C_8 
REMARK    3  A    between atoms: C_11  and  N_12 
REMARK       I    between atoms: N_12  and  C_13 
REMARK    4  A    between atoms: C_13  and  C_14 
REMARK    5  A    between atoms: C_17  and  N_18 
REMARK       I    between atoms: N_18  and  C_19 
REMARK    6  A    between atoms: C_19  and  C_20 
REMARK    7  A    between atoms: C_20  and  S_21 
REMARK    8  A    between atoms: S_21  and  C_22 
ROOT
HETATM    1  N   UNL     1      -2.938   4.359 -31.099  1.00  0.00    -0.323 N 
HETATM    2  C   UNL     1      -1.831   4.888 -31.737  1.00  0.00     0.256 C 
HETATM    3  O   UNL     1      -1.575   4.837 -32.932  1.00  0.00    -0.267 OA
HETATM    4  H   UNL     1      -3.080   4.639 -30.136  1.00  0.00     0.169 HD
ENDROOT
BRANCH   2   5
HETATM    5  C   UNL     1      -0.930   5.654 -30.832  1.00  0.00     0.032 A 
HETATM    6  C   UNL     1       0.087   5.011 -30.119  1.00  0.00     0.019 A 
HETATM    7  C   UNL     1       0.858   5.727 -29.199  1.00  0.00     0.030 A 
HETATM    8  C   UNL     1       0.626   7.088 -28.982  1.00  0.00     0.034 A 
HETATM    9  C   UNL     1      -0.351   7.738 -29.748  1.00  0.00     0.030 A 
HETATM   10  C   UNL     1      -1.126   7.028 -30.672  1.00  0.00     0.019 A 
BRANCH   8  11
HETATM   11  N   UNL     1       1.301   7.850 -28.009  1.00  0.00    -0.327 N 
HETATM   12  C   UNL     1       1.146   7.783 -26.630  1.00  0.00     0.231 C 
HETATM   13  O   UNL     1       0.463   6.962 -26.023  1.00  0.00    -0.272 OA
HETATM   14  H   UNL     1       1.869   8.618 -28.350  1.00  0.00     0.169 HD
BRANCH  12  15
HETATM   15  C   UNL     1       1.934   8.846 -25.881  1.00  0.00     0.185 C 
BRANCH  15  16
HETATM   16  S   UNL     1       1.072  10.448 -26.005  1.00  0.00    -0.083 SA
BRANCH  16  17
HETATM   17  C   UNL     1      -0.221  10.180 -24.888  1.00  0.00     0.168 A 
HETATM   18  N   UNL     1      -1.504   9.906 -25.282  1.00  0.00    -0.339 N 
HETATM   19  C   UNL     1      -2.010   9.815 -26.630  1.00  0.00     0.158 C 
HETATM   20  C   UNL     1      -2.247   9.724 -24.145  1.00  0.00     0.112 A 
HETATM   21  C   UNL     1      -1.362   9.909 -23.107  1.00  0.00     0.136 A 
HETATM   22  N   UNL     1      -0.109  10.200 -23.581  1.00  0.00    -0.235 NA
ENDBRANCH  16  17
ENDBRANCH  15  16
ENDBRANCH  12  15
ENDBRANCH   8  11
ENDBRANCH   2   5
BRANCH   1  23
HETATM   23  C   UNL     1      -3.943   3.547 -31.656  1.00  0.00     0.035 A 
HETATM   24  C   UNL     1      -3.874   2.160 -31.729  1.00  0.00     0.032 A 
HETATM   25  C   UNL     1      -4.934   1.420 -32.279  1.00  0.00     0.031 A 
HETATM   26  C   UNL     1      -6.081   2.040 -32.793  1.00  0.00     0.030 A 
HETATM   27  C   UNL     1      -6.134   3.439 -32.692  1.00  0.00     0.031 A 
HETATM   28  C   UNL     1      -5.088   4.183 -32.133  1.00  0.00     0.032 A 
BRANCH  26  29
HETATM   29  N   UNL     1      -7.156   1.343 -33.344  1.00  0.00    -0.378 N 
HETATM   30  C   UNL     1      -7.836   0.285 -32.580  1.00  0.00     0.150 C 
HETATM   31  C   UNL     1      -7.272  -1.112 -32.912  1.00  0.00     0.254 C 
HETATM   32  N   UNL     1      -7.298  -1.360 -34.429  1.00  0.00    -0.068 N 
HETATM   33  H   UNL     1      -8.283  -1.291 -34.718  1.00  0.00     0.280 HD
HETATM   34  C   UNL     1      -6.534  -0.244 -35.154  1.00  0.00     0.254 C 
HETATM   35  C   UNL     1      -7.135   1.135 -34.806  1.00  0.00     0.150 C 
BRANCH  32  36
HETATM   36  C   UNL     1      -6.805  -2.746 -34.762  1.00  0.00     0.230 C 
HETATM   37  C   UNL     1      -5.302  -2.843 -34.577  1.00  0.00     0.034 C 
ENDBRANCH  32  36
ENDBRANCH  26  29
ENDBRANCH   1  23
TORSDOF 8
ENDMDL
MODEL 7
REMARK VINA RESULT:      -7.7      3.092     13.342
REMARK  8 active torsions:
REMARK  status: ('A' for Active; 'I' for Inactive)
REMARK    1  A    between atoms: C_2  and  N_3 
REMARK    2  A    between atoms: N_7  and  C_8 
REMARK    3  A    between atoms: C_11  and  N_12 
REMARK       I    between atoms: N_12  and  C_13 
REMARK    4  A    between atoms: C_13  and  C_14 
REMARK    5  A    between atoms: C_17  and  N_18 
REMARK       I    between atoms: N_18  and  C_19 
REMARK    6  A    between atoms: C_19  and  C_20 
REMARK    7  A    between atoms: C_20  and  S_21 
REMARK    8  A    between atoms: S_21  and  C_22 
ROOT
HETATM    1  N   UNL     1       0.216   7.524 -29.207  1.00  0.00    -0.323 N 
HETATM    2  C   UNL     1      -0.390   8.249 -28.197  1.00  0.00     0.256 C 
HETATM    3  O   UNL     1      -1.590   8.356 -27.986  1.00  0.00    -0.267 OA
HETATM    4  H   UNL     1       1.219   7.403 -29.135  1.00  0.00     0.169 HD
ENDROOT
BRANCH   2   5
HETATM    5  C   UNL     1       0.574   8.883 -27.256  1.00  0.00     0.032 A 
HETATM    6  C   UNL     1       1.627   8.146 -26.703  1.00  0.00     0.019 A 
HETATM    7  C   UNL     1       2.461   8.729 -25.745  1.00  0.00     0.030 A 
HETATM    8  C   UNL     1       2.260  10.048 -25.332  1.00  0.00     0.034 A 
HETATM    9  C   UNL     1       1.243  10.799 -25.939  1.00  0.00     0.030 A 
HETATM   10  C   UNL     1       0.404  10.223 -26.900  1.00  0.00     0.019 A 
BRANCH   8  11
HETATM   11  N   UNL     1       3.003  10.670 -24.310  1.00  0.00    -0.327 N 
HETATM   12  C   UNL     1       2.704  10.704 -22.954  1.00  0.00     0.231 C 
HETATM   13  O   UNL     1       1.788  10.098 -22.404  1.00  0.00    -0.272 OA
HETATM   14  H   UNL     1       3.771  11.263 -24.606  1.00  0.00     0.169 HD
BRANCH  12  15
HETATM   15  C   UNL     1       3.652  11.580 -22.149  1.00  0.00     0.185 C 
BRANCH  15  16
HETATM   16  S   UNL     1       5.375  11.177 -22.583  1.00  0.00    -0.083 SA
BRANCH  16  17
HETATM   17  C   UNL     1       5.430   9.520 -22.089  1.00  0.00     0.168 A 
HETATM   18  N   UNL     1       5.701   9.132 -20.803  1.00  0.00    -0.339 N 
HETATM   19  C   UNL     1       6.000   9.978 -19.674  1.00  0.00     0.158 C 
HETATM   20  C   UNL     1       5.632   7.764 -20.770  1.00  0.00     0.112 A 
HETATM   21  C   UNL     1       5.328   7.390 -22.060  1.00  0.00     0.136 A 
HETATM   22  N   UNL     1       5.214   8.489 -22.871  1.00  0.00    -0.235 NA
ENDBRANCH  16  17
ENDBRANCH  15  16
ENDBRANCH  12  15
ENDBRANCH   8  11
ENDBRANCH   2   5
BRANCH   1  23
HETATM   23  C   UNL     1      -0.406   6.856 -30.277  1.00  0.00     0.035 A 
HETATM   24  C   UNL     1      -0.856   7.483 -31.433  1.00  0.00     0.032 A 
HETATM   25  C   UNL     1      -1.446   6.738 -32.467  1.00  0.00     0.031 A 
HETATM   26  C   UNL     1      -1.627   5.352 -32.371  1.00  0.00     0.030 A 
HETATM   27  C   UNL     1      -1.150   4.739 -31.201  1.00  0.00     0.031 A 
HETATM   28  C   UNL     1      -0.548   5.473 -30.171  1.00  0.00     0.032 A 
BRANCH  26  29
HETATM   29  N   UNL     1      -2.205   4.575 -33.374  1.00  0.00    -0.378 N 
HETATM   30  C   UNL     1      -2.780   5.204 -34.573  1.00  0.00     0.150 C 
HETATM   31  C   UNL     1      -4.298   5.434 -34.425  1.00  0.00     0.254 C 
HETATM   32  N   UNL     1      -5.009   4.128 -34.038  1.00  0.00    -0.068 N 
HETATM   33  H   UNL     1      -4.819   3.458 -34.795  1.00  0.00     0.280 HD
HETATM   34  C   UNL     1      -4.387   3.554 -32.758  1.00  0.00     0.254 C 
HETATM   35  C   UNL     1      -2.872   3.327 -32.949  1.00  0.00     0.150 C 
BRANCH  32  36
HETATM   36  C   UNL     1      -6.502   4.327 -33.949  1.00  0.00     0.230 C 
HETATM   37  C   UNL     1      -7.157   3.173 -33.213  1.00  0.00     0.034 C 
ENDBRANCH  32  36
ENDBRANCH  26  29
ENDBRANCH   1  23
TORSDOF 8
ENDMDL
MODEL 8
REMARK VINA RESULT:      -7.6      2.890     14.049
REMARK  8 active torsions:
REMARK  status: ('A' for Active; 'I' for Inactive)
REMARK    1  A    between atoms: C_2  and  N_3 
REMARK    2  A    between atoms: N_7  and  C_8 
REMARK    3  A    between atoms: C_11  and  N_12 
REMARK       I    between atoms: N_12  and  C_13 
REMARK    4  A    between atoms: C_13  and  C_14 
REMARK    5  A    between atoms: C_17  and  N_18 
REMARK       I    between atoms: N_18  and  C_19 
REMARK    6  A    between atoms: C_19  and  C_20 
REMARK    7  A    between atoms: C_20  and  S_21 
REMARK    8  A    between atoms: S_21  and  C_22 
ROOT
HETATM    1  N   UNL     1      -2.045   6.351 -29.844  1.00  0.00    -0.323 N 
HETATM    2  C   UNL     1      -0.666   6.421 -29.931  1.00  0.00     0.256 C 
HETATM    3  O   UNL     1       0.024   6.149 -30.903  1.00  0.00    -0.267 OA
HETATM    4  H   UNL     1      -2.467   6.774 -29.026  1.00  0.00     0.169 HD
ENDROOT
BRANCH   2   5
HETATM    5  C   UNL     1      -0.018   6.962 -28.705  1.00  0.00     0.032 A 
HETATM    6  C   UNL     1       0.886   8.027 -28.781  1.00  0.00     0.019 A 
HETATM    7  C   UNL     1       1.561   8.456 -27.635  1.00  0.00     0.030 A 
HETATM    8  C   UNL     1       1.341   7.833 -26.404  1.00  0.00     0.034 A 
HETATM    9  C   UNL     1       0.386   6.810 -26.324  1.00  0.00     0.030 A 
HETATM   10  C   UNL     1      -0.294   6.376 -27.468  1.00  0.00     0.019 A 
BRANCH   8  11
HETATM   11  N   UNL     1       2.050   8.152 -25.229  1.00  0.00    -0.327 N 
HETATM   12  C   UNL     1       1.712   9.102 -24.275  1.00  0.00     0.231 C 
HETATM   13  O   UNL     1       0.670   9.753 -24.245  1.00  0.00    -0.272 OA
HETATM   14  H   UNL     1       2.969   7.736 -25.129  1.00  0.00     0.169 HD
BRANCH  12  15
HETATM   15  C   UNL     1       2.772   9.283 -23.200  1.00  0.00     0.185 C 
BRANCH  15  16
HETATM   16  S   UNL     1       4.422   9.347 -23.973  1.00  0.00    -0.083 SA
BRANCH  16  17
HETATM   17  C   UNL     1       5.276   8.245 -22.950  1.00  0.00     0.168 A 
HETATM   18  N   UNL     1       6.641   8.131 -22.950  1.00  0.00    -0.339 N 
HETATM   19  C   UNL     1       7.584   8.849 -23.772  1.00  0.00     0.158 C 
HETATM   20  C   UNL     1       6.969   7.195 -22.004  1.00  0.00     0.112 A 
HETATM   21  C   UNL     1       5.766   6.779 -21.481  1.00  0.00     0.136 A 
HETATM   22  N   UNL     1       4.721   7.432 -22.082  1.00  0.00    -0.235 NA
ENDBRANCH  16  17
ENDBRANCH  15  16
ENDBRANCH  12  15
ENDBRANCH   8  11
ENDBRANCH   2   5
BRANCH   1  23
HETATM   23  C   UNL     1      -2.941   5.841 -30.801  1.00  0.00     0.035 A 
HETATM   24  C   UNL     1      -2.815   4.594 -31.403  1.00  0.00     0.032 A 
HETATM   25  C   UNL     1      -3.769   4.149 -32.332  1.00  0.00     0.031 A 
HETATM   26  C   UNL     1      -4.862   4.941 -32.708  1.00  0.00     0.030 A 
HETATM   27  C   UNL     1      -4.976   6.189 -32.075  1.00  0.00     0.031 A 
HETATM   28  C   UNL     1      -4.037   6.634 -31.137  1.00  0.00     0.032 A 
BRANCH  26  29
HETATM   29  N   UNL     1      -5.832   4.537 -33.625  1.00  0.00    -0.378 N 
HETATM   30  C   UNL     1      -7.138   5.212 -33.683  1.00  0.00     0.150 C 
HETATM   31  C   UNL     1      -8.198   4.479 -32.837  1.00  0.00     0.254 C 
HETATM   32  N   UNL     1      -8.276   2.996 -33.232  1.00  0.00    -0.068 N 
HETATM   33  H   UNL     1      -8.532   2.973 -34.228  1.00  0.00     0.280 HD
HETATM   34  C   UNL     1      -6.890   2.348 -33.105  1.00  0.00     0.254 C 
HETATM   35  C   UNL     1      -5.861   3.102 -33.974  1.00  0.00     0.150 C 
BRANCH  32  36
HETATM   36  C   UNL     1      -9.352   2.280 -32.453  1.00  0.00     0.230 C 
HETATM   37  C   UNL     1      -8.745   1.266 -31.502  1.00  0.00     0.034 C 
ENDBRANCH  32  36
ENDBRANCH  26  29
ENDBRANCH   1  23
TORSDOF 8
ENDMDL
MODEL 9
REMARK VINA RESULT:      -7.6      4.042     14.857
REMARK  8 active torsions:
REMARK  status: ('A' for Active; 'I' for Inactive)
REMARK    1  A    between atoms: C_2  and  N_3 
REMARK    2  A    between atoms: N_7  and  C_8 
REMARK    3  A    between atoms: C_11  and  N_12 
REMARK       I    between atoms: N_12  and  C_13 
REMARK    4  A    between atoms: C_13  and  C_14 
REMARK    5  A    between atoms: C_17  and  N_18 
REMARK       I    between atoms: N_18  and  C_19 
REMARK    6  A    between atoms: C_19  and  C_20 
REMARK    7  A    between atoms: C_20  and  S_21 
REMARK    8  A    between atoms: S_21  and  C_22 
ROOT
HETATM    1  N   UNL     1      -3.373   3.883 -31.063  1.00  0.00    -0.323 N 
HETATM    2  C   UNL     1      -2.344   4.366 -31.850  1.00  0.00     0.256 C 
HETATM    3  O   UNL     1      -2.135   4.108 -33.028  1.00  0.00    -0.267 OA
HETATM    4  H   UNL     1      -3.499   4.329 -30.162  1.00  0.00     0.169 HD
ENDROOT
BRANCH   2   5
HETATM    5  C   UNL     1      -1.476   5.357 -31.157  1.00  0.00     0.032 A 
HETATM    6  C   UNL     1      -0.085   5.212 -31.149  1.00  0.00     0.019 A 
HETATM    7  C   UNL     1       0.707   6.095 -30.409  1.00  0.00     0.030 A 
HETATM    8  C   UNL     1       0.124   7.131 -29.675  1.00  0.00     0.034 A 
HETATM    9  C   UNL     1      -1.265   7.308 -29.742  1.00  0.00     0.030 A 
HETATM   10  C   UNL     1      -2.064   6.428 -30.481  1.00  0.00     0.019 A 
BRANCH   8  11
HETATM   11  N   UNL     1       0.850   8.001 -28.838  1.00  0.00    -0.327 N 
HETATM   12  C   UNL     1       1.074   7.864 -27.475  1.00  0.00     0.231 C 
HETATM   13  O   UNL     1       0.763   6.894 -26.788  1.00  0.00    -0.272 OA
HETATM   14  H   UNL     1       1.133   8.886 -29.244  1.00  0.00     0.169 HD
BRANCH  12  15
HETATM   15  C   UNL     1       1.785   9.058 -26.857  1.00  0.00     0.185 C 
BRANCH  15  16
HETATM   16  S   UNL     1       2.389   8.617 -25.195  1.00  0.00    -0.083 SA
BRANCH  16  17
HETATM   17  C   UNL     1       1.289   9.531 -24.223  1.00  0.00     0.168 A 
HETATM   18  N   UNL     1       1.684  10.263 -23.134  1.00  0.00    -0.339 N 
HETATM   19  C   UNL     1       3.017  10.393 -22.598  1.00  0.00     0.158 C 
HETATM   20  C   UNL     1       0.566  10.874 -22.630  1.00  0.00     0.112 A 
HETATM   21  C   UNL     1      -0.464  10.465 -23.447  1.00  0.00     0.136 A 
HETATM   22  N   UNL     1      -0.004   9.625 -24.427  1.00  0.00    -0.235 NA
ENDBRANCH  16  17
ENDBRANCH  15  16
ENDBRANCH  12  15
ENDBRANCH   8  11
ENDBRANCH   2   5
BRANCH   1  23
HETATM   23  C   UNL     1      -4.326   2.905 -31.400  1.00  0.00     0.035 A 
HETATM   24  C   UNL     1      -4.264   1.579 -30.985  1.00  0.00     0.032 A 
HETATM   25  C   UNL     1      -5.272   0.670 -31.346  1.00  0.00     0.031 A 
HETATM   26  C   UNL     1      -6.356   1.047 -32.149  1.00  0.00     0.030 A 
HETATM   27  C   UNL     1      -6.405   2.394 -32.541  1.00  0.00     0.031 A 
HETATM   28  C   UNL     1      -5.412   3.310 -32.174  1.00  0.00     0.032 A 
BRANCH  26  29
HETATM   29  N   UNL     1      -7.378   0.177 -32.527  1.00  0.00    -0.378 N 
HETATM   30  C   UNL     1      -7.593  -0.158 -33.944  1.00  0.00     0.150 C 
HETATM   31  C   UNL     1      -8.663   0.747 -34.588  1.00  0.00     0.254 C 
HETATM   32  N   UNL     1      -9.961   0.722 -33.766  1.00  0.00    -0.068 N 
HETATM   33  H   UNL     1     -10.278  -0.257 -33.753  1.00  0.00     0.280 HD
HETATM   34  C   UNL     1      -9.668   1.123 -32.314  1.00  0.00     0.254 C 
HETATM   35  C   UNL     1      -8.603   0.188 -31.701  1.00  0.00     0.150 C 
BRANCH  32  36
HETATM   36  C   UNL     1     -11.036   1.556 -34.419  1.00  0.00     0.230 C 
HETATM   37  C   UNL     1     -12.415   1.097 -33.983  1.00  0.00     0.034 C 
ENDBRANCH  32  36
ENDBRANCH  26  29
ENDBRANCH   1  23
TORSDOF 8
ENDMDL
MODEL 10
REMARK VINA RESULT:      -7.6      4.683      8.475
REMARK  8 active torsions:
REMARK  status: ('A' for Active; 'I' for Inactive)
REMARK    1  A    between atoms: C_2  and  N_3 
REMARK    2  A    between atoms: N_7  and  C_8 
REMARK    3  A    between atoms: C_11  and  N_12 
REMARK       I    between atoms: N_12  and  C_13 
REMARK    4  A    between atoms: C_13  and  C_14 
REMARK    5  A    between atoms: C_17  and  N_18 
REMARK       I    between atoms: N_18  and  C_19 
REMARK    6  A    between atoms: C_19  and  C_20 
REMARK    7  A    between atoms: C_20  and  S_21 
REMARK    8  A    between atoms: S_21  and  C_22 
ROOT
HETATM    1  N   UNL     1      -2.331   5.849 -30.058  1.00  0.00    -0.323 N 
HETATM    2  C   UNL     1      -2.999   5.965 -31.263  1.00  0.00     0.256 C 
HETATM    3  O   UNL     1      -3.024   6.940 -32.001  1.00  0.00    -0.267 OA
HETATM    4  H   UNL     1      -2.275   4.919 -29.661  1.00  0.00     0.169 HD
ENDROOT
BRANCH   2   5
HETATM    5  C   UNL     1      -3.680   4.711 -31.691  1.00  0.00     0.032 A 
HETATM    6  C   UNL     1      -5.045   4.519 -31.454  1.00  0.00     0.019 A 
HETATM    7  C   UNL     1      -5.646   3.298 -31.770  1.00  0.00     0.030 A 
HETATM    8  C   UNL     1      -4.897   2.259 -32.328  1.00  0.00     0.034 A 
HETATM    9  C   UNL     1      -3.545   2.483 -32.622  1.00  0.00     0.030 A 
HETATM   10  C   UNL     1      -2.936   3.704 -32.309  1.00  0.00     0.019 A 
BRANCH   8  11
HETATM   11  N   UNL     1      -5.414   0.975 -32.589  1.00  0.00    -0.327 N 
HETATM   12  C   UNL     1      -6.202   0.588 -33.665  1.00  0.00     0.231 C 
HETATM   13  O   UNL     1      -6.492   1.287 -34.633  1.00  0.00    -0.272 OA
HETATM   14  H   UNL     1      -5.307   0.286 -31.852  1.00  0.00     0.169 HD
BRANCH  12  15
HETATM   15  C   UNL     1      -6.699  -0.846 -33.565  1.00  0.00     0.185 C 
BRANCH  15  16
HETATM   16  S   UNL     1      -5.683  -1.921 -34.631  1.00  0.00    -0.083 SA
BRANCH  16  17
HETATM   17  C   UNL     1      -4.494  -2.440 -33.488  1.00  0.00     0.168 A 
HETATM   18  N   UNL     1      -4.062  -3.737 -33.396  1.00  0.00    -0.339 N 
HETATM   19  C   UNL     1      -4.503  -4.868 -34.173  1.00  0.00     0.158 C 
HETATM   20  C   UNL     1      -3.107  -3.776 -32.414  1.00  0.00     0.112 A 
HETATM   21  C   UNL     1      -3.017  -2.483 -31.950  1.00  0.00     0.136 A 
HETATM   22  N   UNL     1      -3.890  -1.664 -32.619  1.00  0.00    -0.235 NA
ENDBRANCH  16  17
ENDBRANCH  15  16
ENDBRANCH  12  15
ENDBRANCH   8  11
ENDBRANCH   2   5
BRANCH   1  23
HETATM   23  C   UNL     1      -1.640   6.856 -29.359  1.00  0.00     0.035 A 
HETATM   24  C   UNL     1      -2.259   7.871 -28.638  1.00  0.00     0.032 A 
HETATM   25  C   UNL     1      -1.494   8.824 -27.947  1.00  0.00     0.031 A 
HETATM   26  C   UNL     1      -0.093   8.810 -27.973  1.00  0.00     0.030 A 
HETATM   27  C   UNL     1       0.508   7.766 -28.694  1.00  0.00     0.031 A 
HETATM   28  C   UNL     1      -0.247   6.803 -29.374  1.00  0.00     0.032 A 
BRANCH  26  29
HETATM   29  N   UNL     1       0.703   9.736 -27.299  1.00  0.00    -0.378 N 
HETATM   30  C   UNL     1       1.965   9.321 -26.666  1.00  0.00     0.150 C 
HETATM   31  C   UNL     1       1.773   8.992 -25.171  1.00  0.00     0.254 C 
HETATM   32  N   UNL     1       1.097  10.163 -24.441  1.00  0.00    -0.068 N 
HETATM   33  H   UNL     1       1.719  10.975 -24.555  1.00  0.00     0.280 HD
HETATM   34  C   UNL     1      -0.231  10.510 -25.129  1.00  0.00     0.254 C 
HETATM   35  C   UNL     1       0.004  10.845 -26.618  1.00  0.00     0.150 C 
BRANCH  32  36
HETATM   36  C   UNL     1       0.958   9.878 -22.967  1.00  0.00     0.230 C 
HETATM   37  C   UNL     1       2.245   9.303 -22.404  1.00  0.00     0.034 C 
ENDBRANCH  32  36
ENDBRANCH  26  29
ENDBRANCH   1  23
TORSDOF 8
ENDMDL
