MODEL 1
REMARK VINA RESULT:      -9.5      0.000      0.000
REMARK  5 active torsions:
REMARK  status: ('A' for Active; 'I' for Inactive)
REMARK    1  A    between atoms: C_2  and  C_3 
REMARK    2  A    between atoms: N_4  and  C_6 
REMARK    3  A    between atoms: C_6  and  C_7 
REMARK    4  A    between atoms: N_14  and  C_16 
REMARK    5  A    between atoms: C_16  and  C_17 
ROOT
HETATM    1  C   UNL     1      -5.898   4.039 -33.380  1.00  0.00    -0.032 A 
HETATM    2  C   UNL     1      -6.074   2.745 -32.841  1.00  0.00     0.020 A 
HETATM    3  C   UNL     1      -7.359   2.214 -32.606  1.00  0.00     0.002 A 
HETATM    4  C   UNL     1      -8.467   3.003 -32.914  1.00  0.00     0.076 A 
HETATM    5  O   UNL     1      -9.735   2.571 -32.654  1.00  0.00    -0.349 OA
HETATM    6  C   UNL     1     -10.137   1.524 -33.547  1.00  0.00     0.203 C 
HETATM    7  C   UNL     1      -9.794   0.148 -32.971  1.00  0.00     0.262 C 
HETATM    8  N   UNL     1      -8.297  -0.132 -32.927  1.00  0.00    -0.061 N 
HETATM    9  H   UNL     1      -8.226  -1.043 -32.459  1.00  0.00     0.280 HD
HETATM   10  C   UNL     1      -7.550   0.835 -32.029  1.00  0.00     0.276 C 
HETATM   11  C   UNL     1      -8.316   4.283 -33.442  1.00  0.00     0.038 A 
HETATM   12  C   UNL     1      -7.041   4.789 -33.700  1.00  0.00     0.011 A 
ENDROOT
BRANCH   1  13
HETATM   13  C   UNL     1      -4.502   4.556 -33.667  1.00  0.00     0.274 C 
BRANCH  13  14
HETATM   14  N   UNL     1      -3.993   5.616 -32.727  1.00  0.00    -0.053 N 
HETATM   15  C   UNL     1      -2.743   6.383 -33.260  1.00  0.00     0.279 C 
HETATM   16  C   UNL     1      -2.354   7.530 -32.301  1.00  0.00     0.248 C 
HETATM   17  N   UNL     1      -2.511   7.296 -30.957  1.00  0.00    -0.358 N 
HETATM   18  O   UNL     1      -1.864   8.578 -32.699  1.00  0.00    -0.271 OA
HETATM   19  C   UNL     1      -3.491   6.374 -30.408  1.00  0.00     0.150 C 
HETATM   20  H   UNL     1      -2.228   8.089 -30.382  1.00  0.00     0.162 HD
HETATM   21  C   UNL     1      -3.780   5.154 -31.294  1.00  0.00     0.256 C 
HETATM   22  H   UNL     1      -4.713   6.346 -32.686  1.00  0.00     0.281 HD
BRANCH  15  23
HETATM   23  C   UNL     1      -1.557   5.429 -33.475  1.00  0.00     0.038 C 
HETATM   24  C   UNL     1      -1.123   5.357 -34.936  1.00  0.00     0.007 C 
ENDBRANCH  15  23
ENDBRANCH  13  14
ENDBRANCH   1  13
BRANCH   8  25
HETATM   25  C   UNL     1      -7.627  -0.319 -34.270  1.00  0.00     0.274 C 
BRANCH  25  26
HETATM   26  C   UNL     1      -6.565  -1.383 -34.293  1.00  0.00    -0.029 A 
HETATM   27  C   UNL     1      -6.866  -2.687 -34.718  1.00  0.00     0.054 A 
HETATM   28  C   UNL     1      -5.872  -3.667 -34.726  1.00  0.00     0.155 A 
HETATM   29  F   UNL     1      -6.187  -4.901 -35.136  1.00  0.00    -0.203 F 
HETATM   30  C   UNL     1      -4.582  -3.368 -34.315  1.00  0.00     0.154 A 
HETATM   31  F   UNL     1      -3.632  -4.310 -34.323  1.00  0.00    -0.203 F 
HETATM   32  C   UNL     1      -4.266  -2.082 -33.890  1.00  0.00     0.046 A 
HETATM   33  C   UNL     1      -5.252  -1.091 -33.878  1.00  0.00     0.012 A 
ENDBRANCH  25  26
ENDBRANCH   8  25
TORSDOF 5
ENDMDL
MODEL 2
REMARK VINA RESULT:      -9.5      1.618      1.899
REMARK  5 active torsions:
REMARK  status: ('A' for Active; 'I' for Inactive)
REMARK    1  A    between atoms: C_2  and  C_3 
REMARK    2  A    between atoms: N_4  and  C_6 
REMARK    3  A    between atoms: C_6  and  C_7 
REMARK    4  A    between atoms: N_14  and  C_16 
REMARK    5  A    between atoms: C_16  and  C_17 
ROOT
HETATM    1  C   UNL     1      -4.145   3.581 -31.354  1.00  0.00    -0.032 A 
HETATM    2  C   UNL     1      -4.698   2.291 -31.194  1.00  0.00     0.020 A 
HETATM    3  C   UNL     1      -6.078   2.103 -30.975  1.00  0.00     0.002 A 
HETATM    4  C   UNL     1      -6.896   3.232 -30.913  1.00  0.00     0.076 A 
HETATM    5  O   UNL     1      -8.230   3.121 -30.644  1.00  0.00    -0.349 OA
HETATM    6  C   UNL     1      -8.954   2.563 -31.748  1.00  0.00     0.203 C 
HETATM    7  C   UNL     1      -9.038   1.039 -31.637  1.00  0.00     0.262 C 
HETATM    8  N   UNL     1      -7.698   0.343 -31.849  1.00  0.00    -0.061 N 
HETATM    9  H   UNL     1      -7.900  -0.648 -31.674  1.00  0.00     0.280 HD
HETATM   10  C   UNL     1      -6.670   0.728 -30.803  1.00  0.00     0.276 C 
HETATM   11  C   UNL     1      -6.371   4.513 -31.063  1.00  0.00     0.038 A 
HETATM   12  C   UNL     1      -5.008   4.686 -31.310  1.00  0.00     0.011 A 
ENDROOT
BRANCH   1  13
HETATM   13  C   UNL     1      -2.664   3.740 -31.640  1.00  0.00     0.274 C 
BRANCH  13  14
HETATM   14  N   UNL     1      -2.085   5.098 -31.344  1.00  0.00    -0.053 N 
HETATM   15  C   UNL     1      -2.043   6.048 -32.581  1.00  0.00     0.279 C 
HETATM   16  C   UNL     1      -1.552   7.455 -32.175  1.00  0.00     0.248 C 
HETATM   17  N   UNL     1      -0.578   7.519 -31.210  1.00  0.00    -0.358 N 
HETATM   18  O   UNL     1      -1.954   8.472 -32.724  1.00  0.00    -0.271 OA
HETATM   19  C   UNL     1      -0.395   6.510 -30.181  1.00  0.00     0.150 C 
HETATM   20  H   UNL     1      -0.294   8.474 -30.996  1.00  0.00     0.162 HD
HETATM   21  C   UNL     1      -0.747   5.082 -30.622  1.00  0.00     0.256 C 
HETATM   22  H   UNL     1      -2.743   5.569 -30.713  1.00  0.00     0.281 HD
BRANCH  15  23
HETATM   23  C   UNL     1      -1.160   5.466 -33.697  1.00  0.00     0.038 C 
HETATM   24  C   UNL     1      -1.959   5.105 -34.945  1.00  0.00     0.007 C 
ENDBRANCH  15  23
ENDBRANCH  13  14
ENDBRANCH   1  13
BRANCH   8  25
HETATM   25  C   UNL     1      -7.149   0.399 -33.256  1.00  0.00     0.274 C 
BRANCH  25  26
HETATM   26  C   UNL     1      -6.394  -0.832 -33.679  1.00  0.00    -0.029 A 
HETATM   27  C   UNL     1      -7.060  -1.910 -34.280  1.00  0.00     0.054 A 
HETATM   28  C   UNL     1      -6.349  -3.050 -34.659  1.00  0.00     0.155 A 
HETATM   29  F   UNL     1      -7.009  -4.062 -35.231  1.00  0.00    -0.203 F 
HETATM   30  C   UNL     1      -4.981  -3.131 -34.445  1.00  0.00     0.154 A 
HETATM   31  F   UNL     1      -4.302  -4.225 -34.809  1.00  0.00    -0.203 F 
HETATM   32  C   UNL     1      -4.304  -2.073 -33.849  1.00  0.00     0.046 A 
HETATM   33  C   UNL     1      -5.006  -0.926 -33.466  1.00  0.00     0.012 A 
ENDBRANCH  25  26
ENDBRANCH   8  25
TORSDOF 5
ENDMDL
MODEL 3
REMARK VINA RESULT:      -9.4      2.176      3.118
REMARK  5 active torsions:
REMARK  status: ('A' for Active; 'I' for Inactive)
REMARK    1  A    between atoms: C_2  and  C_3 
REMARK    2  A    between atoms: N_4  and  C_6 
REMARK    3  A    between atoms: C_6  and  C_7 
REMARK    4  A    between atoms: N_14  and  C_16 
REMARK    5  A    between atoms: C_16  and  C_17 
ROOT
HETATM    1  C   UNL     1      -3.291   4.073 -31.642  1.00  0.00    -0.032 A 
HETATM    2  C   UNL     1      -3.580   2.758 -31.216  1.00  0.00     0.020 A 
HETATM    3  C   UNL     1      -4.908   2.298 -31.095  1.00  0.00     0.002 A 
HETATM    4  C   UNL     1      -5.943   3.182 -31.401  1.00  0.00     0.076 A 
HETATM    5  O   UNL     1      -7.249   2.818 -31.246  1.00  0.00    -0.349 OA
HETATM    6  C   UNL     1      -7.662   1.870 -32.239  1.00  0.00     0.203 C 
HETATM    7  C   UNL     1      -7.443   0.435 -31.755  1.00  0.00     0.262 C 
HETATM    8  N   UNL     1      -5.971   0.052 -31.651  1.00  0.00    -0.061 N 
HETATM    9  H   UNL     1      -5.985  -0.895 -31.253  1.00  0.00     0.280 HD
HETATM   10  C   UNL     1      -5.219   0.896 -30.640  1.00  0.00     0.276 C 
HETATM   11  C   UNL     1      -5.681   4.485 -31.817  1.00  0.00     0.038 A 
HETATM   12  C   UNL     1      -4.363   4.921 -31.963  1.00  0.00     0.011 A 
ENDROOT
BRANCH   1  13
HETATM   13  C   UNL     1      -1.851   4.515 -31.810  1.00  0.00     0.274 C 
BRANCH  13  14
HETATM   14  N   UNL     1      -1.177   5.034 -30.567  1.00  0.00    -0.053 N 
HETATM   15  C   UNL     1      -1.551   6.508 -30.217  1.00  0.00     0.279 C 
HETATM   16  C   UNL     1      -0.921   6.927 -28.870  1.00  0.00     0.248 C 
HETATM   17  N   UNL     1       0.330   6.437 -28.590  1.00  0.00    -0.358 N 
HETATM   18  O   UNL     1      -1.469   7.712 -28.107  1.00  0.00    -0.271 OA
HETATM   19  C   UNL     1       0.840   5.182 -29.115  1.00  0.00     0.150 C 
HETATM   20  H   UNL     1       0.690   6.759 -27.692  1.00  0.00     0.162 HD
HETATM   21  C   UNL     1       0.328   4.826 -30.517  1.00  0.00     0.256 C 
HETATM   22  H   UNL     1      -1.564   4.503 -29.778  1.00  0.00     0.281 HD
BRANCH  15  23
HETATM   23  C   UNL     1      -1.126   7.470 -31.338  1.00  0.00     0.038 C 
HETATM   24  C   UNL     1      -2.308   8.222 -31.941  1.00  0.00     0.007 C 
ENDBRANCH  15  23
ENDBRANCH  13  14
ENDBRANCH   1  13
BRANCH   8  25
HETATM   25  C   UNL     1      -5.235  -0.078 -32.965  1.00  0.00     0.274 C 
BRANCH  25  26
HETATM   26  C   UNL     1      -5.361  -1.427 -33.619  1.00  0.00    -0.029 A 
HETATM   27  C   UNL     1      -4.279  -2.321 -33.631  1.00  0.00     0.054 A 
HETATM   28  C   UNL     1      -4.406  -3.566 -34.249  1.00  0.00     0.155 A 
HETATM   29  F   UNL     1      -3.359  -4.398 -34.245  1.00  0.00    -0.203 F 
HETATM   30  C   UNL     1      -5.597  -3.933 -34.858  1.00  0.00     0.154 A 
HETATM   31  F   UNL     1      -5.715  -5.127 -35.450  1.00  0.00    -0.203 F 
HETATM   32  C   UNL     1      -6.679  -3.060 -34.857  1.00  0.00     0.046 A 
HETATM   33  C   UNL     1      -6.564  -1.810 -34.240  1.00  0.00     0.012 A 
ENDBRANCH  25  26
ENDBRANCH   8  25
TORSDOF 5
ENDMDL
MODEL 4
REMARK VINA RESULT:      -9.1      1.973      2.709
REMARK  5 active torsions:
REMARK  status: ('A' for Active; 'I' for Inactive)
REMARK    1  A    between atoms: C_2  and  C_3 
REMARK    2  A    between atoms: N_4  and  C_6 
REMARK    3  A    between atoms: C_6  and  C_7 
REMARK    4  A    between atoms: N_14  and  C_16 
REMARK    5  A    between atoms: C_16  and  C_17 
ROOT
HETATM    1  C   UNL     1      -5.291   4.852 -30.550  1.00  0.00    -0.032 A 
HETATM    2  C   UNL     1      -5.388   3.457 -30.350  1.00  0.00     0.020 A 
HETATM    3  C   UNL     1      -6.631   2.793 -30.379  1.00  0.00     0.002 A 
HETATM    4  C   UNL     1      -7.780   3.552 -30.607  1.00  0.00     0.076 A 
HETATM    5  O   UNL     1      -9.018   2.978 -30.588  1.00  0.00    -0.349 OA
HETATM    6  C   UNL     1      -9.244   2.152 -31.737  1.00  0.00     0.203 C 
HETATM    7  C   UNL     1      -8.821   0.706 -31.467  1.00  0.00     0.262 C 
HETATM    8  N   UNL     1      -7.312   0.533 -31.335  1.00  0.00    -0.061 N 
HETATM    9  H   UNL     1      -7.194  -0.457 -31.088  1.00  0.00     0.280 HD
HETATM   10  C   UNL     1      -6.737   1.305 -30.164  1.00  0.00     0.276 C 
HETATM   11  C   UNL     1      -7.708   4.928 -30.803  1.00  0.00     0.038 A 
HETATM   12  C   UNL     1      -6.469   5.572 -30.802  1.00  0.00     0.011 A 
ENDROOT
BRANCH   1  13
HETATM   13  C   UNL     1      -3.932   5.523 -30.563  1.00  0.00     0.274 C 
BRANCH  13  14
HETATM   14  N   UNL     1      -3.503   6.103 -31.885  1.00  0.00    -0.053 N 
HETATM   15  C   UNL     1      -3.532   5.078 -33.062  1.00  0.00     0.279 C 
HETATM   16  C   UNL     1      -3.198   5.772 -34.401  1.00  0.00     0.248 C 
HETATM   17  N   UNL     1      -2.257   6.770 -34.365  1.00  0.00    -0.358 N 
HETATM   18  O   UNL     1      -3.691   5.416 -35.463  1.00  0.00    -0.271 OA
HETATM   19  C   UNL     1      -1.994   7.589 -33.195  1.00  0.00     0.150 C 
HETATM   20  H   UNL     1      -2.078   7.179 -35.283  1.00  0.00     0.162 HD
HETATM   21  C   UNL     1      -2.186   6.863 -31.856  1.00  0.00     0.256 C 
HETATM   22  H   UNL     1      -4.220   6.785 -32.155  1.00  0.00     0.281 HD
BRANCH  15  23
HETATM   23  C   UNL     1      -2.569   3.907 -32.802  1.00  0.00     0.038 C 
HETATM   24  C   UNL     1      -3.287   2.563 -32.744  1.00  0.00     0.007 C 
ENDBRANCH  15  23
ENDBRANCH  13  14
ENDBRANCH   1  13
BRANCH   8  25
HETATM   25  C   UNL     1      -6.519   0.725 -32.607  1.00  0.00     0.274 C 
BRANCH  25  26
HETATM   26  C   UNL     1      -5.791  -0.503 -33.080  1.00  0.00    -0.029 A 
HETATM   27  C   UNL     1      -4.658  -0.972 -32.396  1.00  0.00     0.054 A 
HETATM   28  C   UNL     1      -3.987  -2.108 -32.851  1.00  0.00     0.155 A 
HETATM   29  F   UNL     1      -2.910  -2.533 -32.180  1.00  0.00    -0.203 F 
HETATM   30  C   UNL     1      -4.427  -2.784 -33.979  1.00  0.00     0.154 A 
HETATM   31  F   UNL     1      -3.781  -3.872 -34.413  1.00  0.00    -0.203 F 
HETATM   32  C   UNL     1      -5.547  -2.333 -34.670  1.00  0.00     0.046 A 
HETATM   33  C   UNL     1      -6.229  -1.197 -34.224  1.00  0.00     0.012 A 
ENDBRANCH  25  26
ENDBRANCH   8  25
TORSDOF 5
ENDMDL
MODEL 5
REMARK VINA RESULT:      -8.9      3.252      7.198
REMARK  5 active torsions:
REMARK  status: ('A' for Active; 'I' for Inactive)
REMARK    1  A    between atoms: C_2  and  C_3 
REMARK    2  A    between atoms: N_4  and  C_6 
REMARK    3  A    between atoms: C_6  and  C_7 
REMARK    4  A    between atoms: N_14  and  C_16 
REMARK    5  A    between atoms: C_16  and  C_17 
ROOT
HETATM    1  C   UNL     1      -9.487   2.384 -32.608  1.00  0.00    -0.032 A 
HETATM    2  C   UNL     1      -8.258   2.011 -33.195  1.00  0.00     0.020 A 
HETATM    3  C   UNL     1      -7.025   2.441 -32.661  1.00  0.00     0.002 A 
HETATM    4  C   UNL     1      -7.044   3.257 -31.530  1.00  0.00     0.076 A 
HETATM    5  O   UNL     1      -5.889   3.755 -31.001  1.00  0.00    -0.349 OA
HETATM    6  C   UNL     1      -5.118   2.738 -30.348  1.00  0.00     0.203 C 
HETATM    7  C   UNL     1      -4.126   2.092 -31.318  1.00  0.00     0.262 C 
HETATM    8  N   UNL     1      -4.797   1.238 -32.388  1.00  0.00    -0.061 N 
HETATM    9  H   UNL     1      -4.023   0.939 -32.992  1.00  0.00     0.280 HD
HETATM   10  C   UNL     1      -5.713   2.046 -33.287  1.00  0.00     0.276 C 
HETATM   11  C   UNL     1      -8.245   3.641 -30.937  1.00  0.00     0.038 A 
HETATM   12  C   UNL     1      -9.458   3.185 -31.455  1.00  0.00     0.011 A 
ENDROOT
BRANCH   1  13
HETATM   13  C   UNL     1     -10.789   1.860 -33.179  1.00  0.00     0.274 C 
BRANCH  13  14
HETATM   14  N   UNL     1     -11.991   2.747 -32.982  1.00  0.00    -0.053 N 
HETATM   15  C   UNL     1     -13.335   1.965 -32.851  1.00  0.00     0.279 C 
HETATM   16  C   UNL     1     -14.500   2.928 -32.531  1.00  0.00     0.248 C 
HETATM   17  N   UNL     1     -14.465   4.164 -33.127  1.00  0.00    -0.358 N 
HETATM   18  O   UNL     1     -15.451   2.597 -31.835  1.00  0.00    -0.271 OA
HETATM   19  C   UNL     1     -13.238   4.833 -33.525  1.00  0.00     0.150 C 
HETATM   20  H   UNL     1     -15.266   4.745 -32.881  1.00  0.00     0.162 HD
HETATM   21  C   UNL     1     -12.119   3.887 -33.980  1.00  0.00     0.256 C 
HETATM   22  H   UNL     1     -11.887   3.185 -32.061  1.00  0.00     0.281 HD
BRANCH  15  23
HETATM   23  C   UNL     1     -13.633   1.155 -34.123  1.00  0.00     0.038 C 
HETATM   24  C   UNL     1     -13.708  -0.345 -33.857  1.00  0.00     0.007 C 
ENDBRANCH  15  23
ENDBRANCH  13  14
ENDBRANCH   1  13
BRANCH   8  25
HETATM   25  C   UNL     1      -5.438  -0.039 -31.897  1.00  0.00     0.274 C 
BRANCH  25  26
HETATM   26  C   UNL     1      -5.570  -1.112 -32.942  1.00  0.00    -0.029 A 
HETATM   27  C   UNL     1      -4.477  -1.928 -33.274  1.00  0.00     0.054 A 
HETATM   28  C   UNL     1      -4.610  -2.914 -34.253  1.00  0.00     0.155 A 
HETATM   29  F   UNL     1      -3.552  -3.677 -34.548  1.00  0.00    -0.203 F 
HETATM   30  C   UNL     1      -5.818  -3.098 -34.909  1.00  0.00     0.154 A 
HETATM   31  F   UNL     1      -5.943  -4.043 -35.847  1.00  0.00    -0.203 F 
HETATM   32  C   UNL     1      -6.912  -2.298 -34.595  1.00  0.00     0.046 A 
HETATM   33  C   UNL     1      -6.791  -1.308 -33.615  1.00  0.00     0.012 A 
ENDBRANCH  25  26
ENDBRANCH   8  25
TORSDOF 5
ENDMDL
MODEL 6
REMARK VINA RESULT:      -8.7      1.513      2.262
REMARK  5 active torsions:
REMARK  status: ('A' for Active; 'I' for Inactive)
REMARK    1  A    between atoms: C_2  and  C_3 
REMARK    2  A    between atoms: N_4  and  C_6 
REMARK    3  A    between atoms: C_6  and  C_7 
REMARK    4  A    between atoms: N_14  and  C_16 
REMARK    5  A    between atoms: C_16  and  C_17 
ROOT
HETATM    1  C   UNL     1      -7.142   4.910 -33.135  1.00  0.00    -0.032 A 
HETATM    2  C   UNL     1      -6.984   3.643 -32.530  1.00  0.00     0.020 A 
HETATM    3  C   UNL     1      -8.057   2.734 -32.433  1.00  0.00     0.002 A 
HETATM    4  C   UNL     1      -9.297   3.118 -32.947  1.00  0.00     0.076 A 
HETATM    5  O   UNL     1     -10.389   2.309 -32.830  1.00  0.00    -0.349 OA
HETATM    6  C   UNL     1     -10.303   1.166 -33.688  1.00  0.00     0.203 C 
HETATM    7  C   UNL     1      -9.638  -0.012 -32.971  1.00  0.00     0.262 C 
HETATM    8  N   UNL     1      -8.153   0.204 -32.704  1.00  0.00    -0.061 N 
HETATM    9  H   UNL     1      -7.872  -0.623 -32.164  1.00  0.00     0.280 HD
HETATM   10  C   UNL     1      -7.892   1.383 -31.787  1.00  0.00     0.276 C 
HETATM   11  C   UNL     1      -9.476   4.365 -33.542  1.00  0.00     0.038 A 
HETATM   12  C   UNL     1      -8.399   5.245 -33.661  1.00  0.00     0.011 A 
ENDROOT
BRANCH   1  13
HETATM   13  C   UNL     1      -5.952   5.839 -33.268  1.00  0.00     0.274 C 
BRANCH  13  14
HETATM   14  N   UNL     1      -4.606   5.168 -33.355  1.00  0.00    -0.053 N 
HETATM   15  C   UNL     1      -3.910   4.971 -31.972  1.00  0.00     0.279 C 
HETATM   16  C   UNL     1      -2.597   4.172 -32.129  1.00  0.00     0.248 C 
HETATM   17  N   UNL     1      -1.855   4.412 -33.259  1.00  0.00    -0.358 N 
HETATM   18  O   UNL     1      -2.190   3.406 -31.266  1.00  0.00    -0.271 OA
HETATM   19  C   UNL     1      -2.424   4.865 -34.516  1.00  0.00     0.150 C 
HETATM   20  H   UNL     1      -0.999   3.859 -33.295  1.00  0.00     0.162 HD
HETATM   21  C   UNL     1      -3.648   5.779 -34.366  1.00  0.00     0.256 C 
HETATM   22  H   UNL     1      -4.775   4.206 -33.669  1.00  0.00     0.281 HD
BRANCH  15  23
HETATM   23  C   UNL     1      -3.645   6.321 -31.287  1.00  0.00     0.038 C 
HETATM   24  C   UNL     1      -4.404   6.467 -29.972  1.00  0.00     0.007 C 
ENDBRANCH  15  23
ENDBRANCH  13  14
ENDBRANCH   1  13
BRANCH   8  25
HETATM   25  C   UNL     1      -7.263   0.206 -33.926  1.00  0.00     0.274 C 
BRANCH  25  26
HETATM   26  C   UNL     1      -6.423  -1.032 -34.087  1.00  0.00    -0.029 A 
HETATM   27  C   UNL     1      -6.966  -2.197 -34.652  1.00  0.00     0.054 A 
HETATM   28  C   UNL     1      -6.178  -3.341 -34.787  1.00  0.00     0.155 A 
HETATM   29  F   UNL     1      -6.721  -4.437 -35.329  1.00  0.00    -0.203 F 
HETATM   30  C   UNL     1      -4.857  -3.342 -34.365  1.00  0.00     0.154 A 
HETATM   31  F   UNL     1      -4.105  -4.441 -34.495  1.00  0.00    -0.203 F 
HETATM   32  C   UNL     1      -4.303  -2.198 -33.802  1.00  0.00     0.046 A 
HETATM   33  C   UNL     1      -5.082  -1.045 -33.662  1.00  0.00     0.012 A 
ENDBRANCH  25  26
ENDBRANCH   8  25
TORSDOF 5
ENDMDL
MODEL 7
REMARK VINA RESULT:      -8.7      1.792      2.822
REMARK  5 active torsions:
REMARK  status: ('A' for Active; 'I' for Inactive)
REMARK    1  A    between atoms: C_2  and  C_3 
REMARK    2  A    between atoms: N_4  and  C_6 
REMARK    3  A    between atoms: C_6  and  C_7 
REMARK    4  A    between atoms: N_14  and  C_16 
REMARK    5  A    between atoms: C_16  and  C_17 
ROOT
HETATM    1  C   UNL     1      -5.244   4.779 -32.665  1.00  0.00    -0.032 A 
HETATM    2  C   UNL     1      -4.611   3.605 -32.201  1.00  0.00     0.020 A 
HETATM    3  C   UNL     1      -5.324   2.610 -31.502  1.00  0.00     0.002 A 
HETATM    4  C   UNL     1      -6.685   2.813 -31.270  1.00  0.00     0.076 A 
HETATM    5  O   UNL     1      -7.418   1.917 -30.547  1.00  0.00    -0.349 OA
HETATM    6  C   UNL     1      -7.646   0.703 -31.274  1.00  0.00     0.203 C 
HETATM    7  C   UNL     1      -6.544  -0.321 -30.995  1.00  0.00     0.262 C 
HETATM    8  N   UNL     1      -5.195   0.068 -31.589  1.00  0.00    -0.061 N 
HETATM    9  H   UNL     1      -4.555  -0.666 -31.261  1.00  0.00     0.280 HD
HETATM   10  C   UNL     1      -4.651   1.357 -31.004  1.00  0.00     0.276 C 
HETATM   11  C   UNL     1      -7.329   3.966 -31.714  1.00  0.00     0.038 A 
HETATM   12  C   UNL     1      -6.620   4.931 -32.431  1.00  0.00     0.011 A 
ENDROOT
BRANCH   1  13
HETATM   13  C   UNL     1      -4.455   5.802 -33.458  1.00  0.00     0.274 C 
BRANCH  13  14
HETATM   14  N   UNL     1      -3.072   6.101 -32.943  1.00  0.00    -0.053 N 
HETATM   15  C   UNL     1      -3.049   6.649 -31.482  1.00  0.00     0.279 C 
HETATM   16  C   UNL     1      -1.596   6.817 -30.983  1.00  0.00     0.248 C 
HETATM   17  N   UNL     1      -0.668   7.237 -31.903  1.00  0.00    -0.358 N 
HETATM   18  O   UNL     1      -1.284   6.651 -29.812  1.00  0.00    -0.271 OA
HETATM   19  C   UNL     1      -0.777   6.988 -33.330  1.00  0.00     0.150 C 
HETATM   20  H   UNL     1       0.266   7.335 -31.506  1.00  0.00     0.162 HD
HETATM   21  C   UNL     1      -2.217   6.960 -33.862  1.00  0.00     0.256 C 
HETATM   22  H   UNL     1      -2.586   5.202 -32.861  1.00  0.00     0.281 HD
BRANCH  15  23
HETATM   23  C   UNL     1      -3.817   7.977 -31.375  1.00  0.00     0.038 C 
HETATM   24  C   UNL     1      -5.026   7.878 -30.451  1.00  0.00     0.007 C 
ENDBRANCH  15  23
ENDBRANCH  13  14
ENDBRANCH   1  13
BRANCH   8  25
HETATM   25  C   UNL     1      -5.109   0.029 -33.097  1.00  0.00     0.274 C 
BRANCH  25  26
HETATM   26  C   UNL     1      -5.303  -1.337 -33.697  1.00  0.00    -0.029 A 
HETATM   27  C   UNL     1      -4.252  -2.268 -33.714  1.00  0.00     0.054 A 
HETATM   28  C   UNL     1      -4.443  -3.528 -34.282  1.00  0.00     0.155 A 
HETATM   29  F   UNL     1      -3.425  -4.395 -34.284  1.00  0.00    -0.203 F 
HETATM   30  C   UNL     1      -5.666  -3.874 -34.836  1.00  0.00     0.154 A 
HETATM   31  F   UNL     1      -5.846  -5.083 -35.381  1.00  0.00    -0.203 F 
HETATM   32  C   UNL     1      -6.718  -2.965 -34.831  1.00  0.00     0.046 A 
HETATM   33  C   UNL     1      -6.539  -1.699 -34.263  1.00  0.00     0.012 A 
ENDBRANCH  25  26
ENDBRANCH   8  25
TORSDOF 5
ENDMDL
MODEL 8
REMARK VINA RESULT:      -8.6      3.364      7.002
REMARK  5 active torsions:
REMARK  status: ('A' for Active; 'I' for Inactive)
REMARK    1  A    between atoms: C_2  and  C_3 
REMARK    2  A    between atoms: N_4  and  C_6 
REMARK    3  A    between atoms: C_6  and  C_7 
REMARK    4  A    between atoms: N_14  and  C_16 
REMARK    5  A    between atoms: C_16  and  C_17 
ROOT
HETATM    1  C   UNL     1      -7.923   0.841 -34.175  1.00  0.00    -0.032 A 
HETATM    2  C   UNL     1      -7.548   2.150 -33.801  1.00  0.00     0.020 A 
HETATM    3  C   UNL     1      -8.375   2.949 -32.986  1.00  0.00     0.002 A 
HETATM    4  C   UNL     1      -9.590   2.416 -32.554  1.00  0.00     0.076 A 
HETATM    5  O   UNL     1     -10.462   3.159 -31.813  1.00  0.00    -0.349 OA
HETATM    6  C   UNL     1      -9.990   3.363 -30.476  1.00  0.00     0.203 C 
HETATM    7  C   UNL     1      -9.164   4.648 -30.373  1.00  0.00     0.262 C 
HETATM    8  N   UNL     1      -7.824   4.563 -31.094  1.00  0.00    -0.061 N 
HETATM    9  H   UNL     1      -7.427   5.505 -30.999  1.00  0.00     0.280 HD
HETATM   10  C   UNL     1      -7.978   4.347 -32.587  1.00  0.00     0.276 C 
HETATM   11  C   UNL     1      -9.982   1.129 -32.915  1.00  0.00     0.038 A 
HETATM   12  C   UNL     1      -9.142   0.335 -33.697  1.00  0.00     0.011 A 
ENDROOT
BRANCH   1  13
HETATM   13  C   UNL     1      -6.984  -0.007 -35.010  1.00  0.00     0.274 C 
BRANCH  13  14
HETATM   14  N   UNL     1      -5.859  -0.669 -34.258  1.00  0.00    -0.053 N 
HETATM   15  C   UNL     1      -5.605  -2.149 -34.681  1.00  0.00     0.279 C 
HETATM   16  C   UNL     1      -4.365  -2.720 -33.956  1.00  0.00     0.248 C 
HETATM   17  N   UNL     1      -4.163  -2.318 -32.660  1.00  0.00    -0.358 N 
HETATM   18  O   UNL     1      -3.625  -3.544 -34.477  1.00  0.00    -0.271 OA
HETATM   19  C   UNL     1      -4.624  -1.047 -32.129  1.00  0.00     0.150 C 
HETATM   20  H   UNL     1      -3.335  -2.738 -32.239  1.00  0.00     0.162 HD
HETATM   21  C   UNL     1      -5.935  -0.539 -32.744  1.00  0.00     0.256 C 
HETATM   22  H   UNL     1      -4.995  -0.195 -34.541  1.00  0.00     0.281 HD
BRANCH  15  23
HETATM   23  C   UNL     1      -6.840  -3.024 -34.413  1.00  0.00     0.038 C 
HETATM   24  C   UNL     1      -6.780  -4.360 -35.145  1.00  0.00     0.007 C 
ENDBRANCH  15  23
ENDBRANCH  13  14
ENDBRANCH   1  13
BRANCH   8  25
HETATM   25  C   UNL     1      -6.805   3.635 -30.472  1.00  0.00     0.274 C 
BRANCH  25  26
HETATM   26  C   UNL     1      -5.405   3.805 -30.996  1.00  0.00    -0.029 A 
HETATM   27  C   UNL     1      -4.753   2.750 -31.652  1.00  0.00     0.054 A 
HETATM   28  C   UNL     1      -3.450   2.918 -32.125  1.00  0.00     0.155 A 
HETATM   29  F   UNL     1      -2.852   1.896 -32.747  1.00  0.00    -0.203 F 
HETATM   30  C   UNL     1      -2.788   4.124 -31.953  1.00  0.00     0.154 A 
HETATM   31  F   UNL     1      -1.539   4.282 -32.407  1.00  0.00    -0.203 F 
HETATM   32  C   UNL     1      -3.418   5.181 -31.304  1.00  0.00     0.046 A 
HETATM   33  C   UNL     1      -4.723   5.024 -30.827  1.00  0.00     0.012 A 
ENDBRANCH  25  26
ENDBRANCH   8  25
TORSDOF 5
ENDMDL
MODEL 9
REMARK VINA RESULT:      -8.5      3.515      6.194
REMARK  5 active torsions:
REMARK  status: ('A' for Active; 'I' for Inactive)
REMARK    1  A    between atoms: C_2  and  C_3 
REMARK    2  A    between atoms: N_4  and  C_6 
REMARK    3  A    between atoms: C_6  and  C_7 
REMARK    4  A    between atoms: N_14  and  C_16 
REMARK    5  A    between atoms: C_16  and  C_17 
ROOT
HETATM    1  C   UNL     1      -0.970   6.598 -30.595  1.00  0.00    -0.032 A 
HETATM    2  C   UNL     1      -2.308   6.168 -30.738  1.00  0.00     0.020 A 
HETATM    3  C   UNL     1      -2.952   6.169 -31.993  1.00  0.00     0.002 A 
HETATM    4  C   UNL     1      -2.234   6.615 -33.103  1.00  0.00     0.076 A 
HETATM    5  O   UNL     1      -2.818   6.697 -34.333  1.00  0.00    -0.349 OA
HETATM    6  C   UNL     1      -3.047   5.403 -34.905  1.00  0.00     0.203 C 
HETATM    7  C   UNL     1      -4.434   4.874 -34.534  1.00  0.00     0.262 C 
HETATM    8  N   UNL     1      -4.568   4.515 -33.058  1.00  0.00    -0.061 N 
HETATM    9  H   UNL     1      -5.555   4.251 -32.953  1.00  0.00     0.280 HD
HETATM   10  C   UNL     1      -4.379   5.713 -32.148  1.00  0.00     0.276 C 
HETATM   11  C   UNL     1      -0.916   7.048 -32.984  1.00  0.00     0.038 A 
HETATM   12  C   UNL     1      -0.277   7.014 -31.743  1.00  0.00     0.011 A 
ENDROOT
BRANCH   1  13
HETATM   13  C   UNL     1      -0.295   6.534 -29.239  1.00  0.00     0.274 C 
BRANCH  13  14
HETATM   14  N   UNL     1      -1.219   6.468 -28.052  1.00  0.00    -0.053 N 
HETATM   15  C   UNL     1      -2.148   7.714 -27.908  1.00  0.00     0.279 C 
HETATM   16  C   UNL     1      -3.147   7.520 -26.745  1.00  0.00     0.248 C 
HETATM   17  N   UNL     1      -2.686   6.858 -25.635  1.00  0.00    -0.358 N 
HETATM   18  O   UNL     1      -4.278   7.987 -26.770  1.00  0.00    -0.271 OA
HETATM   19  C   UNL     1      -1.621   5.871 -25.668  1.00  0.00     0.150 C 
HETATM   20  H   UNL     1      -3.392   6.773 -24.903  1.00  0.00     0.162 HD
HETATM   21  C   UNL     1      -0.545   6.134 -26.731  1.00  0.00     0.256 C 
HETATM   22  H   UNL     1      -1.881   5.706 -28.235  1.00  0.00     0.281 HD
BRANCH  15  23
HETATM   23  C   UNL     1      -1.327   8.999 -27.710  1.00  0.00     0.038 C 
HETATM   24  C   UNL     1      -1.809  10.142 -28.597  1.00  0.00     0.007 C 
ENDBRANCH  15  23
ENDBRANCH  13  14
ENDBRANCH   1  13
BRANCH   8  25
HETATM   25  C   UNL     1      -3.779   3.307 -32.606  1.00  0.00     0.274 C 
BRANCH  25  26
HETATM   26  C   UNL     1      -4.596   2.259 -31.900  1.00  0.00    -0.029 A 
HETATM   27  C   UNL     1      -4.935   1.060 -32.546  1.00  0.00     0.054 A 
HETATM   28  C   UNL     1      -5.701   0.100 -31.883  1.00  0.00     0.155 A 
HETATM   29  F   UNL     1      -6.010  -1.033 -32.523  1.00  0.00    -0.203 F 
HETATM   30  C   UNL     1      -6.135   0.318 -30.584  1.00  0.00     0.154 A 
HETATM   31  F   UNL     1      -6.870  -0.604 -29.952  1.00  0.00    -0.203 F 
HETATM   32  C   UNL     1      -5.810   1.501 -29.929  1.00  0.00     0.046 A 
HETATM   33  C   UNL     1      -5.043   2.469 -30.582  1.00  0.00     0.012 A 
ENDBRANCH  25  26
ENDBRANCH   8  25
TORSDOF 5
ENDMDL
MODEL 10
REMARK VINA RESULT:      -8.5      5.101      9.851
REMARK  5 active torsions:
REMARK  status: ('A' for Active; 'I' for Inactive)
REMARK    1  A    between atoms: C_2  and  C_3 
REMARK    2  A    between atoms: N_4  and  C_6 
REMARK    3  A    between atoms: C_6  and  C_7 
REMARK    4  A    between atoms: N_14  and  C_16 
REMARK    5  A    between atoms: C_16  and  C_17 
ROOT
HETATM    1  C   UNL     1      -4.264   3.194 -32.709  1.00  0.00    -0.032 A 
HETATM    2  C   UNL     1      -2.944   3.497 -32.307  1.00  0.00     0.020 A 
HETATM    3  C   UNL     1      -2.259   4.620 -32.815  1.00  0.00     0.002 A 
HETATM    4  C   UNL     1      -2.917   5.434 -33.738  1.00  0.00     0.076 A 
HETATM    5  O   UNL     1      -2.288   6.500 -34.312  1.00  0.00    -0.349 OA
HETATM    6  C   UNL     1      -2.103   7.575 -33.383  1.00  0.00     0.203 C 
HETATM    7  C   UNL     1      -0.755   7.457 -32.666  1.00  0.00     0.262 C 
HETATM    8  N   UNL     1      -0.688   6.283 -31.696  1.00  0.00    -0.061 N 
HETATM    9  H   UNL     1       0.281   6.294 -31.356  1.00  0.00     0.280 HD
HETATM   10  C   UNL     1      -0.850   4.945 -32.390  1.00  0.00     0.276 C 
HETATM   11  C   UNL     1      -4.216   5.151 -34.152  1.00  0.00     0.038 A 
HETATM   12  C   UNL     1      -4.897   4.054 -33.620  1.00  0.00     0.011 A 
ENDROOT
BRANCH   1  13
HETATM   13  C   UNL     1      -4.987   2.008 -32.102  1.00  0.00     0.274 C 
BRANCH  13  14
HETATM   14  N   UNL     1      -4.395   0.657 -32.408  1.00  0.00    -0.053 N 
HETATM   15  C   UNL     1      -5.343  -0.274 -33.227  1.00  0.00     0.279 C 
HETATM   16  C   UNL     1      -4.625  -1.589 -33.606  1.00  0.00     0.248 C 
HETATM   17  N   UNL     1      -3.759  -2.112 -32.679  1.00  0.00    -0.358 N 
HETATM   18  O   UNL     1      -4.857  -2.183 -34.650  1.00  0.00    -0.271 OA
HETATM   19  C   UNL     1      -3.045  -1.312 -31.699  1.00  0.00     0.150 C 
HETATM   20  H   UNL     1      -3.327  -2.983 -32.989  1.00  0.00     0.162 HD
HETATM   21  C   UNL     1      -3.812  -0.075 -31.210  1.00  0.00     0.256 C 
HETATM   22  H   UNL     1      -3.613   0.816 -33.053  1.00  0.00     0.281 HD
BRANCH  15  23
HETATM   23  C   UNL     1      -6.639  -0.566 -32.454  1.00  0.00     0.038 C 
HETATM   24  C   UNL     1      -7.889  -0.276 -33.279  1.00  0.00     0.007 C 
ENDBRANCH  15  23
ENDBRANCH  13  14
ENDBRANCH   1  13
BRANCH   8  25
HETATM   25  C   UNL     1      -1.548   6.408 -30.459  1.00  0.00     0.274 C 
BRANCH  25  26
HETATM   26  C   UNL     1      -0.930   7.213 -29.349  1.00  0.00    -0.029 A 
HETATM   27  C   UNL     1      -1.734   7.844 -28.387  1.00  0.00     0.054 A 
HETATM   28  C   UNL     1      -1.148   8.596 -27.368  1.00  0.00     0.155 A 
HETATM   29  F   UNL     1      -1.938   9.187 -26.465  1.00  0.00    -0.203 F 
HETATM   30  C   UNL     1       0.231   8.729 -27.294  1.00  0.00     0.154 A 
HETATM   31  F   UNL     1       0.790   9.451 -26.316  1.00  0.00    -0.203 F 
HETATM   32  C   UNL     1       1.044   8.112 -28.238  1.00  0.00     0.046 A 
HETATM   33  C   UNL     1       0.468   7.356 -29.263  1.00  0.00     0.012 A 
ENDBRANCH  25  26
ENDBRANCH   8  25
TORSDOF 5
ENDMDL
