MODEL 1
REMARK VINA RESULT:      -9.8      0.000      0.000
REMARK  3 active torsions:
REMARK  status: ('A' for Active; 'I' for Inactive)
REMARK    1  A    between atoms: C_3  and  C_4 
REMARK    2  A    between atoms: C_8  and  C_9 
REMARK       I    between atoms: C_9  and  N_10 
REMARK    3  A    between atoms: N_10  and  N_11 
ROOT
HETATM    1  C   UNL     1      -9.695   1.554 -33.121  1.00  0.00     0.289 C 
HETATM    2  N   UNL     1     -10.850   1.757 -33.857  1.00  0.00    -0.241 N 
HETATM    3  O   UNL     1      -9.447   2.115 -32.056  1.00  0.00    -0.264 OA
HETATM    4  H   UNL     1     -10.988   1.281 -34.748  1.00  0.00     0.192 HD
ENDROOT
BRANCH   1   5
HETATM    5  C   UNL     1      -8.764   0.619 -33.703  1.00  0.00     0.121 A 
HETATM    6  N   UNL     1      -8.346   0.754 -34.997  1.00  0.00    -0.272 N 
HETATM    7  N   UNL     1      -7.475  -0.185 -35.396  1.00  0.00    -0.174 NA
HETATM    8  H   UNL     1      -8.626   1.480 -35.650  1.00  0.00     0.189 HD
HETATM    9  C   UNL     1      -7.334  -0.989 -34.329  1.00  0.00     0.091 A 
HETATM   10  C   UNL     1      -8.106  -0.501 -33.237  1.00  0.00     0.071 A 
BRANCH   9  11
HETATM   11  C   UNL     1      -6.437  -2.147 -34.375  1.00  0.00     0.016 A 
HETATM   12  C   UNL     1      -6.978  -3.385 -34.774  1.00  0.00     0.015 A 
HETATM   13  C   UNL     1      -6.184  -4.531 -34.851  1.00  0.00     0.001 A 
HETATM   14  C   UNL     1      -4.833  -4.461 -34.528  1.00  0.00     0.002 A 
HETATM   15  C   UNL     1      -4.281  -3.246 -34.120  1.00  0.00     0.025 A 
HETATM   16  C   UNL     1      -5.075  -2.093 -34.038  1.00  0.00     0.046 A 
HETATM   17 CL   UNL     1      -4.294  -0.659 -33.461  1.00  0.00    -0.083 Cl
ENDBRANCH   9  11
ENDBRANCH   1   5
BRANCH   2  18
HETATM   18  N   UNL     1     -11.803   2.638 -33.424  1.00  0.00    -0.165 NA
HETATM   19  C   UNL     1     -12.986   2.156 -33.216  1.00  0.00     0.157 A 
HETATM   20  C   UNL     1     -13.469   0.712 -33.387  1.00  0.00     0.277 A 
HETATM   21  C   UNL     1     -14.146   2.913 -32.763  1.00  0.00     0.027 A 
HETATM   22  O   UNL     1     -12.771  -0.210 -33.750  1.00  0.00    -0.266 OA
HETATM   23  N   UNL     1     -14.805   0.726 -33.049  1.00  0.00    -0.321 N 
HETATM   24  C   UNL     1     -15.205   2.010 -32.684  1.00  0.00     0.048 A 
HETATM   25  H   UNL     1     -15.394  -0.094 -33.071  1.00  0.00     0.169 HD
HETATM   26  C   UNL     1     -16.460   2.414 -32.286  1.00  0.00     0.030 A 
HETATM   27  C   UNL     1     -16.628   3.768 -31.963  1.00  0.00     0.002 A 
HETATM   28  C   UNL     1     -15.551   4.676 -32.046  1.00  0.00     0.001 A 
HETATM   29  C   UNL     1     -14.284   4.250 -32.452  1.00  0.00     0.016 A 
ENDBRANCH   2  18
TORSDOF 3
ENDMDL
MODEL 2
REMARK VINA RESULT:      -9.1      6.438      9.868
REMARK  3 active torsions:
REMARK  status: ('A' for Active; 'I' for Inactive)
REMARK    1  A    between atoms: C_3  and  C_4 
REMARK    2  A    between atoms: C_8  and  C_9 
REMARK       I    between atoms: C_9  and  N_10 
REMARK    3  A    between atoms: N_10  and  N_11 
ROOT
HETATM    1  C   UNL     1      -3.697   1.016 -31.486  1.00  0.00     0.289 C 
HETATM    2  N   UNL     1      -3.549   0.562 -32.787  1.00  0.00    -0.241 N 
HETATM    3  O   UNL     1      -3.848   0.282 -30.512  1.00  0.00    -0.264 OA
HETATM    4  H   UNL     1      -3.452   1.221 -33.558  1.00  0.00     0.192 HD
ENDROOT
BRANCH   1   5
HETATM    5  C   UNL     1      -3.671   2.450 -31.340  1.00  0.00     0.121 A 
HETATM    6  N   UNL     1      -4.645   3.104 -30.642  1.00  0.00    -0.272 N 
HETATM    7  N   UNL     1      -4.484   4.435 -30.584  1.00  0.00    -0.174 NA
HETATM    8  H   UNL     1      -5.444   2.682 -30.177  1.00  0.00     0.189 HD
HETATM    9  C   UNL     1      -3.372   4.671 -31.300  1.00  0.00     0.091 A 
HETATM   10  C   UNL     1      -2.817   3.446 -31.768  1.00  0.00     0.071 A 
BRANCH   9  11
HETATM   11  C   UNL     1      -2.858   6.033 -31.462  1.00  0.00     0.016 A 
HETATM   12  C   UNL     1      -2.750   6.839 -30.312  1.00  0.00     0.015 A 
HETATM   13  C   UNL     1      -2.260   8.145 -30.386  1.00  0.00     0.001 A 
HETATM   14  C   UNL     1      -1.870   8.670 -31.614  1.00  0.00     0.002 A 
HETATM   15  C   UNL     1      -1.980   7.891 -32.766  1.00  0.00     0.025 A 
HETATM   16  C   UNL     1      -2.474   6.580 -32.697  1.00  0.00     0.046 A 
HETATM   17 CL   UNL     1      -2.622   5.733 -34.200  1.00  0.00    -0.083 Cl
ENDBRANCH   9  11
ENDBRANCH   1   5
BRANCH   2  18
HETATM   18  N   UNL     1      -3.579  -0.778 -33.062  1.00  0.00    -0.165 NA
HETATM   19  C   UNL     1      -4.634  -1.221 -33.666  1.00  0.00     0.157 A 
HETATM   20  C   UNL     1      -5.869  -0.438 -34.124  1.00  0.00     0.277 A 
HETATM   21  C   UNL     1      -4.878  -2.607 -34.046  1.00  0.00     0.027 A 
HETATM   22  O   UNL     1      -6.020   0.757 -33.980  1.00  0.00    -0.266 OA
HETATM   23  N   UNL     1      -6.705  -1.369 -34.701  1.00  0.00    -0.321 N 
HETATM   24  C   UNL     1      -6.131  -2.637 -34.658  1.00  0.00     0.048 A 
HETATM   25  H   UNL     1      -7.607  -1.140 -35.095  1.00  0.00     0.169 HD
HETATM   26  C   UNL     1      -6.665  -3.815 -35.134  1.00  0.00     0.030 A 
HETATM   27  C   UNL     1      -5.898  -4.978 -34.979  1.00  0.00     0.002 A 
HETATM   28  C   UNL     1      -4.631  -4.939 -34.359  1.00  0.00     0.001 A 
HETATM   29  C   UNL     1      -4.104  -3.737 -33.882  1.00  0.00     0.016 A 
ENDBRANCH   2  18
TORSDOF 3
ENDMDL
MODEL 3
REMARK VINA RESULT:      -8.8      6.580      9.903
REMARK  3 active torsions:
REMARK  status: ('A' for Active; 'I' for Inactive)
REMARK    1  A    between atoms: C_3  and  C_4 
REMARK    2  A    between atoms: C_8  and  C_9 
REMARK       I    between atoms: C_9  and  N_10 
REMARK    3  A    between atoms: N_10  and  N_11 
ROOT
HETATM    1  C   UNL     1      -5.316   2.211 -33.136  1.00  0.00     0.289 C 
HETATM    2  N   UNL     1      -4.908   0.905 -32.918  1.00  0.00    -0.241 N 
HETATM    3  O   UNL     1      -6.245   2.530 -33.875  1.00  0.00    -0.264 OA
HETATM    4  H   UNL     1      -4.114   0.704 -32.313  1.00  0.00     0.192 HD
ENDROOT
BRANCH   1   5
HETATM    5  C   UNL     1      -4.554   3.208 -32.426  1.00  0.00     0.121 A 
HETATM    6  N   UNL     1      -5.103   3.909 -31.390  1.00  0.00    -0.272 N 
HETATM    7  N   UNL     1      -4.273   4.796 -30.822  1.00  0.00    -0.174 NA
HETATM    8  H   UNL     1      -6.047   3.813 -31.027  1.00  0.00     0.189 HD
HETATM    9  C   UNL     1      -3.137   4.696 -31.532  1.00  0.00     0.091 A 
HETATM   10  C   UNL     1      -3.265   3.690 -32.531  1.00  0.00     0.071 A 
BRANCH   9  11
HETATM   11  C   UNL     1      -1.969   5.516 -31.200  1.00  0.00     0.016 A 
HETATM   12  C   UNL     1      -0.808   4.859 -30.749  1.00  0.00     0.015 A 
HETATM   13  C   UNL     1       0.348   5.573 -30.422  1.00  0.00     0.001 A 
HETATM   14  C   UNL     1       0.363   6.959 -30.539  1.00  0.00     0.002 A 
HETATM   15  C   UNL     1      -0.782   7.629 -30.973  1.00  0.00     0.025 A 
HETATM   16  C   UNL     1      -1.945   6.917 -31.299  1.00  0.00     0.046 A 
HETATM   17 CL   UNL     1      -3.320   7.860 -31.767  1.00  0.00    -0.083 Cl
ENDBRANCH   9  11
ENDBRANCH   1   5
BRANCH   2  18
HETATM   18  N   UNL     1      -5.536  -0.133 -33.552  1.00  0.00    -0.165 NA
HETATM   19  C   UNL     1      -4.951  -1.285 -33.495  1.00  0.00     0.157 A 
HETATM   20  C   UNL     1      -3.635  -1.651 -32.801  1.00  0.00     0.277 A 
HETATM   21  C   UNL     1      -5.437  -2.517 -34.103  1.00  0.00     0.027 A 
HETATM   22  O   UNL     1      -2.943  -0.873 -32.179  1.00  0.00    -0.266 OA
HETATM   23  N   UNL     1      -3.449  -2.995 -33.044  1.00  0.00    -0.321 N 
HETATM   24  C   UNL     1      -4.499  -3.505 -33.805  1.00  0.00     0.048 A 
HETATM   25  H   UNL     1      -2.653  -3.517 -32.708  1.00  0.00     0.169 HD
HETATM   26  C   UNL     1      -4.662  -4.801 -34.243  1.00  0.00     0.030 A 
HETATM   27  C   UNL     1      -5.808  -5.084 -35.000  1.00  0.00     0.002 A 
HETATM   28  C   UNL     1      -6.752  -4.079 -35.298  1.00  0.00     0.001 A 
HETATM   29  C   UNL     1      -6.572  -2.770 -34.845  1.00  0.00     0.016 A 
ENDBRANCH   2  18
TORSDOF 3
ENDMDL
MODEL 4
REMARK VINA RESULT:      -8.6      8.912     11.176
REMARK  3 active torsions:
REMARK  status: ('A' for Active; 'I' for Inactive)
REMARK    1  A    between atoms: C_3  and  C_4 
REMARK    2  A    between atoms: C_8  and  C_9 
REMARK       I    between atoms: C_9  and  N_10 
REMARK    3  A    between atoms: N_10  and  N_11 
ROOT
HETATM    1  C   UNL     1      -2.996   5.242 -31.615  1.00  0.00     0.289 C 
HETATM    2  N   UNL     1      -3.627   4.046 -31.316  1.00  0.00    -0.241 N 
HETATM    3  O   UNL     1      -3.241   5.922 -32.609  1.00  0.00    -0.264 OA
HETATM    4  H   UNL     1      -3.362   3.512 -30.489  1.00  0.00     0.192 HD
ENDROOT
BRANCH   1   5
HETATM    5  C   UNL     1      -1.994   5.651 -30.663  1.00  0.00     0.121 A 
HETATM    6  N   UNL     1      -0.846   4.931 -30.495  1.00  0.00    -0.272 N 
HETATM    7  N   UNL     1      -0.005   5.438 -29.581  1.00  0.00    -0.174 NA
HETATM    8  H   UNL     1      -0.586   4.083 -30.990  1.00  0.00     0.189 HD
HETATM    9  C   UNL     1      -0.639   6.522 -29.105  1.00  0.00     0.091 A 
HETATM   10  C   UNL     1      -1.879   6.705 -29.779  1.00  0.00     0.071 A 
BRANCH   9  11
HETATM   11  C   UNL     1      -0.021   7.362 -28.076  1.00  0.00     0.016 A 
HETATM   12  C   UNL     1       1.150   8.068 -28.415  1.00  0.00     0.015 A 
HETATM   13  C   UNL     1       1.790   8.896 -27.491  1.00  0.00     0.001 A 
HETATM   14  C   UNL     1       1.273   9.031 -26.206  1.00  0.00     0.002 A 
HETATM   15  C   UNL     1       0.121   8.331 -25.848  1.00  0.00     0.025 A 
HETATM   16  C   UNL     1      -0.524   7.496 -26.772  1.00  0.00     0.046 A 
HETATM   17 CL   UNL     1      -1.909   6.632 -26.193  1.00  0.00    -0.083 Cl
ENDBRANCH   9  11
ENDBRANCH   1   5
BRANCH   2  18
HETATM   18  N   UNL     1      -4.582   3.536 -32.154  1.00  0.00    -0.165 NA
HETATM   19  C   UNL     1      -4.553   2.258 -32.355  1.00  0.00     0.157 A 
HETATM   20  C   UNL     1      -3.584   1.224 -31.772  1.00  0.00     0.277 A 
HETATM   21  C   UNL     1      -5.465   1.511 -33.211  1.00  0.00     0.027 A 
HETATM   22  O   UNL     1      -2.681   1.480 -31.004  1.00  0.00    -0.266 OA
HETATM   23  N   UNL     1      -3.971   0.013 -32.304  1.00  0.00    -0.321 N 
HETATM   24  C   UNL     1      -5.069   0.175 -33.145  1.00  0.00     0.048 A 
HETATM   25  H   UNL     1      -3.506  -0.860 -32.098  1.00  0.00     0.169 HD
HETATM   26  C   UNL     1      -5.732  -0.803 -33.854  1.00  0.00     0.030 A 
HETATM   27  C   UNL     1      -6.821  -0.400 -34.641  1.00  0.00     0.002 A 
HETATM   28  C   UNL     1      -7.215   0.954 -34.702  1.00  0.00     0.001 A 
HETATM   29  C   UNL     1      -6.531   1.932 -33.978  1.00  0.00     0.016 A 
ENDBRANCH   2  18
TORSDOF 3
ENDMDL
MODEL 5
REMARK VINA RESULT:      -8.6      7.842     10.317
REMARK  3 active torsions:
REMARK  status: ('A' for Active; 'I' for Inactive)
REMARK    1  A    between atoms: C_3  and  C_4 
REMARK    2  A    between atoms: C_8  and  C_9 
REMARK       I    between atoms: C_9  and  N_10 
REMARK    3  A    between atoms: N_10  and  N_11 
ROOT
HETATM    1  C   UNL     1      -4.025   5.298 -33.542  1.00  0.00     0.289 C 
HETATM    2  N   UNL     1      -4.643   4.276 -32.841  1.00  0.00    -0.241 N 
HETATM    3  O   UNL     1      -4.189   5.510 -34.742  1.00  0.00    -0.264 OA
HETATM    4  H   UNL     1      -4.448   4.134 -31.851  1.00  0.00     0.192 HD
ENDROOT
BRANCH   1   5
HETATM    5  C   UNL     1      -3.141   6.122 -32.756  1.00  0.00     0.121 A 
HETATM    6  N   UNL     1      -2.552   7.232 -33.290  1.00  0.00    -0.272 N 
HETATM    7  N   UNL     1      -1.763   7.902 -32.437  1.00  0.00    -0.174 NA
HETATM    8  H   UNL     1      -2.663   7.580 -34.238  1.00  0.00     0.189 HD
HETATM    9  C   UNL     1      -1.811   7.187 -31.300  1.00  0.00     0.091 A 
HETATM   10  C   UNL     1      -2.688   6.076 -31.453  1.00  0.00     0.071 A 
BRANCH   9  11
HETATM   11  C   UNL     1      -1.070   7.616 -30.112  1.00  0.00     0.016 A 
HETATM   12  C   UNL     1      -1.547   8.736 -29.405  1.00  0.00     0.015 A 
HETATM   13  C   UNL     1      -0.900   9.198 -28.256  1.00  0.00     0.001 A 
HETATM   14  C   UNL     1       0.240   8.548 -27.794  1.00  0.00     0.002 A 
HETATM   15  C   UNL     1       0.735   7.443 -28.488  1.00  0.00     0.025 A 
HETATM   16  C   UNL     1       0.090   6.977 -29.643  1.00  0.00     0.046 A 
HETATM   17 CL   UNL     1       0.830   5.637 -30.451  1.00  0.00    -0.083 Cl
ENDBRANCH   9  11
ENDBRANCH   1   5
BRANCH   2  18
HETATM   18  N   UNL     1      -5.489   3.409 -33.479  1.00  0.00    -0.165 NA
HETATM   19  C   UNL     1      -5.278   2.147 -33.285  1.00  0.00     0.157 A 
HETATM   20  C   UNL     1      -4.199   1.483 -32.424  1.00  0.00     0.277 A 
HETATM   21  C   UNL     1      -6.049   1.056 -33.869  1.00  0.00     0.027 A 
HETATM   22  O   UNL     1      -3.369   2.083 -31.775  1.00  0.00    -0.266 OA
HETATM   23  N   UNL     1      -4.398   0.126 -32.562  1.00  0.00    -0.321 N 
HETATM   24  C   UNL     1      -5.477  -0.128 -33.406  1.00  0.00     0.048 A 
HETATM   25  H   UNL     1      -3.826  -0.570 -32.105  1.00  0.00     0.169 HD
HETATM   26  C   UNL     1      -5.975  -1.357 -33.781  1.00  0.00     0.030 A 
HETATM   27  C   UNL     1      -7.078  -1.366 -34.646  1.00  0.00     0.002 A 
HETATM   28  C   UNL     1      -7.651  -0.163 -35.110  1.00  0.00     0.001 A 
HETATM   29  C   UNL     1      -7.134   1.074 -34.720  1.00  0.00     0.016 A 
ENDBRANCH   2  18
TORSDOF 3
ENDMDL
MODEL 6
REMARK VINA RESULT:      -8.5      5.800      8.231
REMARK  3 active torsions:
REMARK  status: ('A' for Active; 'I' for Inactive)
REMARK    1  A    between atoms: C_3  and  C_4 
REMARK    2  A    between atoms: C_8  and  C_9 
REMARK       I    between atoms: C_9  and  N_10 
REMARK    3  A    between atoms: N_10  and  N_11 
ROOT
HETATM    1  C   UNL     1      -6.120   2.960 -33.177  1.00  0.00     0.289 C 
HETATM    2  N   UNL     1      -5.436   3.389 -32.052  1.00  0.00    -0.241 N 
HETATM    3  O   UNL     1      -6.573   3.710 -34.038  1.00  0.00    -0.264 OA
HETATM    4  H   UNL     1      -5.106   2.720 -31.358  1.00  0.00     0.192 HD
ENDROOT
BRANCH   1   5
HETATM    5  C   UNL     1      -6.283   1.530 -33.276  1.00  0.00     0.121 A 
HETATM    6  N   UNL     1      -7.381   0.908 -32.752  1.00  0.00    -0.272 N 
HETATM    7  N   UNL     1      -7.398  -0.421 -32.928  1.00  0.00    -0.174 NA
HETATM    8  H   UNL     1      -8.154   1.354 -32.268  1.00  0.00     0.189 HD
HETATM    9  C   UNL     1      -6.249  -0.691 -33.569  1.00  0.00     0.091 A 
HETATM   10  C   UNL     1      -5.534   0.512 -33.830  1.00  0.00     0.071 A 
BRANCH   9  11
HETATM   11  C   UNL     1      -5.906  -2.063 -33.951  1.00  0.00     0.016 A 
HETATM   12  C   UNL     1      -6.869  -2.812 -34.655  1.00  0.00     0.015 A 
HETATM   13  C   UNL     1      -6.612  -4.124 -35.062  1.00  0.00     0.001 A 
HETATM   14  C   UNL     1      -5.386  -4.712 -34.769  1.00  0.00     0.002 A 
HETATM   15  C   UNL     1      -4.424  -3.990 -34.062  1.00  0.00     0.025 A 
HETATM   16  C   UNL     1      -4.678  -2.674 -33.649  1.00  0.00     0.046 A 
HETATM   17 CL   UNL     1      -3.433  -1.902 -32.727  1.00  0.00    -0.083 Cl
ENDBRANCH   9  11
ENDBRANCH   1   5
BRANCH   2  18
HETATM   18  N   UNL     1      -5.235   4.725 -31.829  1.00  0.00    -0.165 NA
HETATM   19  C   UNL     1      -4.012   5.104 -31.644  1.00  0.00     0.157 A 
HETATM   20  C   UNL     1      -2.740   4.249 -31.643  1.00  0.00     0.277 A 
HETATM   21  C   UNL     1      -3.575   6.469 -31.384  1.00  0.00     0.027 A 
HETATM   22  O   UNL     1      -2.714   3.052 -31.833  1.00  0.00    -0.266 OA
HETATM   23  N   UNL     1      -1.706   5.124 -31.389  1.00  0.00    -0.321 N 
HETATM   24  C   UNL     1      -2.189   6.422 -31.237  1.00  0.00     0.048 A 
HETATM   25  H   UNL     1      -0.739   4.840 -31.326  1.00  0.00     0.169 HD
HETATM   26  C   UNL     1      -1.459   7.560 -30.975  1.00  0.00     0.030 A 
HETATM   27  C   UNL     1      -2.166   8.766 -30.863  1.00  0.00     0.002 A 
HETATM   28  C   UNL     1      -3.568   8.806 -31.013  1.00  0.00     0.001 A 
HETATM   29  C   UNL     1      -4.293   7.642 -31.279  1.00  0.00     0.016 A 
ENDBRANCH   2  18
TORSDOF 3
ENDMDL
MODEL 7
REMARK VINA RESULT:      -8.5      8.498     10.930
REMARK  3 active torsions:
REMARK  status: ('A' for Active; 'I' for Inactive)
REMARK    1  A    between atoms: C_3  and  C_4 
REMARK    2  A    between atoms: C_8  and  C_9 
REMARK       I    between atoms: C_9  and  N_10 
REMARK    3  A    between atoms: N_10  and  N_11 
ROOT
HETATM    1  C   UNL     1      -4.264   5.118 -30.772  1.00  0.00     0.289 C 
HETATM    2  N   UNL     1      -2.938   5.495 -30.639  1.00  0.00    -0.241 N 
HETATM    3  O   UNL     1      -5.210   5.740 -30.295  1.00  0.00    -0.264 OA
HETATM    4  H   UNL     1      -2.193   4.924 -31.036  1.00  0.00     0.192 HD
ENDROOT
BRANCH   1   5
HETATM    5  C   UNL     1      -4.474   3.906 -31.524  1.00  0.00     0.121 A 
HETATM    6  N   UNL     1      -3.425   3.106 -31.879  1.00  0.00    -0.272 N 
HETATM    7  N   UNL     1      -3.776   2.010 -32.568  1.00  0.00    -0.174 NA
HETATM    8  H   UNL     1      -2.445   3.265 -31.667  1.00  0.00     0.189 HD
HETATM    9  C   UNL     1      -5.109   2.106 -32.698  1.00  0.00     0.091 A 
HETATM   10  C   UNL     1      -5.588   3.269 -32.032  1.00  0.00     0.071 A 
BRANCH   9  11
HETATM   11  C   UNL     1      -5.872   1.069 -33.398  1.00  0.00     0.016 A 
HETATM   12  C   UNL     1      -6.593   1.444 -34.548  1.00  0.00     0.015 A 
HETATM   13  C   UNL     1      -7.336   0.510 -35.274  1.00  0.00     0.001 A 
HETATM   14  C   UNL     1      -7.373  -0.818 -34.861  1.00  0.00     0.002 A 
HETATM   15  C   UNL     1      -6.673  -1.206 -33.718  1.00  0.00     0.025 A 
HETATM   16  C   UNL     1      -5.929  -0.271 -32.984  1.00  0.00     0.046 A 
HETATM   17 CL   UNL     1      -5.154  -0.858 -31.551  1.00  0.00    -0.083 Cl
ENDBRANCH   9  11
ENDBRANCH   1   5
BRANCH   2  18
HETATM   18  N   UNL     1      -2.603   6.616 -29.927  1.00  0.00    -0.165 NA
HETATM   19  C   UNL     1      -1.377   6.701 -29.523  1.00  0.00     0.157 A 
HETATM   20  C   UNL     1      -0.232   5.705 -29.739  1.00  0.00     0.277 A 
HETATM   21  C   UNL     1      -0.810   7.797 -28.748  1.00  0.00     0.027 A 
HETATM   22  O   UNL     1      -0.331   4.664 -30.352  1.00  0.00    -0.266 OA
HETATM   23  N   UNL     1       0.861   6.254 -29.104  1.00  0.00    -0.321 N 
HETATM   24  C   UNL     1       0.528   7.476 -28.524  1.00  0.00     0.048 A 
HETATM   25  H   UNL     1       1.769   5.812 -29.076  1.00  0.00     0.169 HD
HETATM   26  C   UNL     1       1.354   8.315 -27.808  1.00  0.00     0.030 A 
HETATM   27  C   UNL     1       0.794   9.502 -27.316  1.00  0.00     0.002 A 
HETATM   28  C   UNL     1      -0.562   9.820 -27.548  1.00  0.00     0.001 A 
HETATM   29  C   UNL     1      -1.385   8.958 -28.275  1.00  0.00     0.016 A 
ENDBRANCH   2  18
TORSDOF 3
ENDMDL
MODEL 8
REMARK VINA RESULT:      -8.5      7.276     10.331
REMARK  3 active torsions:
REMARK  status: ('A' for Active; 'I' for Inactive)
REMARK    1  A    between atoms: C_3  and  C_4 
REMARK    2  A    between atoms: C_8  and  C_9 
REMARK       I    between atoms: C_9  and  N_10 
REMARK    3  A    between atoms: N_10  and  N_11 
ROOT
HETATM    1  C   UNL     1      -4.678   4.280 -33.053  1.00  0.00     0.289 C 
HETATM    2  N   UNL     1      -4.928   3.101 -32.372  1.00  0.00    -0.241 N 
HETATM    3  O   UNL     1      -5.007   4.487 -34.219  1.00  0.00    -0.264 OA
HETATM    4  H   UNL     1      -4.609   2.978 -31.412  1.00  0.00     0.192 HD
ENDROOT
BRANCH   1   5
HETATM    5  C   UNL     1      -3.977   5.282 -32.289  1.00  0.00     0.121 A 
HETATM    6  N   UNL     1      -4.293   6.606 -32.406  1.00  0.00    -0.272 N 
HETATM    7  N   UNL     1      -3.562   7.418 -31.628  1.00  0.00    -0.174 NA
HETATM    8  H   UNL     1      -5.010   7.006 -33.003  1.00  0.00     0.189 HD
HETATM    9  C   UNL     1      -2.708   6.598 -30.993  1.00  0.00     0.091 A 
HETATM   10  C   UNL     1      -2.956   5.246 -31.362  1.00  0.00     0.071 A 
BRANCH   9  11
HETATM   11  C   UNL     1      -1.736   7.125 -30.031  1.00  0.00     0.016 A 
HETATM   12  C   UNL     1      -2.216   7.936 -28.985  1.00  0.00     0.015 A 
HETATM   13  C   UNL     1      -1.352   8.466 -28.024  1.00  0.00     0.001 A 
HETATM   14  C   UNL     1       0.011   8.196 -28.093  1.00  0.00     0.002 A 
HETATM   15  C   UNL     1       0.507   7.404 -29.129  1.00  0.00     0.025 A 
HETATM   16  C   UNL     1      -0.357   6.872 -30.098  1.00  0.00     0.046 A 
HETATM   17 CL   UNL     1       0.382   5.956 -31.368  1.00  0.00    -0.083 Cl
ENDBRANCH   9  11
ENDBRANCH   1   5
BRANCH   2  18
HETATM   18  N   UNL     1      -5.567   2.062 -32.994  1.00  0.00    -0.165 NA
HETATM   19  C   UNL     1      -4.947   0.926 -33.007  1.00  0.00     0.157 A 
HETATM   20  C   UNL     1      -3.578   0.581 -32.411  1.00  0.00     0.277 A 
HETATM   21  C   UNL     1      -5.436  -0.303 -33.618  1.00  0.00     0.027 A 
HETATM   22  O   UNL     1      -2.870   1.363 -31.813  1.00  0.00    -0.266 OA
HETATM   23  N   UNL     1      -3.371  -0.749 -32.704  1.00  0.00    -0.321 N 
HETATM   24  C   UNL     1      -4.454  -1.270 -33.410  1.00  0.00     0.048 A 
HETATM   25  H   UNL     1      -2.540  -1.256 -32.435  1.00  0.00     0.169 HD
HETATM   26  C   UNL     1      -4.608  -2.558 -33.874  1.00  0.00     0.030 A 
HETATM   27  C   UNL     1      -5.793  -2.855 -34.563  1.00  0.00     0.002 A 
HETATM   28  C   UNL     1      -6.783  -1.870 -34.770  1.00  0.00     0.001 A 
HETATM   29  C   UNL     1      -6.610  -0.569 -34.292  1.00  0.00     0.016 A 
ENDBRANCH   2  18
TORSDOF 3
ENDMDL
MODEL 9
REMARK VINA RESULT:      -8.4      8.933     11.241
REMARK  3 active torsions:
REMARK  status: ('A' for Active; 'I' for Inactive)
REMARK    1  A    between atoms: C_3  and  C_4 
REMARK    2  A    between atoms: C_8  and  C_9 
REMARK       I    between atoms: C_9  and  N_10 
REMARK    3  A    between atoms: N_10  and  N_11 
ROOT
HETATM    1  C   UNL     1      -1.955   4.698 -31.542  1.00  0.00     0.289 C 
HETATM    2  N   UNL     1      -2.070   5.389 -30.347  1.00  0.00    -0.241 N 
HETATM    3  O   UNL     1      -0.928   4.648 -32.215  1.00  0.00    -0.264 OA
HETATM    4  H   UNL     1      -2.956   5.416 -29.845  1.00  0.00     0.192 HD
ENDROOT
BRANCH   1   5
HETATM    5  C   UNL     1      -3.158   4.026 -31.968  1.00  0.00     0.121 A 
HETATM    6  N   UNL     1      -4.355   4.681 -32.007  1.00  0.00    -0.272 N 
HETATM    7  N   UNL     1      -5.382   3.930 -32.431  1.00  0.00    -0.174 NA
HETATM    8  H   UNL     1      -4.522   5.652 -31.757  1.00  0.00     0.189 HD
HETATM    9  C   UNL     1      -4.844   2.719 -32.654  1.00  0.00     0.091 A 
HETATM   10  C   UNL     1      -3.443   2.747 -32.401  1.00  0.00     0.071 A 
BRANCH   9  11
HETATM   11  C   UNL     1      -5.666   1.611 -33.146  1.00  0.00     0.016 A 
HETATM   12  C   UNL     1      -6.379   1.799 -34.346  1.00  0.00     0.015 A 
HETATM   13  C   UNL     1      -7.176   0.786 -34.882  1.00  0.00     0.001 A 
HETATM   14  C   UNL     1      -7.278  -0.437 -34.226  1.00  0.00     0.002 A 
HETATM   15  C   UNL     1      -6.588  -0.638 -33.030  1.00  0.00     0.025 A 
HETATM   16  C   UNL     1      -5.789   0.377 -32.486  1.00  0.00     0.046 A 
HETATM   17 CL   UNL     1      -5.031   0.032 -30.968  1.00  0.00    -0.083 Cl
ENDBRANCH   9  11
ENDBRANCH   1   5
BRANCH   2  18
HETATM   18  N   UNL     1      -1.005   6.089 -29.845  1.00  0.00    -0.165 NA
HETATM   19  C   UNL     1      -1.278   7.033 -29.003  1.00  0.00     0.157 A 
HETATM   20  C   UNL     1      -2.649   7.478 -28.483  1.00  0.00     0.277 A 
HETATM   21  C   UNL     1      -0.305   7.903 -28.357  1.00  0.00     0.027 A 
HETATM   22  O   UNL     1      -3.705   6.973 -28.802  1.00  0.00    -0.266 OA
HETATM   23  N   UNL     1      -2.397   8.524 -27.622  1.00  0.00    -0.321 N 
HETATM   24  C   UNL     1      -1.029   8.776 -27.545  1.00  0.00     0.048 A 
HETATM   25  H   UNL     1      -3.120   9.025 -27.127  1.00  0.00     0.169 HD
HETATM   26  C   UNL     1      -0.397   9.741 -26.791  1.00  0.00     0.030 A 
HETATM   27  C   UNL     1       1.001   9.807 -26.873  1.00  0.00     0.002 A 
HETATM   28  C   UNL     1       1.727   8.920 -27.696  1.00  0.00     0.001 A 
HETATM   29  C   UNL     1       1.070   7.948 -28.454  1.00  0.00     0.016 A 
ENDBRANCH   2  18
TORSDOF 3
ENDMDL
MODEL 10
REMARK VINA RESULT:      -8.3      2.990      3.439
REMARK  3 active torsions:
REMARK  status: ('A' for Active; 'I' for Inactive)
REMARK    1  A    between atoms: C_3  and  C_4 
REMARK    2  A    between atoms: C_8  and  C_9 
REMARK       I    between atoms: C_9  and  N_10 
REMARK    3  A    between atoms: N_10  and  N_11 
ROOT
HETATM    1  C   UNL     1      -7.691   3.052 -33.837  1.00  0.00     0.289 C 
HETATM    2  N   UNL     1      -8.998   3.219 -34.262  1.00  0.00    -0.241 N 
HETATM    3  O   UNL     1      -6.903   3.976 -33.648  1.00  0.00    -0.264 OA
HETATM    4  H   UNL     1      -9.598   2.412 -34.426  1.00  0.00     0.192 HD
ENDROOT
BRANCH   1   5
HETATM    5  C   UNL     1      -7.293   1.682 -33.631  1.00  0.00     0.121 A 
HETATM    6  N   UNL     1      -7.336   1.114 -32.390  1.00  0.00    -0.272 N 
HETATM    7  N   UNL     1      -6.944  -0.168 -32.355  1.00  0.00    -0.174 NA
HETATM    8  H   UNL     1      -7.636   1.563 -31.530  1.00  0.00     0.189 HD
HETATM    9  C   UNL     1      -6.600  -0.449 -33.623  1.00  0.00     0.091 A 
HETATM   10  C   UNL     1      -6.830   0.679 -34.459  1.00  0.00     0.071 A 
BRANCH   9  11
HETATM   11  C   UNL     1      -6.120  -1.784 -33.992  1.00  0.00     0.016 A 
HETATM   12  C   UNL     1      -7.053  -2.699 -34.517  1.00  0.00     0.015 A 
HETATM   13  C   UNL     1      -6.669  -3.985 -34.901  1.00  0.00     0.001 A 
HETATM   14  C   UNL     1      -5.343  -4.383 -34.765  1.00  0.00     0.002 A 
HETATM   15  C   UNL     1      -4.406  -3.494 -34.236  1.00  0.00     0.025 A 
HETATM   16  C   UNL     1      -4.788  -2.202 -33.847  1.00  0.00     0.046 A 
HETATM   17 CL   UNL     1      -3.551  -1.212 -33.148  1.00  0.00    -0.083 Cl
ENDBRANCH   9  11
ENDBRANCH   1   5
BRANCH   2  18
HETATM   18  N   UNL     1      -9.491   4.471 -34.515  1.00  0.00    -0.165 NA
HETATM   19  C   UNL     1     -10.732   4.543 -34.877  1.00  0.00     0.157 A 
HETATM   20  C   UNL     1     -11.738   3.401 -35.059  1.00  0.00     0.277 A 
HETATM   21  C   UNL     1     -11.453   5.766 -35.202  1.00  0.00     0.027 A 
HETATM   22  O   UNL     1     -11.492   2.229 -34.871  1.00  0.00    -0.266 OA
HETATM   23  N   UNL     1     -12.910   4.003 -35.463  1.00  0.00    -0.321 N 
HETATM   24  C   UNL     1     -12.749   5.384 -35.548  1.00  0.00     0.048 A 
HETATM   25  H   UNL     1     -13.758   3.491 -35.664  1.00  0.00     0.169 HD
HETATM   26  C   UNL     1     -13.695   6.315 -35.916  1.00  0.00     0.030 A 
HETATM   27  C   UNL     1     -13.301   7.661 -35.927  1.00  0.00     0.002 A 
HETATM   28  C   UNL     1     -11.988   8.040 -35.576  1.00  0.00     0.001 A 
HETATM   29  C   UNL     1     -11.041   7.082 -35.205  1.00  0.00     0.016 A 
ENDBRANCH   2  18
TORSDOF 3
ENDMDL
