MODEL 1
REMARK VINA RESULT:      -8.9      0.000      0.000
REMARK  4 active torsions:
REMARK  status: ('A' for Active; 'I' for Inactive)
REMARK    1  A    between atoms: C_2  and  C_3 
REMARK    2  A    between atoms: C_7  and  N_8 
REMARK       I    between atoms: N_8  and  C_9 
REMARK    3  A    between atoms: C_9  and  C_10 
REMARK    4  A    between atoms: C_12  and  C_13 
ROOT
HETATM    1  C   UNL     1      -5.630   1.442 -33.043  1.00  0.00     0.149 A 
HETATM    2  N   UNL     1      -5.114   0.152 -33.130  1.00  0.00    -0.223 NA
HETATM    3  C   UNL     1      -5.961  -0.543 -33.869  1.00  0.00     0.139 A 
HETATM    4  N   UNL     1      -7.000   0.265 -34.271  1.00  0.00    -0.342 N 
HETATM    5  H   UNL     1      -7.792  -0.032 -34.821  1.00  0.00     0.167 HD
HETATM    6  C   UNL     1      -6.811   1.521 -33.757  1.00  0.00     0.041 A 
HETATM    7  C   UNL     1      -7.754   2.640 -33.983  1.00  0.00     0.071 C 
ENDROOT
BRANCH   1   8
HETATM    8  C   UNL     1      -4.970   2.508 -32.273  1.00  0.00     0.278 C 
HETATM    9  N   UNL     1      -3.767   2.837 -32.854  1.00  0.00    -0.304 N 
HETATM   10  H   UNL     1      -3.549   2.343 -33.710  1.00  0.00     0.171 HD
HETATM   11  O   UNL     1      -5.487   2.990 -31.273  1.00  0.00    -0.265 OA
BRANCH   9  12
HETATM   12  C   UNL     1      -2.845   3.729 -32.362  1.00  0.00     0.158 A 
HETATM   13  N   UNL     1      -2.267   3.635 -31.166  1.00  0.00    -0.156 NA
HETATM   14  N   UNL     1      -1.415   4.660 -31.113  1.00  0.00    -0.280 N 
HETATM   15  C   UNL     1      -1.420   5.437 -32.236  1.00  0.00     0.037 A 
HETATM   16  H   UNL     1      -0.853   4.767 -30.276  1.00  0.00     0.189 HD
HETATM   17  C   UNL     1      -2.363   4.868 -33.076  1.00  0.00     0.010 A 
HETATM   18  C   UNL     1      -2.759   5.344 -34.425  1.00  0.00     0.054 C 
BRANCH  15  19
HETATM   19  C   UNL     1      -0.530   6.621 -32.380  1.00  0.00     0.055 C 
HETATM   20  C   UNL     1       0.449   6.727 -31.219  1.00  0.00     0.011 C 
ENDBRANCH  15  19
ENDBRANCH   9  12
ENDBRANCH   1   8
BRANCH   3  21
HETATM   21  C   UNL     1      -5.857  -1.971 -34.186  1.00  0.00     0.012 A 
HETATM   22  C   UNL     1      -4.660  -2.647 -33.909  1.00  0.00     0.039 A 
HETATM   23  C   UNL     1      -4.538  -4.009 -34.182  1.00  0.00     0.035 A 
HETATM   24 CL   UNL     1      -3.065  -4.825 -33.824  1.00  0.00    -0.084 Cl
HETATM   25  C   UNL     1      -5.599  -4.717 -34.742  1.00  0.00     0.024 A 
HETATM   26  C   UNL     1      -6.790  -4.055 -35.033  1.00  0.00     0.003 A 
HETATM   27  C   UNL     1      -6.919  -2.690 -34.759  1.00  0.00     0.015 A 
ENDBRANCH   3  21
TORSDOF 4
ENDMDL
MODEL 2
REMARK VINA RESULT:      -8.7      3.204      8.495
REMARK  4 active torsions:
REMARK  status: ('A' for Active; 'I' for Inactive)
REMARK    1  A    between atoms: C_2  and  C_3 
REMARK    2  A    between atoms: C_7  and  N_8 
REMARK       I    between atoms: N_8  and  C_9 
REMARK    3  A    between atoms: C_9  and  C_10 
REMARK    4  A    between atoms: C_12  and  C_13 
ROOT
HETATM    1  C   UNL     1      -3.906   1.926 -31.394  1.00  0.00     0.149 A 
HETATM    2  N   UNL     1      -2.815   2.646 -31.872  1.00  0.00    -0.223 NA
HETATM    3  C   UNL     1      -2.990   3.897 -31.482  1.00  0.00     0.139 A 
HETATM    4  N   UNL     1      -4.156   3.999 -30.756  1.00  0.00    -0.342 N 
HETATM    5  H   UNL     1      -4.530   4.853 -30.369  1.00  0.00     0.167 HD
HETATM    6  C   UNL     1      -4.750   2.766 -30.693  1.00  0.00     0.041 A 
HETATM    7  C   UNL     1      -6.033   2.518 -29.996  1.00  0.00     0.071 C 
ENDROOT
BRANCH   1   8
HETATM    8  C   UNL     1      -4.077   0.487 -31.652  1.00  0.00     0.278 C 
HETATM    9  N   UNL     1      -4.440   0.280 -32.963  1.00  0.00    -0.304 N 
HETATM   10  H   UNL     1      -4.491   1.112 -33.535  1.00  0.00     0.171 HD
HETATM   11  O   UNL     1      -3.896  -0.347 -30.774  1.00  0.00    -0.265 OA
BRANCH   9  12
HETATM   12  C   UNL     1      -4.766  -0.927 -33.534  1.00  0.00     0.158 A 
HETATM   13  N   UNL     1      -3.885  -1.874 -33.853  1.00  0.00    -0.156 NA
HETATM   14  N   UNL     1      -4.620  -2.882 -34.326  1.00  0.00    -0.280 N 
HETATM   15  C   UNL     1      -5.961  -2.625 -34.340  1.00  0.00     0.037 A 
HETATM   16  H   UNL     1      -4.136  -3.724 -34.620  1.00  0.00     0.189 HD
HETATM   17  C   UNL     1      -6.097  -1.340 -33.843  1.00  0.00     0.010 A 
HETATM   18  C   UNL     1      -7.361  -0.581 -33.664  1.00  0.00     0.054 C 
BRANCH  15  19
HETATM   19  C   UNL     1      -6.951  -3.629 -34.818  1.00  0.00     0.055 C 
HETATM   20  C   UNL     1      -6.268  -4.798 -35.513  1.00  0.00     0.011 C 
ENDBRANCH  15  19
ENDBRANCH   9  12
ENDBRANCH   1   8
BRANCH   3  21
HETATM   21  C   UNL     1      -2.117   5.030 -31.802  1.00  0.00     0.012 A 
HETATM   22  C   UNL     1      -1.304   5.571 -30.795  1.00  0.00     0.039 A 
HETATM   23  C   UNL     1      -0.449   6.638 -31.073  1.00  0.00     0.035 A 
HETATM   24 CL   UNL     1       0.550   7.280 -29.827  1.00  0.00    -0.084 Cl
HETATM   25  C   UNL     1      -0.395   7.186 -32.352  1.00  0.00     0.024 A 
HETATM   26  C   UNL     1      -1.206   6.667 -33.358  1.00  0.00     0.003 A 
HETATM   27  C   UNL     1      -2.063   5.596 -33.086  1.00  0.00     0.015 A 
ENDBRANCH   3  21
TORSDOF 4
ENDMDL
MODEL 3
REMARK VINA RESULT:      -8.1      5.368      9.090
REMARK  4 active torsions:
REMARK  status: ('A' for Active; 'I' for Inactive)
REMARK    1  A    between atoms: C_2  and  C_3 
REMARK    2  A    between atoms: C_7  and  N_8 
REMARK       I    between atoms: N_8  and  C_9 
REMARK    3  A    between atoms: C_9  and  C_10 
REMARK    4  A    between atoms: C_12  and  C_13 
ROOT
HETATM    1  C   UNL     1     -10.144   1.881 -34.130  1.00  0.00     0.149 A 
HETATM    2  N   UNL     1      -9.488   0.657 -34.219  1.00  0.00    -0.223 NA
HETATM    3  C   UNL     1      -8.223   0.884 -33.911  1.00  0.00     0.139 A 
HETATM    4  N   UNL     1      -8.048   2.217 -33.614  1.00  0.00    -0.342 N 
HETATM    5  H   UNL     1      -7.170   2.652 -33.374  1.00  0.00     0.167 HD
HETATM    6  C   UNL     1      -9.249   2.864 -33.750  1.00  0.00     0.041 A 
HETATM    7  C   UNL     1      -9.418   4.316 -33.518  1.00  0.00     0.071 C 
ENDROOT
BRANCH   1   8
HETATM    8  C   UNL     1     -11.576   2.035 -34.427  1.00  0.00     0.278 C 
HETATM    9  N   UNL     1     -12.315   1.924 -33.272  1.00  0.00    -0.304 N 
HETATM   10  H   UNL     1     -11.778   1.799 -32.424  1.00  0.00     0.171 HD
HETATM   11  O   UNL     1     -11.975   2.239 -35.567  1.00  0.00    -0.265 OA
BRANCH   9  12
HETATM   12  C   UNL     1     -13.686   1.930 -33.182  1.00  0.00     0.158 A 
HETATM   13  N   UNL     1     -14.498   1.214 -33.958  1.00  0.00    -0.156 NA
HETATM   14  N   UNL     1     -15.726   1.474 -33.506  1.00  0.00    -0.280 N 
HETATM   15  C   UNL     1     -15.751   2.350 -32.458  1.00  0.00     0.037 A 
HETATM   16  H   UNL     1     -16.506   1.011 -33.959  1.00  0.00     0.189 HD
HETATM   17  C   UNL     1     -14.429   2.689 -32.227  1.00  0.00     0.010 A 
HETATM   18  C   UNL     1     -13.915   3.625 -31.196  1.00  0.00     0.054 C 
BRANCH  15  19
HETATM   19  C   UNL     1     -17.023   2.757 -31.802  1.00  0.00     0.055 C 
HETATM   20  C   UNL     1     -18.133   2.972 -32.821  1.00  0.00     0.011 C 
ENDBRANCH  15  19
ENDBRANCH   9  12
ENDBRANCH   1   8
BRANCH   3  21
HETATM   21  C   UNL     1      -7.141  -0.105 -33.924  1.00  0.00     0.012 A 
HETATM   22  C   UNL     1      -7.402  -1.397 -34.403  1.00  0.00     0.039 A 
HETATM   23  C   UNL     1      -6.389  -2.354 -34.446  1.00  0.00     0.035 A 
HETATM   24 CL   UNL     1      -6.726  -3.931 -35.050  1.00  0.00    -0.084 Cl
HETATM   25  C   UNL     1      -5.104  -2.045 -34.005  1.00  0.00     0.024 A 
HETATM   26  C   UNL     1      -4.834  -0.769 -33.515  1.00  0.00     0.003 A 
HETATM   27  C   UNL     1      -5.845   0.195 -33.472  1.00  0.00     0.015 A 
ENDBRANCH   3  21
TORSDOF 4
ENDMDL
MODEL 4
REMARK VINA RESULT:      -7.9      3.674      6.941
REMARK  4 active torsions:
REMARK  status: ('A' for Active; 'I' for Inactive)
REMARK    1  A    between atoms: C_2  and  C_3 
REMARK    2  A    between atoms: C_7  and  N_8 
REMARK       I    between atoms: N_8  and  C_9 
REMARK    3  A    between atoms: C_9  and  C_10 
REMARK    4  A    between atoms: C_12  and  C_13 
ROOT
HETATM    1  C   UNL     1      -8.084   1.698 -33.362  1.00  0.00     0.149 A 
HETATM    2  N   UNL     1      -7.888   0.333 -33.551  1.00  0.00    -0.223 NA
HETATM    3  C   UNL     1      -6.581   0.140 -33.567  1.00  0.00     0.139 A 
HETATM    4  N   UNL     1      -5.930   1.339 -33.382  1.00  0.00    -0.342 N 
HETATM    5  H   UNL     1      -4.929   1.466 -33.382  1.00  0.00     0.167 HD
HETATM    6  C   UNL     1      -6.863   2.335 -33.254  1.00  0.00     0.041 A 
HETATM    7  C   UNL     1      -6.506   3.758 -33.056  1.00  0.00     0.071 C 
ENDROOT
BRANCH   1   8
HETATM    8  C   UNL     1      -9.424   2.305 -33.313  1.00  0.00     0.278 C 
HETATM    9  N   UNL     1      -9.897   2.515 -34.587  1.00  0.00    -0.304 N 
HETATM   10  H   UNL     1      -9.292   2.195 -35.333  1.00  0.00     0.171 HD
HETATM   11  O   UNL     1      -9.977   2.551 -32.248  1.00  0.00    -0.265 OA
BRANCH   9  12
HETATM   12  C   UNL     1     -11.073   3.140 -34.925  1.00  0.00     0.158 A 
HETATM   13  N   UNL     1     -12.258   2.535 -34.989  1.00  0.00    -0.156 NA
HETATM   14  N   UNL     1     -13.123   3.503 -35.297  1.00  0.00    -0.280 N 
HETATM   15  C   UNL     1     -12.543   4.730 -35.448  1.00  0.00     0.037 A 
HETATM   16  H   UNL     1     -14.102   3.254 -35.384  1.00  0.00     0.189 HD
HETATM   17  C   UNL     1     -11.190   4.530 -35.230  1.00  0.00     0.010 A 
HETATM   18  C   UNL     1     -10.115   5.552 -35.289  1.00  0.00     0.054 C 
BRANCH  15  19
HETATM   19  C   UNL     1     -13.339   5.943 -35.778  1.00  0.00     0.055 C 
HETATM   20  C   UNL     1     -13.574   6.808 -34.548  1.00  0.00     0.011 C 
ENDBRANCH  15  19
ENDBRANCH   9  12
ENDBRANCH   1   8
BRANCH   3  21
HETATM   21  C   UNL     1      -5.901  -1.139 -33.795  1.00  0.00     0.012 A 
HETATM   22  C   UNL     1      -6.570  -2.153 -34.498  1.00  0.00     0.039 A 
HETATM   23  C   UNL     1      -5.943  -3.373 -34.747  1.00  0.00     0.035 A 
HETATM   24 CL   UNL     1      -6.775  -4.600 -35.622  1.00  0.00    -0.084 Cl
HETATM   25  C   UNL     1      -4.646  -3.608 -34.295  1.00  0.00     0.024 A 
HETATM   26  C   UNL     1      -3.975  -2.615 -33.585  1.00  0.00     0.003 A 
HETATM   27  C   UNL     1      -4.598  -1.388 -33.335  1.00  0.00     0.015 A 
ENDBRANCH   3  21
TORSDOF 4
ENDMDL
MODEL 5
REMARK VINA RESULT:      -7.8      3.151      6.059
REMARK  4 active torsions:
REMARK  status: ('A' for Active; 'I' for Inactive)
REMARK    1  A    between atoms: C_2  and  C_3 
REMARK    2  A    between atoms: C_7  and  N_8 
REMARK       I    between atoms: N_8  and  C_9 
REMARK    3  A    between atoms: C_9  and  C_10 
REMARK    4  A    between atoms: C_12  and  C_13 
ROOT
HETATM    1  C   UNL     1      -6.487   1.380 -32.816  1.00  0.00     0.149 A 
HETATM    2  N   UNL     1      -6.918   0.124 -33.232  1.00  0.00    -0.223 NA
HETATM    3  C   UNL     1      -5.831  -0.601 -33.429  1.00  0.00     0.139 A 
HETATM    4  N   UNL     1      -4.713   0.148 -33.140  1.00  0.00    -0.342 N 
HETATM    5  H   UNL     1      -3.758  -0.165 -33.235  1.00  0.00     0.167 HD
HETATM    6  C   UNL     1      -5.106   1.403 -32.754  1.00  0.00     0.041 A 
HETATM    7  C   UNL     1      -4.153   2.474 -32.383  1.00  0.00     0.071 C 
ENDROOT
BRANCH   1   8
HETATM    8  C   UNL     1      -7.420   2.479 -32.520  1.00  0.00     0.278 C 
HETATM    9  N   UNL     1      -8.511   2.001 -31.831  1.00  0.00    -0.304 N 
HETATM   10  H   UNL     1      -8.486   1.015 -31.607  1.00  0.00     0.171 HD
HETATM   11  O   UNL     1      -7.184   3.630 -32.863  1.00  0.00    -0.265 OA
BRANCH   9  12
HETATM   12  C   UNL     1      -9.620   2.725 -31.463  1.00  0.00     0.158 A 
HETATM   13  N   UNL     1      -9.801   3.272 -30.262  1.00  0.00    -0.156 NA
HETATM   14  N   UNL     1     -10.966   3.916 -30.349  1.00  0.00    -0.280 N 
HETATM   15  C   UNL     1     -11.567   3.803 -31.570  1.00  0.00     0.037 A 
HETATM   16  H   UNL     1     -11.290   4.421 -29.531  1.00  0.00     0.189 HD
HETATM   17  C   UNL     1     -10.720   3.010 -32.327  1.00  0.00     0.010 A 
HETATM   18  C   UNL     1     -10.924   2.576 -33.732  1.00  0.00     0.054 C 
BRANCH  15  19
HETATM   19  C   UNL     1     -12.866   4.462 -31.873  1.00  0.00     0.055 C 
HETATM   20  C   UNL     1     -13.696   4.665 -30.614  1.00  0.00     0.011 C 
ENDBRANCH  15  19
ENDBRANCH   9  12
ENDBRANCH   1   8
BRANCH   3  21
HETATM   21  C   UNL     1      -5.792  -1.979 -33.927  1.00  0.00     0.012 A 
HETATM   22  C   UNL     1      -4.615  -2.727 -33.775  1.00  0.00     0.039 A 
HETATM   23  C   UNL     1      -4.553  -4.047 -34.221  1.00  0.00     0.035 A 
HETATM   24 CL   UNL     1      -3.104  -4.953 -34.015  1.00  0.00    -0.084 Cl
HETATM   25  C   UNL     1      -5.656  -4.640 -34.831  1.00  0.00     0.024 A 
HETATM   26  C   UNL     1      -6.827  -3.906 -34.999  1.00  0.00     0.003 A 
HETATM   27  C   UNL     1      -6.895  -2.583 -34.551  1.00  0.00     0.015 A 
ENDBRANCH   3  21
TORSDOF 4
ENDMDL
MODEL 6
REMARK VINA RESULT:      -7.8      2.685      5.554
REMARK  4 active torsions:
REMARK  status: ('A' for Active; 'I' for Inactive)
REMARK    1  A    between atoms: C_2  and  C_3 
REMARK    2  A    between atoms: C_7  and  N_8 
REMARK       I    between atoms: N_8  and  C_9 
REMARK    3  A    between atoms: C_9  and  C_10 
REMARK    4  A    between atoms: C_12  and  C_13 
ROOT
HETATM    1  C   UNL     1      -5.543   1.402 -32.511  1.00  0.00     0.149 A 
HETATM    2  N   UNL     1      -5.887   0.091 -32.830  1.00  0.00    -0.223 NA
HETATM    3  C   UNL     1      -4.753  -0.577 -32.947  1.00  0.00     0.139 A 
HETATM    4  N   UNL     1      -3.690   0.262 -32.699  1.00  0.00    -0.342 N 
HETATM    5  H   UNL     1      -2.716   0.002 -32.751  1.00  0.00     0.167 HD
HETATM    6  C   UNL     1      -4.168   1.517 -32.426  1.00  0.00     0.041 A 
HETATM    7  C   UNL     1      -3.291   2.672 -32.127  1.00  0.00     0.071 C 
ENDROOT
BRANCH   1   8
HETATM    8  C   UNL     1      -6.548   2.460 -32.324  1.00  0.00     0.278 C 
HETATM    9  N   UNL     1      -7.101   2.808 -33.534  1.00  0.00    -0.304 N 
HETATM   10  H   UNL     1      -6.774   2.277 -34.330  1.00  0.00     0.171 HD
HETATM   11  O   UNL     1      -6.806   2.909 -31.214  1.00  0.00    -0.265 OA
BRANCH   9  12
HETATM   12  C   UNL     1      -8.008   3.817 -33.752  1.00  0.00     0.158 A 
HETATM   13  N   UNL     1      -7.684   5.064 -34.089  1.00  0.00    -0.156 NA
HETATM   14  N   UNL     1      -8.851   5.692 -34.249  1.00  0.00    -0.280 N 
HETATM   15  C   UNL     1      -9.938   4.898 -34.019  1.00  0.00     0.037 A 
HETATM   16  H   UNL     1      -8.830   6.668 -34.524  1.00  0.00     0.189 HD
HETATM   17  C   UNL     1      -9.425   3.660 -33.670  1.00  0.00     0.010 A 
HETATM   18  C   UNL     1     -10.196   2.444 -33.309  1.00  0.00     0.054 C 
BRANCH  15  19
HETATM   19  C   UNL     1     -11.329   5.407 -34.160  1.00  0.00     0.055 C 
HETATM   20  C   UNL     1     -11.998   4.863 -35.414  1.00  0.00     0.011 C 
ENDBRANCH  15  19
ENDBRANCH   9  12
ENDBRANCH   1   8
BRANCH   3  21
HETATM   21  C   UNL     1      -4.618  -1.986 -33.328  1.00  0.00     0.012 A 
HETATM   22  C   UNL     1      -5.543  -2.544 -34.223  1.00  0.00     0.039 A 
HETATM   23  C   UNL     1      -5.430  -3.876 -34.619  1.00  0.00     0.035 A 
HETATM   24 CL   UNL     1      -6.568  -4.538 -35.729  1.00  0.00    -0.084 Cl
HETATM   25  C   UNL     1      -4.402  -4.676 -34.126  1.00  0.00     0.024 A 
HETATM   26  C   UNL     1      -3.483  -4.139 -33.227  1.00  0.00     0.003 A 
HETATM   27  C   UNL     1      -3.590  -2.803 -32.829  1.00  0.00     0.015 A 
ENDBRANCH   3  21
TORSDOF 4
ENDMDL
MODEL 7
REMARK VINA RESULT:      -7.7      3.990      8.625
REMARK  4 active torsions:
REMARK  status: ('A' for Active; 'I' for Inactive)
REMARK    1  A    between atoms: C_2  and  C_3 
REMARK    2  A    between atoms: C_7  and  N_8 
REMARK       I    between atoms: N_8  and  C_9 
REMARK    3  A    between atoms: C_9  and  C_10 
REMARK    4  A    between atoms: C_12  and  C_13 
ROOT
HETATM    1  C   UNL     1      -5.489   2.467 -32.455  1.00  0.00     0.149 A 
HETATM    2  N   UNL     1      -4.719   3.398 -33.147  1.00  0.00    -0.223 NA
HETATM    3  C   UNL     1      -3.865   3.902 -32.274  1.00  0.00     0.139 A 
HETATM    4  N   UNL     1      -4.054   3.314 -31.043  1.00  0.00    -0.342 N 
HETATM    5  H   UNL     1      -3.547   3.544 -30.201  1.00  0.00     0.167 HD
HETATM    6  C   UNL     1      -5.078   2.407 -31.137  1.00  0.00     0.041 A 
HETATM    7  C   UNL     1      -5.555   1.602 -29.990  1.00  0.00     0.071 C 
ENDROOT
BRANCH   1   8
HETATM    8  C   UNL     1      -6.575   1.708 -33.094  1.00  0.00     0.278 C 
HETATM    9  N   UNL     1      -7.772   1.980 -32.474  1.00  0.00    -0.304 N 
HETATM   10  H   UNL     1      -7.730   2.663 -31.730  1.00  0.00     0.171 HD
HETATM   11  O   UNL     1      -6.365   0.966 -34.045  1.00  0.00    -0.265 OA
BRANCH   9  12
HETATM   12  C   UNL     1      -8.982   1.388 -32.748  1.00  0.00     0.158 A 
HETATM   13  N   UNL     1      -9.397   0.238 -32.220  1.00  0.00    -0.156 NA
HETATM   14  N   UNL     1     -10.626   0.058 -32.708  1.00  0.00    -0.280 N 
HETATM   15  C   UNL     1     -11.032   1.052 -33.553  1.00  0.00     0.037 A 
HETATM   16  H   UNL     1     -11.136  -0.768 -32.417  1.00  0.00     0.189 HD
HETATM   17  C   UNL     1      -9.970   1.938 -33.620  1.00  0.00     0.010 A 
HETATM   18  C   UNL     1      -9.900   3.188 -34.418  1.00  0.00     0.054 C 
BRANCH  15  19
HETATM   19  C   UNL     1     -12.377   1.043 -34.190  1.00  0.00     0.055 C 
HETATM   20  C   UNL     1     -13.214  -0.134 -33.710  1.00  0.00     0.011 C 
ENDBRANCH  15  19
ENDBRANCH   9  12
ENDBRANCH   1   8
BRANCH   3  21
HETATM   21  C   UNL     1      -2.887   4.963 -32.538  1.00  0.00     0.012 A 
HETATM   22  C   UNL     1      -1.727   5.033 -31.752  1.00  0.00     0.039 A 
HETATM   23  C   UNL     1      -0.770   6.019 -31.991  1.00  0.00     0.035 A 
HETATM   24 CL   UNL     1       0.653   6.082 -31.025  1.00  0.00    -0.084 Cl
HETATM   25  C   UNL     1      -0.955   6.953 -33.008  1.00  0.00     0.024 A 
HETATM   26  C   UNL     1      -2.108   6.902 -33.788  1.00  0.00     0.003 A 
HETATM   27  C   UNL     1      -3.070   5.914 -33.554  1.00  0.00     0.015 A 
ENDBRANCH   3  21
TORSDOF 4
ENDMDL
MODEL 8
REMARK VINA RESULT:      -7.5      4.625      6.734
REMARK  4 active torsions:
REMARK  status: ('A' for Active; 'I' for Inactive)
REMARK    1  A    between atoms: C_2  and  C_3 
REMARK    2  A    between atoms: C_7  and  N_8 
REMARK       I    between atoms: N_8  and  C_9 
REMARK    3  A    between atoms: C_9  and  C_10 
REMARK    4  A    between atoms: C_12  and  C_13 
ROOT
HETATM    1  C   UNL     1      -9.014   1.872 -33.720  1.00  0.00     0.149 A 
HETATM    2  N   UNL     1      -7.719   1.399 -33.908  1.00  0.00    -0.223 NA
HETATM    3  C   UNL     1      -7.794   0.079 -33.896  1.00  0.00     0.139 A 
HETATM    4  N   UNL     1      -9.102  -0.311 -33.717  1.00  0.00    -0.342 N 
HETATM    5  H   UNL     1      -9.423  -1.265 -33.644  1.00  0.00     0.167 HD
HETATM    6  C   UNL     1      -9.887   0.807 -33.600  1.00  0.00     0.041 A 
HETATM    7  C   UNL     1     -11.351   0.751 -33.384  1.00  0.00     0.071 C 
ENDROOT
BRANCH   1   8
HETATM    8  C   UNL     1      -9.330   3.307 -33.651  1.00  0.00     0.278 C 
HETATM    9  N   UNL     1      -9.979   3.705 -34.797  1.00  0.00    -0.304 N 
HETATM   10  H   UNL     1     -10.167   2.971 -35.466  1.00  0.00     0.171 HD
HETATM   11  O   UNL     1      -9.033   3.982 -32.674  1.00  0.00    -0.265 OA
BRANCH   9  12
HETATM   12  C   UNL     1     -10.348   4.989 -35.117  1.00  0.00     0.158 A 
HETATM   13  N   UNL     1      -9.503   5.947 -35.493  1.00  0.00    -0.156 NA
HETATM   14  N   UNL     1     -10.273   7.005 -35.752  1.00  0.00    -0.280 N 
HETATM   15  C   UNL     1     -11.605   6.778 -35.548  1.00  0.00     0.037 A 
HETATM   16  H   UNL     1      -9.821   7.854 -36.073  1.00  0.00     0.189 HD
HETATM   17  C   UNL     1     -11.694   5.467 -35.110  1.00  0.00     0.010 A 
HETATM   18  C   UNL     1     -12.929   4.733 -34.736  1.00  0.00     0.054 C 
BRANCH  15  19
HETATM   19  C   UNL     1     -12.630   7.828 -35.795  1.00  0.00     0.055 C 
HETATM   20  C   UNL     1     -12.103   9.214 -35.451  1.00  0.00     0.011 C 
ENDBRANCH  15  19
ENDBRANCH   9  12
ENDBRANCH   1   8
BRANCH   3  21
HETATM   21  C   UNL     1      -6.666  -0.850 -34.004  1.00  0.00     0.012 A 
HETATM   22  C   UNL     1      -6.877  -2.120 -34.562  1.00  0.00     0.039 A 
HETATM   23  C   UNL     1      -5.820  -3.019 -34.696  1.00  0.00     0.035 A 
HETATM   24 CL   UNL     1      -6.097  -4.567 -35.395  1.00  0.00    -0.084 Cl
HETATM   25  C   UNL     1      -4.539  -2.674 -34.270  1.00  0.00     0.024 A 
HETATM   26  C   UNL     1      -4.317  -1.421 -33.703  1.00  0.00     0.003 A 
HETATM   27  C   UNL     1      -5.373  -0.515 -33.569  1.00  0.00     0.015 A 
ENDBRANCH   3  21
TORSDOF 4
ENDMDL
MODEL 9
REMARK VINA RESULT:      -7.5     15.780     16.808
REMARK  4 active torsions:
REMARK  status: ('A' for Active; 'I' for Inactive)
REMARK    1  A    between atoms: C_2  and  C_3 
REMARK    2  A    between atoms: C_7  and  N_8 
REMARK       I    between atoms: N_8  and  C_9 
REMARK    3  A    between atoms: C_9  and  C_10 
REMARK    4  A    between atoms: C_12  and  C_13 
ROOT
HETATM    1  C   UNL     1      -5.518 -13.397 -37.269  1.00  0.00     0.149 A 
HETATM    2  N   UNL     1      -6.316 -13.289 -38.404  1.00  0.00    -0.223 NA
HETATM    3  C   UNL     1      -7.551 -13.567 -38.024  1.00  0.00     0.139 A 
HETATM    4  N   UNL     1      -7.573 -13.837 -36.674  1.00  0.00    -0.342 N 
HETATM    5  H   UNL     1      -8.390 -14.104 -36.145  1.00  0.00     0.167 HD
HETATM    6  C   UNL     1      -6.299 -13.739 -36.180  1.00  0.00     0.041 A 
HETATM    7  C   UNL     1      -5.959 -13.982 -34.760  1.00  0.00     0.071 C 
ENDROOT
BRANCH   1   8
HETATM    8  C   UNL     1      -4.063 -13.182 -37.301  1.00  0.00     0.278 C 
HETATM    9  N   UNL     1      -3.409 -14.384 -37.441  1.00  0.00    -0.304 N 
HETATM   10  H   UNL     1      -4.007 -15.195 -37.537  1.00  0.00     0.171 HD
HETATM   11  O   UNL     1      -3.579 -12.060 -37.219  1.00  0.00    -0.265 OA
BRANCH   9  12
HETATM   12  C   UNL     1      -2.048 -14.575 -37.424  1.00  0.00     0.158 A 
HETATM   13  N   UNL     1      -1.367 -15.062 -36.388  1.00  0.00    -0.156 NA
HETATM   14  N   UNL     1      -0.103 -15.129 -36.807  1.00  0.00    -0.280 N 
HETATM   15  C   UNL     1       0.075 -14.691 -38.089  1.00  0.00     0.037 A 
HETATM   16  H   UNL     1       0.592 -15.491 -36.164  1.00  0.00     0.189 HD
HETATM   17  C   UNL     1      -1.181 -14.300 -38.523  1.00  0.00     0.010 A 
HETATM   18  C   UNL     1      -1.529 -13.735 -39.851  1.00  0.00     0.054 C 
BRANCH  15  19
HETATM   19  C   UNL     1       1.409 -14.699 -38.746  1.00  0.00     0.055 C 
HETATM   20  C   UNL     1       1.897 -16.118 -39.002  1.00  0.00     0.011 C 
ENDBRANCH  15  19
ENDBRANCH   9  12
ENDBRANCH   1   8
BRANCH   3  21
HETATM   21  C   UNL     1      -8.728 -13.631 -38.896  1.00  0.00     0.012 A 
HETATM   22  C   UNL     1      -9.340 -12.437 -39.306  1.00  0.00     0.039 A 
HETATM   23  C   UNL     1     -10.449 -12.465 -40.151  1.00  0.00     0.035 A 
HETATM   24 CL   UNL     1     -11.179 -10.989 -40.654  1.00  0.00    -0.084 Cl
HETATM   25  C   UNL     1     -10.972 -13.678 -40.593  1.00  0.00     0.024 A 
HETATM   26  C   UNL     1     -10.381 -14.872 -40.184  1.00  0.00     0.003 A 
HETATM   27  C   UNL     1      -9.267 -14.849 -39.339  1.00  0.00     0.015 A 
ENDBRANCH   3  21
TORSDOF 4
ENDMDL
MODEL 10
REMARK VINA RESULT:      -7.3      3.149      3.936
REMARK  4 active torsions:
REMARK  status: ('A' for Active; 'I' for Inactive)
REMARK    1  A    between atoms: C_2  and  C_3 
REMARK    2  A    between atoms: C_7  and  N_8 
REMARK       I    between atoms: N_8  and  C_9 
REMARK    3  A    between atoms: C_9  and  C_10 
REMARK    4  A    between atoms: C_12  and  C_13 
ROOT
HETATM    1  C   UNL     1      -5.771   1.758 -32.337  1.00  0.00     0.149 A 
HETATM    2  N   UNL     1      -6.357   0.604 -32.848  1.00  0.00    -0.223 NA
HETATM    3  C   UNL     1      -5.371  -0.239 -33.099  1.00  0.00     0.139 A 
HETATM    4  N   UNL     1      -4.168   0.333 -32.752  1.00  0.00    -0.342 N 
HETATM    5  H   UNL     1      -3.262  -0.094 -32.870  1.00  0.00     0.167 HD
HETATM    6  C   UNL     1      -4.399   1.596 -32.271  1.00  0.00     0.041 A 
HETATM    7  C   UNL     1      -3.319   2.501 -31.818  1.00  0.00     0.071 C 
ENDROOT
BRANCH   1   8
HETATM    8  C   UNL     1      -6.556   2.943 -31.958  1.00  0.00     0.278 C 
HETATM    9  N   UNL     1      -6.386   3.942 -32.889  1.00  0.00    -0.304 N 
HETATM   10  H   UNL     1      -5.802   3.703 -33.679  1.00  0.00     0.171 HD
HETATM   11  O   UNL     1      -7.246   2.958 -30.947  1.00  0.00    -0.265 OA
BRANCH   9  12
HETATM   12  C   UNL     1      -6.898   5.215 -32.816  1.00  0.00     0.158 A 
HETATM   13  N   UNL     1      -8.045   5.600 -33.373  1.00  0.00    -0.156 NA
HETATM   14  N   UNL     1      -8.186   6.879 -33.022  1.00  0.00    -0.280 N 
HETATM   15  C   UNL     1      -7.160   7.355 -32.256  1.00  0.00     0.037 A 
HETATM   16  H   UNL     1      -9.016   7.369 -33.337  1.00  0.00     0.189 HD
HETATM   17  C   UNL     1      -6.281   6.294 -32.114  1.00  0.00     0.010 A 
HETATM   18  C   UNL     1      -4.993   6.295 -31.376  1.00  0.00     0.054 C 
BRANCH  15  19
HETATM   19  C   UNL     1      -7.138   8.754 -31.750  1.00  0.00     0.055 C 
HETATM   20  C   UNL     1      -7.891   8.883 -30.434  1.00  0.00     0.011 C 
ENDBRANCH  15  19
ENDBRANCH   9  12
ENDBRANCH   1   8
BRANCH   3  21
HETATM   21  C   UNL     1      -5.506  -1.569 -33.701  1.00  0.00     0.012 A 
HETATM   22  C   UNL     1      -4.430  -2.466 -33.625  1.00  0.00     0.039 A 
HETATM   23  C   UNL     1      -4.535  -3.745 -34.171  1.00  0.00     0.035 A 
HETATM   24 CL   UNL     1      -3.209  -4.836 -34.056  1.00  0.00    -0.084 Cl
HETATM   25  C   UNL     1      -5.706  -4.148 -34.808  1.00  0.00     0.024 A 
HETATM   26  C   UNL     1      -6.778  -3.264 -34.903  1.00  0.00     0.003 A 
HETATM   27  C   UNL     1      -6.679  -1.981 -34.354  1.00  0.00     0.015 A 
ENDBRANCH   3  21
TORSDOF 4
ENDMDL
