MODEL 1
REMARK VINA RESULT:      -8.2      0.000      0.000
REMARK  5 active torsions:
REMARK  status: ('A' for Active; 'I' for Inactive)
REMARK    1  A    between atoms: C_8  and  N_9 
REMARK       I    between atoms: N_9  and  C_10 
REMARK       I    between atoms: C_10  and  N_11 
REMARK    2  A    between atoms: N_11  and  C_12 
REMARK    3  A    between atoms: C_13  and  O_14 
REMARK    4  A    between atoms: O_14  and  C_15 
REMARK    5  A    between atoms: C_15  and  C_16 
ROOT
HETATM    1  N   UNL     1     -10.271   1.309 -34.632  1.00  0.00    -0.305 N 
HETATM    2  C   UNL     1      -9.407   1.089 -33.575  1.00  0.00     0.325 C 
HETATM    3  N   UNL     1      -8.202   0.592 -34.039  1.00  0.00    -0.306 N 
HETATM    4  O   UNL     1      -9.660   1.305 -32.398  1.00  0.00    -0.247 OA
HETATM    5  H   UNL     1      -9.841   1.448 -35.534  1.00  0.00     0.171 HD
HETATM    6  H   UNL     1      -8.208   0.187 -34.967  1.00  0.00     0.171 HD
ENDROOT
BRANCH   3   7
HETATM    7  C   UNL     1      -7.018   0.364 -33.302  1.00  0.00     0.071 A 
HETATM    8  C   UNL     1      -6.494  -0.942 -33.316  1.00  0.00     0.096 A 
HETATM    9  C   UNL     1      -5.301  -1.244 -32.655  1.00  0.00     0.041 A 
HETATM   10  C   UNL     1      -4.639  -0.244 -31.944  1.00  0.00     0.026 A 
HETATM   11  C   UNL     1      -5.164   1.048 -31.912  1.00  0.00     0.036 A 
HETATM   12 CL   UNL     1      -4.331   2.276 -31.038  1.00  0.00    -0.084 Cl
HETATM   13  C   UNL     1      -6.346   1.359 -32.589  1.00  0.00     0.056 A 
BRANCH   8  14
HETATM   14  O   UNL     1      -7.170  -1.892 -34.044  1.00  0.00    -0.340 OA
BRANCH  14  15
HETATM   15  C   UNL     1      -6.280  -2.705 -34.835  1.00  0.00     0.293 C 
BRANCH  15  16
HETATM   16  C   UNL     1      -6.704  -4.162 -34.756  1.00  0.00     0.408 C 
HETATM   17  F   UNL     1      -7.088  -4.627 -35.967  1.00  0.00    -0.169 F 
HETATM   18  F   UNL     1      -5.701  -4.950 -34.310  1.00  0.00    -0.169 F 
HETATM   19  F   UNL     1      -7.748  -4.312 -33.910  1.00  0.00    -0.169 F 
ENDBRANCH  15  16
ENDBRANCH  14  15
ENDBRANCH   8  14
ENDBRANCH   3   7
BRANCH   1  20
HETATM   20  C   UNL     1     -11.610   1.650 -34.543  1.00  0.00     0.086 A 
HETATM   21  C   UNL     1     -12.085   2.874 -34.977  1.00  0.00     0.052 A 
HETATM   22  C   UNL     1     -11.417   4.056 -35.569  1.00  0.00     0.072 C 
HETATM   23  N   UNL     1     -13.430   2.856 -34.742  1.00  0.00    -0.280 N 
HETATM   24  H   UNL     1     -14.108   3.588 -34.922  1.00  0.00     0.189 HD
HETATM   25  N   UNL     1     -13.873   1.709 -34.219  1.00  0.00    -0.177 NA
HETATM   26  C   UNL     1     -12.770   0.953 -34.095  1.00  0.00     0.079 A 
HETATM   27  C   UNL     1     -12.924  -0.433 -33.585  1.00  0.00     0.075 C 
ENDBRANCH   1  20
TORSDOF 5
ENDMDL
MODEL 2
REMARK VINA RESULT:      -7.9      3.236      4.128
REMARK  5 active torsions:
REMARK  status: ('A' for Active; 'I' for Inactive)
REMARK    1  A    between atoms: C_8  and  N_9 
REMARK       I    between atoms: N_9  and  C_10 
REMARK       I    between atoms: C_10  and  N_11 
REMARK    2  A    between atoms: N_11  and  C_12 
REMARK    3  A    between atoms: C_13  and  O_14 
REMARK    4  A    between atoms: O_14  and  C_15 
REMARK    5  A    between atoms: C_15  and  C_16 
ROOT
HETATM    1  N   UNL     1      -9.267   1.810 -33.866  1.00  0.00    -0.305 N 
HETATM    2  C   UNL     1      -8.716   0.562 -33.638  1.00  0.00     0.325 C 
HETATM    3  N   UNL     1      -7.563   0.406 -34.386  1.00  0.00    -0.306 N 
HETATM    4  O   UNL     1      -9.171  -0.284 -32.881  1.00  0.00    -0.247 OA
HETATM    5  H   UNL     1      -8.632   2.521 -34.196  1.00  0.00     0.171 HD
HETATM    6  H   UNL     1      -7.446   1.032 -35.173  1.00  0.00     0.171 HD
ENDROOT
BRANCH   3   7
HETATM    7  C   UNL     1      -6.638  -0.661 -34.338  1.00  0.00     0.071 A 
HETATM    8  C   UNL     1      -5.431  -0.434 -33.650  1.00  0.00     0.096 A 
HETATM    9  C   UNL     1      -4.482  -1.449 -33.511  1.00  0.00     0.041 A 
HETATM   10  C   UNL     1      -4.720  -2.695 -34.091  1.00  0.00     0.026 A 
HETATM   11  C   UNL     1      -5.906  -2.919 -34.790  1.00  0.00     0.036 A 
HETATM   12 CL   UNL     1      -6.191  -4.464 -35.494  1.00  0.00    -0.084 Cl
HETATM   13  C   UNL     1      -6.866  -1.913 -34.913  1.00  0.00     0.056 A 
BRANCH   8  14
HETATM   14  O   UNL     1      -5.246   0.802 -33.078  1.00  0.00    -0.340 OA
BRANCH  14  15
HETATM   15  C   UNL     1      -4.781   0.707 -31.717  1.00  0.00     0.293 C 
BRANCH  15  16
HETATM   16  C   UNL     1      -5.967   0.641 -30.769  1.00  0.00     0.408 C 
HETATM   17  F   UNL     1      -6.917   1.542 -31.107  1.00  0.00    -0.169 F 
HETATM   18  F   UNL     1      -6.540  -0.583 -30.771  1.00  0.00    -0.169 F 
HETATM   19  F   UNL     1      -5.582   0.908 -29.501  1.00  0.00    -0.169 F 
ENDBRANCH  15  16
ENDBRANCH  14  15
ENDBRANCH   8  14
ENDBRANCH   3   7
BRANCH   1  20
HETATM   20  C   UNL     1     -10.498   2.260 -33.419  1.00  0.00     0.086 A 
HETATM   21  C   UNL     1     -10.632   2.993 -32.255  1.00  0.00     0.052 A 
HETATM   22  C   UNL     1      -9.654   3.450 -31.240  1.00  0.00     0.072 C 
HETATM   23  N   UNL     1     -11.965   3.264 -32.136  1.00  0.00    -0.280 N 
HETATM   24  H   UNL     1     -12.438   3.772 -31.398  1.00  0.00     0.189 HD
HETATM   25  N   UNL     1     -12.704   2.793 -33.144  1.00  0.00    -0.177 NA
HETATM   26  C   UNL     1     -11.820   2.178 -33.946  1.00  0.00     0.079 A 
HETATM   27  C   UNL     1     -12.318   1.584 -35.213  1.00  0.00     0.075 C 
ENDBRANCH   1  20
TORSDOF 5
ENDMDL
MODEL 3
REMARK VINA RESULT:      -7.8      3.244      4.398
REMARK  5 active torsions:
REMARK  status: ('A' for Active; 'I' for Inactive)
REMARK    1  A    between atoms: C_8  and  N_9 
REMARK       I    between atoms: N_9  and  C_10 
REMARK       I    between atoms: C_10  and  N_11 
REMARK    2  A    between atoms: N_11  and  C_12 
REMARK    3  A    between atoms: C_13  and  O_14 
REMARK    4  A    between atoms: O_14  and  C_15 
REMARK    5  A    between atoms: C_15  and  C_16 
ROOT
HETATM    1  N   UNL     1      -9.735   0.928 -33.358  1.00  0.00    -0.305 N 
HETATM    2  C   UNL     1      -8.702   0.378 -34.093  1.00  0.00     0.325 C 
HETATM    3  N   UNL     1      -7.901  -0.403 -33.279  1.00  0.00    -0.306 N 
HETATM    4  O   UNL     1      -8.518   0.546 -35.291  1.00  0.00    -0.247 OA
HETATM    5  H   UNL     1      -9.989   0.438 -32.514  1.00  0.00     0.171 HD
HETATM    6  H   UNL     1      -7.972  -0.238 -32.283  1.00  0.00     0.171 HD
ENDROOT
BRANCH   3   7
HETATM    7  C   UNL     1      -6.828  -1.239 -33.665  1.00  0.00     0.071 A 
HETATM    8  C   UNL     1      -5.533  -0.836 -33.289  1.00  0.00     0.096 A 
HETATM    9  C   UNL     1      -4.421  -1.627 -33.586  1.00  0.00     0.041 A 
HETATM   10  C   UNL     1      -4.594  -2.816 -34.294  1.00  0.00     0.026 A 
HETATM   11  C   UNL     1      -5.874  -3.209 -34.686  1.00  0.00     0.036 A 
HETATM   12 CL   UNL     1      -6.075  -4.684 -35.552  1.00  0.00    -0.084 Cl
HETATM   13  C   UNL     1      -6.990  -2.432 -34.372  1.00  0.00     0.056 A 
BRANCH   8  14
HETATM   14  O   UNL     1      -5.410   0.333 -32.576  1.00  0.00    -0.340 OA
BRANCH  14  15
HETATM   15  C   UNL     1      -4.920   0.106 -31.240  1.00  0.00     0.293 C 
BRANCH  15  16
HETATM   16  C   UNL     1      -6.020   0.390 -30.231  1.00  0.00     0.408 C 
HETATM   17  F   UNL     1      -5.520   0.499 -28.978  1.00  0.00    -0.169 F 
HETATM   18  F   UNL     1      -6.674   1.537 -30.515  1.00  0.00    -0.169 F 
HETATM   19  F   UNL     1      -6.931  -0.608 -30.222  1.00  0.00    -0.169 F 
ENDBRANCH  15  16
ENDBRANCH  14  15
ENDBRANCH   8  14
ENDBRANCH   3   7
BRANCH   1  20
HETATM   20  C   UNL     1     -10.638   1.883 -33.795  1.00  0.00     0.086 A 
HETATM   21  C   UNL     1     -11.987   1.610 -33.929  1.00  0.00     0.052 A 
HETATM   22  C   UNL     1     -12.788   0.384 -33.707  1.00  0.00     0.072 C 
HETATM   23  N   UNL     1     -12.560   2.769 -34.368  1.00  0.00    -0.280 N 
HETATM   24  H   UNL     1     -13.534   2.943 -34.590  1.00  0.00     0.189 HD
HETATM   25  N   UNL     1     -11.699   3.782 -34.501  1.00  0.00    -0.177 NA
HETATM   26  C   UNL     1     -10.514   3.259 -34.148  1.00  0.00     0.079 A 
HETATM   27  C   UNL     1      -9.329   4.155 -34.131  1.00  0.00     0.075 C 
ENDBRANCH   1  20
TORSDOF 5
ENDMDL
MODEL 4
REMARK VINA RESULT:      -7.5      3.605      4.629
REMARK  5 active torsions:
REMARK  status: ('A' for Active; 'I' for Inactive)
REMARK    1  A    between atoms: C_8  and  N_9 
REMARK       I    between atoms: N_9  and  C_10 
REMARK       I    between atoms: C_10  and  N_11 
REMARK    2  A    between atoms: N_11  and  C_12 
REMARK    3  A    between atoms: C_13  and  O_14 
REMARK    4  A    between atoms: O_14  and  C_15 
REMARK    5  A    between atoms: C_15  and  C_16 
ROOT
HETATM    1  N   UNL     1     -10.716   0.903 -33.051  1.00  0.00    -0.305 N 
HETATM    2  C   UNL     1      -9.514   0.708 -33.706  1.00  0.00     0.325 C 
HETATM    3  N   UNL     1      -8.651  -0.023 -32.909  1.00  0.00    -0.306 N 
HETATM    4  O   UNL     1      -9.246   1.111 -34.829  1.00  0.00    -0.247 OA
HETATM    5  H   UNL     1     -10.942   0.236 -32.330  1.00  0.00     0.171 HD
HETATM    6  H   UNL     1      -8.862  -0.048 -31.919  1.00  0.00     0.171 HD
ENDROOT
BRANCH   3   7
HETATM    7  C   UNL     1      -7.385  -0.547 -33.257  1.00  0.00     0.071 A 
HETATM    8  C   UNL     1      -6.253   0.141 -32.782  1.00  0.00     0.096 A 
HETATM    9  C   UNL     1      -4.965  -0.335 -33.037  1.00  0.00     0.041 A 
HETATM   10  C   UNL     1      -4.799  -1.489 -33.802  1.00  0.00     0.026 A 
HETATM   11  C   UNL     1      -5.917  -2.163 -34.291  1.00  0.00     0.036 A 
HETATM   12 CL   UNL     1      -5.698  -3.592 -35.227  1.00  0.00    -0.084 Cl
HETATM   13  C   UNL     1      -7.207  -1.702 -34.020  1.00  0.00     0.056 A 
BRANCH   8  14
HETATM   14  O   UNL     1      -6.463   1.263 -32.016  1.00  0.00    -0.340 OA
BRANCH  14  15
HETATM   15  C   UNL     1      -6.000   2.462 -32.669  1.00  0.00     0.293 C 
BRANCH  15  16
HETATM   16  C   UNL     1      -7.114   3.494 -32.705  1.00  0.00     0.408 C 
HETATM   17  F   UNL     1      -7.579   3.669 -33.964  1.00  0.00    -0.169 F 
HETATM   18  F   UNL     1      -8.157   3.130 -31.927  1.00  0.00    -0.169 F 
HETATM   19  F   UNL     1      -6.672   4.692 -32.262  1.00  0.00    -0.169 F 
ENDBRANCH  15  16
ENDBRANCH  14  15
ENDBRANCH   8  14
ENDBRANCH   3   7
BRANCH   1  20
HETATM   20  C   UNL     1     -11.757   1.717 -33.467  1.00  0.00     0.086 A 
HETATM   21  C   UNL     1     -13.014   1.214 -33.747  1.00  0.00     0.052 A 
HETATM   22  C   UNL     1     -13.573  -0.157 -33.720  1.00  0.00     0.072 C 
HETATM   23  N   UNL     1     -13.771   2.289 -34.116  1.00  0.00    -0.280 N 
HETATM   24  H   UNL     1     -14.743   2.302 -34.404  1.00  0.00     0.189 HD
HETATM   25  N   UNL     1     -13.117   3.453 -34.071  1.00  0.00    -0.177 NA
HETATM   26  C   UNL     1     -11.880   3.123 -33.669  1.00  0.00     0.079 A 
HETATM   27  C   UNL     1     -10.897   4.216 -33.459  1.00  0.00     0.075 C 
ENDBRANCH   1  20
TORSDOF 5
ENDMDL
MODEL 5
REMARK VINA RESULT:      -7.3      3.872      4.772
REMARK  5 active torsions:
REMARK  status: ('A' for Active; 'I' for Inactive)
REMARK    1  A    between atoms: C_8  and  N_9 
REMARK       I    between atoms: N_9  and  C_10 
REMARK       I    between atoms: C_10  and  N_11 
REMARK    2  A    between atoms: N_11  and  C_12 
REMARK    3  A    between atoms: C_13  and  O_14 
REMARK    4  A    between atoms: O_14  and  C_15 
REMARK    5  A    between atoms: C_15  and  C_16 
ROOT
HETATM    1  N   UNL     1      -9.265   1.891 -33.753  1.00  0.00    -0.305 N 
HETATM    2  C   UNL     1      -8.608   0.734 -33.380  1.00  0.00     0.325 C 
HETATM    3  N   UNL     1      -7.709   0.359 -34.363  1.00  0.00    -0.306 N 
HETATM    4  O   UNL     1      -8.783   0.127 -32.333  1.00  0.00    -0.247 OA
HETATM    5  H   UNL     1      -8.789   2.476 -34.424  1.00  0.00     0.171 HD
HETATM    6  H   UNL     1      -7.854   0.754 -35.284  1.00  0.00     0.171 HD
ENDROOT
BRANCH   3   7
HETATM    7  C   UNL     1      -6.753  -0.681 -34.310  1.00  0.00     0.071 A 
HETATM    8  C   UNL     1      -5.496  -0.371 -33.760  1.00  0.00     0.096 A 
HETATM    9  C   UNL     1      -4.510  -1.351 -33.624  1.00  0.00     0.041 A 
HETATM   10  C   UNL     1      -4.765  -2.647 -34.072  1.00  0.00     0.026 A 
HETATM   11  C   UNL     1      -6.003  -2.955 -34.636  1.00  0.00     0.036 A 
HETATM   12 CL   UNL     1      -6.308  -4.561 -35.176  1.00  0.00    -0.084 Cl
HETATM   13  C   UNL     1      -6.999  -1.983 -34.754  1.00  0.00     0.056 A 
BRANCH   8  14
HETATM   14  O   UNL     1      -5.294   0.913 -33.315  1.00  0.00    -0.340 OA
BRANCH  14  15
HETATM   15  C   UNL     1      -4.114   1.026 -32.495  1.00  0.00     0.293 C 
BRANCH  15  16
HETATM   16  C   UNL     1      -3.851   2.486 -32.165  1.00  0.00     0.408 C 
HETATM   17  F   UNL     1      -3.578   2.650 -30.850  1.00  0.00    -0.169 F 
HETATM   18  F   UNL     1      -2.806   2.976 -32.868  1.00  0.00    -0.169 F 
HETATM   19  F   UNL     1      -4.931   3.245 -32.457  1.00  0.00    -0.169 F 
ENDBRANCH  15  16
ENDBRANCH  14  15
ENDBRANCH   8  14
ENDBRANCH   3   7
BRANCH   1  20
HETATM   20  C   UNL     1     -10.339   2.474 -33.102  1.00  0.00     0.086 A 
HETATM   21  C   UNL     1     -11.647   2.199 -33.454  1.00  0.00     0.052 A 
HETATM   22  C   UNL     1     -12.243   1.337 -34.502  1.00  0.00     0.072 C 
HETATM   23  N   UNL     1     -12.424   2.936 -32.607  1.00  0.00    -0.280 N 
HETATM   24  H   UNL     1     -13.436   2.998 -32.577  1.00  0.00     0.189 HD
HETATM   25  N   UNL     1     -11.729   3.645 -31.714  1.00  0.00    -0.177 NA
HETATM   26  C   UNL     1     -10.446   3.370 -31.998  1.00  0.00     0.079 A 
HETATM   27  C   UNL     1      -9.394   3.967 -31.136  1.00  0.00     0.075 C 
ENDBRANCH   1  20
TORSDOF 5
ENDMDL
MODEL 6
REMARK VINA RESULT:      -7.2      4.021      7.220
REMARK  5 active torsions:
REMARK  status: ('A' for Active; 'I' for Inactive)
REMARK    1  A    between atoms: C_8  and  N_9 
REMARK       I    between atoms: N_9  and  C_10 
REMARK       I    between atoms: C_10  and  N_11 
REMARK    2  A    between atoms: N_11  and  C_12 
REMARK    3  A    between atoms: C_13  and  O_14 
REMARK    4  A    between atoms: O_14  and  C_15 
REMARK    5  A    between atoms: C_15  and  C_16 
ROOT
HETATM    1  N   UNL     1      -7.074  -0.612 -32.935  1.00  0.00    -0.305 N 
HETATM    2  C   UNL     1      -8.132  -0.079 -33.647  1.00  0.00     0.325 C 
HETATM    3  N   UNL     1      -9.134   0.323 -32.781  1.00  0.00    -0.306 N 
HETATM    4  O   UNL     1      -8.182   0.032 -34.864  1.00  0.00    -0.247 OA
HETATM    5  H   UNL     1      -6.991  -0.316 -31.975  1.00  0.00     0.171 HD
HETATM    6  H   UNL     1      -9.113  -0.073 -31.850  1.00  0.00     0.171 HD
ENDROOT
BRANCH   3   7
HETATM    7  C   UNL     1     -10.314   1.034 -33.094  1.00  0.00     0.071 A 
HETATM    8  C   UNL     1     -10.256   2.439 -33.023  1.00  0.00     0.096 A 
HETATM    9  C   UNL     1     -11.362   3.221 -33.363  1.00  0.00     0.041 A 
HETATM   10  C   UNL     1     -12.550   2.600 -33.746  1.00  0.00     0.026 A 
HETATM   11  C   UNL     1     -12.619   1.208 -33.800  1.00  0.00     0.036 A 
HETATM   12 CL   UNL     1     -14.089   0.454 -34.284  1.00  0.00    -0.084 Cl
HETATM   13  C   UNL     1     -11.509   0.423 -33.481  1.00  0.00     0.056 A 
BRANCH   8  14
HETATM   14  O   UNL     1      -9.060   3.010 -32.659  1.00  0.00    -0.340 OA
BRANCH  14  15
HETATM   15  C   UNL     1      -8.358   3.569 -33.787  1.00  0.00     0.293 C 
BRANCH  15  16
HETATM   16  C   UNL     1      -6.860   3.391 -33.603  1.00  0.00     0.408 C 
HETATM   17  F   UNL     1      -6.211   4.575 -33.696  1.00  0.00    -0.169 F 
HETATM   18  F   UNL     1      -6.565   2.852 -32.400  1.00  0.00    -0.169 F 
HETATM   19  F   UNL     1      -6.355   2.572 -34.553  1.00  0.00    -0.169 F 
ENDBRANCH  15  16
ENDBRANCH  14  15
ENDBRANCH   8  14
ENDBRANCH   3   7
BRANCH   1  20
HETATM   20  C   UNL     1      -5.969  -1.259 -33.464  1.00  0.00     0.086 A 
HETATM   21  C   UNL     1      -4.682  -0.801 -33.254  1.00  0.00     0.052 A 
HETATM   22  C   UNL     1      -4.140   0.368 -32.522  1.00  0.00     0.072 C 
HETATM   23  N   UNL     1      -3.863  -1.676 -33.909  1.00  0.00    -0.280 N 
HETATM   24  H   UNL     1      -2.853  -1.653 -33.986  1.00  0.00     0.189 HD
HETATM   25  N   UNL     1      -4.512  -2.681 -34.504  1.00  0.00    -0.177 NA
HETATM   26  C   UNL     1      -5.806  -2.446 -34.237  1.00  0.00     0.079 A 
HETATM   27  C   UNL     1      -6.811  -3.429 -34.717  1.00  0.00     0.075 C 
ENDBRANCH   1  20
TORSDOF 5
ENDMDL
MODEL 7
REMARK VINA RESULT:      -7.2      3.594      6.642
REMARK  5 active torsions:
REMARK  status: ('A' for Active; 'I' for Inactive)
REMARK    1  A    between atoms: C_8  and  N_9 
REMARK       I    between atoms: N_9  and  C_10 
REMARK       I    between atoms: C_10  and  N_11 
REMARK    2  A    between atoms: N_11  and  C_12 
REMARK    3  A    between atoms: C_13  and  O_14 
REMARK    4  A    between atoms: O_14  and  C_15 
REMARK    5  A    between atoms: C_15  and  C_16 
ROOT
HETATM    1  N   UNL     1      -5.340  -0.035 -33.307  1.00  0.00    -0.305 N 
HETATM    2  C   UNL     1      -6.095   0.497 -32.278  1.00  0.00     0.325 C 
HETATM    3  N   UNL     1      -6.354   1.834 -32.519  1.00  0.00    -0.306 N 
HETATM    4  O   UNL     1      -6.488  -0.120 -31.298  1.00  0.00    -0.247 OA
HETATM    5  H   UNL     1      -5.400   0.442 -34.194  1.00  0.00     0.171 HD
HETATM    6  H   UNL     1      -5.752   2.298 -33.189  1.00  0.00     0.171 HD
ENDROOT
BRANCH   3   7
HETATM    7  C   UNL     1      -7.197   2.699 -31.785  1.00  0.00     0.071 A 
HETATM    8  C   UNL     1      -8.519   2.850 -32.245  1.00  0.00     0.096 A 
HETATM    9  C   UNL     1      -9.433   3.646 -31.552  1.00  0.00     0.041 A 
HETATM   10  C   UNL     1      -9.021   4.326 -30.406  1.00  0.00     0.026 A 
HETATM   11  C   UNL     1      -7.707   4.194 -29.957  1.00  0.00     0.036 A 
HETATM   12 CL   UNL     1      -7.214   5.031 -28.536  1.00  0.00    -0.084 Cl
HETATM   13  C   UNL     1      -6.796   3.383 -30.636  1.00  0.00     0.056 A 
BRANCH   8  14
HETATM   14  O   UNL     1      -8.888   2.147 -33.367  1.00  0.00    -0.340 OA
BRANCH  14  15
HETATM   15  C   UNL     1     -10.139   1.454 -33.188  1.00  0.00     0.293 C 
BRANCH  15  16
HETATM   16  C   UNL     1      -9.881   0.043 -32.688  1.00  0.00     0.408 C 
HETATM   17  F   UNL     1      -8.899  -0.558 -33.400  1.00  0.00    -0.169 F 
HETATM   18  F   UNL     1      -9.513   0.033 -31.388  1.00  0.00    -0.169 F 
HETATM   19  F   UNL     1     -10.993  -0.717 -32.803  1.00  0.00    -0.169 F 
ENDBRANCH  15  16
ENDBRANCH  14  15
ENDBRANCH   8  14
ENDBRANCH   3   7
BRANCH   1  20
HETATM   20  C   UNL     1      -4.760  -1.292 -33.338  1.00  0.00     0.086 A 
HETATM   21  C   UNL     1      -3.650  -1.606 -32.575  1.00  0.00     0.052 A 
HETATM   22  C   UNL     1      -2.826  -0.815 -31.633  1.00  0.00     0.072 C 
HETATM   23  N   UNL     1      -3.365  -2.912 -32.853  1.00  0.00    -0.280 N 
HETATM   24  H   UNL     1      -2.609  -3.480 -32.487  1.00  0.00     0.189 HD
HETATM   25  N   UNL     1      -4.216  -3.481 -33.711  1.00  0.00    -0.177 NA
HETATM   26  C   UNL     1      -5.083  -2.504 -34.016  1.00  0.00     0.079 A 
HETATM   27  C   UNL     1      -6.214  -2.828 -34.923  1.00  0.00     0.075 C 
ENDBRANCH   1  20
TORSDOF 5
ENDMDL
MODEL 8
REMARK VINA RESULT:      -7.1      4.324      7.654
REMARK  5 active torsions:
REMARK  status: ('A' for Active; 'I' for Inactive)
REMARK    1  A    between atoms: C_8  and  N_9 
REMARK       I    between atoms: N_9  and  C_10 
REMARK       I    between atoms: C_10  and  N_11 
REMARK    2  A    between atoms: N_11  and  C_12 
REMARK    3  A    between atoms: C_13  and  O_14 
REMARK    4  A    between atoms: O_14  and  C_15 
REMARK    5  A    between atoms: C_15  and  C_16 
ROOT
HETATM    1  N   UNL     1      -5.029  -1.232 -33.898  1.00  0.00    -0.305 N 
HETATM    2  C   UNL     1      -6.028  -0.452 -33.346  1.00  0.00     0.325 C 
HETATM    3  N   UNL     1      -6.479   0.471 -34.272  1.00  0.00    -0.306 N 
HETATM    4  O   UNL     1      -6.462  -0.560 -32.207  1.00  0.00    -0.247 OA
HETATM    5  H   UNL     1      -5.025  -1.301 -34.904  1.00  0.00     0.171 HD
HETATM    6  H   UNL     1      -5.867   0.660 -35.057  1.00  0.00     0.171 HD
ENDROOT
BRANCH   3   7
HETATM    7  C   UNL     1      -7.574   1.355 -34.151  1.00  0.00     0.071 A 
HETATM    8  C   UNL     1      -7.286   2.692 -33.817  1.00  0.00     0.096 A 
HETATM    9  C   UNL     1      -8.304   3.644 -33.725  1.00  0.00     0.041 A 
HETATM   10  C   UNL     1      -9.627   3.256 -33.933  1.00  0.00     0.026 A 
HETATM   11  C   UNL     1      -9.919   1.929 -34.245  1.00  0.00     0.036 A 
HETATM   12 CL   UNL     1     -11.557   1.465 -34.509  1.00  0.00    -0.084 Cl
HETATM   13  C   UNL     1      -8.903   0.978 -34.359  1.00  0.00     0.056 A 
BRANCH   8  14
HETATM   14  O   UNL     1      -5.967   3.035 -33.639  1.00  0.00    -0.340 OA
BRANCH  14  15
HETATM   15  C   UNL     1      -5.689   3.442 -32.285  1.00  0.00     0.293 C 
BRANCH  15  16
HETATM   16  C   UNL     1      -4.518   2.644 -31.735  1.00  0.00     0.408 C 
HETATM   17  F   UNL     1      -4.933   1.718 -30.841  1.00  0.00    -0.169 F 
HETATM   18  F   UNL     1      -3.849   2.000 -32.716  1.00  0.00    -0.169 F 
HETATM   19  F   UNL     1      -3.639   3.456 -31.107  1.00  0.00    -0.169 F 
ENDBRANCH  15  16
ENDBRANCH  14  15
ENDBRANCH   8  14
ENDBRANCH   3   7
BRANCH   1  20
HETATM   20  C   UNL     1      -4.235  -2.149 -33.228  1.00  0.00     0.086 A 
HETATM   21  C   UNL     1      -4.216  -3.488 -33.567  1.00  0.00     0.052 A 
HETATM   22  C   UNL     1      -4.945  -4.274 -34.591  1.00  0.00     0.072 C 
HETATM   23  N   UNL     1      -3.330  -4.077 -32.712  1.00  0.00    -0.280 N 
HETATM   24  H   UNL     1      -3.067  -5.055 -32.655  1.00  0.00     0.189 HD
HETATM   25  N   UNL     1      -2.749  -3.224 -31.863  1.00  0.00    -0.177 NA
HETATM   26  C   UNL     1      -3.288  -2.034 -32.168  1.00  0.00     0.079 A 
HETATM   27  C   UNL     1      -2.806  -0.837 -31.432  1.00  0.00     0.075 C 
ENDBRANCH   1  20
TORSDOF 5
ENDMDL
MODEL 9
REMARK VINA RESULT:      -7.1      4.266      7.504
REMARK  5 active torsions:
REMARK  status: ('A' for Active; 'I' for Inactive)
REMARK    1  A    between atoms: C_8  and  N_9 
REMARK       I    between atoms: N_9  and  C_10 
REMARK       I    between atoms: C_10  and  N_11 
REMARK    2  A    between atoms: N_11  and  C_12 
REMARK    3  A    between atoms: C_13  and  O_14 
REMARK    4  A    between atoms: O_14  and  C_15 
REMARK    5  A    between atoms: C_15  and  C_16 
ROOT
HETATM    1  N   UNL     1      -7.217  -0.496 -32.957  1.00  0.00    -0.305 N 
HETATM    2  C   UNL     1      -8.247   0.038 -33.708  1.00  0.00     0.325 C 
HETATM    3  N   UNL     1      -9.288   0.424 -32.883  1.00  0.00    -0.306 N 
HETATM    4  O   UNL     1      -8.244   0.163 -34.925  1.00  0.00    -0.247 OA
HETATM    5  H   UNL     1      -7.178  -0.209 -31.991  1.00  0.00     0.171 HD
HETATM    6  H   UNL     1      -9.305   0.017 -31.956  1.00  0.00     0.171 HD
ENDROOT
BRANCH   3   7
HETATM    7  C   UNL     1     -10.459   1.131 -33.240  1.00  0.00     0.071 A 
HETATM    8  C   UNL     1     -10.377   2.535 -33.275  1.00  0.00     0.096 A 
HETATM    9  C   UNL     1     -11.472   3.310 -33.665  1.00  0.00     0.041 A 
HETATM   10  C   UNL     1     -12.673   2.683 -33.992  1.00  0.00     0.026 A 
HETATM   11  C   UNL     1     -12.766   1.292 -33.940  1.00  0.00     0.036 A 
HETATM   12 CL   UNL     1     -14.253   0.530 -34.356  1.00  0.00    -0.084 Cl
HETATM   13  C   UNL     1     -11.667   0.513 -33.571  1.00  0.00     0.056 A 
BRANCH   8  14
HETATM   14  O   UNL     1      -9.168   3.110 -32.963  1.00  0.00    -0.340 OA
BRANCH  14  15
HETATM   15  C   UNL     1      -9.283   4.078 -31.901  1.00  0.00     0.293 C 
BRANCH  15  16
HETATM   16  C   UNL     1      -8.985   3.417 -30.565  1.00  0.00     0.408 C 
HETATM   17  F   UNL     1     -10.102   2.883 -30.022  1.00  0.00    -0.169 F 
HETATM   18  F   UNL     1      -8.074   2.427 -30.691  1.00  0.00    -0.169 F 
HETATM   19  F   UNL     1      -8.491   4.317 -29.686  1.00  0.00    -0.169 F 
ENDBRANCH  15  16
ENDBRANCH  14  15
ENDBRANCH   8  14
ENDBRANCH   3   7
BRANCH   1  20
HETATM   20  C   UNL     1      -6.085  -1.128 -33.444  1.00  0.00     0.086 A 
HETATM   21  C   UNL     1      -4.813  -0.644 -33.202  1.00  0.00     0.052 A 
HETATM   22  C   UNL     1      -4.315   0.545 -32.471  1.00  0.00     0.072 C 
HETATM   23  N   UNL     1      -3.960  -1.513 -33.820  1.00  0.00    -0.280 N 
HETATM   24  H   UNL     1      -2.948  -1.471 -33.868  1.00  0.00     0.189 HD
HETATM   25  N   UNL     1      -4.572  -2.538 -34.419  1.00  0.00    -0.177 NA
HETATM   26  C   UNL     1      -5.878  -2.323 -34.195  1.00  0.00     0.079 A 
HETATM   27  C   UNL     1      -6.850  -3.331 -34.689  1.00  0.00     0.075 C 
ENDBRANCH   1  20
TORSDOF 5
ENDMDL
MODEL 10
REMARK VINA RESULT:      -7.1      3.945      7.101
REMARK  5 active torsions:
REMARK  status: ('A' for Active; 'I' for Inactive)
REMARK    1  A    between atoms: C_8  and  N_9 
REMARK       I    between atoms: N_9  and  C_10 
REMARK       I    between atoms: C_10  and  N_11 
REMARK    2  A    between atoms: N_11  and  C_12 
REMARK    3  A    between atoms: C_13  and  O_14 
REMARK    4  A    between atoms: O_14  and  C_15 
REMARK    5  A    between atoms: C_15  and  C_16 
ROOT
HETATM    1  N   UNL     1      -6.494  -1.200 -34.923  1.00  0.00    -0.305 N 
HETATM    2  C   UNL     1      -7.321  -0.502 -34.063  1.00  0.00     0.325 C 
HETATM    3  N   UNL     1      -7.889   0.576 -34.720  1.00  0.00    -0.306 N 
HETATM    4  O   UNL     1      -7.532  -0.790 -32.894  1.00  0.00    -0.247 OA
HETATM    5  H   UNL     1      -6.688  -1.097 -35.907  1.00  0.00     0.171 HD
HETATM    6  H   UNL     1      -7.430   0.881 -35.569  1.00  0.00     0.171 HD
ENDROOT
BRANCH   3   7
HETATM    7  C   UNL     1      -8.888   1.453 -34.240  1.00  0.00     0.071 A 
HETATM    8  C   UNL     1      -8.471   2.723 -33.801  1.00  0.00     0.096 A 
HETATM    9  C   UNL     1      -9.397   3.670 -33.358  1.00  0.00     0.041 A 
HETATM   10  C   UNL     1     -10.751   3.338 -33.319  1.00  0.00     0.026 A 
HETATM   11  C   UNL     1     -11.167   2.074 -33.734  1.00  0.00     0.036 A 
HETATM   12 CL   UNL     1     -12.843   1.681 -33.689  1.00  0.00    -0.084 Cl
HETATM   13  C   UNL     1     -10.247   1.132 -34.198  1.00  0.00     0.056 A 
BRANCH   8  14
HETATM   14  O   UNL     1      -7.129   3.014 -33.875  1.00  0.00    -0.340 OA
BRANCH  14  15
HETATM   15  C   UNL     1      -6.654   3.690 -32.694  1.00  0.00     0.293 C 
BRANCH  15  16
HETATM   16  C   UNL     1      -6.180   2.672 -31.671  1.00  0.00     0.408 C 
HETATM   17  F   UNL     1      -7.220   2.145 -30.985  1.00  0.00    -0.169 F 
HETATM   18  F   UNL     1      -5.511   1.653 -32.254  1.00  0.00    -0.169 F 
HETATM   19  F   UNL     1      -5.347   3.246 -30.774  1.00  0.00    -0.169 F 
ENDBRANCH  15  16
ENDBRANCH  14  15
ENDBRANCH   8  14
ENDBRANCH   3   7
BRANCH   1  20
HETATM   20  C   UNL     1      -5.639  -2.236 -34.582  1.00  0.00     0.086 A 
HETATM   21  C   UNL     1      -4.471  -2.020 -33.876  1.00  0.00     0.052 A 
HETATM   22  C   UNL     1      -3.831  -0.792 -33.348  1.00  0.00     0.072 C 
HETATM   23  N   UNL     1      -3.897  -3.249 -33.720  1.00  0.00    -0.280 N 
HETATM   24  H   UNL     1      -3.023  -3.480 -33.261  1.00  0.00     0.189 HD
HETATM   25  N   UNL     1      -4.612  -4.250 -34.241  1.00  0.00    -0.177 NA
HETATM   26  C   UNL     1      -5.689  -3.648 -34.770  1.00  0.00     0.079 A 
HETATM   27  C   UNL     1      -6.734  -4.501 -35.392  1.00  0.00     0.075 C 
ENDBRANCH   1  20
TORSDOF 5
ENDMDL
