MODEL 1
REMARK VINA RESULT:      -7.9      0.000      0.000
REMARK  6 active torsions:
REMARK  status: ('A' for Active; 'I' for Inactive)
REMARK    1  A    between atoms: C_5  and  C_6 
REMARK    2  A    between atoms: C_6  and  C_7 
REMARK       I    between atoms: C_7  and  N_8 
REMARK    3  A    between atoms: N_8  and  C_9 
REMARK    4  A    between atoms: C_12  and  N_13 
REMARK       I    between atoms: N_13  and  C_14 
REMARK       I    between atoms: C_14  and  N_15 
REMARK    5  A    between atoms: N_15  and  C_16 
REMARK    6  A    between atoms: C_16  and  C_17 
ROOT
HETATM    1  C   UNL     1      -3.173   3.571 -32.162  1.00  0.00     0.034 A 
HETATM    2  C   UNL     1      -4.205   3.911 -33.038  1.00  0.00     0.032 A 
HETATM    3  C   UNL     1      -5.377   3.135 -33.108  1.00  0.00     0.032 A 
HETATM    4  C   UNL     1      -5.525   1.997 -32.317  1.00  0.00     0.036 A 
HETATM    5  C   UNL     1      -4.485   1.657 -31.444  1.00  0.00     0.032 A 
HETATM    6  C   UNL     1      -3.323   2.432 -31.367  1.00  0.00     0.032 A 
ENDROOT
BRANCH   4   7
HETATM    7  N   UNL     1      -6.665   1.178 -32.268  1.00  0.00    -0.309 N 
HETATM    8  C   UNL     1      -7.206   0.254 -33.102  1.00  0.00     0.321 C 
HETATM    9  N   UNL     1      -6.449  -0.232 -34.116  1.00  0.00    -0.337 N 
HETATM   10  O   UNL     1      -8.351  -0.139 -32.884  1.00  0.00    -0.247 OA
HETATM   11  H   UNL     1      -5.462  -0.306 -33.917  1.00  0.00     0.164 HD
HETATM   12  H   UNL     1      -7.285   1.328 -31.481  1.00  0.00     0.170 HD
BRANCH   9  13
HETATM   13  C   UNL     1      -6.984  -1.303 -34.926  1.00  0.00     0.189 C 
BRANCH  13  14
HETATM   14  C   UNL     1      -6.175  -2.537 -34.763  1.00  0.00     0.070 A 
HETATM   15  O   UNL     1      -4.881  -2.397 -34.342  1.00  0.00    -0.325 OA
HETATM   16  C   UNL     1      -4.359  -3.647 -34.247  1.00  0.00     0.142 A 
HETATM   17  C   UNL     1      -5.300  -4.591 -34.584  1.00  0.00     0.027 A 
HETATM   18  C   UNL     1      -6.475  -3.876 -34.916  1.00  0.00     0.036 A 
ENDBRANCH  13  14
ENDBRANCH   9  13
ENDBRANCH   4   7
BRANCH   1  19
HETATM   19  N   UNL     1      -1.996   4.325 -31.980  1.00  0.00    -0.327 N 
HETATM   20  C   UNL     1      -1.810   5.430 -31.164  1.00  0.00     0.227 C 
HETATM   21  O   UNL     1      -2.690   6.020 -30.539  1.00  0.00    -0.273 OA
HETATM   22  H   UNL     1      -1.193   4.012 -32.511  1.00  0.00     0.169 HD
BRANCH  20  23
HETATM   23  C   UNL     1      -0.338   5.844 -31.063  1.00  0.00     0.159 C 
BRANCH  23  24
HETATM   24  C   UNL     1       0.047   6.365 -29.714  1.00  0.00     0.017 A 
HETATM   25  N   UNL     1      -0.170   5.661 -28.550  1.00  0.00    -0.369 N 
HETATM   26  C   UNL     1       0.315   6.370 -27.483  1.00  0.00     0.088 A 
HETATM   27  H   UNL     1      -0.632   4.756 -28.503  1.00  0.00     0.165 HD
HETATM   28  C   UNL     1       0.862   7.539 -27.961  1.00  0.00     0.019 A 
HETATM   29  C   UNL     1       0.694   7.538 -29.366  1.00  0.00     0.027 A 
ENDBRANCH  23  24
ENDBRANCH  20  23
ENDBRANCH   1  19
TORSDOF 6
ENDMDL
MODEL 2
REMARK VINA RESULT:      -7.8      4.274      9.839
REMARK  6 active torsions:
REMARK  status: ('A' for Active; 'I' for Inactive)
REMARK    1  A    between atoms: C_5  and  C_6 
REMARK    2  A    between atoms: C_6  and  C_7 
REMARK       I    between atoms: C_7  and  N_8 
REMARK    3  A    between atoms: N_8  and  C_9 
REMARK    4  A    between atoms: C_12  and  N_13 
REMARK       I    between atoms: N_13  and  C_14 
REMARK       I    between atoms: C_14  and  N_15 
REMARK    5  A    between atoms: N_15  and  C_16 
REMARK    6  A    between atoms: C_16  and  C_17 
ROOT
HETATM    1  C   UNL     1      -9.083   0.148 -32.773  1.00  0.00     0.034 A 
HETATM    2  C   UNL     1      -8.096  -0.387 -33.601  1.00  0.00     0.032 A 
HETATM    3  C   UNL     1      -6.745  -0.387 -33.208  1.00  0.00     0.032 A 
HETATM    4  C   UNL     1      -6.360   0.166 -31.988  1.00  0.00     0.036 A 
HETATM    5  C   UNL     1      -7.353   0.705 -31.161  1.00  0.00     0.032 A 
HETATM    6  C   UNL     1      -8.697   0.699 -31.548  1.00  0.00     0.032 A 
ENDROOT
BRANCH   4   7
HETATM    7  N   UNL     1      -5.053   0.177 -31.472  1.00  0.00    -0.309 N 
HETATM    8  C   UNL     1      -4.022   1.058 -31.520  1.00  0.00     0.321 C 
HETATM    9  N   UNL     1      -4.267   2.328 -31.923  1.00  0.00    -0.337 N 
HETATM   10  O   UNL     1      -2.908   0.682 -31.156  1.00  0.00    -0.247 OA
HETATM   11  H   UNL     1      -5.177   2.689 -31.674  1.00  0.00     0.164 HD
HETATM   12  H   UNL     1      -4.752  -0.673 -31.010  1.00  0.00     0.170 HD
BRANCH   9  13
HETATM   13  C   UNL     1      -3.195   3.295 -31.857  1.00  0.00     0.189 C 
BRANCH  13  14
HETATM   14  C   UNL     1      -3.129   4.090 -33.108  1.00  0.00     0.070 A 
HETATM   15  O   UNL     1      -4.309   4.404 -33.723  1.00  0.00    -0.325 OA
HETATM   16  C   UNL     1      -4.000   5.143 -34.820  1.00  0.00     0.142 A 
HETATM   17  C   UNL     1      -2.639   5.324 -34.913  1.00  0.00     0.027 A 
HETATM   18  C   UNL     1      -2.076   4.645 -33.807  1.00  0.00     0.036 A 
ENDBRANCH  13  14
ENDBRANCH   9  13
ENDBRANCH   4   7
BRANCH   1  19
HETATM   19  N   UNL     1     -10.463   0.133 -33.057  1.00  0.00    -0.327 N 
HETATM   20  C   UNL     1     -11.220   1.126 -33.660  1.00  0.00     0.227 C 
HETATM   21  O   UNL     1     -10.826   2.256 -33.947  1.00  0.00    -0.273 OA
HETATM   22  H   UNL     1     -10.954  -0.711 -32.788  1.00  0.00     0.169 HD
BRANCH  20  23
HETATM   23  C   UNL     1     -12.639   0.659 -33.999  1.00  0.00     0.159 C 
BRANCH  23  24
HETATM   24  C   UNL     1     -13.708   1.403 -33.260  1.00  0.00     0.017 A 
HETATM   25  N   UNL     1     -13.434   2.414 -32.366  1.00  0.00    -0.369 N 
HETATM   26  C   UNL     1     -14.605   2.928 -31.876  1.00  0.00     0.088 A 
HETATM   27  H   UNL     1     -12.497   2.716 -32.109  1.00  0.00     0.165 HD
HETATM   28  C   UNL     1     -15.647   2.252 -32.467  1.00  0.00     0.019 A 
HETATM   29  C   UNL     1     -15.085   1.291 -33.339  1.00  0.00     0.027 A 
ENDBRANCH  23  24
ENDBRANCH  20  23
ENDBRANCH   1  19
TORSDOF 6
ENDMDL
MODEL 3
REMARK VINA RESULT:      -7.6      1.884      9.659
REMARK  6 active torsions:
REMARK  status: ('A' for Active; 'I' for Inactive)
REMARK    1  A    between atoms: C_5  and  C_6 
REMARK    2  A    between atoms: C_6  and  C_7 
REMARK       I    between atoms: C_7  and  N_8 
REMARK    3  A    between atoms: N_8  and  C_9 
REMARK    4  A    between atoms: C_12  and  N_13 
REMARK       I    between atoms: N_13  and  C_14 
REMARK       I    between atoms: C_14  and  N_15 
REMARK    5  A    between atoms: N_15  and  C_16 
REMARK    6  A    between atoms: C_16  and  C_17 
ROOT
HETATM    1  C   UNL     1      -5.155   2.808 -33.090  1.00  0.00     0.034 A 
HETATM    2  C   UNL     1      -5.725   3.933 -33.686  1.00  0.00     0.032 A 
HETATM    3  C   UNL     1      -4.960   5.089 -33.926  1.00  0.00     0.032 A 
HETATM    4  C   UNL     1      -3.617   5.143 -33.556  1.00  0.00     0.036 A 
HETATM    5  C   UNL     1      -3.050   4.013 -32.954  1.00  0.00     0.032 A 
HETATM    6  C   UNL     1      -3.808   2.861 -32.722  1.00  0.00     0.032 A 
ENDROOT
BRANCH   4   7
HETATM    7  N   UNL     1      -2.747   6.220 -33.790  1.00  0.00    -0.309 N 
HETATM    8  C   UNL     1      -2.223   7.202 -33.013  1.00  0.00     0.321 C 
HETATM    9  N   UNL     1      -2.300   7.079 -31.666  1.00  0.00    -0.337 N 
HETATM   10  O   UNL     1      -1.661   8.150 -33.560  1.00  0.00    -0.247 OA
HETATM   11  H   UNL     1      -2.247   6.133 -31.318  1.00  0.00     0.164 HD
HETATM   12  H   UNL     1      -2.480   6.373 -34.755  1.00  0.00     0.170 HD
BRANCH   9  13
HETATM   13  C   UNL     1      -1.635   8.063 -30.842  1.00  0.00     0.189 C 
BRANCH  13  14
HETATM   14  C   UNL     1      -0.727   7.405 -29.870  1.00  0.00     0.070 A 
HETATM   15  O   UNL     1      -0.512   6.061 -30.011  1.00  0.00    -0.325 OA
HETATM   16  C   UNL     1       0.357   5.695 -29.034  1.00  0.00     0.142 A 
HETATM   17  C   UNL     1       0.720   6.784 -28.277  1.00  0.00     0.027 A 
HETATM   18  C   UNL     1       0.021   7.889 -28.816  1.00  0.00     0.036 A 
ENDBRANCH  13  14
ENDBRANCH   9  13
ENDBRANCH   4   7
BRANCH   1  19
HETATM   19  N   UNL     1      -5.828   1.589 -32.871  1.00  0.00    -0.327 N 
HETATM   20  C   UNL     1      -6.465   0.788 -33.806  1.00  0.00     0.227 C 
HETATM   21  O   UNL     1      -6.654   1.072 -34.988  1.00  0.00    -0.273 OA
HETATM   22  H   UNL     1      -5.840   1.265 -31.912  1.00  0.00     0.169 HD
BRANCH  20  23
HETATM   23  C   UNL     1      -6.891  -0.565 -33.227  1.00  0.00     0.159 C 
BRANCH  23  24
HETATM   24  C   UNL     1      -6.266  -1.737 -33.918  1.00  0.00     0.017 A 
HETATM   25  N   UNL     1      -4.907  -1.964 -33.922  1.00  0.00    -0.369 N 
HETATM   26  C   UNL     1      -4.635  -3.123 -34.599  1.00  0.00     0.088 A 
HETATM   27  H   UNL     1      -4.220  -1.349 -33.493  1.00  0.00     0.165 HD
HETATM   28  C   UNL     1      -5.829  -3.658 -35.027  1.00  0.00     0.019 A 
HETATM   29  C   UNL     1      -6.857  -2.786 -34.598  1.00  0.00     0.027 A 
ENDBRANCH  23  24
ENDBRANCH  20  23
ENDBRANCH   1  19
TORSDOF 6
ENDMDL
MODEL 4
REMARK VINA RESULT:      -7.5      1.988      9.836
REMARK  6 active torsions:
REMARK  status: ('A' for Active; 'I' for Inactive)
REMARK    1  A    between atoms: C_5  and  C_6 
REMARK    2  A    between atoms: C_6  and  C_7 
REMARK       I    between atoms: C_7  and  N_8 
REMARK    3  A    between atoms: N_8  and  C_9 
REMARK    4  A    between atoms: C_12  and  N_13 
REMARK       I    between atoms: N_13  and  C_14 
REMARK       I    between atoms: C_14  and  N_15 
REMARK    5  A    between atoms: N_15  and  C_16 
REMARK    6  A    between atoms: C_16  and  C_17 
ROOT
HETATM    1  C   UNL     1      -4.408   3.120 -32.450  1.00  0.00     0.034 A 
HETATM    2  C   UNL     1      -3.033   3.160 -32.680  1.00  0.00     0.032 A 
HETATM    3  C   UNL     1      -2.363   4.387 -32.838  1.00  0.00     0.032 A 
HETATM    4  C   UNL     1      -3.063   5.591 -32.785  1.00  0.00     0.036 A 
HETATM    5  C   UNL     1      -4.444   5.546 -32.558  1.00  0.00     0.032 A 
HETATM    6  C   UNL     1      -5.109   4.327 -32.394  1.00  0.00     0.032 A 
ENDROOT
BRANCH   4   7
HETATM    7  N   UNL     1      -2.494   6.872 -32.879  1.00  0.00    -0.309 N 
HETATM    8  C   UNL     1      -2.127   7.815 -31.974  1.00  0.00     0.321 C 
HETATM    9  N   UNL     1      -2.026   7.464 -30.670  1.00  0.00    -0.337 N 
HETATM   10  O   UNL     1      -1.861   8.947 -32.378  1.00  0.00    -0.247 OA
HETATM   11  H   UNL     1      -1.720   6.516 -30.503  1.00  0.00     0.164 HD
HETATM   12  H   UNL     1      -2.376   7.237 -33.817  1.00  0.00     0.170 HD
BRANCH   9  13
HETATM   13  C   UNL     1      -1.518   8.436 -29.729  1.00  0.00     0.189 C 
BRANCH  13  14
HETATM   14  C   UNL     1      -0.597   7.793 -28.758  1.00  0.00     0.070 A 
HETATM   15  O   UNL     1      -1.099   6.791 -27.975  1.00  0.00    -0.325 OA
HETATM   16  C   UNL     1      -0.080   6.350 -27.194  1.00  0.00     0.142 A 
HETATM   17  C   UNL     1       1.076   7.041 -27.473  1.00  0.00     0.027 A 
HETATM   18  C   UNL     1       0.744   7.973 -28.484  1.00  0.00     0.036 A 
ENDBRANCH  13  14
ENDBRANCH   9  13
ENDBRANCH   4   7
BRANCH   1  19
HETATM   19  N   UNL     1      -5.148   1.942 -32.218  1.00  0.00    -0.327 N 
HETATM   20  C   UNL     1      -6.001   1.286 -33.092  1.00  0.00     0.227 C 
HETATM   21  O   UNL     1      -6.352   1.695 -34.198  1.00  0.00    -0.273 OA
HETATM   22  H   UNL     1      -5.035   1.531 -31.300  1.00  0.00     0.169 HD
BRANCH  20  23
HETATM   23  C   UNL     1      -6.453  -0.077 -32.559  1.00  0.00     0.159 C 
BRANCH  23  24
HETATM   24  C   UNL     1      -6.066  -1.224 -33.440  1.00  0.00     0.017 A 
HETATM   25  N   UNL     1      -4.785  -1.727 -33.493  1.00  0.00    -0.369 N 
HETATM   26  C   UNL     1      -4.741  -2.790 -34.356  1.00  0.00     0.088 A 
HETATM   27  H   UNL     1      -3.996  -1.350 -32.971  1.00  0.00     0.165 HD
HETATM   28  C   UNL     1      -6.007  -2.984 -34.859  1.00  0.00     0.019 A 
HETATM   29  C   UNL     1      -6.843  -1.998 -34.283  1.00  0.00     0.027 A 
ENDBRANCH  23  24
ENDBRANCH  20  23
ENDBRANCH   1  19
TORSDOF 6
ENDMDL
MODEL 5
REMARK VINA RESULT:      -7.1     16.465     18.810
REMARK  6 active torsions:
REMARK  status: ('A' for Active; 'I' for Inactive)
REMARK    1  A    between atoms: C_5  and  C_6 
REMARK    2  A    between atoms: C_6  and  C_7 
REMARK       I    between atoms: C_7  and  N_8 
REMARK    3  A    between atoms: N_8  and  C_9 
REMARK    4  A    between atoms: C_12  and  N_13 
REMARK       I    between atoms: N_13  and  C_14 
REMARK       I    between atoms: C_14  and  N_15 
REMARK    5  A    between atoms: N_15  and  C_16 
REMARK    6  A    between atoms: C_16  and  C_17 
ROOT
HETATM    1  C   UNL     1      -6.242 -13.661 -34.929  1.00  0.00     0.034 A 
HETATM    2  C   UNL     1      -6.753 -14.911 -34.577  1.00  0.00     0.032 A 
HETATM    3  C   UNL     1      -6.635 -15.393 -33.260  1.00  0.00     0.032 A 
HETATM    4  C   UNL     1      -5.988 -14.640 -32.282  1.00  0.00     0.036 A 
HETATM    5  C   UNL     1      -5.473 -13.388 -32.641  1.00  0.00     0.032 A 
HETATM    6  C   UNL     1      -5.596 -12.905 -33.948  1.00  0.00     0.032 A 
ENDROOT
BRANCH   4   7
HETATM    7  N   UNL     1      -5.856 -14.997 -30.930  1.00  0.00    -0.309 N 
HETATM    8  C   UNL     1      -5.039 -15.839 -30.247  1.00  0.00     0.321 C 
HETATM    9  N   UNL     1      -3.928 -16.311 -30.861  1.00  0.00    -0.337 N 
HETATM   10  O   UNL     1      -5.317 -16.113 -29.080  1.00  0.00    -0.247 OA
HETATM   11  H   UNL     1      -3.497 -15.674 -31.516  1.00  0.00     0.164 HD
HETATM   12  H   UNL     1      -6.549 -14.611 -30.299  1.00  0.00     0.170 HD
BRANCH   9  13
HETATM   13  C   UNL     1      -2.998 -17.108 -30.093  1.00  0.00     0.189 C 
BRANCH  13  14
HETATM   14  C   UNL     1      -1.951 -16.250 -29.484  1.00  0.00     0.070 A 
HETATM   15  O   UNL     1      -1.713 -15.033 -30.061  1.00  0.00    -0.325 OA
HETATM   16  C   UNL     1      -0.743 -14.430 -29.326  1.00  0.00     0.142 A 
HETATM   17  C   UNL     1      -0.365 -15.231 -28.274  1.00  0.00     0.027 A 
HETATM   18  C   UNL     1      -1.145 -16.407 -28.374  1.00  0.00     0.036 A 
ENDBRANCH  13  14
ENDBRANCH   9  13
ENDBRANCH   4   7
BRANCH   1  19
HETATM   19  N   UNL     1      -6.371 -13.074 -36.204  1.00  0.00    -0.327 N 
HETATM   20  C   UNL     1      -6.842 -13.660 -37.369  1.00  0.00     0.227 C 
HETATM   21  O   UNL     1      -7.122 -14.850 -37.513  1.00  0.00    -0.273 OA
HETATM   22  H   UNL     1      -6.086 -12.104 -36.268  1.00  0.00     0.169 HD
BRANCH  20  23
HETATM   23  C   UNL     1      -7.040 -12.645 -38.499  1.00  0.00     0.159 C 
BRANCH  23  24
HETATM   24  C   UNL     1      -8.392 -12.714 -39.138  1.00  0.00     0.017 A 
HETATM   25  N   UNL     1      -9.395 -13.539 -38.678  1.00  0.00    -0.369 N 
HETATM   26  C   UNL     1     -10.522 -13.362 -39.435  1.00  0.00     0.088 A 
HETATM   27  H   UNL     1      -9.295 -14.186 -37.899  1.00  0.00     0.165 HD
HETATM   28  C   UNL     1     -10.251 -12.405 -40.386  1.00  0.00     0.019 A 
HETATM   29  C   UNL     1      -8.910 -11.996 -40.201  1.00  0.00     0.027 A 
ENDBRANCH  23  24
ENDBRANCH  20  23
ENDBRANCH   1  19
TORSDOF 6
ENDMDL
MODEL 6
REMARK VINA RESULT:      -6.9      4.326      6.589
REMARK  6 active torsions:
REMARK  status: ('A' for Active; 'I' for Inactive)
REMARK    1  A    between atoms: C_5  and  C_6 
REMARK    2  A    between atoms: C_6  and  C_7 
REMARK       I    between atoms: C_7  and  N_8 
REMARK    3  A    between atoms: N_8  and  C_9 
REMARK    4  A    between atoms: C_12  and  N_13 
REMARK       I    between atoms: N_13  and  C_14 
REMARK       I    between atoms: C_14  and  N_15 
REMARK    5  A    between atoms: N_15  and  C_16 
REMARK    6  A    between atoms: C_16  and  C_17 
ROOT
HETATM    1  C   UNL     1      -6.461   1.406 -32.237  1.00  0.00     0.034 A 
HETATM    2  C   UNL     1      -7.513   1.775 -31.398  1.00  0.00     0.032 A 
HETATM    3  C   UNL     1      -8.797   1.224 -31.566  1.00  0.00     0.032 A 
HETATM    4  C   UNL     1      -9.050   0.310 -32.587  1.00  0.00     0.036 A 
HETATM    5  C   UNL     1      -7.992  -0.054 -33.429  1.00  0.00     0.032 A 
HETATM    6  C   UNL     1      -6.714   0.488 -33.259  1.00  0.00     0.032 A 
ENDROOT
BRANCH   4   7
HETATM    7  N   UNL     1     -10.274  -0.340 -32.818  1.00  0.00    -0.309 N 
HETATM    8  C   UNL     1     -11.488   0.058 -33.279  1.00  0.00     0.321 C 
HETATM    9  N   UNL     1     -11.588   1.259 -33.896  1.00  0.00    -0.337 N 
HETATM   10  O   UNL     1     -12.445  -0.705 -33.154  1.00  0.00    -0.247 OA
HETATM   11  H   UNL     1     -10.775   1.540 -34.425  1.00  0.00     0.164 HD
HETATM   12  H   UNL     1     -10.324  -1.309 -32.526  1.00  0.00     0.170 HD
BRANCH   9  13
HETATM   13  C   UNL     1     -12.853   1.627 -34.493  1.00  0.00     0.189 C 
BRANCH  13  14
HETATM   14  C   UNL     1     -13.781   2.160 -33.465  1.00  0.00     0.070 A 
HETATM   15  O   UNL     1     -13.517   3.400 -32.952  1.00  0.00    -0.325 OA
HETATM   16  C   UNL     1     -14.501   3.678 -32.059  1.00  0.00     0.142 A 
HETATM   17  C   UNL     1     -15.405   2.643 -32.000  1.00  0.00     0.027 A 
HETATM   18  C   UNL     1     -14.942   1.663 -32.908  1.00  0.00     0.036 A 
ENDBRANCH  13  14
ENDBRANCH   9  13
ENDBRANCH   4   7
BRANCH   1  19
HETATM   19  N   UNL     1      -5.132   1.858 -32.102  1.00  0.00    -0.327 N 
HETATM   20  C   UNL     1      -4.569   3.014 -32.620  1.00  0.00     0.227 C 
HETATM   21  O   UNL     1      -5.117   3.796 -33.396  1.00  0.00    -0.273 OA
HETATM   22  H   UNL     1      -4.523   1.261 -31.557  1.00  0.00     0.169 HD
BRANCH  20  23
HETATM   23  C   UNL     1      -3.160   3.274 -32.078  1.00  0.00     0.159 C 
BRANCH  23  24
HETATM   24  C   UNL     1      -2.407   4.319 -32.842  1.00  0.00     0.017 A 
HETATM   25  N   UNL     1      -2.327   4.328 -34.217  1.00  0.00    -0.369 N 
HETATM   26  C   UNL     1      -1.606   5.417 -34.630  1.00  0.00     0.088 A 
HETATM   27  H   UNL     1      -2.737   3.620 -34.821  1.00  0.00     0.165 HD
HETATM   28  C   UNL     1      -1.226   6.126 -33.514  1.00  0.00     0.019 A 
HETATM   29  C   UNL     1      -1.729   5.436 -32.387  1.00  0.00     0.027 A 
ENDBRANCH  23  24
ENDBRANCH  20  23
ENDBRANCH   1  19
TORSDOF 6
ENDMDL
MODEL 7
REMARK VINA RESULT:      -6.9      3.069      9.706
REMARK  6 active torsions:
REMARK  status: ('A' for Active; 'I' for Inactive)
REMARK    1  A    between atoms: C_5  and  C_6 
REMARK    2  A    between atoms: C_6  and  C_7 
REMARK       I    between atoms: C_7  and  N_8 
REMARK    3  A    between atoms: N_8  and  C_9 
REMARK    4  A    between atoms: C_12  and  N_13 
REMARK       I    between atoms: N_13  and  C_14 
REMARK       I    between atoms: C_14  and  N_15 
REMARK    5  A    between atoms: N_15  and  C_16 
REMARK    6  A    between atoms: C_16  and  C_17 
ROOT
HETATM    1  C   UNL     1      -4.688   2.895 -32.703  1.00  0.00     0.034 A 
HETATM    2  C   UNL     1      -3.327   2.890 -32.394  1.00  0.00     0.032 A 
HETATM    3  C   UNL     1      -2.547   4.050 -32.552  1.00  0.00     0.032 A 
HETATM    4  C   UNL     1      -3.113   5.228 -33.037  1.00  0.00     0.036 A 
HETATM    5  C   UNL     1      -4.478   5.227 -33.350  1.00  0.00     0.032 A 
HETATM    6  C   UNL     1      -5.256   4.076 -33.187  1.00  0.00     0.032 A 
ENDROOT
BRANCH   4   7
HETATM    7  N   UNL     1      -2.446   6.454 -33.187  1.00  0.00    -0.309 N 
HETATM    8  C   UNL     1      -2.090   7.451 -32.337  1.00  0.00     0.321 C 
HETATM    9  N   UNL     1      -2.127   7.215 -31.004  1.00  0.00    -0.337 N 
HETATM   10  O   UNL     1      -1.708   8.521 -32.810  1.00  0.00    -0.247 OA
HETATM   11  H   UNL     1      -1.907   6.268 -30.729  1.00  0.00     0.164 HD
HETATM   12  H   UNL     1      -2.222   6.723 -34.138  1.00  0.00     0.170 HD
BRANCH   9  13
HETATM   13  C   UNL     1      -1.632   8.234 -30.106  1.00  0.00     0.189 C 
BRANCH  13  14
HETATM   14  C   UNL     1      -0.636   7.664 -29.165  1.00  0.00     0.070 A 
HETATM   15  O   UNL     1      -0.554   6.302 -29.076  1.00  0.00    -0.325 OA
HETATM   16  C   UNL     1       0.428   6.022 -28.181  1.00  0.00     0.142 A 
HETATM   17  C   UNL     1       0.993   7.183 -27.705  1.00  0.00     0.027 A 
HETATM   18  C   UNL     1       0.307   8.244 -28.341  1.00  0.00     0.036 A 
ENDBRANCH  13  14
ENDBRANCH   9  13
ENDBRANCH   4   7
BRANCH   1  19
HETATM   19  N   UNL     1      -5.556   1.800 -32.517  1.00  0.00    -0.327 N 
HETATM   20  C   UNL     1      -6.390   1.549 -31.438  1.00  0.00     0.227 C 
HETATM   21  O   UNL     1      -6.426   2.192 -30.390  1.00  0.00    -0.273 OA
HETATM   22  H   UNL     1      -5.568   1.121 -33.268  1.00  0.00     0.169 HD
BRANCH  20  23
HETATM   23  C   UNL     1      -7.343   0.376 -31.694  1.00  0.00     0.159 C 
BRANCH  23  24
HETATM   24  C   UNL     1      -8.524   0.736 -32.541  1.00  0.00     0.017 A 
HETATM   25  N   UNL     1      -9.658   1.328 -32.030  1.00  0.00    -0.369 N 
HETATM   26  C   UNL     1     -10.548   1.570 -33.042  1.00  0.00     0.088 A 
HETATM   27  H   UNL     1      -9.803   1.539 -31.045  1.00  0.00     0.165 HD
HETATM   28  C   UNL     1      -9.982   1.142 -34.220  1.00  0.00     0.019 A 
HETATM   29  C   UNL     1      -8.707   0.616 -33.907  1.00  0.00     0.027 A 
ENDBRANCH  23  24
ENDBRANCH  20  23
ENDBRANCH   1  19
TORSDOF 6
ENDMDL
MODEL 8
REMARK VINA RESULT:      -6.9      6.758      9.727
REMARK  6 active torsions:
REMARK  status: ('A' for Active; 'I' for Inactive)
REMARK    1  A    between atoms: C_5  and  C_6 
REMARK    2  A    between atoms: C_6  and  C_7 
REMARK       I    between atoms: C_7  and  N_8 
REMARK    3  A    between atoms: N_8  and  C_9 
REMARK    4  A    between atoms: C_12  and  N_13 
REMARK       I    between atoms: N_13  and  C_14 
REMARK       I    between atoms: C_14  and  N_15 
REMARK    5  A    between atoms: N_15  and  C_16 
REMARK    6  A    between atoms: C_16  and  C_17 
ROOT
HETATM    1  C   UNL     1       1.874   8.982 -26.155  1.00  0.00     0.034 A 
HETATM    2  C   UNL     1       0.887   9.911 -26.485  1.00  0.00     0.032 A 
HETATM    3  C   UNL     1      -0.306   9.505 -27.110  1.00  0.00     0.032 A 
HETATM    4  C   UNL     1      -0.522   8.165 -27.430  1.00  0.00     0.036 A 
HETATM    5  C   UNL     1       0.473   7.237 -27.101  1.00  0.00     0.032 A 
HETATM    6  C   UNL     1       1.657   7.639 -26.474  1.00  0.00     0.032 A 
ENDROOT
BRANCH   4   7
HETATM    7  N   UNL     1      -1.690   7.640 -28.007  1.00  0.00    -0.309 N 
HETATM    8  C   UNL     1      -2.330   7.826 -29.189  1.00  0.00     0.321 C 
HETATM    9  N   UNL     1      -1.672   8.447 -30.197  1.00  0.00    -0.337 N 
HETATM   10  O   UNL     1      -3.472   7.386 -29.316  1.00  0.00    -0.247 OA
HETATM   11  H   UNL     1      -0.677   8.278 -30.228  1.00  0.00     0.164 HD
HETATM   12  H   UNL     1      -2.243   7.034 -27.413  1.00  0.00     0.170 HD
BRANCH   9  13
HETATM   13  C   UNL     1      -2.311   8.534 -31.491  1.00  0.00     0.189 C 
BRANCH  13  14
HETATM   14  C   UNL     1      -1.872   7.419 -32.367  1.00  0.00     0.070 A 
HETATM   15  O   UNL     1      -1.522   7.723 -33.654  1.00  0.00    -0.325 OA
HETATM   16  C   UNL     1      -1.141   6.561 -34.245  1.00  0.00     0.142 A 
HETATM   17  C   UNL     1      -1.224   5.516 -33.355  1.00  0.00     0.027 A 
HETATM   18  C   UNL     1      -1.694   6.069 -32.141  1.00  0.00     0.036 A 
ENDBRANCH  13  14
ENDBRANCH   9  13
ENDBRANCH   4   7
BRANCH   1  19
HETATM   19  N   UNL     1       3.069   9.289 -25.473  1.00  0.00    -0.327 N 
HETATM   20  C   UNL     1       3.264   9.402 -24.105  1.00  0.00     0.227 C 
HETATM   21  O   UNL     1       2.383   9.365 -23.247  1.00  0.00    -0.273 OA
HETATM   22  H   UNL     1       3.879   9.443 -26.061  1.00  0.00     0.169 HD
BRANCH  20  23
HETATM   23  C   UNL     1       4.744   9.532 -23.732  1.00  0.00     0.159 C 
BRANCH  23  24
HETATM   24  C   UNL     1       5.280   8.350 -22.986  1.00  0.00     0.017 A 
HETATM   25  N   UNL     1       4.494   7.550 -22.186  1.00  0.00    -0.369 N 
HETATM   26  C   UNL     1       5.249   6.534 -21.664  1.00  0.00     0.088 A 
HETATM   27  H   UNL     1       3.505   7.709 -22.009  1.00  0.00     0.165 HD
HETATM   28  C   UNL     1       6.533   6.669 -22.139  1.00  0.00     0.019 A 
HETATM   29  C   UNL     1       6.555   7.812 -22.972  1.00  0.00     0.027 A 
ENDBRANCH  23  24
ENDBRANCH  20  23
ENDBRANCH   1  19
TORSDOF 6
ENDMDL
MODEL 9
REMARK VINA RESULT:      -6.8      5.515      9.033
REMARK  6 active torsions:
REMARK  status: ('A' for Active; 'I' for Inactive)
REMARK    1  A    between atoms: C_5  and  C_6 
REMARK    2  A    between atoms: C_6  and  C_7 
REMARK       I    between atoms: C_7  and  N_8 
REMARK    3  A    between atoms: N_8  and  C_9 
REMARK    4  A    between atoms: C_12  and  N_13 
REMARK       I    between atoms: N_13  and  C_14 
REMARK       I    between atoms: C_14  and  N_15 
REMARK    5  A    between atoms: N_15  and  C_16 
REMARK    6  A    between atoms: C_16  and  C_17 
ROOT
HETATM    1  C   UNL     1      -6.752   0.967 -34.081  1.00  0.00     0.034 A 
HETATM    2  C   UNL     1      -8.057   0.613 -34.424  1.00  0.00     0.032 A 
HETATM    3  C   UNL     1      -9.079   1.579 -34.466  1.00  0.00     0.032 A 
HETATM    4  C   UNL     1      -8.815   2.909 -34.147  1.00  0.00     0.036 A 
HETATM    5  C   UNL     1      -7.505   3.259 -33.798  1.00  0.00     0.032 A 
HETATM    6  C   UNL     1      -6.486   2.302 -33.763  1.00  0.00     0.032 A 
ENDROOT
BRANCH   4   7
HETATM    7  N   UNL     1      -9.742   3.963 -34.202  1.00  0.00    -0.309 N 
HETATM    8  C   UNL     1     -10.940   4.205 -33.611  1.00  0.00     0.321 C 
HETATM    9  N   UNL     1     -11.307   3.450 -32.548  1.00  0.00    -0.337 N 
HETATM   10  O   UNL     1     -11.632   5.128 -34.038  1.00  0.00    -0.247 OA
HETATM   11  H   UNL     1     -10.548   3.147 -31.954  1.00  0.00     0.164 HD
HETATM   12  H   UNL     1      -9.540   4.696 -34.871  1.00  0.00     0.170 HD
BRANCH   9  13
HETATM   13  C   UNL     1     -12.524   3.788 -31.846  1.00  0.00     0.189 C 
BRANCH  13  14
HETATM   14  C   UNL     1     -13.644   2.923 -32.294  1.00  0.00     0.070 A 
HETATM   15  O   UNL     1     -13.355   1.911 -33.167  1.00  0.00    -0.325 OA
HETATM   16  C   UNL     1     -14.518   1.255 -33.412  1.00  0.00     0.142 A 
HETATM   17  C   UNL     1     -15.550   1.817 -32.697  1.00  0.00     0.027 A 
HETATM   18  C   UNL     1     -14.987   2.894 -31.974  1.00  0.00     0.036 A 
ENDBRANCH  13  14
ENDBRANCH   9  13
ENDBRANCH   4   7
BRANCH   1  19
HETATM   19  N   UNL     1      -5.656   0.081 -34.075  1.00  0.00    -0.327 N 
HETATM   20  C   UNL     1      -5.234  -0.746 -33.045  1.00  0.00     0.227 C 
HETATM   21  O   UNL     1      -5.687  -0.758 -31.901  1.00  0.00    -0.273 OA
HETATM   22  H   UNL     1      -5.118   0.048 -34.932  1.00  0.00     0.169 HD
BRANCH  20  23
HETATM   23  C   UNL     1      -4.140  -1.723 -33.487  1.00  0.00     0.159 C 
BRANCH  23  24
HETATM   24  C   UNL     1      -4.670  -3.029 -33.993  1.00  0.00     0.017 A 
HETATM   25  N   UNL     1      -5.861  -3.138 -34.677  1.00  0.00    -0.369 N 
HETATM   26  C   UNL     1      -6.066  -4.442 -35.042  1.00  0.00     0.088 A 
HETATM   27  H   UNL     1      -6.489  -2.360 -34.866  1.00  0.00     0.165 HD
HETATM   28  C   UNL     1      -4.994  -5.182 -34.601  1.00  0.00     0.019 A 
HETATM   29  C   UNL     1      -4.113  -4.294 -33.939  1.00  0.00     0.027 A 
ENDBRANCH  23  24
ENDBRANCH  20  23
ENDBRANCH   1  19
TORSDOF 6
ENDMDL
MODEL 10
REMARK VINA RESULT:      -6.8     16.719     19.449
REMARK  6 active torsions:
REMARK  status: ('A' for Active; 'I' for Inactive)
REMARK    1  A    between atoms: C_5  and  C_6 
REMARK    2  A    between atoms: C_6  and  C_7 
REMARK       I    between atoms: C_7  and  N_8 
REMARK    3  A    between atoms: N_8  and  C_9 
REMARK    4  A    between atoms: C_12  and  N_13 
REMARK       I    between atoms: N_13  and  C_14 
REMARK       I    between atoms: C_14  and  N_15 
REMARK    5  A    between atoms: N_15  and  C_16 
REMARK    6  A    between atoms: C_16  and  C_17 
ROOT
HETATM    1  C   UNL     1      -3.657 -13.192 -38.730  1.00  0.00     0.034 A 
HETATM    2  C   UNL     1      -3.413 -14.183 -39.680  1.00  0.00     0.032 A 
HETATM    3  C   UNL     1      -2.097 -14.523 -40.047  1.00  0.00     0.032 A 
HETATM    4  C   UNL     1      -1.008 -13.862 -39.482  1.00  0.00     0.036 A 
HETATM    5  C   UNL     1      -1.258 -12.865 -38.531  1.00  0.00     0.032 A 
HETATM    6  C   UNL     1      -2.564 -12.532 -38.161  1.00  0.00     0.032 A 
ENDROOT
BRANCH   4   7
HETATM    7  N   UNL     1       0.344 -14.150 -39.734  1.00  0.00    -0.309 N 
HETATM    8  C   UNL     1       1.261 -14.971 -39.163  1.00  0.00     0.321 C 
HETATM    9  N   UNL     1       0.834 -15.935 -38.312  1.00  0.00    -0.337 N 
HETATM   10  O   UNL     1       2.445 -14.836 -39.470  1.00  0.00    -0.247 OA
HETATM   11  H   UNL     1      -0.071 -16.328 -38.528  1.00  0.00     0.164 HD
HETATM   12  H   UNL     1       0.788 -13.593 -40.454  1.00  0.00     0.170 HD
BRANCH   9  13
HETATM   13  C   UNL     1       1.797 -16.884 -37.801  1.00  0.00     0.189 C 
BRANCH  13  14
HETATM   14  C   UNL     1       1.946 -16.739 -36.331  1.00  0.00     0.070 A 
HETATM   15  O   UNL     1       3.172 -17.006 -35.788  1.00  0.00    -0.325 OA
HETATM   16  C   UNL     1       3.069 -16.786 -34.452  1.00  0.00     0.142 A 
HETATM   17  C   UNL     1       1.800 -16.364 -34.128  1.00  0.00     0.027 A 
HETATM   18  C   UNL     1       1.074 -16.332 -35.341  1.00  0.00     0.036 A 
ENDBRANCH  13  14
ENDBRANCH   9  13
ENDBRANCH   4   7
BRANCH   1  19
HETATM   19  N   UNL     1      -4.935 -12.832 -38.257  1.00  0.00    -0.327 N 
HETATM   20  C   UNL     1      -6.041 -12.448 -38.999  1.00  0.00     0.227 C 
HETATM   21  O   UNL     1      -6.057 -12.241 -40.212  1.00  0.00    -0.273 OA
HETATM   22  H   UNL     1      -5.052 -12.864 -37.251  1.00  0.00     0.169 HD
BRANCH  20  23
HETATM   23  C   UNL     1      -7.312 -12.347 -38.150  1.00  0.00     0.159 C 
BRANCH  23  24
HETATM   24  C   UNL     1      -8.562 -12.692 -38.898  1.00  0.00     0.017 A 
HETATM   25  N   UNL     1      -9.076 -11.901 -39.902  1.00  0.00    -0.369 N 
HETATM   26  C   UNL     1     -10.200 -12.486 -40.422  1.00  0.00     0.088 A 
HETATM   27  H   UNL     1      -8.676 -11.013 -40.195  1.00  0.00     0.165 HD
HETATM   28  C   UNL     1     -10.410 -13.672 -39.757  1.00  0.00     0.019 A 
HETATM   29  C   UNL     1      -9.380 -13.804 -38.797  1.00  0.00     0.027 A 
ENDBRANCH  23  24
ENDBRANCH  20  23
ENDBRANCH   1  19
TORSDOF 6
ENDMDL
