MODEL 1
REMARK VINA RESULT:      -8.6      0.000      0.000
REMARK  4 active torsions:
REMARK  status: ('A' for Active; 'I' for Inactive)
REMARK    1  A    between atoms: C_3  and  C_4 
REMARK    2  A    between atoms: C_5  and  C_6 
REMARK       I    between atoms: C_6  and  N_7 
REMARK    3  A    between atoms: N_7  and  C_8 
REMARK    4  A    between atoms: C_15  and  C_16 
REMARK       I    between atoms: C_16  and  N_17 
ROOT
HETATM    1  C   UNL     1      -3.810   3.841 -32.258  1.00  0.00     0.035 A 
HETATM    2  C   UNL     1      -2.774   4.663 -31.791  1.00  0.00     0.046 A 
HETATM    3  C   UNL     1      -2.316   5.732 -32.593  1.00  0.00     0.030 A 
HETATM    4  C   UNL     1      -2.905   5.939 -33.835  1.00  0.00     0.063 A 
HETATM    5  N   UNL     1      -2.264   7.023 -34.363  1.00  0.00    -0.277 N 
HETATM    6  H   UNL     1      -2.436   7.459 -35.263  1.00  0.00     0.189 HD
HETATM    7  N   UNL     1      -1.309   7.545 -33.577  1.00  0.00    -0.168 NA
HETATM    8  C   UNL     1      -1.327   6.755 -32.478  1.00  0.00     0.156 A 
HETATM    9  C   UNL     1      -3.933   5.137 -34.334  1.00  0.00     0.034 A 
HETATM   10  C   UNL     1      -4.371   4.086 -33.518  1.00  0.00     0.032 A 
ENDROOT
BRANCH   1  11
HETATM   11  N   UNL     1      -4.337   2.753 -31.529  1.00  0.00    -0.327 N 
HETATM   12  C   UNL     1      -4.038   1.418 -31.681  1.00  0.00     0.227 C 
HETATM   13  O   UNL     1      -3.212   0.925 -32.436  1.00  0.00    -0.273 OA
HETATM   14  H   UNL     1      -4.999   2.984 -30.804  1.00  0.00     0.169 HD
BRANCH  12  15
HETATM   15  C   UNL     1      -4.766   0.501 -30.759  1.00  0.00     0.087 A 
HETATM   16  C   UNL     1      -5.913  -0.384 -31.226  1.00  0.00     0.034 A 
HETATM   17  C   UNL     1      -6.152   0.736 -30.234  1.00  0.00     0.025 A 
BRANCH  16  18
HETATM   18  C   UNL     1      -6.582  -0.295 -32.591  1.00  0.00    -0.031 A 
HETATM   19  C   UNL     1      -7.695   0.542 -32.799  1.00  0.00     0.009 A 
HETATM   20  C   UNL     1      -8.324   0.646 -34.044  1.00  0.00     0.001 A 
HETATM   21  C   UNL     1      -7.839  -0.068 -35.133  1.00  0.00     0.002 A 
HETATM   22  C   UNL     1      -6.718  -0.876 -34.977  1.00  0.00     0.024 A 
HETATM   23  C   UNL     1      -6.096  -0.980 -33.726  1.00  0.00     0.040 A 
HETATM   24 CL   UNL     1      -4.674  -1.967 -33.636  1.00  0.00    -0.084 Cl
ENDBRANCH  16  18
ENDBRANCH  12  15
ENDBRANCH   1  11
BRANCH   8  25
HETATM   25  C   UNL     1      -0.410   6.996 -31.355  1.00  0.00     0.270 C 
HETATM   26  N   UNL     1      -1.001   7.578 -30.266  1.00  0.00    -0.365 N 
HETATM   27  H   UNL     1      -1.990   7.792 -30.309  1.00  0.00     0.159 HD
HETATM   28  H   UNL     1      -0.450   7.774 -29.446  1.00  0.00     0.159 HD
HETATM   29  O   UNL     1       0.783   6.714 -31.354  1.00  0.00    -0.266 OA
ENDBRANCH   8  25
TORSDOF 4
ENDMDL
MODEL 2
REMARK VINA RESULT:      -8.5      1.828      2.511
REMARK  4 active torsions:
REMARK  status: ('A' for Active; 'I' for Inactive)
REMARK    1  A    between atoms: C_3  and  C_4 
REMARK    2  A    between atoms: C_5  and  C_6 
REMARK       I    between atoms: C_6  and  N_7 
REMARK    3  A    between atoms: N_7  and  C_8 
REMARK    4  A    between atoms: C_15  and  C_16 
REMARK       I    between atoms: C_16  and  N_17 
ROOT
HETATM    1  C   UNL     1      -4.860   3.786 -33.255  1.00  0.00     0.035 A 
HETATM    2  C   UNL     1      -3.700   4.075 -32.523  1.00  0.00     0.046 A 
HETATM    3  C   UNL     1      -2.734   4.955 -33.063  1.00  0.00     0.030 A 
HETATM    4  C   UNL     1      -2.960   5.509 -34.318  1.00  0.00     0.063 A 
HETATM    5  N   UNL     1      -1.874   6.300 -34.564  1.00  0.00    -0.277 N 
HETATM    6  H   UNL     1      -1.699   6.862 -35.391  1.00  0.00     0.189 HD
HETATM    7  N   UNL     1      -0.959   6.314 -33.582  1.00  0.00    -0.168 NA
HETATM    8  C   UNL     1      -1.476   5.484 -32.647  1.00  0.00     0.156 A 
HETATM    9  C   UNL     1      -4.100   5.238 -35.077  1.00  0.00     0.034 A 
HETATM   10  C   UNL     1      -5.043   4.366 -34.517  1.00  0.00     0.032 A 
ENDROOT
BRANCH   1  11
HETATM   11  N   UNL     1      -5.881   2.925 -32.799  1.00  0.00    -0.327 N 
HETATM   12  C   UNL     1      -6.679   2.096 -33.554  1.00  0.00     0.227 C 
HETATM   13  O   UNL     1      -6.616   1.903 -34.759  1.00  0.00    -0.273 OA
HETATM   14  H   UNL     1      -6.032   2.905 -31.801  1.00  0.00     0.169 HD
BRANCH  12  15
HETATM   15  C   UNL     1      -7.677   1.306 -32.779  1.00  0.00     0.087 A 
HETATM   16  C   UNL     1      -7.504  -0.181 -32.504  1.00  0.00     0.034 A 
HETATM   17  C   UNL     1      -8.638   0.318 -33.375  1.00  0.00     0.025 A 
BRANCH  16  18
HETATM   18  C   UNL     1      -6.440  -1.067 -33.139  1.00  0.00    -0.031 A 
HETATM   19  C   UNL     1      -6.736  -1.861 -34.263  1.00  0.00     0.009 A 
HETATM   20  C   UNL     1      -5.776  -2.679 -34.868  1.00  0.00     0.001 A 
HETATM   21  C   UNL     1      -4.475  -2.706 -34.380  1.00  0.00     0.002 A 
HETATM   22  C   UNL     1      -4.134  -1.906 -33.296  1.00  0.00     0.024 A 
HETATM   23  C   UNL     1      -5.102  -1.093 -32.690  1.00  0.00     0.040 A 
HETATM   24 CL   UNL     1      -4.575  -0.090 -31.378  1.00  0.00    -0.084 Cl
ENDBRANCH  16  18
ENDBRANCH  12  15
ENDBRANCH   1  11
BRANCH   8  25
HETATM   25  C   UNL     1      -0.763   5.220 -31.388  1.00  0.00     0.270 C 
HETATM   26  N   UNL     1      -1.453   5.594 -30.266  1.00  0.00    -0.365 N 
HETATM   27  H   UNL     1      -2.370   6.008 -30.378  1.00  0.00     0.159 HD
HETATM   28  H   UNL     1      -1.045   5.445 -29.358  1.00  0.00     0.159 HD
HETATM   29  O   UNL     1       0.350   4.712 -31.308  1.00  0.00    -0.266 OA
ENDBRANCH   8  25
TORSDOF 4
ENDMDL
MODEL 3
REMARK VINA RESULT:      -8.2      1.913      2.163
REMARK  4 active torsions:
REMARK  status: ('A' for Active; 'I' for Inactive)
REMARK    1  A    between atoms: C_3  and  C_4 
REMARK    2  A    between atoms: C_5  and  C_6 
REMARK       I    between atoms: C_6  and  N_7 
REMARK    3  A    between atoms: N_7  and  C_8 
REMARK    4  A    between atoms: C_15  and  C_16 
REMARK       I    between atoms: C_16  and  N_17 
ROOT
HETATM    1  C   UNL     1      -3.276   4.153 -31.701  1.00  0.00     0.035 A 
HETATM    2  C   UNL     1      -3.158   5.506 -31.354  1.00  0.00     0.046 A 
HETATM    3  C   UNL     1      -2.524   6.403 -32.243  1.00  0.00     0.030 A 
HETATM    4  C   UNL     1      -2.026   5.915 -33.446  1.00  0.00     0.063 A 
HETATM    5  N   UNL     1      -1.483   6.997 -34.078  1.00  0.00    -0.277 N 
HETATM    6  H   UNL     1      -1.028   7.013 -34.985  1.00  0.00     0.189 HD
HETATM    7  N   UNL     1      -1.583   8.150 -33.397  1.00  0.00    -0.168 NA
HETATM    8  C   UNL     1      -2.223   7.798 -32.258  1.00  0.00     0.156 A 
HETATM    9  C   UNL     1      -2.120   4.574 -33.821  1.00  0.00     0.034 A 
HETATM   10  C   UNL     1      -2.755   3.706 -32.923  1.00  0.00     0.032 A 
ENDROOT
BRANCH   1  11
HETATM   11  N   UNL     1      -3.894   3.184 -30.883  1.00  0.00    -0.327 N 
HETATM   12  C   UNL     1      -5.178   2.698 -30.979  1.00  0.00     0.227 C 
HETATM   13  O   UNL     1      -6.010   2.971 -31.832  1.00  0.00    -0.273 OA
HETATM   14  H   UNL     1      -3.320   2.792 -30.150  1.00  0.00     0.169 HD
BRANCH  12  15
HETATM   15  C   UNL     1      -5.543   1.675 -29.960  1.00  0.00     0.087 A 
HETATM   16  C   UNL     1      -5.576   0.186 -30.273  1.00  0.00     0.034 A 
HETATM   17  C   UNL     1      -6.846   0.931 -29.921  1.00  0.00     0.025 A 
BRANCH  16  18
HETATM   18  C   UNL     1      -5.454  -0.414 -31.668  1.00  0.00    -0.031 A 
HETATM   19  C   UNL     1      -6.595  -0.658 -32.454  1.00  0.00     0.009 A 
HETATM   20  C   UNL     1      -6.510  -1.204 -33.739  1.00  0.00     0.001 A 
HETATM   21  C   UNL     1      -5.269  -1.496 -34.292  1.00  0.00     0.002 A 
HETATM   22  C   UNL     1      -4.116  -1.232 -33.562  1.00  0.00     0.024 A 
HETATM   23  C   UNL     1      -4.208  -0.692 -32.273  1.00  0.00     0.040 A 
HETATM   24 CL   UNL     1      -2.718  -0.346 -31.458  1.00  0.00    -0.084 Cl
ENDBRANCH  16  18
ENDBRANCH  12  15
ENDBRANCH   1  11
BRANCH   8  25
HETATM   25  C   UNL     1      -2.530   8.794 -31.222  1.00  0.00     0.270 C 
HETATM   26  N   UNL     1      -1.833   8.621 -30.056  1.00  0.00    -0.365 N 
HETATM   27  H   UNL     1      -1.178   7.851 -29.994  1.00  0.00     0.159 HD
HETATM   28  H   UNL     1      -1.973   9.261 -29.292  1.00  0.00     0.159 HD
HETATM   29  O   UNL     1      -3.332   9.713 -31.350  1.00  0.00    -0.266 OA
ENDBRANCH   8  25
TORSDOF 4
ENDMDL
MODEL 4
REMARK VINA RESULT:      -8.1      2.057      2.438
REMARK  4 active torsions:
REMARK  status: ('A' for Active; 'I' for Inactive)
REMARK    1  A    between atoms: C_3  and  C_4 
REMARK    2  A    between atoms: C_5  and  C_6 
REMARK       I    between atoms: C_6  and  N_7 
REMARK    3  A    between atoms: N_7  and  C_8 
REMARK    4  A    between atoms: C_15  and  C_16 
REMARK       I    between atoms: C_16  and  N_17 
ROOT
HETATM    1  C   UNL     1      -5.360   5.010 -33.098  1.00  0.00     0.035 A 
HETATM    2  C   UNL     1      -4.622   5.986 -32.414  1.00  0.00     0.046 A 
HETATM    3  C   UNL     1      -3.467   6.536 -33.015  1.00  0.00     0.030 A 
HETATM    4  C   UNL     1      -3.088   6.088 -34.275  1.00  0.00     0.063 A 
HETATM    5  N   UNL     1      -1.959   6.792 -34.585  1.00  0.00    -0.277 N 
HETATM    6  H   UNL     1      -1.408   6.724 -35.433  1.00  0.00     0.189 HD
HETATM    7  N   UNL     1      -1.566   7.661 -33.640  1.00  0.00    -0.168 NA
HETATM    8  C   UNL     1      -2.488   7.513 -32.660  1.00  0.00     0.156 A 
HETATM    9  C   UNL     1      -3.796   5.115 -34.982  1.00  0.00     0.034 A 
HETATM   10  C   UNL     1      -4.938   4.587 -34.366  1.00  0.00     0.032 A 
ENDROOT
BRANCH   1  11
HETATM   11  N   UNL     1      -6.527   4.405 -32.584  1.00  0.00    -0.327 N 
HETATM   12  C   UNL     1      -6.611   3.443 -31.603  1.00  0.00     0.227 C 
HETATM   13  O   UNL     1      -5.693   2.973 -30.947  1.00  0.00    -0.273 OA
HETATM   14  H   UNL     1      -7.401   4.727 -32.972  1.00  0.00     0.169 HD
BRANCH  12  15
HETATM   15  C   UNL     1      -7.995   2.996 -31.276  1.00  0.00     0.087 A 
HETATM   16  C   UNL     1      -8.577   1.693 -31.804  1.00  0.00     0.034 A 
HETATM   17  C   UNL     1      -9.153   3.028 -32.230  1.00  0.00     0.025 A 
BRANCH  16  18
HETATM   18  C   UNL     1      -7.928   0.815 -32.866  1.00  0.00    -0.031 A 
HETATM   19  C   UNL     1      -8.247   0.969 -34.228  1.00  0.00     0.009 A 
HETATM   20  C   UNL     1      -7.661   0.179 -35.223  1.00  0.00     0.001 A 
HETATM   21  C   UNL     1      -6.710  -0.776 -34.885  1.00  0.00     0.002 A 
HETATM   22  C   UNL     1      -6.339  -0.931 -33.554  1.00  0.00     0.024 A 
HETATM   23  C   UNL     1      -6.934  -0.142 -32.561  1.00  0.00     0.040 A 
HETATM   24 CL   UNL     1      -6.372  -0.367 -30.937  1.00  0.00    -0.084 Cl
ENDBRANCH  16  18
ENDBRANCH  12  15
ENDBRANCH   1  11
BRANCH   8  25
HETATM   25  C   UNL     1      -2.413   8.302 -31.422  1.00  0.00     0.270 C 
HETATM   26  N   UNL     1      -2.149   7.559 -30.302  1.00  0.00    -0.365 N 
HETATM   27  H   UNL     1      -2.025   6.560 -30.403  1.00  0.00     0.159 HD
HETATM   28  H   UNL     1      -2.072   8.017 -29.408  1.00  0.00     0.159 HD
HETATM   29  O   UNL     1      -2.567   9.516 -31.356  1.00  0.00    -0.266 OA
ENDBRANCH   8  25
TORSDOF 4
ENDMDL
MODEL 5
REMARK VINA RESULT:      -7.8      5.248      6.602
REMARK  4 active torsions:
REMARK  status: ('A' for Active; 'I' for Inactive)
REMARK    1  A    between atoms: C_3  and  C_4 
REMARK    2  A    between atoms: C_5  and  C_6 
REMARK       I    between atoms: C_6  and  N_7 
REMARK    3  A    between atoms: N_7  and  C_8 
REMARK    4  A    between atoms: C_15  and  C_16 
REMARK       I    between atoms: C_16  and  N_17 
ROOT
HETATM    1  C   UNL     1      -7.756   0.991 -33.134  1.00  0.00     0.035 A 
HETATM    2  C   UNL     1      -8.172   2.329 -33.159  1.00  0.00     0.046 A 
HETATM    3  C   UNL     1      -9.550   2.633 -33.104  1.00  0.00     0.030 A 
HETATM    4  C   UNL     1     -10.465   1.589 -33.031  1.00  0.00     0.063 A 
HETATM    5  N   UNL     1     -11.693   2.186 -32.990  1.00  0.00    -0.277 N 
HETATM    6  H   UNL     1     -12.596   1.727 -32.934  1.00  0.00     0.189 HD
HETATM    7  N   UNL     1     -11.663   3.528 -33.028  1.00  0.00    -0.168 NA
HETATM    8  C   UNL     1     -10.344   3.820 -33.101  1.00  0.00     0.156 A 
HETATM    9  C   UNL     1     -10.087   0.245 -33.010  1.00  0.00     0.034 A 
HETATM   10  C   UNL     1      -8.715  -0.029 -33.063  1.00  0.00     0.032 A 
ENDROOT
BRANCH   1  11
HETATM   11  N   UNL     1      -6.404   0.588 -33.182  1.00  0.00    -0.327 N 
HETATM   12  C   UNL     1      -5.710  -0.134 -32.238  1.00  0.00     0.227 C 
HETATM   13  O   UNL     1      -6.149  -0.617 -31.204  1.00  0.00    -0.273 OA
HETATM   14  H   UNL     1      -5.893   0.849 -34.012  1.00  0.00     0.169 HD
BRANCH  12  15
HETATM   15  C   UNL     1      -4.283  -0.402 -32.574  1.00  0.00     0.087 A 
HETATM   16  C   UNL     1      -3.864  -1.510 -33.530  1.00  0.00     0.034 A 
HETATM   17  C   UNL     1      -3.487  -1.568 -32.065  1.00  0.00     0.025 A 
BRANCH  16  18
HETATM   18  C   UNL     1      -4.794  -2.584 -34.080  1.00  0.00    -0.031 A 
HETATM   19  C   UNL     1      -5.977  -2.239 -34.759  1.00  0.00     0.009 A 
HETATM   20  C   UNL     1      -6.845  -3.205 -35.278  1.00  0.00     0.001 A 
HETATM   21  C   UNL     1      -6.538  -4.555 -35.158  1.00  0.00     0.002 A 
HETATM   22  C   UNL     1      -5.358  -4.935 -34.529  1.00  0.00     0.024 A 
HETATM   23  C   UNL     1      -4.496  -3.963 -34.005  1.00  0.00     0.040 A 
HETATM   24 CL   UNL     1      -3.023  -4.525 -33.285  1.00  0.00    -0.084 Cl
ENDBRANCH  16  18
ENDBRANCH  12  15
ENDBRANCH   1  11
BRANCH   8  25
HETATM   25  C   UNL     1      -9.877   5.212 -33.164  1.00  0.00     0.270 C 
HETATM   26  N   UNL     1     -10.567   6.070 -32.349  1.00  0.00    -0.365 N 
HETATM   27  H   UNL     1     -11.318   5.698 -31.781  1.00  0.00     0.159 HD
HETATM   28  H   UNL     1     -10.312   7.044 -32.321  1.00  0.00     0.159 HD
HETATM   29  O   UNL     1      -8.957   5.611 -33.869  1.00  0.00    -0.266 OA
ENDBRANCH   8  25
TORSDOF 4
ENDMDL
MODEL 6
REMARK VINA RESULT:      -7.8      3.167      8.223
REMARK  4 active torsions:
REMARK  status: ('A' for Active; 'I' for Inactive)
REMARK    1  A    between atoms: C_3  and  C_4 
REMARK    2  A    between atoms: C_5  and  C_6 
REMARK       I    between atoms: C_6  and  N_7 
REMARK    3  A    between atoms: N_7  and  C_8 
REMARK    4  A    between atoms: C_15  and  C_16 
REMARK       I    between atoms: C_16  and  N_17 
ROOT
HETATM    1  C   UNL     1      -4.113   3.520 -31.922  1.00  0.00     0.035 A 
HETATM    2  C   UNL     1      -4.352   2.182 -32.269  1.00  0.00     0.046 A 
HETATM    3  C   UNL     1      -5.234   1.406 -31.484  1.00  0.00     0.030 A 
HETATM    4  C   UNL     1      -5.842   1.991 -30.380  1.00  0.00     0.063 A 
HETATM    5  N   UNL     1      -6.623   1.011 -29.836  1.00  0.00    -0.277 N 
HETATM    6  H   UNL     1      -7.214   1.084 -29.014  1.00  0.00     0.189 HD
HETATM    7  N   UNL     1      -6.581  -0.163 -30.486  1.00  0.00    -0.168 NA
HETATM    8  C   UNL     1      -5.724   0.065 -31.508  1.00  0.00     0.156 A 
HETATM    9  C   UNL     1      -5.623   3.317 -30.003  1.00  0.00     0.034 A 
HETATM   10  C   UNL     1      -4.746   4.066 -30.798  1.00  0.00     0.032 A 
ENDROOT
BRANCH   1  11
HETATM   11  N   UNL     1      -3.252   4.375 -32.644  1.00  0.00    -0.327 N 
HETATM   12  C   UNL     1      -1.940   4.678 -32.362  1.00  0.00     0.227 C 
HETATM   13  O   UNL     1      -1.250   4.216 -31.465  1.00  0.00    -0.273 OA
HETATM   14  H   UNL     1      -3.644   4.802 -33.471  1.00  0.00     0.169 HD
BRANCH  12  15
HETATM   15  C   UNL     1      -1.293   5.624 -33.315  1.00  0.00     0.087 A 
HETATM   16  C   UNL     1      -1.005   7.074 -32.956  1.00  0.00     0.034 A 
HETATM   17  C   UNL     1      -2.003   6.729 -34.041  1.00  0.00     0.025 A 
BRANCH  16  18
HETATM   18  C   UNL     1      -1.512   7.780 -31.705  1.00  0.00    -0.031 A 
HETATM   19  C   UNL     1      -2.726   8.492 -31.717  1.00  0.00     0.009 A 
HETATM   20  C   UNL     1      -3.217   9.144 -30.581  1.00  0.00     0.001 A 
HETATM   21  C   UNL     1      -2.516   9.080 -29.383  1.00  0.00     0.002 A 
HETATM   22  C   UNL     1      -1.332   8.353 -29.320  1.00  0.00     0.024 A 
HETATM   23  C   UNL     1      -0.843   7.707 -30.463  1.00  0.00     0.040 A 
HETATM   24 CL   UNL     1       0.611   6.782 -30.280  1.00  0.00    -0.084 Cl
ENDBRANCH  16  18
ENDBRANCH  12  15
ENDBRANCH   1  11
BRANCH   8  25
HETATM   25  C   UNL     1      -5.398  -0.994 -32.475  1.00  0.00     0.270 C 
HETATM   26  N   UNL     1      -6.400  -1.264 -33.367  1.00  0.00    -0.365 N 
HETATM   27  H   UNL     1      -7.261  -0.734 -33.302  1.00  0.00     0.159 HD
HETATM   28  H   UNL     1      -6.263  -1.970 -34.072  1.00  0.00     0.159 HD
HETATM   29  O   UNL     1      -4.334  -1.603 -32.513  1.00  0.00    -0.266 OA
ENDBRANCH   8  25
TORSDOF 4
ENDMDL
MODEL 7
REMARK VINA RESULT:      -7.8      3.547      7.270
REMARK  4 active torsions:
REMARK  status: ('A' for Active; 'I' for Inactive)
REMARK    1  A    between atoms: C_3  and  C_4 
REMARK    2  A    between atoms: C_5  and  C_6 
REMARK       I    between atoms: C_6  and  N_7 
REMARK    3  A    between atoms: N_7  and  C_8 
REMARK    4  A    between atoms: C_15  and  C_16 
REMARK       I    between atoms: C_16  and  N_17 
ROOT
HETATM    1  C   UNL     1      -6.018   0.969 -33.249  1.00  0.00     0.035 A 
HETATM    2  C   UNL     1      -5.086   0.064 -32.723  1.00  0.00     0.046 A 
HETATM    3  C   UNL     1      -4.932  -1.207 -33.322  1.00  0.00     0.030 A 
HETATM    4  C   UNL     1      -5.718  -1.529 -34.422  1.00  0.00     0.063 A 
HETATM    5  N   UNL     1      -5.347  -2.796 -34.773  1.00  0.00    -0.277 N 
HETATM    6  H   UNL     1      -5.715  -3.353 -35.537  1.00  0.00     0.189 HD
HETATM    7  N   UNL     1      -4.388  -3.331 -34.001  1.00  0.00    -0.168 NA
HETATM    8  C   UNL     1      -4.122  -2.360 -33.097  1.00  0.00     0.156 A 
HETATM    9  C   UNL     1      -6.659  -0.655 -34.969  1.00  0.00     0.034 A 
HETATM   10  C   UNL     1      -6.790   0.599 -34.358  1.00  0.00     0.032 A 
ENDROOT
BRANCH   1  11
HETATM   11  N   UNL     1      -6.241   2.260 -32.724  1.00  0.00    -0.327 N 
HETATM   12  C   UNL     1      -5.770   2.776 -31.538  1.00  0.00     0.227 C 
HETATM   13  O   UNL     1      -5.018   2.234 -30.741  1.00  0.00    -0.273 OA
HETATM   14  H   UNL     1      -6.799   2.880 -33.292  1.00  0.00     0.169 HD
BRANCH  12  15
HETATM   15  C   UNL     1      -6.183   4.180 -31.254  1.00  0.00     0.087 A 
HETATM   16  C   UNL     1      -5.319   5.376 -31.626  1.00  0.00     0.034 A 
HETATM   17  C   UNL     1      -5.598   5.043 -30.175  1.00  0.00     0.025 A 
BRANCH  16  18
HETATM   18  C   UNL     1      -3.882   5.291 -32.124  1.00  0.00    -0.031 A 
HETATM   19  C   UNL     1      -2.800   5.363 -31.226  1.00  0.00     0.009 A 
HETATM   20  C   UNL     1      -1.471   5.283 -31.657  1.00  0.00     0.001 A 
HETATM   21  C   UNL     1      -1.184   5.098 -33.004  1.00  0.00     0.002 A 
HETATM   22  C   UNL     1      -2.227   4.983 -33.916  1.00  0.00     0.024 A 
HETATM   23  C   UNL     1      -3.555   5.071 -33.480  1.00  0.00     0.040 A 
HETATM   24 CL   UNL     1      -4.790   4.863 -34.678  1.00  0.00    -0.084 Cl
ENDBRANCH  16  18
ENDBRANCH  12  15
ENDBRANCH   1  11
BRANCH   8  25
HETATM   25  C   UNL     1      -3.108  -2.555 -32.050  1.00  0.00     0.270 C 
HETATM   26  N   UNL     1      -2.458  -1.408 -31.681  1.00  0.00    -0.365 N 
HETATM   27  H   UNL     1      -2.713  -0.540 -32.136  1.00  0.00     0.159 HD
HETATM   28  H   UNL     1      -1.751  -1.444 -30.965  1.00  0.00     0.159 HD
HETATM   29  O   UNL     1      -2.840  -3.632 -31.527  1.00  0.00    -0.266 OA
ENDBRANCH   8  25
TORSDOF 4
ENDMDL
MODEL 8
REMARK VINA RESULT:      -7.7      3.184      8.238
REMARK  4 active torsions:
REMARK  status: ('A' for Active; 'I' for Inactive)
REMARK    1  A    between atoms: C_3  and  C_4 
REMARK    2  A    between atoms: C_5  and  C_6 
REMARK       I    between atoms: C_6  and  N_7 
REMARK    3  A    between atoms: N_7  and  C_8 
REMARK    4  A    between atoms: C_15  and  C_16 
REMARK       I    between atoms: C_16  and  N_17 
ROOT
HETATM    1  C   UNL     1      -4.904   3.759 -32.580  1.00  0.00     0.035 A 
HETATM    2  C   UNL     1      -5.646   2.709 -33.138  1.00  0.00     0.046 A 
HETATM    3  C   UNL     1      -6.703   2.131 -32.398  1.00  0.00     0.030 A 
HETATM    4  C   UNL     1      -6.976   2.620 -31.126  1.00  0.00     0.063 A 
HETATM    5  N   UNL     1      -8.030   1.879 -30.672  1.00  0.00    -0.277 N 
HETATM    6  H   UNL     1      -8.497   1.961 -29.775  1.00  0.00     0.189 HD
HETATM    7  N   UNL     1      -8.471   0.948 -31.534  1.00  0.00    -0.168 NA
HETATM    8  C   UNL     1      -7.658   1.091 -32.607  1.00  0.00     0.156 A 
HETATM    9  C   UNL     1      -6.254   3.660 -30.538  1.00  0.00     0.034 A 
HETATM   10  C   UNL     1      -5.214   4.217 -31.293  1.00  0.00     0.032 A 
ENDROOT
BRANCH   1  11
HETATM   11  N   UNL     1      -3.835   4.401 -33.241  1.00  0.00    -0.327 N 
HETATM   12  C   UNL     1      -2.512   4.434 -32.862  1.00  0.00     0.227 C 
HETATM   13  O   UNL     1      -2.000   3.861 -31.912  1.00  0.00    -0.273 OA
HETATM   14  H   UNL     1      -4.068   4.880 -34.099  1.00  0.00     0.169 HD
BRANCH  12  15
HETATM   15  C   UNL     1      -1.615   5.203 -33.771  1.00  0.00     0.087 A 
HETATM   16  C   UNL     1      -0.871   6.451 -33.319  1.00  0.00     0.034 A 
HETATM   17  C   UNL     1      -1.949   6.533 -34.380  1.00  0.00     0.025 A 
BRANCH  16  18
HETATM   18  C   UNL     1      -1.101   7.172 -31.998  1.00  0.00    -0.031 A 
HETATM   19  C   UNL     1      -2.064   8.192 -31.888  1.00  0.00     0.009 A 
HETATM   20  C   UNL     1      -2.298   8.867 -30.684  1.00  0.00     0.001 A 
HETATM   21  C   UNL     1      -1.591   8.518 -29.540  1.00  0.00     0.002 A 
HETATM   22  C   UNL     1      -0.659   7.488 -29.599  1.00  0.00     0.024 A 
HETATM   23  C   UNL     1      -0.424   6.821 -30.808  1.00  0.00     0.040 A 
HETATM   24 CL   UNL     1       0.715   5.515 -30.776  1.00  0.00    -0.084 Cl
ENDBRANCH  16  18
ENDBRANCH  12  15
ENDBRANCH   1  11
BRANCH   8  25
HETATM   25  C   UNL     1      -7.812   0.239 -33.795  1.00  0.00     0.270 C 
HETATM   26  N   UNL     1      -8.441   0.853 -34.844  1.00  0.00    -0.365 N 
HETATM   27  H   UNL     1      -8.741   1.814 -34.734  1.00  0.00     0.159 HD
HETATM   28  H   UNL     1      -8.585   0.348 -35.704  1.00  0.00     0.159 HD
HETATM   29  O   UNL     1      -7.426  -0.922 -33.878  1.00  0.00    -0.266 OA
ENDBRANCH   8  25
TORSDOF 4
ENDMDL
MODEL 9
REMARK VINA RESULT:      -7.6      5.608      7.254
REMARK  4 active torsions:
REMARK  status: ('A' for Active; 'I' for Inactive)
REMARK    1  A    between atoms: C_3  and  C_4 
REMARK    2  A    between atoms: C_5  and  C_6 
REMARK       I    between atoms: C_6  and  N_7 
REMARK    3  A    between atoms: N_7  and  C_8 
REMARK    4  A    between atoms: C_15  and  C_16 
REMARK       I    between atoms: C_16  and  N_17 
ROOT
HETATM    1  C   UNL     1      -6.975   0.241 -33.221  1.00  0.00     0.035 A 
HETATM    2  C   UNL     1      -5.806  -0.330 -32.699  1.00  0.00     0.046 A 
HETATM    3  C   UNL     1      -5.228  -1.448 -33.342  1.00  0.00     0.030 A 
HETATM    4  C   UNL     1      -5.841  -1.959 -34.480  1.00  0.00     0.063 A 
HETATM    5  N   UNL     1      -5.065  -3.014 -34.866  1.00  0.00    -0.277 N 
HETATM    6  H   UNL     1      -5.212  -3.624 -35.664  1.00  0.00     0.189 HD
HETATM    7  N   UNL     1      -3.998  -3.239 -34.083  1.00  0.00    -0.168 NA
HETATM    8  C   UNL     1      -4.086  -2.279 -33.134  1.00  0.00     0.156 A 
HETATM    9  C   UNL     1      -7.008  -1.419 -35.023  1.00  0.00     0.034 A 
HETATM   10  C   UNL     1      -7.560  -0.310 -34.369  1.00  0.00     0.032 A 
ENDROOT
BRANCH   1  11
HETATM   11  N   UNL     1      -7.623   1.359 -32.654  1.00  0.00    -0.327 N 
HETATM   12  C   UNL     1      -8.739   1.362 -31.848  1.00  0.00     0.227 C 
HETATM   13  O   UNL     1      -9.347   0.392 -31.421  1.00  0.00    -0.273 OA
HETATM   14  H   UNL     1      -7.210   2.259 -32.851  1.00  0.00     0.169 HD
BRANCH  12  15
HETATM   15  C   UNL     1      -9.193   2.711 -31.405  1.00  0.00     0.087 A 
HETATM   16  C   UNL     1     -10.365   3.432 -32.055  1.00  0.00     0.034 A 
HETATM   17  C   UNL     1      -8.960   3.985 -32.164  1.00  0.00     0.025 A 
BRANCH  16  18
HETATM   18  C   UNL     1     -11.066   2.983 -33.330  1.00  0.00    -0.031 A 
HETATM   19  C   UNL     1     -11.768   1.764 -33.379  1.00  0.00     0.009 A 
HETATM   20  C   UNL     1     -12.424   1.331 -34.536  1.00  0.00     0.001 A 
HETATM   21  C   UNL     1     -12.424   2.124 -35.677  1.00  0.00     0.002 A 
HETATM   22  C   UNL     1     -11.775   3.354 -35.655  1.00  0.00     0.024 A 
HETATM   23  C   UNL     1     -11.114   3.779 -34.496  1.00  0.00     0.040 A 
HETATM   24 CL   UNL     1     -10.379   5.348 -34.541  1.00  0.00    -0.084 Cl
ENDBRANCH  16  18
ENDBRANCH  12  15
ENDBRANCH   1  11
BRANCH   8  25
HETATM   25  C   UNL     1      -3.086  -2.178 -32.061  1.00  0.00     0.270 C 
HETATM   26  N   UNL     1      -2.792  -3.372 -31.458  1.00  0.00    -0.365 N 
HETATM   27  H   UNL     1      -3.263  -4.207 -31.782  1.00  0.00     0.159 HD
HETATM   28  H   UNL     1      -2.111  -3.401 -30.716  1.00  0.00     0.159 HD
HETATM   29  O   UNL     1      -2.540  -1.139 -31.708  1.00  0.00    -0.266 OA
ENDBRANCH   8  25
TORSDOF 4
ENDMDL
MODEL 10
REMARK VINA RESULT:      -7.5      4.939      7.390
REMARK  4 active torsions:
REMARK  status: ('A' for Active; 'I' for Inactive)
REMARK    1  A    between atoms: C_3  and  C_4 
REMARK    2  A    between atoms: C_5  and  C_6 
REMARK       I    between atoms: C_6  and  N_7 
REMARK    3  A    between atoms: N_7  and  C_8 
REMARK    4  A    between atoms: C_15  and  C_16 
REMARK       I    between atoms: C_16  and  N_17 
ROOT
HETATM    1  C   UNL     1      -8.477   0.918 -34.332  1.00  0.00     0.035 A 
HETATM    2  C   UNL     1      -7.854   1.317 -33.142  1.00  0.00     0.046 A 
HETATM    3  C   UNL     1      -6.606   0.758 -32.785  1.00  0.00     0.030 A 
HETATM    4  C   UNL     1      -6.027  -0.183 -33.629  1.00  0.00     0.063 A 
HETATM    5  N   UNL     1      -4.850  -0.530 -33.030  1.00  0.00    -0.277 N 
HETATM    6  H   UNL     1      -4.164  -1.197 -33.366  1.00  0.00     0.189 HD
HETATM    7  N   UNL     1      -4.606   0.101 -31.870  1.00  0.00    -0.168 NA
HETATM    8  C   UNL     1      -5.685   0.901 -31.704  1.00  0.00     0.156 A 
HETATM    9  C   UNL     1      -6.622  -0.608 -34.818  1.00  0.00     0.034 A 
HETATM   10  C   UNL     1      -7.857  -0.037 -35.150  1.00  0.00     0.032 A 
ENDROOT
BRANCH   1  11
HETATM   11  N   UNL     1      -9.720   1.420 -34.774  1.00  0.00    -0.327 N 
HETATM   12  C   UNL     1     -10.970   1.116 -34.286  1.00  0.00     0.227 C 
HETATM   13  O   UNL     1     -11.238   0.398 -33.333  1.00  0.00    -0.273 OA
HETATM   14  H   UNL     1      -9.684   2.091 -35.528  1.00  0.00     0.169 HD
BRANCH  12  15
HETATM   15  C   UNL     1     -12.099   1.810 -34.967  1.00  0.00     0.087 A 
HETATM   16  C   UNL     1     -12.594   3.182 -34.534  1.00  0.00     0.034 A 
HETATM   17  C   UNL     1     -13.480   1.961 -34.399  1.00  0.00     0.025 A 
BRANCH  16  18
HETATM   18  C   UNL     1     -12.161   3.905 -33.265  1.00  0.00    -0.031 A 
HETATM   19  C   UNL     1     -12.865   3.733 -32.059  1.00  0.00     0.009 A 
HETATM   20  C   UNL     1     -12.484   4.381 -30.878  1.00  0.00     0.001 A 
HETATM   21  C   UNL     1     -11.364   5.203 -30.863  1.00  0.00     0.002 A 
HETATM   22  C   UNL     1     -10.620   5.366 -32.026  1.00  0.00     0.024 A 
HETATM   23  C   UNL     1     -11.009   4.720 -33.206  1.00  0.00     0.040 A 
HETATM   24 CL   UNL     1      -9.992   4.938 -34.593  1.00  0.00    -0.084 Cl
ENDBRANCH  16  18
ENDBRANCH  12  15
ENDBRANCH   1  11
BRANCH   8  25
HETATM   25  C   UNL     1      -5.809   1.774 -30.528  1.00  0.00     0.270 C 
HETATM   26  N   UNL     1      -6.275   1.140 -29.408  1.00  0.00    -0.365 N 
HETATM   27  H   UNL     1      -6.491   0.153 -29.465  1.00  0.00     0.159 HD
HETATM   28  H   UNL     1      -6.385   1.659 -28.552  1.00  0.00     0.159 HD
HETATM   29  O   UNL     1      -5.529   2.968 -30.511  1.00  0.00    -0.266 OA
ENDBRANCH   8  25
TORSDOF 4
ENDMDL
