MODEL 1
REMARK VINA RESULT:      -7.9      0.000      0.000
REMARK  6 active torsions:
REMARK  status: ('A' for Active; 'I' for Inactive)
REMARK    1  A    between atoms: C_2  and  N_3 
REMARK    2  A    between atoms: C_2  and  C_16 
REMARK    3  A    between atoms: N_3  and  C_6 
REMARK    4  A    between atoms: C_16  and  C_17 
REMARK       I    between atoms: C_17  and  N_18 
REMARK    5  A    between atoms: N_18  and  C_19 
REMARK    6  A    between atoms: C_22  and  O_23 
ROOT
HETATM    1  C   UNL     1      -5.605   3.951 -34.196  1.00  0.00     0.040 C 
HETATM    2  C   UNL     1      -6.426   2.906 -33.452  1.00  0.00     0.191 C 
ENDROOT
BRANCH   2   3
HETATM    3  N   UNL     1      -5.579   1.695 -33.145  1.00  0.00    -0.063 N 
HETATM    4  H   UNL     1      -5.159   1.402 -34.056  1.00  0.00     0.278 HD
HETATM    5  H   UNL     1      -4.770   2.018 -32.602  1.00  0.00     0.278 HD
BRANCH   3   6
HETATM    6  C   UNL     1      -6.160   0.469 -32.489  1.00  0.00     0.221 C 
HETATM    7  C   UNL     1      -5.933  -0.803 -33.263  1.00  0.00    -0.011 A 
HETATM    8  C   UNL     1      -4.644  -1.356 -33.333  1.00  0.00     0.009 A 
HETATM    9  C   UNL     1      -6.996  -1.455 -33.909  1.00  0.00     0.011 A 
HETATM   10  C   UNL     1      -4.419  -2.502 -34.099  1.00  0.00     0.019 A 
HETATM   11  S   UNL     1      -3.264  -0.592 -32.508  1.00  0.00    -0.129 SA
HETATM   12  C   UNL     1      -5.476  -3.128 -34.759  1.00  0.00     0.001 A 
HETATM   13  C   UNL     1      -6.765  -2.611 -34.656  1.00  0.00     0.001 A 
HETATM   14  C   UNL     1      -4.056   0.101 -31.021  1.00  0.00     0.082 C 
HETATM   15  C   UNL     1      -5.568   0.309 -31.083  1.00  0.00     0.048 C 
ENDBRANCH   3   6
ENDBRANCH   2   3
BRANCH   2  16
HETATM   16  C   UNL     1      -7.133   3.489 -32.223  1.00  0.00     0.135 C 
BRANCH  16  17
HETATM   17  C   UNL     1      -8.633   3.313 -32.323  1.00  0.00     0.224 C 
HETATM   18  N   UNL     1      -9.017   2.615 -33.445  1.00  0.00    -0.327 N 
HETATM   19  H   UNL     1      -8.305   2.389 -34.130  1.00  0.00     0.169 HD
HETATM   20  O   UNL     1      -9.355   3.820 -31.467  1.00  0.00    -0.273 OA
BRANCH  18  21
HETATM   21  C   UNL     1     -10.328   2.235 -33.801  1.00  0.00     0.034 A 
HETATM   22  C   UNL     1     -11.049   3.109 -34.624  1.00  0.00     0.032 A 
HETATM   23  C   UNL     1     -12.348   2.796 -35.046  1.00  0.00     0.039 A 
HETATM   24  C   UNL     1     -12.936   1.595 -34.658  1.00  0.00     0.068 A 
HETATM   25  C   UNL     1     -12.220   0.724 -33.837  1.00  0.00     0.039 A 
HETATM   26  C   UNL     1     -10.925   1.039 -33.408  1.00  0.00     0.032 A 
BRANCH  24  27
HETATM   27  O   UNL     1     -14.183   1.159 -35.006  1.00  0.00    -0.356 OA
HETATM   28  C   UNL     1     -15.126   0.983 -33.956  1.00  0.00     0.210 C 
ENDBRANCH  24  27
ENDBRANCH  18  21
ENDBRANCH  16  17
ENDBRANCH   2  16
TORSDOF 6
ENDMDL
MODEL 2
REMARK VINA RESULT:      -7.9      3.779      7.402
REMARK  6 active torsions:
REMARK  status: ('A' for Active; 'I' for Inactive)
REMARK    1  A    between atoms: C_2  and  N_3 
REMARK    2  A    between atoms: C_2  and  C_16 
REMARK    3  A    between atoms: N_3  and  C_6 
REMARK    4  A    between atoms: C_16  and  C_17 
REMARK       I    between atoms: C_17  and  N_18 
REMARK    5  A    between atoms: N_18  and  C_19 
REMARK    6  A    between atoms: C_22  and  O_23 
ROOT
HETATM    1  C   UNL     1      -8.244   2.225 -34.170  1.00  0.00     0.040 C 
HETATM    2  C   UNL     1      -6.893   2.410 -33.492  1.00  0.00     0.191 C 
ENDROOT
BRANCH   2   3
HETATM    3  N   UNL     1      -6.091   1.133 -33.565  1.00  0.00    -0.063 N 
HETATM    4  H   UNL     1      -6.009   0.905 -34.582  1.00  0.00     0.278 HD
HETATM    5  H   UNL     1      -5.128   1.362 -33.293  1.00  0.00     0.278 HD
BRANCH   3   6
HETATM    6  C   UNL     1      -6.526  -0.117 -32.846  1.00  0.00     0.221 C 
HETATM    7  C   UNL     1      -6.117  -1.392 -33.536  1.00  0.00    -0.011 A 
HETATM    8  C   UNL     1      -4.766  -1.776 -33.549  1.00  0.00     0.009 A 
HETATM    9  C   UNL     1      -7.070  -2.213 -34.161  1.00  0.00     0.011 A 
HETATM   10  C   UNL     1      -4.376  -2.926 -34.238  1.00  0.00     0.019 A 
HETATM   11  S   UNL     1      -3.518  -0.793 -32.745  1.00  0.00    -0.129 SA
HETATM   12  C   UNL     1      -5.326  -3.721 -34.878  1.00  0.00     0.001 A 
HETATM   13  C   UNL     1      -6.673  -3.371 -34.832  1.00  0.00     0.001 A 
HETATM   14  C   UNL     1      -4.432  -0.122 -31.319  1.00  0.00     0.082 C 
HETATM   15  C   UNL     1      -5.956  -0.117 -31.423  1.00  0.00     0.048 C 
ENDBRANCH   3   6
ENDBRANCH   2   3
BRANCH   2  16
HETATM   16  C   UNL     1      -6.141   3.638 -34.017  1.00  0.00     0.135 C 
BRANCH  16  17
HETATM   17  C   UNL     1      -4.968   3.981 -33.125  1.00  0.00     0.224 C 
HETATM   18  N   UNL     1      -4.040   4.787 -33.745  1.00  0.00    -0.327 N 
HETATM   19  H   UNL     1      -4.162   4.977 -34.732  1.00  0.00     0.169 HD
HETATM   20  O   UNL     1      -4.914   3.502 -31.995  1.00  0.00    -0.273 OA
BRANCH  18  21
HETATM   21  C   UNL     1      -2.869   5.328 -33.174  1.00  0.00     0.034 A 
HETATM   22  C   UNL     1      -2.704   6.718 -33.245  1.00  0.00     0.032 A 
HETATM   23  C   UNL     1      -1.583   7.340 -32.681  1.00  0.00     0.039 A 
HETATM   24  C   UNL     1      -0.618   6.578 -32.027  1.00  0.00     0.068 A 
HETATM   25  C   UNL     1      -0.781   5.194 -31.956  1.00  0.00     0.039 A 
HETATM   26  C   UNL     1      -1.896   4.570 -32.527  1.00  0.00     0.032 A 
BRANCH  24  27
HETATM   27  O   UNL     1       0.511   7.054 -31.422  1.00  0.00    -0.356 OA
HETATM   28  C   UNL     1       0.526   7.074 -30.000  1.00  0.00     0.210 C 
ENDBRANCH  24  27
ENDBRANCH  18  21
ENDBRANCH  16  17
ENDBRANCH   2  16
TORSDOF 6
ENDMDL
MODEL 3
REMARK VINA RESULT:      -7.7      4.959      8.497
REMARK  6 active torsions:
REMARK  status: ('A' for Active; 'I' for Inactive)
REMARK    1  A    between atoms: C_2  and  N_3 
REMARK    2  A    between atoms: C_2  and  C_16 
REMARK    3  A    between atoms: N_3  and  C_6 
REMARK    4  A    between atoms: C_16  and  C_17 
REMARK       I    between atoms: C_17  and  N_18 
REMARK    5  A    between atoms: N_18  and  C_19 
REMARK    6  A    between atoms: C_22  and  O_23 
ROOT
HETATM    1  C   UNL     1      -6.518   3.663 -33.150  1.00  0.00     0.040 C 
HETATM    2  C   UNL     1      -5.136   3.184 -32.724  1.00  0.00     0.191 C 
ENDROOT
BRANCH   2   3
HETATM    3  N   UNL     1      -4.944   1.735 -33.105  1.00  0.00    -0.063 N 
HETATM    4  H   UNL     1      -5.108   1.687 -34.136  1.00  0.00     0.278 HD
HETATM    5  H   UNL     1      -3.944   1.526 -33.011  1.00  0.00     0.278 HD
BRANCH   3   6
HETATM    6  C   UNL     1      -5.744   0.634 -32.458  1.00  0.00     0.221 C 
HETATM    7  C   UNL     1      -5.699  -0.672 -33.205  1.00  0.00    -0.011 A 
HETATM    8  C   UNL     1      -4.517  -1.431 -33.213  1.00  0.00     0.009 A 
HETATM    9  C   UNL     1      -6.828  -1.154 -33.888  1.00  0.00     0.011 A 
HETATM   10  C   UNL     1      -4.453  -2.614 -33.954  1.00  0.00     0.019 A 
HETATM   11  S   UNL     1      -3.064  -0.887 -32.339  1.00  0.00    -0.129 SA
HETATM   12  C   UNL     1      -5.571  -3.070 -34.650  1.00  0.00     0.001 A 
HETATM   13  C   UNL     1      -6.761  -2.347 -34.610  1.00  0.00     0.001 A 
HETATM   14  C   UNL     1      -3.790  -0.044 -30.897  1.00  0.00     0.082 C 
HETATM   15  C   UNL     1      -5.244   0.408 -31.027  1.00  0.00     0.048 C 
ENDBRANCH   3   6
ENDBRANCH   2   3
BRANCH   2  16
HETATM   16  C   UNL     1      -4.019   4.104 -33.229  1.00  0.00     0.135 C 
BRANCH  16  17
HETATM   17  C   UNL     1      -2.977   4.334 -32.156  1.00  0.00     0.224 C 
HETATM   18  N   UNL     1      -2.575   5.648 -32.072  1.00  0.00    -0.327 N 
HETATM   19  H   UNL     1      -2.912   6.293 -32.777  1.00  0.00     0.169 HD
HETATM   20  O   UNL     1      -2.560   3.376 -31.510  1.00  0.00    -0.273 OA
BRANCH  18  21
HETATM   21  C   UNL     1      -1.667   6.201 -31.145  1.00  0.00     0.034 A 
HETATM   22  C   UNL     1      -0.320   6.265 -31.526  1.00  0.00     0.032 A 
HETATM   23  C   UNL     1       0.643   6.822 -30.675  1.00  0.00     0.039 A 
HETATM   24  C   UNL     1       0.268   7.335 -29.437  1.00  0.00     0.068 A 
HETATM   25  C   UNL     1      -1.073   7.271 -29.056  1.00  0.00     0.039 A 
HETATM   26  C   UNL     1      -2.036   6.707 -29.901  1.00  0.00     0.032 A 
BRANCH  24  27
HETATM   27  O   UNL     1       1.096   7.917 -28.520  1.00  0.00    -0.356 OA
HETATM   28  C   UNL     1       1.146   7.330 -27.226  1.00  0.00     0.210 C 
ENDBRANCH  24  27
ENDBRANCH  18  21
ENDBRANCH  16  17
ENDBRANCH   2  16
TORSDOF 6
ENDMDL
MODEL 4
REMARK VINA RESULT:      -7.6      4.437      7.548
REMARK  6 active torsions:
REMARK  status: ('A' for Active; 'I' for Inactive)
REMARK    1  A    between atoms: C_2  and  N_3 
REMARK    2  A    between atoms: C_2  and  C_16 
REMARK    3  A    between atoms: N_3  and  C_6 
REMARK    4  A    between atoms: C_16  and  C_17 
REMARK       I    between atoms: C_17  and  N_18 
REMARK    5  A    between atoms: N_18  and  C_19 
REMARK    6  A    between atoms: C_22  and  O_23 
ROOT
HETATM    1  C   UNL     1      -5.891   4.861 -29.122  1.00  0.00     0.040 C 
HETATM    2  C   UNL     1      -5.426   4.062 -30.333  1.00  0.00     0.191 C 
ENDROOT
BRANCH   2   3
HETATM    3  N   UNL     1      -4.034   4.486 -30.736  1.00  0.00    -0.063 N 
HETATM    4  H   UNL     1      -3.401   4.142 -29.979  1.00  0.00     0.278 HD
HETATM    5  H   UNL     1      -3.767   3.918 -31.548  1.00  0.00     0.278 HD
BRANCH   3   6
HETATM    6  C   UNL     1      -3.692   5.928 -31.004  1.00  0.00     0.221 C 
HETATM    7  C   UNL     1      -2.217   6.225 -30.952  1.00  0.00    -0.011 A 
HETATM    8  C   UNL     1      -1.374   5.755 -31.972  1.00  0.00     0.009 A 
HETATM    9  C   UNL     1      -1.668   6.978 -29.901  1.00  0.00     0.011 A 
HETATM   10  C   UNL     1       0.003   5.978 -31.896  1.00  0.00     0.019 A 
HETATM   11  S   UNL     1      -2.017   4.823 -33.347  1.00  0.00    -0.129 SA
HETATM   12  C   UNL     1       0.541   6.704 -30.834  1.00  0.00     0.001 A 
HETATM   13  C   UNL     1      -0.293   7.212 -29.843  1.00  0.00     0.001 A 
HETATM   14  C   UNL     1      -3.660   5.577 -33.572  1.00  0.00     0.082 C 
HETATM   15  C   UNL     1      -4.234   6.338 -32.378  1.00  0.00     0.048 C 
ENDBRANCH   3   6
ENDBRANCH   2   3
BRANCH   2  16
HETATM   16  C   UNL     1      -5.572   2.550 -30.125  1.00  0.00     0.135 C 
BRANCH  16  17
HETATM   17  C   UNL     1      -5.359   1.799 -31.421  1.00  0.00     0.224 C 
HETATM   18  N   UNL     1      -5.663   0.461 -31.321  1.00  0.00    -0.327 N 
HETATM   19  H   UNL     1      -5.883   0.092 -30.404  1.00  0.00     0.169 HD
HETATM   20  O   UNL     1      -4.912   2.400 -32.395  1.00  0.00    -0.273 OA
BRANCH  18  21
HETATM   21  C   UNL     1      -5.627  -0.497 -32.356  1.00  0.00     0.034 A 
HETATM   22  C   UNL     1      -6.822  -0.741 -33.047  1.00  0.00     0.032 A 
HETATM   23  C   UNL     1      -6.868  -1.658 -34.105  1.00  0.00     0.039 A 
HETATM   24  C   UNL     1      -5.715  -2.334 -34.493  1.00  0.00     0.068 A 
HETATM   25  C   UNL     1      -4.525  -2.093 -33.805  1.00  0.00     0.039 A 
HETATM   26  C   UNL     1      -4.478  -1.184 -32.742  1.00  0.00     0.032 A 
BRANCH  24  27
HETATM   27  O   UNL     1      -5.614  -3.239 -35.511  1.00  0.00    -0.356 OA
HETATM   28  C   UNL     1      -6.123  -4.545 -35.271  1.00  0.00     0.210 C 
ENDBRANCH  24  27
ENDBRANCH  18  21
ENDBRANCH  16  17
ENDBRANCH   2  16
TORSDOF 6
ENDMDL
MODEL 5
REMARK VINA RESULT:      -7.6      3.663      6.492
REMARK  6 active torsions:
REMARK  status: ('A' for Active; 'I' for Inactive)
REMARK    1  A    between atoms: C_2  and  N_3 
REMARK    2  A    between atoms: C_2  and  C_16 
REMARK    3  A    between atoms: N_3  and  C_6 
REMARK    4  A    between atoms: C_16  and  C_17 
REMARK       I    between atoms: C_17  and  N_18 
REMARK    5  A    between atoms: N_18  and  C_19 
REMARK    6  A    between atoms: C_22  and  O_23 
ROOT
HETATM    1  C   UNL     1      -3.371   3.264 -32.675  1.00  0.00     0.040 C 
HETATM    2  C   UNL     1      -3.936   2.780 -31.346  1.00  0.00     0.191 C 
ENDROOT
BRANCH   2   3
HETATM    3  N   UNL     1      -5.444   2.721 -31.409  1.00  0.00    -0.063 N 
HETATM    4  H   UNL     1      -5.696   1.717 -31.261  1.00  0.00     0.278 HD
HETATM    5  H   UNL     1      -5.802   3.184 -30.566  1.00  0.00     0.278 HD
BRANCH   3   6
HETATM    6  C   UNL     1      -6.206   3.215 -32.611  1.00  0.00     0.221 C 
HETATM    7  C   UNL     1      -6.944   2.133 -33.353  1.00  0.00    -0.011 A 
HETATM    8  C   UNL     1      -8.081   1.543 -32.777  1.00  0.00     0.009 A 
HETATM    9  C   UNL     1      -6.519   1.708 -34.622  1.00  0.00     0.011 A 
HETATM   10  C   UNL     1      -8.733   0.498 -33.436  1.00  0.00     0.019 A 
HETATM   11  S   UNL     1      -8.686   2.062 -31.185  1.00  0.00    -0.129 SA
HETATM   12  C   UNL     1      -8.288   0.066 -34.685  1.00  0.00     0.001 A 
HETATM   13  C   UNL     1      -7.188   0.676 -35.282  1.00  0.00     0.001 A 
HETATM   14  C   UNL     1      -8.285   3.840 -31.195  1.00  0.00     0.082 C 
HETATM   15  C   UNL     1      -7.206   4.293 -32.177  1.00  0.00     0.048 C 
ENDBRANCH   3   6
ENDBRANCH   2   3
BRANCH   2  16
HETATM   16  C   UNL     1      -3.288   1.471 -30.880  1.00  0.00     0.135 C 
BRANCH  16  17
HETATM   17  C   UNL     1      -4.078   0.273 -31.359  1.00  0.00     0.224 C 
HETATM   18  N   UNL     1      -3.485  -0.370 -32.421  1.00  0.00    -0.327 N 
HETATM   19  H   UNL     1      -2.671   0.061 -32.842  1.00  0.00     0.169 HD
HETATM   20  O   UNL     1      -5.151   0.008 -30.822  1.00  0.00    -0.273 OA
BRANCH  18  21
HETATM   21  C   UNL     1      -3.933  -1.546 -33.059  1.00  0.00     0.034 A 
HETATM   22  C   UNL     1      -3.376  -2.759 -32.633  1.00  0.00     0.032 A 
HETATM   23  C   UNL     1      -3.783  -3.976 -33.197  1.00  0.00     0.039 A 
HETATM   24  C   UNL     1      -4.763  -3.993 -34.185  1.00  0.00     0.068 A 
HETATM   25  C   UNL     1      -5.318  -2.786 -34.611  1.00  0.00     0.039 A 
HETATM   26  C   UNL     1      -4.906  -1.569 -34.056  1.00  0.00     0.032 A 
BRANCH  24  27
HETATM   27  O   UNL     1      -5.262  -5.103 -34.806  1.00  0.00    -0.356 OA
HETATM   28  C   UNL     1      -6.400  -4.923 -35.639  1.00  0.00     0.210 C 
ENDBRANCH  24  27
ENDBRANCH  18  21
ENDBRANCH  16  17
ENDBRANCH   2  16
TORSDOF 6
ENDMDL
MODEL 6
REMARK VINA RESULT:      -7.5      3.258      7.452
REMARK  6 active torsions:
REMARK  status: ('A' for Active; 'I' for Inactive)
REMARK    1  A    between atoms: C_2  and  N_3 
REMARK    2  A    between atoms: C_2  and  C_16 
REMARK    3  A    between atoms: N_3  and  C_6 
REMARK    4  A    between atoms: C_16  and  C_17 
REMARK       I    between atoms: C_17  and  N_18 
REMARK    5  A    between atoms: N_18  and  C_19 
REMARK    6  A    between atoms: C_22  and  O_23 
ROOT
HETATM    1  C   UNL     1      -8.631   3.876 -30.352  1.00  0.00     0.040 C 
HETATM    2  C   UNL     1      -8.889   2.770 -31.367  1.00  0.00     0.191 C 
ENDROOT
BRANCH   2   3
HETATM    3  N   UNL     1     -10.168   3.040 -32.123  1.00  0.00    -0.063 N 
HETATM    4  H   UNL     1     -10.944   2.786 -31.471  1.00  0.00     0.278 HD
HETATM    5  H   UNL     1     -10.257   4.059 -32.215  1.00  0.00     0.278 HD
BRANCH   3   6
HETATM    6  C   UNL     1     -10.451   2.395 -33.454  1.00  0.00     0.221 C 
HETATM    7  C   UNL     1     -11.805   1.740 -33.538  1.00  0.00    -0.011 A 
HETATM    8  C   UNL     1     -12.962   2.534 -33.589  1.00  0.00     0.009 A 
HETATM    9  C   UNL     1     -11.930   0.342 -33.578  1.00  0.00     0.011 A 
HETATM   10  C   UNL     1     -14.221   1.929 -33.608  1.00  0.00     0.019 A 
HETATM   11  S   UNL     1     -12.865   4.312 -33.575  1.00  0.00    -0.129 SA
HETATM   12  C   UNL     1     -14.336   0.540 -33.620  1.00  0.00     0.001 A 
HETATM   13  C   UNL     1     -13.192  -0.254 -33.616  1.00  0.00     0.001 A 
HETATM   14  C   UNL     1     -11.316   4.608 -34.489  1.00  0.00     0.082 C 
HETATM   15  C   UNL     1     -10.334   3.441 -34.569  1.00  0.00     0.048 C 
ENDBRANCH   3   6
ENDBRANCH   2   3
BRANCH   2  16
HETATM   16  C   UNL     1      -7.679   2.520 -32.275  1.00  0.00     0.135 C 
BRANCH  16  17
HETATM   17  C   UNL     1      -7.275   1.062 -32.253  1.00  0.00     0.224 C 
HETATM   18  N   UNL     1      -6.666   0.657 -33.419  1.00  0.00    -0.327 N 
HETATM   19  H   UNL     1      -6.646   1.309 -34.195  1.00  0.00     0.169 HD
HETATM   20  O   UNL     1      -7.547   0.378 -31.269  1.00  0.00    -0.273 OA
BRANCH  18  21
HETATM   21  C   UNL     1      -6.123  -0.615 -33.696  1.00  0.00     0.034 A 
HETATM   22  C   UNL     1      -6.980  -1.570 -34.259  1.00  0.00     0.032 A 
HETATM   23  C   UNL     1      -6.515  -2.850 -34.589  1.00  0.00     0.039 A 
HETATM   24  C   UNL     1      -5.181  -3.185 -34.371  1.00  0.00     0.068 A 
HETATM   25  C   UNL     1      -4.327  -2.236 -33.810  1.00  0.00     0.039 A 
HETATM   26  C   UNL     1      -4.792  -0.959 -33.472  1.00  0.00     0.032 A 
BRANCH  24  27
HETATM   27  O   UNL     1      -4.594  -4.385 -34.658  1.00  0.00    -0.356 OA
HETATM   28  C   UNL     1      -3.541  -4.812 -33.804  1.00  0.00     0.210 C 
ENDBRANCH  24  27
ENDBRANCH  18  21
ENDBRANCH  16  17
ENDBRANCH   2  16
TORSDOF 6
ENDMDL
MODEL 7
REMARK VINA RESULT:      -7.3      1.835      2.234
REMARK  6 active torsions:
REMARK  status: ('A' for Active; 'I' for Inactive)
REMARK    1  A    between atoms: C_2  and  N_3 
REMARK    2  A    between atoms: C_2  and  C_16 
REMARK    3  A    between atoms: N_3  and  C_6 
REMARK    4  A    between atoms: C_16  and  C_17 
REMARK       I    between atoms: C_17  and  N_18 
REMARK    5  A    between atoms: N_18  and  C_19 
REMARK    6  A    between atoms: C_22  and  O_23 
ROOT
HETATM    1  C   UNL     1      -7.768   2.892 -32.913  1.00  0.00     0.040 C 
HETATM    2  C   UNL     1      -7.343   1.899 -33.987  1.00  0.00     0.191 C 
ENDROOT
BRANCH   2   3
HETATM    3  N   UNL     1      -6.246   1.002 -33.467  1.00  0.00    -0.063 N 
HETATM    4  H   UNL     1      -5.639   0.786 -34.291  1.00  0.00     0.278 HD
HETATM    5  H   UNL     1      -5.641   1.576 -32.869  1.00  0.00     0.278 HD
BRANCH   3   6
HETATM    6  C   UNL     1      -6.551  -0.296 -32.766  1.00  0.00     0.221 C 
HETATM    7  C   UNL     1      -6.136  -1.520 -33.539  1.00  0.00    -0.011 A 
HETATM    8  C   UNL     1      -4.772  -1.827 -33.680  1.00  0.00     0.009 A 
HETATM    9  C   UNL     1      -7.093  -2.370 -34.115  1.00  0.00     0.011 A 
HETATM   10  C   UNL     1      -4.382  -2.927 -34.446  1.00  0.00     0.019 A 
HETATM   11  S   UNL     1      -3.514  -0.804 -32.944  1.00  0.00    -0.129 SA
HETATM   12  C   UNL     1      -5.340  -3.751 -35.036  1.00  0.00     0.001 A 
HETATM   13  C   UNL     1      -6.694  -3.479 -34.863  1.00  0.00     0.001 A 
HETATM   14  C   UNL     1      -4.337  -0.238 -31.420  1.00  0.00     0.082 C 
HETATM   15  C   UNL     1      -5.862  -0.315 -31.396  1.00  0.00     0.048 C 
ENDBRANCH   3   6
ENDBRANCH   2   3
BRANCH   2  16
HETATM   16  C   UNL     1      -8.534   1.135 -34.578  1.00  0.00     0.135 C 
BRANCH  16  17
HETATM   17  C   UNL     1      -9.730   1.194 -33.654  1.00  0.00     0.224 C 
HETATM   18  N   UNL     1     -10.688   2.088 -34.074  1.00  0.00    -0.327 N 
HETATM   19  H   UNL     1     -10.468   2.682 -34.865  1.00  0.00     0.169 HD
HETATM   20  O   UNL     1      -9.734   0.511 -32.632  1.00  0.00    -0.273 OA
BRANCH  18  21
HETATM   21  C   UNL     1     -11.940   2.337 -33.473  1.00  0.00     0.034 A 
HETATM   22  C   UNL     1     -12.990   1.465 -33.791  1.00  0.00     0.032 A 
HETATM   23  C   UNL     1     -14.258   1.626 -33.218  1.00  0.00     0.039 A 
HETATM   24  C   UNL     1     -14.488   2.654 -32.309  1.00  0.00     0.068 A 
HETATM   25  C   UNL     1     -13.444   3.524 -31.992  1.00  0.00     0.039 A 
HETATM   26  C   UNL     1     -12.178   3.371 -32.570  1.00  0.00     0.032 A 
BRANCH  24  27
HETATM   27  O   UNL     1     -15.665   2.915 -31.667  1.00  0.00    -0.356 OA
HETATM   28  C   UNL     1     -16.864   2.539 -32.333  1.00  0.00     0.210 C 
ENDBRANCH  24  27
ENDBRANCH  18  21
ENDBRANCH  16  17
ENDBRANCH   2  16
TORSDOF 6
ENDMDL
MODEL 8
REMARK VINA RESULT:      -7.1     14.816     16.808
REMARK  6 active torsions:
REMARK  status: ('A' for Active; 'I' for Inactive)
REMARK    1  A    between atoms: C_2  and  N_3 
REMARK    2  A    between atoms: C_2  and  C_16 
REMARK    3  A    between atoms: N_3  and  C_6 
REMARK    4  A    between atoms: C_16  and  C_17 
REMARK       I    between atoms: C_17  and  N_18 
REMARK    5  A    between atoms: N_18  and  C_19 
REMARK    6  A    between atoms: C_22  and  O_23 
ROOT
HETATM    1  C   UNL     1      -0.287 -14.266 -38.525  1.00  0.00     0.040 C 
HETATM    2  C   UNL     1      -1.118 -13.244 -39.289  1.00  0.00     0.191 C 
ENDROOT
BRANCH   2   3
HETATM    3  N   UNL     1      -2.078 -13.941 -40.222  1.00  0.00    -0.063 N 
HETATM    4  H   UNL     1      -2.936 -13.345 -40.246  1.00  0.00     0.278 HD
HETATM    5  H   UNL     1      -1.699 -13.852 -41.172  1.00  0.00     0.278 HD
BRANCH   3   6
HETATM    6  C   UNL     1      -2.512 -15.365 -39.992  1.00  0.00     0.221 C 
HETATM    7  C   UNL     1      -4.000 -15.572 -40.084  1.00  0.00    -0.011 A 
HETATM    8  C   UNL     1      -4.640 -15.498 -41.332  1.00  0.00     0.009 A 
HETATM    9  C   UNL     1      -4.763 -15.851 -38.938  1.00  0.00     0.011 A 
HETATM   10  C   UNL     1      -6.028 -15.630 -41.413  1.00  0.00     0.019 A 
HETATM   11  S   UNL     1      -3.721 -15.180 -42.824  1.00  0.00    -0.129 SA
HETATM   12  C   UNL     1      -6.779 -15.881 -40.265  1.00  0.00     0.001 A 
HETATM   13  C   UNL     1      -6.148 -16.001 -39.030  1.00  0.00     0.001 A 
HETATM   14  C   UNL     1      -2.140 -16.015 -42.473  1.00  0.00     0.082 C 
HETATM   15  C   UNL     1      -1.818 -16.284 -41.005  1.00  0.00     0.048 C 
ENDBRANCH   3   6
ENDBRANCH   2   3
BRANCH   2  16
HETATM   16  C   UNL     1      -1.793 -12.229 -38.359  1.00  0.00     0.135 C 
BRANCH  16  17
HETATM   17  C   UNL     1      -3.253 -12.568 -38.151  1.00  0.00     0.224 C 
HETATM   18  N   UNL     1      -4.077 -11.987 -39.088  1.00  0.00    -0.327 N 
HETATM   19  H   UNL     1      -3.666 -11.324 -39.734  1.00  0.00     0.169 HD
HETATM   20  O   UNL     1      -3.576 -13.260 -37.189  1.00  0.00    -0.273 OA
BRANCH  18  21
HETATM   21  C   UNL     1      -5.473 -12.150 -39.208  1.00  0.00     0.034 A 
HETATM   22  C   UNL     1      -6.017 -12.094 -40.497  1.00  0.00     0.032 A 
HETATM   23  C   UNL     1      -7.391 -12.271 -40.708  1.00  0.00     0.039 A 
HETATM   24  C   UNL     1      -8.236 -12.519 -39.630  1.00  0.00     0.068 A 
HETATM   25  C   UNL     1      -7.695 -12.575 -38.345  1.00  0.00     0.039 A 
HETATM   26  C   UNL     1      -6.324 -12.390 -38.131  1.00  0.00     0.032 A 
BRANCH  24  27
HETATM   27  O   UNL     1      -9.585 -12.725 -39.693  1.00  0.00    -0.356 OA
HETATM   28  C   UNL     1     -10.356 -11.757 -40.394  1.00  0.00     0.210 C 
ENDBRANCH  24  27
ENDBRANCH  18  21
ENDBRANCH  16  17
ENDBRANCH   2  16
TORSDOF 6
ENDMDL
MODEL 9
REMARK VINA RESULT:      -7.1      3.454      8.165
REMARK  6 active torsions:
REMARK  status: ('A' for Active; 'I' for Inactive)
REMARK    1  A    between atoms: C_2  and  N_3 
REMARK    2  A    between atoms: C_2  and  C_16 
REMARK    3  A    between atoms: N_3  and  C_6 
REMARK    4  A    between atoms: C_16  and  C_17 
REMARK       I    between atoms: C_17  and  N_18 
REMARK    5  A    between atoms: N_18  and  C_19 
REMARK    6  A    between atoms: C_22  and  O_23 
ROOT
HETATM    1  C   UNL     1      -9.015   3.118 -32.763  1.00  0.00     0.040 C 
HETATM    2  C   UNL     1     -10.275   2.425 -33.263  1.00  0.00     0.191 C 
ENDROOT
BRANCH   2   3
HETATM    3  N   UNL     1     -10.599   2.875 -34.667  1.00  0.00    -0.063 N 
HETATM    4  H   UNL     1     -10.323   3.882 -34.715  1.00  0.00     0.278 HD
HETATM    5  H   UNL     1      -9.932   2.414 -35.296  1.00  0.00     0.278 HD
BRANCH   3   6
HETATM    6  C   UNL     1     -11.988   2.750 -35.238  1.00  0.00     0.221 C 
HETATM    7  C   UNL     1     -13.065   2.608 -34.196  1.00  0.00    -0.011 A 
HETATM    8  C   UNL     1     -13.410   3.709 -33.394  1.00  0.00     0.009 A 
HETATM    9  C   UNL     1     -13.743   1.391 -34.018  1.00  0.00     0.011 A 
HETATM   10  C   UNL     1     -14.367   3.564 -32.387  1.00  0.00     0.019 A 
HETATM   11  S   UNL     1     -12.609   5.286 -33.596  1.00  0.00    -0.129 SA
HETATM   12  C   UNL     1     -15.015   2.344 -32.201  1.00  0.00     0.001 A 
HETATM   13  C   UNL     1     -14.711   1.261 -33.021  1.00  0.00     0.001 A 
HETATM   14  C   UNL     1     -12.296   5.318 -35.391  1.00  0.00     0.082 C 
HETATM   15  C   UNL     1     -12.297   3.972 -36.111  1.00  0.00     0.048 C 
ENDBRANCH   3   6
ENDBRANCH   2   3
BRANCH   2  16
HETATM   16  C   UNL     1     -10.202   0.901 -33.108  1.00  0.00     0.135 C 
BRANCH  16  17
HETATM   17  C   UNL     1      -8.982   0.341 -33.806  1.00  0.00     0.224 C 
HETATM   18  N   UNL     1      -8.242  -0.496 -33.002  1.00  0.00    -0.327 N 
HETATM   19  H   UNL     1      -8.504  -0.570 -32.026  1.00  0.00     0.169 HD
HETATM   20  O   UNL     1      -8.734   0.693 -34.957  1.00  0.00    -0.273 OA
BRANCH  18  21
HETATM   21  C   UNL     1      -7.087  -1.220 -33.366  1.00  0.00     0.034 A 
HETATM   22  C   UNL     1      -7.250  -2.276 -34.272  1.00  0.00     0.032 A 
HETATM   23  C   UNL     1      -6.152  -3.030 -34.705  1.00  0.00     0.039 A 
HETATM   24  C   UNL     1      -4.873  -2.727 -34.245  1.00  0.00     0.068 A 
HETATM   25  C   UNL     1      -4.709  -1.677 -33.342  1.00  0.00     0.039 A 
HETATM   26  C   UNL     1      -5.807  -0.927 -32.901  1.00  0.00     0.032 A 
BRANCH  24  27
HETATM   27  O   UNL     1      -3.718  -3.367 -34.595  1.00  0.00    -0.356 OA
HETATM   28  C   UNL     1      -3.455  -4.618 -33.971  1.00  0.00     0.210 C 
ENDBRANCH  24  27
ENDBRANCH  18  21
ENDBRANCH  16  17
ENDBRANCH   2  16
TORSDOF 6
ENDMDL
MODEL 10
REMARK VINA RESULT:      -7.1     15.118     17.843
REMARK  6 active torsions:
REMARK  status: ('A' for Active; 'I' for Inactive)
REMARK    1  A    between atoms: C_2  and  N_3 
REMARK    2  A    between atoms: C_2  and  C_16 
REMARK    3  A    between atoms: N_3  and  C_6 
REMARK    4  A    between atoms: C_16  and  C_17 
REMARK       I    between atoms: C_17  and  N_18 
REMARK    5  A    between atoms: N_18  and  C_19 
REMARK    6  A    between atoms: C_22  and  O_23 
ROOT
HETATM    1  C   UNL     1      -6.115 -13.442 -41.281  1.00  0.00     0.040 C 
HETATM    2  C   UNL     1      -6.179 -12.536 -40.058  1.00  0.00     0.191 C 
ENDROOT
BRANCH   2   3
HETATM    3  N   UNL     1      -6.483 -13.346 -38.821  1.00  0.00    -0.063 N 
HETATM    4  H   UNL     1      -6.313 -14.344 -39.084  1.00  0.00     0.278 HD
HETATM    5  H   UNL     1      -5.741 -13.150 -38.139  1.00  0.00     0.278 HD
BRANCH   3   6
HETATM    6  C   UNL     1      -7.821 -13.271 -38.134  1.00  0.00     0.221 C 
HETATM    7  C   UNL     1      -8.987 -13.588 -39.034  1.00  0.00    -0.011 A 
HETATM    8  C   UNL     1      -9.196 -14.908 -39.466  1.00  0.00     0.009 A 
HETATM    9  C   UNL     1      -9.880 -12.583 -39.441  1.00  0.00     0.011 A 
HETATM   10  C   UNL     1     -10.241 -15.195 -40.348  1.00  0.00     0.019 A 
HETATM   11  S   UNL     1      -8.117 -16.229 -38.957  1.00  0.00    -0.129 SA
HETATM   12  C   UNL     1     -11.106 -14.185 -40.767  1.00  0.00     0.001 A 
HETATM   13  C   UNL     1     -10.932 -12.882 -40.307  1.00  0.00     0.001 A 
HETATM   14  C   UNL     1      -7.661 -15.709 -37.271  1.00  0.00     0.082 C 
HETATM   15  C   UNL     1      -7.841 -14.230 -36.938  1.00  0.00     0.048 C 
ENDBRANCH   3   6
ENDBRANCH   2   3
BRANCH   2  16
HETATM   16  C   UNL     1      -4.934 -11.652 -39.923  1.00  0.00     0.135 C 
BRANCH  16  17
HETATM   17  C   UNL     1      -3.921 -12.276 -38.988  1.00  0.00     0.224 C 
HETATM   18  N   UNL     1      -2.999 -13.060 -39.643  1.00  0.00    -0.327 N 
HETATM   19  H   UNL     1      -3.141 -13.233 -40.631  1.00  0.00     0.169 HD
HETATM   20  O   UNL     1      -4.023 -12.084 -37.779  1.00  0.00    -0.273 OA
BRANCH  18  21
HETATM   21  C   UNL     1      -1.897 -13.732 -39.072  1.00  0.00     0.034 A 
HETATM   22  C   UNL     1      -0.733 -13.827 -39.846  1.00  0.00     0.032 A 
HETATM   23  C   UNL     1       0.415 -14.455 -39.345  1.00  0.00     0.039 A 
HETATM   24  C   UNL     1       0.415 -14.984 -38.058  1.00  0.00     0.068 A 
HETATM   25  C   UNL     1      -0.744 -14.891 -37.287  1.00  0.00     0.039 A 
HETATM   26  C   UNL     1      -1.895 -14.272 -37.788  1.00  0.00     0.032 A 
BRANCH  24  27
HETATM   27  O   UNL     1       1.464 -15.606 -37.442  1.00  0.00    -0.356 OA
HETATM   28  C   UNL     1       1.175 -16.360 -36.272  1.00  0.00     0.210 C 
ENDBRANCH  24  27
ENDBRANCH  18  21
ENDBRANCH  16  17
ENDBRANCH   2  16
TORSDOF 6
ENDMDL
