MODEL 1
REMARK VINA RESULT:      -8.8      0.000      0.000
REMARK  10 active torsions:
REMARK  status: ('A' for Active; 'I' for Inactive)
REMARK    1  A    between atoms: N_2  and  C_4 
REMARK    2  A    between atoms: C_4  and  C_5 
REMARK    3  A    between atoms: N_6  and  C_7 
REMARK    4  A    between atoms: C_11  and  N_12 
REMARK    5  A    between atoms: C_15  and  C_16 
REMARK       I    between atoms: C_16  and  N_17 
REMARK    6  A    between atoms: N_17  and  N_18 
REMARK    7  A    between atoms: C_19  and  C_20 
REMARK    8  A    between atoms: C_23  and  O_24 
REMARK    9  A    between atoms: O_24  and  C_25 
REMARK   10  A    between atoms: C_25  and  C_26 
ROOT
HETATM    1  C   UNL     1      -4.931   6.098 -29.706  1.00  0.00     0.293 C 
HETATM    2  N   UNL     1      -4.709   4.733 -29.618  1.00  0.00    -0.242 N 
HETATM    3  O   UNL     1      -5.253   6.727 -30.710  1.00  0.00    -0.264 OA
HETATM    4  H   UNL     1      -4.611   4.331 -28.686  1.00  0.00     0.192 HD
ENDROOT
BRANCH   1   5
HETATM    5  C   UNL     1      -4.742   6.803 -28.441  1.00  0.00     0.170 A 
HETATM    6  C   UNL     1      -3.577   7.402 -27.981  1.00  0.00     0.096 A 
HETATM    7  N   UNL     1      -3.906   7.861 -26.706  1.00  0.00    -0.215 N 
HETATM    8  N   UNL     1      -5.228   7.639 -26.492  1.00  0.00     0.012 NA
HETATM    9  N   UNL     1      -5.731   6.974 -27.518  1.00  0.00    -0.152 NA
BRANCH   6  10
HETATM   10  C   UNL     1      -2.281   7.626 -28.664  1.00  0.00     0.295 C 
BRANCH  10  11
HETATM   11  N   UNL     1      -1.496   6.376 -28.968  1.00  0.00    -0.073 N 
HETATM   12  C   UNL     1      -0.172   6.380 -28.250  1.00  0.00     0.269 C 
HETATM   13  H   UNL     1      -2.027   5.587 -28.568  1.00  0.00     0.279 HD
HETATM   14  C   UNL     1      -1.303   6.123 -30.437  1.00  0.00     0.269 C 
ENDBRANCH  10  11
ENDBRANCH   6  10
BRANCH   7  15
HETATM   15  C   UNL     1      -3.056   8.414 -25.720  1.00  0.00     0.225 A 
HETATM   16  N   UNL     1      -1.774   8.663 -26.007  1.00  0.00    -0.081 NA
HETATM   17  O   UNL     1      -1.261   9.169 -24.808  1.00  0.00    -0.103 OA
HETATM   18  N   UNL     1      -2.230   9.188 -23.816  1.00  0.00    -0.083 NA
HETATM   19  C   UNL     1      -3.341   8.718 -24.378  1.00  0.00     0.201 A 
BRANCH  19  20
HETATM   20  N   UNL     1      -4.516   8.578 -23.744  1.00  0.00    -0.379 N 
HETATM   21  H   UNL     1      -4.623   7.887 -23.007  1.00  0.00     0.158 HD
HETATM   22  H   UNL     1      -5.386   9.008 -24.054  1.00  0.00     0.158 HD
ENDBRANCH  19  20
ENDBRANCH   7  15
ENDBRANCH   1   5
BRANCH   2  23
HETATM   23  N   UNL     1      -5.003   3.808 -30.587  1.00  0.00    -0.184 NA
HETATM   24  C   UNL     1      -5.984   2.984 -30.388  1.00  0.00     0.150 C 
BRANCH  24  25
HETATM   25  C   UNL     1      -6.307   1.906 -31.343  1.00  0.00    -0.017 A 
HETATM   26  C   UNL     1      -6.487   2.168 -32.703  1.00  0.00     0.016 A 
HETATM   27  C   UNL     1      -6.767   1.119 -33.588  1.00  0.00     0.037 A 
HETATM   28  C   UNL     1      -6.855  -0.192 -33.114  1.00  0.00     0.069 A 
HETATM   29  C   UNL     1      -6.682  -0.442 -31.749  1.00  0.00     0.037 A 
HETATM   30  C   UNL     1      -6.410   0.599 -30.862  1.00  0.00     0.016 A 
BRANCH  28  31
HETATM   31  O   UNL     1      -7.103  -1.306 -33.862  1.00  0.00    -0.347 OA
BRANCH  31  32
HETATM   32  C   UNL     1      -6.161  -1.640 -34.880  1.00  0.00     0.219 C 
BRANCH  32  33
HETATM   33  C   UNL     1      -5.321  -2.778 -34.370  1.00  0.00     0.026 A 
HETATM   34  C   UNL     1      -5.577  -4.118 -34.697  1.00  0.00     0.045 A 
HETATM   35 CL   UNL     1      -6.913  -4.571 -35.696  1.00  0.00    -0.084 Cl
HETATM   36  C   UNL     1      -4.750  -5.142 -34.218  1.00  0.00     0.024 A 
HETATM   37  C   UNL     1      -3.652  -4.842 -33.413  1.00  0.00     0.005 A 
HETATM   38  C   UNL     1      -3.380  -3.517 -33.088  1.00  0.00     0.043 A 
HETATM   39  C   UNL     1      -4.208  -2.504 -33.569  1.00  0.00     0.126 A 
HETATM   40  F   UNL     1      -3.918  -1.237 -33.240  1.00  0.00    -0.205 F 
ENDBRANCH  32  33
ENDBRANCH  31  32
ENDBRANCH  28  31
ENDBRANCH  24  25
ENDBRANCH   2  23
TORSDOF 10
ENDMDL
MODEL 2
REMARK VINA RESULT:      -8.7      1.303      1.527
REMARK  10 active torsions:
REMARK  status: ('A' for Active; 'I' for Inactive)
REMARK    1  A    between atoms: N_2  and  C_4 
REMARK    2  A    between atoms: C_4  and  C_5 
REMARK    3  A    between atoms: N_6  and  C_7 
REMARK    4  A    between atoms: C_11  and  N_12 
REMARK    5  A    between atoms: C_15  and  C_16 
REMARK       I    between atoms: C_16  and  N_17 
REMARK    6  A    between atoms: N_17  and  N_18 
REMARK    7  A    between atoms: C_19  and  C_20 
REMARK    8  A    between atoms: C_23  and  O_24 
REMARK    9  A    between atoms: O_24  and  C_25 
REMARK   10  A    between atoms: C_25  and  C_26 
ROOT
HETATM    1  C   UNL     1      -5.099   6.063 -29.582  1.00  0.00     0.293 C 
HETATM    2  N   UNL     1      -4.852   4.700 -29.548  1.00  0.00    -0.242 N 
HETATM    3  O   UNL     1      -5.490   6.716 -30.546  1.00  0.00    -0.264 OA
HETATM    4  H   UNL     1      -4.693   4.272 -28.637  1.00  0.00     0.192 HD
ENDROOT
BRANCH   1   5
HETATM    5  C   UNL     1      -4.846   6.734 -28.311  1.00  0.00     0.170 A 
HETATM    6  C   UNL     1      -3.722   7.469 -27.959  1.00  0.00     0.096 A 
HETATM    7  N   UNL     1      -3.944   7.824 -26.630  1.00  0.00    -0.215 N 
HETATM    8  N   UNL     1      -5.187   7.412 -26.271  1.00  0.00     0.012 NA
HETATM    9  N   UNL     1      -5.723   6.727 -27.266  1.00  0.00    -0.152 NA
BRANCH   6  10
HETATM   10  C   UNL     1      -2.565   7.900 -28.779  1.00  0.00     0.295 C 
BRANCH  10  11
HETATM   11  N   UNL     1      -1.480   6.866 -28.944  1.00  0.00    -0.073 N 
HETATM   12  C   UNL     1      -0.120   7.466 -28.702  1.00  0.00     0.269 C 
HETATM   13  H   UNL     1      -1.616   6.172 -28.194  1.00  0.00     0.279 HD
HETATM   14  C   UNL     1      -1.518   6.153 -30.267  1.00  0.00     0.269 C 
ENDBRANCH  10  11
ENDBRANCH   6  10
BRANCH   7  15
HETATM   15  C   UNL     1      -3.056   8.449 -25.722  1.00  0.00     0.225 A 
HETATM   16  N   UNL     1      -1.760   8.119 -25.723  1.00  0.00    -0.081 NA
HETATM   17  O   UNL     1      -1.221   8.906 -24.699  1.00  0.00    -0.103 OA
HETATM   18  N   UNL     1      -2.201   9.669 -24.083  1.00  0.00    -0.083 NA
HETATM   19  C   UNL     1      -3.339   9.385 -24.713  1.00  0.00     0.201 A 
BRANCH  19  20
HETATM   20  N   UNL     1      -4.531   9.924 -24.415  1.00  0.00    -0.379 N 
HETATM   21  H   UNL     1      -5.325   9.789 -25.035  1.00  0.00     0.158 HD
HETATM   22  H   UNL     1      -4.678  10.611 -23.678  1.00  0.00     0.158 HD
ENDBRANCH  19  20
ENDBRANCH   7  15
ENDBRANCH   1   5
BRANCH   2  23
HETATM   23  N   UNL     1      -5.189   3.799 -30.526  1.00  0.00    -0.184 NA
HETATM   24  C   UNL     1      -6.156   2.964 -30.301  1.00  0.00     0.150 C 
BRANCH  24  25
HETATM   25  C   UNL     1      -6.520   1.909 -31.267  1.00  0.00    -0.017 A 
HETATM   26  C   UNL     1      -6.854   2.216 -32.588  1.00  0.00     0.016 A 
HETATM   27  C   UNL     1      -7.170   1.189 -33.487  1.00  0.00     0.037 A 
HETATM   28  C   UNL     1      -7.141  -0.142 -33.068  1.00  0.00     0.069 A 
HETATM   29  C   UNL     1      -6.814  -0.438 -31.741  1.00  0.00     0.037 A 
HETATM   30  C   UNL     1      -6.505   0.581 -30.838  1.00  0.00     0.016 A 
BRANCH  28  31
HETATM   31  O   UNL     1      -7.408  -1.237 -33.837  1.00  0.00    -0.347 OA
BRANCH  31  32
HETATM   32  C   UNL     1      -6.553  -1.483 -34.953  1.00  0.00     0.219 C 
BRANCH  32  33
HETATM   33  C   UNL     1      -5.667  -2.647 -34.603  1.00  0.00     0.026 A 
HETATM   34  C   UNL     1      -4.438  -2.495 -33.945  1.00  0.00     0.045 A 
HETATM   35 CL   UNL     1      -3.825  -0.938 -33.509  1.00  0.00    -0.084 Cl
HETATM   36  C   UNL     1      -3.658  -3.612 -33.618  1.00  0.00     0.024 A 
HETATM   37  C   UNL     1      -4.099  -4.896 -33.936  1.00  0.00     0.005 A 
HETATM   38  C   UNL     1      -5.321  -5.062 -34.581  1.00  0.00     0.043 A 
HETATM   39  C   UNL     1      -6.090  -3.945 -34.903  1.00  0.00     0.126 A 
HETATM   40  F   UNL     1      -7.264  -4.139 -35.522  1.00  0.00    -0.205 F 
ENDBRANCH  32  33
ENDBRANCH  31  32
ENDBRANCH  28  31
ENDBRANCH  24  25
ENDBRANCH   2  23
TORSDOF 10
ENDMDL
MODEL 3
REMARK VINA RESULT:      -8.7      6.472     11.343
REMARK  10 active torsions:
REMARK  status: ('A' for Active; 'I' for Inactive)
REMARK    1  A    between atoms: N_2  and  C_4 
REMARK    2  A    between atoms: C_4  and  C_5 
REMARK    3  A    between atoms: N_6  and  C_7 
REMARK    4  A    between atoms: C_11  and  N_12 
REMARK    5  A    between atoms: C_15  and  C_16 
REMARK       I    between atoms: C_16  and  N_17 
REMARK    6  A    between atoms: N_17  and  N_18 
REMARK    7  A    between atoms: C_19  and  C_20 
REMARK    8  A    between atoms: C_23  and  O_24 
REMARK    9  A    between atoms: O_24  and  C_25 
REMARK   10  A    between atoms: C_25  and  C_26 
ROOT
HETATM    1  C   UNL     1      -9.203   0.990 -33.819  1.00  0.00     0.293 C 
HETATM    2  N   UNL     1      -8.657   1.608 -32.705  1.00  0.00    -0.242 N 
HETATM    3  O   UNL     1      -8.633   0.750 -34.880  1.00  0.00    -0.264 OA
HETATM    4  H   UNL     1      -9.199   1.588 -31.842  1.00  0.00     0.192 HD
ENDROOT
BRANCH   1   5
HETATM    5  C   UNL     1     -10.604   0.614 -33.651  1.00  0.00     0.170 A 
HETATM    6  C   UNL     1     -11.720   1.341 -34.040  1.00  0.00     0.096 A 
HETATM    7  N   UNL     1     -12.799   0.586 -33.586  1.00  0.00    -0.215 N 
HETATM    8  N   UNL     1     -12.328  -0.575 -33.064  1.00  0.00     0.012 NA
HETATM    9  N   UNL     1     -11.007  -0.552 -33.069  1.00  0.00    -0.152 NA
BRANCH   6  10
HETATM   10  C   UNL     1     -11.821   2.585 -34.840  1.00  0.00     0.295 C 
BRANCH  10  11
HETATM   11  N   UNL     1     -11.510   3.854 -34.088  1.00  0.00    -0.073 N 
HETATM   12  C   UNL     1     -12.713   4.758 -34.031  1.00  0.00     0.269 C 
HETATM   13  H   UNL     1     -11.321   3.581 -33.112  1.00  0.00     0.279 HD
HETATM   14  C   UNL     1     -10.313   4.594 -34.616  1.00  0.00     0.269 C 
ENDBRANCH  10  11
ENDBRANCH   6  10
BRANCH   7  15
HETATM   15  C   UNL     1     -14.173   0.925 -33.575  1.00  0.00     0.225 A 
HETATM   16  N   UNL     1     -14.977   0.485 -34.549  1.00  0.00    -0.081 NA
HETATM   17  O   UNL     1     -16.222   1.031 -34.219  1.00  0.00    -0.103 OA
HETATM   18  N   UNL     1     -16.140   1.812 -33.076  1.00  0.00    -0.083 NA
HETATM   19  C   UNL     1     -14.872   1.750 -32.677  1.00  0.00     0.201 A 
BRANCH  19  20
HETATM   20  N   UNL     1     -14.380   2.375 -31.596  1.00  0.00    -0.379 N 
HETATM   21  H   UNL     1     -14.148   3.363 -31.635  1.00  0.00     0.158 HD
HETATM   22  H   UNL     1     -14.059   1.896 -30.757  1.00  0.00     0.158 HD
ENDBRANCH  19  20
ENDBRANCH   7  15
ENDBRANCH   1   5
BRANCH   2  23
HETATM   23  N   UNL     1      -7.327   1.883 -32.511  1.00  0.00    -0.184 NA
HETATM   24  C   UNL     1      -6.886   3.068 -32.798  1.00  0.00     0.150 C 
BRANCH  24  25
HETATM   25  C   UNL     1      -5.454   3.415 -32.699  1.00  0.00    -0.017 A 
HETATM   26  C   UNL     1      -4.853   4.288 -33.609  1.00  0.00     0.016 A 
HETATM   27  C   UNL     1      -3.498   4.617 -33.472  1.00  0.00     0.037 A 
HETATM   28  C   UNL     1      -2.750   4.082 -32.422  1.00  0.00     0.069 A 
HETATM   29  C   UNL     1      -3.359   3.202 -31.523  1.00  0.00     0.037 A 
HETATM   30  C   UNL     1      -4.707   2.864 -31.657  1.00  0.00     0.016 A 
BRANCH  28  31
HETATM   31  O   UNL     1      -1.433   4.328 -32.160  1.00  0.00    -0.347 OA
BRANCH  31  32
HETATM   32  C   UNL     1      -0.915   5.605 -32.530  1.00  0.00     0.219 C 
BRANCH  32  33
HETATM   33  C   UNL     1      -0.759   6.417 -31.274  1.00  0.00     0.026 A 
HETATM   34  C   UNL     1       0.243   6.164 -30.326  1.00  0.00     0.045 A 
HETATM   35 CL   UNL     1       1.368   4.865 -30.514  1.00  0.00    -0.084 Cl
HETATM   36  C   UNL     1       0.364   6.964 -29.182  1.00  0.00     0.024 A 
HETATM   37  C   UNL     1      -0.508   8.032 -28.974  1.00  0.00     0.005 A 
HETATM   38  C   UNL     1      -1.501   8.300 -29.911  1.00  0.00     0.043 A 
HETATM   39  C   UNL     1      -1.615   7.499 -31.046  1.00  0.00     0.126 A 
HETATM   40  F   UNL     1      -2.581   7.785 -31.931  1.00  0.00    -0.205 F 
ENDBRANCH  32  33
ENDBRANCH  31  32
ENDBRANCH  28  31
ENDBRANCH  24  25
ENDBRANCH   2  23
TORSDOF 10
ENDMDL
MODEL 4
REMARK VINA RESULT:      -8.6      6.077     10.835
REMARK  10 active torsions:
REMARK  status: ('A' for Active; 'I' for Inactive)
REMARK    1  A    between atoms: N_2  and  C_4 
REMARK    2  A    between atoms: C_4  and  C_5 
REMARK    3  A    between atoms: N_6  and  C_7 
REMARK    4  A    between atoms: C_11  and  N_12 
REMARK    5  A    between atoms: C_15  and  C_16 
REMARK       I    between atoms: C_16  and  N_17 
REMARK    6  A    between atoms: N_17  and  N_18 
REMARK    7  A    between atoms: C_19  and  C_20 
REMARK    8  A    between atoms: C_23  and  O_24 
REMARK    9  A    between atoms: O_24  and  C_25 
REMARK   10  A    between atoms: C_25  and  C_26 
ROOT
HETATM    1  C   UNL     1      -9.149   5.065 -33.548  1.00  0.00     0.293 C 
HETATM    2  N   UNL     1      -8.487   4.989 -32.333  1.00  0.00    -0.242 N 
HETATM    3  O   UNL     1      -8.689   5.473 -34.612  1.00  0.00    -0.264 OA
HETATM    4  H   UNL     1      -8.943   4.476 -31.580  1.00  0.00     0.192 HD
ENDROOT
BRANCH   1   5
HETATM    5  C   UNL     1     -10.532   4.602 -33.490  1.00  0.00     0.170 A 
HETATM    6  C   UNL     1     -10.988   3.301 -33.645  1.00  0.00     0.096 A 
HETATM    7  N   UNL     1     -12.376   3.411 -33.578  1.00  0.00    -0.215 N 
HETATM    8  N   UNL     1     -12.696   4.697 -33.282  1.00  0.00     0.012 NA
HETATM    9  N   UNL     1     -11.595   5.427 -33.260  1.00  0.00    -0.152 NA
BRANCH   6  10
HETATM   10  C   UNL     1     -10.235   2.030 -33.761  1.00  0.00     0.295 C 
BRANCH  10  11
HETATM   11  N   UNL     1     -10.193   1.197 -32.505  1.00  0.00    -0.073 N 
HETATM   12  C   UNL     1      -8.997   1.552 -31.661  1.00  0.00     0.269 C 
HETATM   13  H   UNL     1     -11.016   1.463 -31.944  1.00  0.00     0.279 HD
HETATM   14  C   UNL     1     -10.246  -0.284 -32.756  1.00  0.00     0.269 C 
ENDBRANCH  10  11
ENDBRANCH   6  10
BRANCH   7  15
HETATM   15  C   UNL     1     -13.355   2.419 -33.826  1.00  0.00     0.225 A 
HETATM   16  N   UNL     1     -13.450   1.864 -35.039  1.00  0.00    -0.081 NA
HETATM   17  O   UNL     1     -14.519   0.971 -34.908  1.00  0.00    -0.103 OA
HETATM   18  N   UNL     1     -15.066   1.026 -33.635  1.00  0.00    -0.083 NA
HETATM   19  C   UNL     1     -14.348   1.924 -32.964  1.00  0.00     0.201 A 
BRANCH  19  20
HETATM   20  N   UNL     1     -14.560   2.269 -31.685  1.00  0.00    -0.379 N 
HETATM   21  H   UNL     1     -14.352   3.211 -31.365  1.00  0.00     0.158 HD
HETATM   22  H   UNL     1     -14.769   1.604 -30.942  1.00  0.00     0.158 HD
ENDBRANCH  19  20
ENDBRANCH   7  15
ENDBRANCH   1   5
BRANCH   2  23
HETATM   23  N   UNL     1      -7.140   5.166 -32.141  1.00  0.00    -0.184 NA
HETATM   24  C   UNL     1      -6.312   4.394 -32.773  1.00  0.00     0.150 C 
BRANCH  24  25
HETATM   25  C   UNL     1      -4.854   4.465 -32.552  1.00  0.00    -0.017 A 
HETATM   26  C   UNL     1      -4.218   3.641 -31.620  1.00  0.00     0.016 A 
HETATM   27  C   UNL     1      -2.829   3.715 -31.453  1.00  0.00     0.037 A 
HETATM   28  C   UNL     1      -2.077   4.603 -32.225  1.00  0.00     0.069 A 
HETATM   29  C   UNL     1      -2.725   5.429 -33.149  1.00  0.00     0.037 A 
HETATM   30  C   UNL     1      -4.108   5.366 -33.315  1.00  0.00     0.016 A 
BRANCH  28  31
HETATM   31  O   UNL     1      -0.723   4.766 -32.179  1.00  0.00    -0.347 OA
BRANCH  31  32
HETATM   32  C   UNL     1      -0.223   6.095 -32.046  1.00  0.00     0.219 C 
BRANCH  32  33
HETATM   33  C   UNL     1      -0.292   6.467 -30.591  1.00  0.00     0.026 A 
HETATM   34  C   UNL     1      -1.105   7.504 -30.109  1.00  0.00     0.045 A 
HETATM   35 CL   UNL     1      -2.077   8.465 -31.168  1.00  0.00    -0.084 Cl
HETATM   36  C   UNL     1      -1.155   7.797 -28.741  1.00  0.00     0.024 A 
HETATM   37  C   UNL     1      -0.400   7.055 -27.833  1.00  0.00     0.005 A 
HETATM   38  C   UNL     1       0.404   6.017 -28.296  1.00  0.00     0.043 A 
HETATM   39  C   UNL     1       0.448   5.733 -29.659  1.00  0.00     0.126 A 
HETATM   40  F   UNL     1       1.230   4.725 -30.073  1.00  0.00    -0.205 F 
ENDBRANCH  32  33
ENDBRANCH  31  32
ENDBRANCH  28  31
ENDBRANCH  24  25
ENDBRANCH   2  23
TORSDOF 10
ENDMDL
MODEL 5
REMARK VINA RESULT:      -8.4      4.491      6.459
REMARK  10 active torsions:
REMARK  status: ('A' for Active; 'I' for Inactive)
REMARK    1  A    between atoms: N_2  and  C_4 
REMARK    2  A    between atoms: C_4  and  C_5 
REMARK    3  A    between atoms: N_6  and  C_7 
REMARK    4  A    between atoms: C_11  and  N_12 
REMARK    5  A    between atoms: C_15  and  C_16 
REMARK       I    between atoms: C_16  and  N_17 
REMARK    6  A    between atoms: N_17  and  N_18 
REMARK    7  A    between atoms: C_19  and  C_20 
REMARK    8  A    between atoms: C_23  and  O_24 
REMARK    9  A    between atoms: O_24  and  C_25 
REMARK   10  A    between atoms: C_25  and  C_26 
ROOT
HETATM    1  C   UNL     1      -2.964   4.961 -32.149  1.00  0.00     0.293 C 
HETATM    2  N   UNL     1      -3.815   3.937 -31.768  1.00  0.00    -0.242 N 
HETATM    3  O   UNL     1      -3.057   5.658 -33.156  1.00  0.00    -0.264 OA
HETATM    4  H   UNL     1      -3.707   3.560 -30.827  1.00  0.00     0.192 HD
ENDROOT
BRANCH   1   5
HETATM    5  C   UNL     1      -1.861   5.181 -31.218  1.00  0.00     0.170 A 
HETATM    6  C   UNL     1      -1.811   6.100 -30.179  1.00  0.00     0.096 A 
HETATM    7  N   UNL     1      -0.528   5.959 -29.655  1.00  0.00    -0.215 N 
HETATM    8  N   UNL     1       0.090   4.929 -30.288  1.00  0.00     0.012 NA
HETATM    9  N   UNL     1      -0.694   4.476 -31.252  1.00  0.00    -0.152 NA
BRANCH   6  10
HETATM   10  C   UNL     1      -2.867   6.986 -29.633  1.00  0.00     0.295 C 
BRANCH  10  11
HETATM   11  N   UNL     1      -3.765   6.347 -28.604  1.00  0.00    -0.073 N 
HETATM   12  C   UNL     1      -5.151   6.135 -29.154  1.00  0.00     0.269 C 
HETATM   13  H   UNL     1      -3.389   5.404 -28.426  1.00  0.00     0.279 HD
HETATM   14  C   UNL     1      -3.820   7.093 -27.300  1.00  0.00     0.269 C 
ENDBRANCH  10  11
ENDBRANCH   6  10
BRANCH   7  15
HETATM   15  C   UNL     1       0.120   6.752 -28.678  1.00  0.00     0.225 A 
HETATM   16  N   UNL     1       0.932   7.745 -29.056  1.00  0.00    -0.081 NA
HETATM   17  O   UNL     1       1.394   8.270 -27.845  1.00  0.00    -0.103 OA
HETATM   18  N   UNL     1       0.880   7.569 -26.765  1.00  0.00    -0.083 NA
HETATM   19  C   UNL     1       0.093   6.626 -27.279  1.00  0.00     0.201 A 
BRANCH  19  20
HETATM   20  N   UNL     1      -0.597   5.731 -26.556  1.00  0.00    -0.379 N 
HETATM   21  H   UNL     1      -0.141   5.210 -25.812  1.00  0.00     0.158 HD
HETATM   22  H   UNL     1      -1.529   5.399 -26.798  1.00  0.00     0.158 HD
ENDBRANCH  19  20
ENDBRANCH   7  15
ENDBRANCH   1   5
BRANCH   2  23
HETATM   23  N   UNL     1      -5.028   3.647 -32.340  1.00  0.00    -0.184 NA
HETATM   24  C   UNL     1      -5.880   2.934 -31.670  1.00  0.00     0.150 C 
BRANCH  24  25
HETATM   25  C   UNL     1      -7.169   2.507 -32.250  1.00  0.00    -0.017 A 
HETATM   26  C   UNL     1      -7.623   3.015 -33.470  1.00  0.00     0.016 A 
HETATM   27  C   UNL     1      -8.838   2.570 -34.005  1.00  0.00     0.037 A 
HETATM   28  C   UNL     1      -9.592   1.611 -33.326  1.00  0.00     0.069 A 
HETATM   29  C   UNL     1      -9.134   1.116 -32.102  1.00  0.00     0.037 A 
HETATM   30  C   UNL     1      -7.927   1.559 -31.560  1.00  0.00     0.016 A 
BRANCH  28  31
HETATM   31  O   UNL     1     -10.780   1.078 -33.738  1.00  0.00    -0.347 OA
BRANCH  31  32
HETATM   32  C   UNL     1     -11.681   1.935 -34.436  1.00  0.00     0.219 C 
BRANCH  32  33
HETATM   33  C   UNL     1     -12.878   2.158 -33.555  1.00  0.00     0.026 A 
HETATM   34  C   UNL     1     -12.952   3.202 -32.622  1.00  0.00     0.045 A 
HETATM   35 CL   UNL     1     -11.644   4.309 -32.389  1.00  0.00    -0.084 Cl
HETATM   36  C   UNL     1     -14.100   3.384 -31.840  1.00  0.00     0.024 A 
HETATM   37  C   UNL     1     -15.192   2.530 -31.983  1.00  0.00     0.005 A 
HETATM   38  C   UNL     1     -15.137   1.494 -32.912  1.00  0.00     0.043 A 
HETATM   39  C   UNL     1     -13.991   1.321 -33.685  1.00  0.00     0.126 A 
HETATM   40  F   UNL     1     -13.970   0.315 -34.572  1.00  0.00    -0.205 F 
ENDBRANCH  32  33
ENDBRANCH  31  32
ENDBRANCH  28  31
ENDBRANCH  24  25
ENDBRANCH   2  23
TORSDOF 10
ENDMDL
MODEL 6
REMARK VINA RESULT:      -8.4      4.215      6.268
REMARK  10 active torsions:
REMARK  status: ('A' for Active; 'I' for Inactive)
REMARK    1  A    between atoms: N_2  and  C_4 
REMARK    2  A    between atoms: C_4  and  C_5 
REMARK    3  A    between atoms: N_6  and  C_7 
REMARK    4  A    between atoms: C_11  and  N_12 
REMARK    5  A    between atoms: C_15  and  C_16 
REMARK       I    between atoms: C_16  and  N_17 
REMARK    6  A    between atoms: N_17  and  N_18 
REMARK    7  A    between atoms: C_19  and  C_20 
REMARK    8  A    between atoms: C_23  and  O_24 
REMARK    9  A    between atoms: O_24  and  C_25 
REMARK   10  A    between atoms: C_25  and  C_26 
ROOT
HETATM    1  C   UNL     1      -2.966   5.014 -32.172  1.00  0.00     0.293 C 
HETATM    2  N   UNL     1      -3.708   3.878 -31.890  1.00  0.00    -0.242 N 
HETATM    3  O   UNL     1      -3.162   5.813 -33.084  1.00  0.00    -0.264 OA
HETATM    4  H   UNL     1      -3.528   3.406 -31.005  1.00  0.00     0.192 HD
ENDROOT
BRANCH   1   5
HETATM    5  C   UNL     1      -1.848   5.224 -31.256  1.00  0.00     0.170 A 
HETATM    6  C   UNL     1      -1.782   6.131 -30.207  1.00  0.00     0.096 A 
HETATM    7  N   UNL     1      -0.490   5.985 -29.705  1.00  0.00    -0.215 N 
HETATM    8  N   UNL     1       0.117   4.962 -30.360  1.00  0.00     0.012 NA
HETATM    9  N   UNL     1      -0.681   4.520 -31.316  1.00  0.00    -0.152 NA
BRANCH   6  10
HETATM   10  C   UNL     1      -2.829   7.010 -29.634  1.00  0.00     0.295 C 
BRANCH  10  11
HETATM   11  N   UNL     1      -3.767   6.336 -28.665  1.00  0.00    -0.073 N 
HETATM   12  C   UNL     1      -5.153   6.224 -29.243  1.00  0.00     0.269 C 
HETATM   13  H   UNL     1      -3.433   5.367 -28.554  1.00  0.00     0.279 HD
HETATM   14  C   UNL     1      -3.807   6.984 -27.309  1.00  0.00     0.269 C 
ENDBRANCH  10  11
ENDBRANCH   6  10
BRANCH   7  15
HETATM   15  C   UNL     1       0.173   6.767 -28.730  1.00  0.00     0.225 A 
HETATM   16  N   UNL     1       0.982   7.761 -29.110  1.00  0.00    -0.081 NA
HETATM   17  O   UNL     1       1.462   8.274 -27.899  1.00  0.00    -0.103 OA
HETATM   18  N   UNL     1       0.960   7.564 -26.819  1.00  0.00    -0.083 NA
HETATM   19  C   UNL     1       0.164   6.628 -27.331  1.00  0.00     0.201 A 
BRANCH  19  20
HETATM   20  N   UNL     1      -0.520   5.728 -26.608  1.00  0.00    -0.379 N 
HETATM   21  H   UNL     1      -1.498   5.543 -26.810  1.00  0.00     0.158 HD
HETATM   22  H   UNL     1      -0.178   5.314 -25.743  1.00  0.00     0.158 HD
ENDBRANCH  19  20
ENDBRANCH   7  15
ENDBRANCH   1   5
BRANCH   2  23
HETATM   23  N   UNL     1      -4.913   3.547 -32.454  1.00  0.00    -0.184 NA
HETATM   24  C   UNL     1      -5.767   2.870 -31.752  1.00  0.00     0.150 C 
BRANCH  24  25
HETATM   25  C   UNL     1      -7.048   2.401 -32.316  1.00  0.00    -0.017 A 
HETATM   26  C   UNL     1      -7.221   2.239 -33.693  1.00  0.00     0.016 A 
HETATM   27  C   UNL     1      -8.440   1.768 -34.195  1.00  0.00     0.037 A 
HETATM   28  C   UNL     1      -9.481   1.449 -33.321  1.00  0.00     0.069 A 
HETATM   29  C   UNL     1      -9.301   1.622 -31.945  1.00  0.00     0.037 A 
HETATM   30  C   UNL     1      -8.091   2.098 -31.439  1.00  0.00     0.016 A 
BRANCH  28  31
HETATM   31  O   UNL     1     -10.709   0.966 -33.669  1.00  0.00    -0.347 OA
BRANCH  31  32
HETATM   32  C   UNL     1     -11.578   1.835 -34.394  1.00  0.00     0.219 C 
BRANCH  32  33
HETATM   33  C   UNL     1     -12.679   2.263 -33.464  1.00  0.00     0.026 A 
HETATM   34  C   UNL     1     -13.861   1.527 -33.297  1.00  0.00     0.045 A 
HETATM   35 CL   UNL     1     -14.161   0.072 -34.181  1.00  0.00    -0.084 Cl
HETATM   36  C   UNL     1     -14.849   1.953 -32.399  1.00  0.00     0.024 A 
HETATM   37  C   UNL     1     -14.666   3.115 -31.650  1.00  0.00     0.005 A 
HETATM   38  C   UNL     1     -13.493   3.850 -31.799  1.00  0.00     0.043 A 
HETATM   39  C   UNL     1     -12.517   3.419 -32.694  1.00  0.00     0.126 A 
HETATM   40  F   UNL     1     -11.397   4.148 -32.813  1.00  0.00    -0.205 F 
ENDBRANCH  32  33
ENDBRANCH  31  32
ENDBRANCH  28  31
ENDBRANCH  24  25
ENDBRANCH   2  23
TORSDOF 10
ENDMDL
MODEL 7
REMARK VINA RESULT:      -8.3      6.615     11.288
REMARK  10 active torsions:
REMARK  status: ('A' for Active; 'I' for Inactive)
REMARK    1  A    between atoms: N_2  and  C_4 
REMARK    2  A    between atoms: C_4  and  C_5 
REMARK    3  A    between atoms: N_6  and  C_7 
REMARK    4  A    between atoms: C_11  and  N_12 
REMARK    5  A    between atoms: C_15  and  C_16 
REMARK       I    between atoms: C_16  and  N_17 
REMARK    6  A    between atoms: N_17  and  N_18 
REMARK    7  A    between atoms: C_19  and  C_20 
REMARK    8  A    between atoms: C_23  and  O_24 
REMARK    9  A    between atoms: O_24  and  C_25 
REMARK   10  A    between atoms: C_25  and  C_26 
ROOT
HETATM    1  C   UNL     1      -9.413   3.853 -34.142  1.00  0.00     0.293 C 
HETATM    2  N   UNL     1      -8.361   3.634 -33.266  1.00  0.00    -0.242 N 
HETATM    3  O   UNL     1      -9.495   4.744 -34.983  1.00  0.00    -0.264 OA
HETATM    4  H   UNL     1      -8.359   2.760 -32.741  1.00  0.00     0.192 HD
ENDROOT
BRANCH   1   5
HETATM    5  C   UNL     1     -10.504   2.895 -33.995  1.00  0.00     0.170 A 
HETATM    6  C   UNL     1     -11.859   3.130 -34.185  1.00  0.00     0.096 A 
HETATM    7  N   UNL     1     -12.470   1.923 -33.848  1.00  0.00    -0.215 N 
HETATM    8  N   UNL     1     -11.504   1.005 -33.590  1.00  0.00     0.012 NA
HETATM    9  N   UNL     1     -10.319   1.589 -33.645  1.00  0.00    -0.152 NA
BRANCH   6  10
HETATM   10  C   UNL     1     -12.558   4.326 -34.713  1.00  0.00     0.295 C 
BRANCH  10  11
HETATM   11  N   UNL     1     -12.581   5.513 -33.783  1.00  0.00    -0.073 N 
HETATM   12  C   UNL     1     -13.947   5.696 -33.175  1.00  0.00     0.269 C 
HETATM   13  H   UNL     1     -11.955   5.286 -32.997  1.00  0.00     0.279 HD
HETATM   14  C   UNL     1     -12.106   6.789 -34.418  1.00  0.00     0.269 C 
ENDBRANCH  10  11
ENDBRANCH   6  10
BRANCH   7  15
HETATM   15  C   UNL     1     -13.849   1.638 -33.713  1.00  0.00     0.225 A 
HETATM   16  N   UNL     1     -14.506   1.033 -34.708  1.00  0.00    -0.081 NA
HETATM   17  O   UNL     1     -15.817   0.945 -34.229  1.00  0.00    -0.103 OA
HETATM   18  N   UNL     1     -15.934   1.523 -32.974  1.00  0.00    -0.083 NA
HETATM   19  C   UNL     1     -14.717   1.956 -32.654  1.00  0.00     0.201 A 
BRANCH  19  20
HETATM   20  N   UNL     1     -14.405   2.578 -31.506  1.00  0.00    -0.379 N 
HETATM   21  H   UNL     1     -13.531   2.373 -31.031  1.00  0.00     0.158 HD
HETATM   22  H   UNL     1     -15.060   3.141 -30.967  1.00  0.00     0.158 HD
ENDBRANCH  19  20
ENDBRANCH   7  15
ENDBRANCH   1   5
BRANCH   2  23
HETATM   23  N   UNL     1      -7.136   4.248 -33.314  1.00  0.00    -0.184 NA
HETATM   24  C   UNL     1      -6.080   3.522 -33.512  1.00  0.00     0.150 C 
BRANCH  24  25
HETATM   25  C   UNL     1      -4.720   4.096 -33.490  1.00  0.00    -0.017 A 
HETATM   26  C   UNL     1      -4.379   5.191 -34.289  1.00  0.00     0.016 A 
HETATM   27  C   UNL     1      -3.087   5.728 -34.225  1.00  0.00     0.037 A 
HETATM   28  C   UNL     1      -2.142   5.178 -33.357  1.00  0.00     0.069 A 
HETATM   29  C   UNL     1      -2.491   4.078 -32.569  1.00  0.00     0.037 A 
HETATM   30  C   UNL     1      -3.774   3.533 -32.632  1.00  0.00     0.016 A 
BRANCH  28  31
HETATM   31  O   UNL     1      -0.859   5.610 -33.181  1.00  0.00    -0.347 OA
BRANCH  31  32
HETATM   32  C   UNL     1      -0.669   6.965 -32.778  1.00  0.00     0.219 C 
BRANCH  32  33
HETATM   33  C   UNL     1      -0.658   6.998 -31.275  1.00  0.00     0.026 A 
HETATM   34  C   UNL     1      -1.567   7.758 -30.524  1.00  0.00     0.045 A 
HETATM   35 CL   UNL     1      -2.764   8.751 -31.279  1.00  0.00    -0.084 Cl
HETATM   36  C   UNL     1      -1.533   7.737 -29.124  1.00  0.00     0.024 A 
HETATM   37  C   UNL     1      -0.596   6.951 -28.454  1.00  0.00     0.005 A 
HETATM   38  C   UNL     1       0.306   6.185 -29.185  1.00  0.00     0.043 A 
HETATM   39  C   UNL     1       0.266   6.212 -30.578  1.00  0.00     0.126 A 
HETATM   40  F   UNL     1       1.148   5.461 -31.254  1.00  0.00    -0.205 F 
ENDBRANCH  32  33
ENDBRANCH  31  32
ENDBRANCH  28  31
ENDBRANCH  24  25
ENDBRANCH   2  23
TORSDOF 10
ENDMDL
MODEL 8
REMARK VINA RESULT:      -8.1      2.579      4.015
REMARK  10 active torsions:
REMARK  status: ('A' for Active; 'I' for Inactive)
REMARK    1  A    between atoms: N_2  and  C_4 
REMARK    2  A    between atoms: C_4  and  C_5 
REMARK    3  A    between atoms: N_6  and  C_7 
REMARK    4  A    between atoms: C_11  and  N_12 
REMARK    5  A    between atoms: C_15  and  C_16 
REMARK       I    between atoms: C_16  and  N_17 
REMARK    6  A    between atoms: N_17  and  N_18 
REMARK    7  A    between atoms: C_19  and  C_20 
REMARK    8  A    between atoms: C_23  and  O_24 
REMARK    9  A    between atoms: O_24  and  C_25 
REMARK   10  A    between atoms: C_25  and  C_26 
ROOT
HETATM    1  C   UNL     1      -1.705   7.047 -30.574  1.00  0.00     0.293 C 
HETATM    2  N   UNL     1      -1.992   5.695 -30.472  1.00  0.00    -0.242 N 
HETATM    3  O   UNL     1      -2.114   7.822 -31.434  1.00  0.00    -0.264 OA
HETATM    4  H   UNL     1      -1.716   5.218 -29.614  1.00  0.00     0.192 HD
ENDROOT
BRANCH   1   5
HETATM    5  C   UNL     1      -0.817   7.537 -29.523  1.00  0.00     0.170 A 
HETATM    6  C   UNL     1      -1.182   8.027 -28.277  1.00  0.00     0.096 A 
HETATM    7  N   UNL     1       0.020   8.427 -27.698  1.00  0.00    -0.215 N 
HETATM    8  N   UNL     1       1.039   8.075 -28.524  1.00  0.00     0.012 NA
HETATM    9  N   UNL     1       0.542   7.569 -29.639  1.00  0.00    -0.152 NA
BRANCH   6  10
HETATM   10  C   UNL     1      -2.506   8.060 -27.612  1.00  0.00     0.295 C 
BRANCH  10  11
HETATM   11  N   UNL     1      -2.951   6.750 -27.012  1.00  0.00    -0.073 N 
HETATM   12  C   UNL     1      -4.439   6.742 -26.776  1.00  0.00     0.269 C 
HETATM   13  H   UNL     1      -2.778   6.024 -27.724  1.00  0.00     0.279 HD
HETATM   14  C   UNL     1      -2.212   6.375 -25.759  1.00  0.00     0.269 C 
ENDBRANCH  10  11
ENDBRANCH   6  10
BRANCH   7  15
HETATM   15  C   UNL     1       0.227   9.138 -26.492  1.00  0.00     0.225 A 
HETATM   16  N   UNL     1      -0.496  10.232 -26.230  1.00  0.00    -0.081 NA
HETATM   17  O   UNL     1      -0.003  10.663 -24.994  1.00  0.00    -0.103 OA
HETATM   18  N   UNL     1       1.023   9.843 -24.549  1.00  0.00    -0.083 NA
HETATM   19  C   UNL     1       1.169   8.900 -25.476  1.00  0.00     0.201 A 
BRANCH  19  20
HETATM   20  N   UNL     1       2.067   7.904 -25.418  1.00  0.00    -0.379 N 
HETATM   21  H   UNL     1       3.036   8.070 -25.676  1.00  0.00     0.158 HD
HETATM   22  H   UNL     1       1.824   6.924 -25.284  1.00  0.00     0.158 HD
ENDBRANCH  19  20
ENDBRANCH   7  15
ENDBRANCH   1   5
BRANCH   2  23
HETATM   23  N   UNL     1      -2.942   5.019 -31.194  1.00  0.00    -0.184 NA
HETATM   24  C   UNL     1      -4.181   5.094 -30.819  1.00  0.00     0.150 C 
BRANCH  24  25
HETATM   25  C   UNL     1      -5.249   4.327 -31.491  1.00  0.00    -0.017 A 
HETATM   26  C   UNL     1      -6.524   4.209 -30.931  1.00  0.00     0.016 A 
HETATM   27  C   UNL     1      -7.522   3.496 -31.606  1.00  0.00     0.037 A 
HETATM   28  C   UNL     1      -7.249   2.912 -32.844  1.00  0.00     0.069 A 
HETATM   29  C   UNL     1      -5.968   3.028 -33.392  1.00  0.00     0.037 A 
HETATM   30  C   UNL     1      -4.967   3.731 -32.721  1.00  0.00     0.016 A 
BRANCH  28  31
HETATM   31  O   UNL     1      -8.127   2.207 -33.616  1.00  0.00    -0.347 OA
BRANCH  31  32
HETATM   32  C   UNL     1      -8.543   0.928 -33.141  1.00  0.00     0.219 C 
BRANCH  32  33
HETATM   33  C   UNL     1      -7.439  -0.050 -33.433  1.00  0.00     0.026 A 
HETATM   34  C   UNL     1      -6.548  -0.506 -32.450  1.00  0.00     0.045 A 
HETATM   35 CL   UNL     1      -6.633   0.052 -30.816  1.00  0.00    -0.084 Cl
HETATM   36  C   UNL     1      -5.550  -1.437 -32.764  1.00  0.00     0.024 A 
HETATM   37  C   UNL     1      -5.433  -1.932 -34.063  1.00  0.00     0.005 A 
HETATM   38  C   UNL     1      -6.316  -1.496 -35.046  1.00  0.00     0.043 A 
HETATM   39  C   UNL     1      -7.305  -0.569 -34.724  1.00  0.00     0.126 A 
HETATM   40  F   UNL     1      -8.141  -0.170 -35.694  1.00  0.00    -0.205 F 
ENDBRANCH  32  33
ENDBRANCH  31  32
ENDBRANCH  28  31
ENDBRANCH  24  25
ENDBRANCH   2  23
TORSDOF 10
ENDMDL
MODEL 9
REMARK VINA RESULT:      -7.9      2.192      2.928
REMARK  10 active torsions:
REMARK  status: ('A' for Active; 'I' for Inactive)
REMARK    1  A    between atoms: N_2  and  C_4 
REMARK    2  A    between atoms: C_4  and  C_5 
REMARK    3  A    between atoms: N_6  and  C_7 
REMARK    4  A    between atoms: C_11  and  N_12 
REMARK    5  A    between atoms: C_15  and  C_16 
REMARK       I    between atoms: C_16  and  N_17 
REMARK    6  A    between atoms: N_17  and  N_18 
REMARK    7  A    between atoms: C_19  and  C_20 
REMARK    8  A    between atoms: C_23  and  O_24 
REMARK    9  A    between atoms: O_24  and  C_25 
REMARK   10  A    between atoms: C_25  and  C_26 
ROOT
HETATM    1  C   UNL     1      -2.878   7.764 -29.168  1.00  0.00     0.293 C 
HETATM    2  N   UNL     1      -3.977   6.928 -29.062  1.00  0.00    -0.242 N 
HETATM    3  O   UNL     1      -2.060   7.791 -30.084  1.00  0.00    -0.264 OA
HETATM    4  H   UNL     1      -4.657   7.133 -28.330  1.00  0.00     0.192 HD
ENDROOT
BRANCH   1   5
HETATM    5  C   UNL     1      -2.730   8.681 -28.041  1.00  0.00     0.170 A 
HETATM    6  C   UNL     1      -1.823   8.586 -26.995  1.00  0.00     0.096 A 
HETATM    7  N   UNL     1      -2.146   9.653 -26.160  1.00  0.00    -0.215 N 
HETATM    8  N   UNL     1      -3.117  10.393 -26.755  1.00  0.00     0.012 NA
HETATM    9  N   UNL     1      -3.496   9.797 -27.872  1.00  0.00    -0.152 NA
BRANCH   6  10
HETATM   10  C   UNL     1      -0.686   7.656 -26.796  1.00  0.00     0.295 C 
BRANCH  10  11
HETATM   11  N   UNL     1       0.296   7.595 -27.937  1.00  0.00    -0.073 N 
HETATM   12  C   UNL     1       0.678   6.172 -28.247  1.00  0.00     0.269 C 
HETATM   13  H   UNL     1      -0.199   7.938 -28.774  1.00  0.00     0.279 HD
HETATM   14  C   UNL     1       1.521   8.441 -27.728  1.00  0.00     0.269 C 
ENDBRANCH  10  11
ENDBRANCH   6  10
BRANCH   7  15
HETATM   15  C   UNL     1      -1.645   9.949 -24.870  1.00  0.00     0.225 A 
HETATM   16  N   UNL     1      -0.633  10.813 -24.730  1.00  0.00    -0.081 NA
HETATM   17  O   UNL     1      -0.404  10.829 -23.350  1.00  0.00    -0.103 OA
HETATM   18  N   UNL     1      -1.256   9.957 -22.690  1.00  0.00    -0.083 NA
HETATM   19  C   UNL     1      -2.023   9.409 -23.629  1.00  0.00     0.201 A 
BRANCH  19  20
HETATM   20  N   UNL     1      -2.986   8.504 -23.396  1.00  0.00    -0.379 N 
HETATM   21  H   UNL     1      -3.880   8.794 -23.008  1.00  0.00     0.158 HD
HETATM   22  H   UNL     1      -2.842   7.497 -23.426  1.00  0.00     0.158 HD
ENDBRANCH  19  20
ENDBRANCH   7  15
ENDBRANCH   1   5
BRANCH   2  23
HETATM   23  N   UNL     1      -4.466   6.116 -30.054  1.00  0.00    -0.184 NA
HETATM   24  C   UNL     1      -5.231   5.121 -29.727  1.00  0.00     0.150 C 
BRANCH  24  25
HETATM   25  C   UNL     1      -5.725   4.153 -30.726  1.00  0.00    -0.017 A 
HETATM   26  C   UNL     1      -5.291   4.191 -32.053  1.00  0.00     0.016 A 
HETATM   27  C   UNL     1      -5.760   3.242 -32.970  1.00  0.00     0.037 A 
HETATM   28  C   UNL     1      -6.652   2.250 -32.558  1.00  0.00     0.069 A 
HETATM   29  C   UNL     1      -7.087   2.226 -31.229  1.00  0.00     0.037 A 
HETATM   30  C   UNL     1      -6.629   3.173 -30.312  1.00  0.00     0.016 A 
BRANCH  28  31
HETATM   31  O   UNL     1      -7.173   1.257 -33.337  1.00  0.00    -0.347 OA
BRANCH  31  32
HETATM   32  C   UNL     1      -7.361  -0.022 -32.735  1.00  0.00     0.219 C 
BRANCH  32  33
HETATM   33  C   UNL     1      -6.306  -0.944 -33.280  1.00  0.00     0.026 A 
HETATM   34  C   UNL     1      -5.072  -1.149 -32.645  1.00  0.00     0.045 A 
HETATM   35 CL   UNL     1      -4.653  -0.323 -31.185  1.00  0.00    -0.084 Cl
HETATM   36  C   UNL     1      -4.130  -2.037 -33.179  1.00  0.00     0.024 A 
HETATM   37  C   UNL     1      -4.410  -2.740 -34.351  1.00  0.00     0.005 A 
HETATM   38  C   UNL     1      -5.633  -2.553 -34.987  1.00  0.00     0.043 A 
HETATM   39  C   UNL     1      -6.564  -1.667 -34.449  1.00  0.00     0.126 A 
HETATM   40  F   UNL     1      -7.735  -1.512 -35.085  1.00  0.00    -0.205 F 
ENDBRANCH  32  33
ENDBRANCH  31  32
ENDBRANCH  28  31
ENDBRANCH  24  25
ENDBRANCH   2  23
TORSDOF 10
ENDMDL
MODEL 10
REMARK VINA RESULT:      -7.9      5.320     11.715
REMARK  10 active torsions:
REMARK  status: ('A' for Active; 'I' for Inactive)
REMARK    1  A    between atoms: N_2  and  C_4 
REMARK    2  A    between atoms: C_4  and  C_5 
REMARK    3  A    between atoms: N_6  and  C_7 
REMARK    4  A    between atoms: C_11  and  N_12 
REMARK    5  A    between atoms: C_15  and  C_16 
REMARK       I    between atoms: C_16  and  N_17 
REMARK    6  A    between atoms: N_17  and  N_18 
REMARK    7  A    between atoms: C_19  and  C_20 
REMARK    8  A    between atoms: C_23  and  O_24 
REMARK    9  A    between atoms: O_24  and  C_25 
REMARK   10  A    between atoms: C_25  and  C_26 
ROOT
HETATM    1  C   UNL     1      -6.317   1.614 -33.482  1.00  0.00     0.293 C 
HETATM    2  N   UNL     1      -5.841   1.736 -32.186  1.00  0.00    -0.242 N 
HETATM    3  O   UNL     1      -6.729   2.519 -34.202  1.00  0.00    -0.264 OA
HETATM    4  H   UNL     1      -5.379   0.925 -31.776  1.00  0.00     0.192 HD
ENDROOT
BRANCH   1   5
HETATM    5  C   UNL     1      -6.306   0.242 -33.982  1.00  0.00     0.170 A 
HETATM    6  C   UNL     1      -5.667  -0.852 -33.415  1.00  0.00     0.096 A 
HETATM    7  N   UNL     1      -5.902  -1.892 -34.312  1.00  0.00    -0.215 N 
HETATM    8  N   UNL     1      -6.734  -1.445 -35.288  1.00  0.00     0.012 NA
HETATM    9  N   UNL     1      -6.956  -0.154 -35.114  1.00  0.00    -0.152 NA
BRANCH   6  10
HETATM   10  C   UNL     1      -4.964  -0.984 -32.117  1.00  0.00     0.295 C 
BRANCH  10  11
HETATM   11  N   UNL     1      -3.471  -0.785 -32.177  1.00  0.00    -0.073 N 
HETATM   12  C   UNL     1      -2.981  -0.006 -30.984  1.00  0.00     0.269 C 
HETATM   13  H   UNL     1      -3.044  -1.720 -32.093  1.00  0.00     0.279 HD
HETATM   14  C   UNL     1      -2.994  -0.156 -33.455  1.00  0.00     0.269 C 
ENDBRANCH  10  11
ENDBRANCH   6  10
BRANCH   7  15
HETATM   15  C   UNL     1      -5.357  -3.198 -34.314  1.00  0.00     0.225 A 
HETATM   16  N   UNL     1      -4.113  -3.402 -33.867  1.00  0.00    -0.081 NA
HETATM   17  O   UNL     1      -3.922  -4.777 -34.045  1.00  0.00    -0.103 OA
HETATM   18  N   UNL     1      -5.037  -5.368 -34.621  1.00  0.00    -0.083 NA
HETATM   19  C   UNL     1      -5.925  -4.392 -34.791  1.00  0.00     0.201 A 
BRANCH  19  20
HETATM   20  N   UNL     1      -7.146  -4.555 -35.324  1.00  0.00    -0.379 N 
HETATM   21  H   UNL     1      -7.474  -3.932 -36.056  1.00  0.00     0.158 HD
HETATM   22  H   UNL     1      -7.859  -5.170 -34.937  1.00  0.00     0.158 HD
ENDBRANCH  19  20
ENDBRANCH   7  15
ENDBRANCH   1   5
BRANCH   2  23
HETATM   23  N   UNL     1      -5.555   2.914 -31.544  1.00  0.00    -0.184 NA
HETATM   24  C   UNL     1      -4.416   3.490 -31.774  1.00  0.00     0.150 C 
BRANCH  24  25
HETATM   25  C   UNL     1      -4.000   4.712 -31.058  1.00  0.00    -0.017 A 
HETATM   26  C   UNL     1      -4.845   5.343 -30.142  1.00  0.00     0.016 A 
HETATM   27  C   UNL     1      -4.409   6.486 -29.460  1.00  0.00     0.037 A 
HETATM   28  C   UNL     1      -3.127   6.990 -29.685  1.00  0.00     0.069 A 
HETATM   29  C   UNL     1      -2.292   6.357 -30.611  1.00  0.00     0.037 A 
HETATM   30  C   UNL     1      -2.722   5.222 -31.299  1.00  0.00     0.016 A 
BRANCH  28  31
HETATM   31  O   UNL     1      -2.569   8.080 -29.081  1.00  0.00    -0.347 OA
BRANCH  31  32
HETATM   32  C   UNL     1      -1.285   8.501 -29.536  1.00  0.00     0.219 C 
BRANCH  32  33
HETATM   33  C   UNL     1      -0.360   8.513 -28.351  1.00  0.00     0.026 A 
HETATM   34  C   UNL     1      -0.390   9.518 -27.373  1.00  0.00     0.045 A 
HETATM   35 CL   UNL     1      -1.485  10.852 -27.473  1.00  0.00    -0.084 Cl
HETATM   36  C   UNL     1       0.476   9.473 -26.273  1.00  0.00     0.024 A 
HETATM   37  C   UNL     1       1.378   8.419 -26.130  1.00  0.00     0.005 A 
HETATM   38  C   UNL     1       1.413   7.411 -27.088  1.00  0.00     0.043 A 
HETATM   39  C   UNL     1       0.549   7.464 -28.179  1.00  0.00     0.126 A 
HETATM   40  F   UNL     1       0.606   6.475 -29.084  1.00  0.00    -0.205 F 
ENDBRANCH  32  33
ENDBRANCH  31  32
ENDBRANCH  28  31
ENDBRANCH  24  25
ENDBRANCH   2  23
TORSDOF 10
ENDMDL
