MODEL 1
REMARK VINA RESULT:      -8.5      0.000      0.000
REMARK  2 active torsions:
REMARK  status: ('A' for Active; 'I' for Inactive)
REMARK    1  A    between atoms: C_7  and  N_8 
REMARK       I    between atoms: N_8  and  C_9 
REMARK       I    between atoms: C_9  and  N_10 
REMARK    2  A    between atoms: N_10  and  C_11 
ROOT
HETATM    1  C   UNL     1      -6.105  -2.544 -34.776  1.00  0.00     0.025 A 
HETATM    2  C   UNL     1      -4.958  -2.396 -33.994  1.00  0.00     0.044 A 
HETATM    3  C   UNL     1      -4.100  -3.519 -33.748  1.00  0.00     0.099 C 
HETATM    4  N   UNL     1      -3.409  -4.429 -33.550  1.00  0.00    -0.191 NA
HETATM    5  C   UNL     1      -4.655  -1.145 -33.450  1.00  0.00     0.025 A 
HETATM    6  C   UNL     1      -5.497  -0.049 -33.678  1.00  0.00     0.031 A 
HETATM    7  C   UNL     1      -6.653  -0.193 -34.450  1.00  0.00     0.036 A 
HETATM    8  C   UNL     1      -6.945  -1.448 -35.002  1.00  0.00     0.031 A 
ENDROOT
BRANCH   7   9
HETATM    9  N   UNL     1      -7.566   0.851 -34.707  1.00  0.00    -0.309 N 
HETATM   10  C   UNL     1      -8.806   1.043 -34.143  1.00  0.00     0.321 C 
HETATM   11  N   UNL     1      -9.430   2.152 -34.686  1.00  0.00    -0.338 N 
HETATM   12  O   UNL     1      -9.357   0.343 -33.303  1.00  0.00    -0.247 OA
HETATM   13  H   UNL     1      -8.822   2.859 -35.075  1.00  0.00     0.164 HD
HETATM   14  H   UNL     1      -7.326   1.461 -35.474  1.00  0.00     0.170 HD
BRANCH  11  15
HETATM   15  C   UNL     1     -10.790   2.548 -34.332  1.00  0.00     0.089 C 
HETATM   16  C   UNL     1     -11.811   1.433 -34.639  1.00  0.00     0.058 C 
HETATM   17  C   UNL     1     -13.201   1.875 -34.235  1.00  0.00     0.190 C 
HETATM   18  N   UNL     1     -13.182   2.242 -32.775  1.00  0.00    -0.067 N 
HETATM   19  C   UNL     1     -14.293   0.825 -34.262  1.00  0.00     0.035 C 
HETATM   20  H   UNL     1     -12.782   1.441 -32.258  1.00  0.00     0.280 HD
HETATM   21  C   UNL     1     -12.318   3.425 -32.489  1.00  0.00     0.237 C 
HETATM   22  C   UNL     1     -14.629   2.329 -32.363  1.00  0.00     0.235 C 
HETATM   23  C   UNL     1     -10.888   3.074 -32.887  1.00  0.00     0.053 C 
HETATM   24  C   UNL     1     -15.363   1.425 -33.353  1.00  0.00     0.030 C 
ENDBRANCH  11  15
ENDBRANCH   7   9
TORSDOF 2
ENDMDL
MODEL 2
REMARK VINA RESULT:      -8.4      1.656      8.688
REMARK  2 active torsions:
REMARK  status: ('A' for Active; 'I' for Inactive)
REMARK    1  A    between atoms: C_7  and  N_8 
REMARK       I    between atoms: N_8  and  C_9 
REMARK       I    between atoms: C_9  and  N_10 
REMARK    2  A    between atoms: N_10  and  C_11 
ROOT
HETATM    1  C   UNL     1     -14.194   3.000 -32.557  1.00  0.00     0.025 A 
HETATM    2  C   UNL     1     -15.166   2.060 -32.906  1.00  0.00     0.044 A 
HETATM    3  C   UNL     1     -16.535   2.260 -32.527  1.00  0.00     0.099 C 
HETATM    4  N   UNL     1     -17.641   2.423 -32.218  1.00  0.00    -0.191 NA
HETATM    5  C   UNL     1     -14.793   0.922 -33.626  1.00  0.00     0.025 A 
HETATM    6  C   UNL     1     -13.455   0.718 -33.987  1.00  0.00     0.031 A 
HETATM    7  C   UNL     1     -12.476   1.649 -33.630  1.00  0.00     0.036 A 
HETATM    8  C   UNL     1     -12.859   2.794 -32.919  1.00  0.00     0.031 A 
ENDROOT
BRANCH   7   9
HETATM    9  N   UNL     1     -11.105   1.508 -33.933  1.00  0.00    -0.309 N 
HETATM   10  C   UNL     1     -10.224   0.578 -33.433  1.00  0.00     0.321 C 
HETATM   11  N   UNL     1      -8.948   0.789 -33.926  1.00  0.00    -0.338 N 
HETATM   12  O   UNL     1     -10.461  -0.313 -32.627  1.00  0.00    -0.247 OA
HETATM   13  H   UNL     1      -8.888   1.269 -34.814  1.00  0.00     0.164 HD
HETATM   14  H   UNL     1     -10.705   2.244 -34.495  1.00  0.00     0.170 HD
BRANCH  11  15
HETATM   15  C   UNL     1      -7.795   0.001 -33.503  1.00  0.00     0.089 C 
HETATM   16  C   UNL     1      -7.532  -1.187 -34.451  1.00  0.00     0.058 C 
HETATM   17  C   UNL     1      -6.315  -1.961 -33.991  1.00  0.00     0.190 C 
HETATM   18  N   UNL     1      -5.145  -1.017 -33.925  1.00  0.00    -0.067 N 
HETATM   19  C   UNL     1      -5.783  -3.028 -34.926  1.00  0.00     0.035 C 
HETATM   20  H   UNL     1      -5.073  -0.545 -34.842  1.00  0.00     0.280 HD
HETATM   21  C   UNL     1      -5.319   0.048 -32.894  1.00  0.00     0.237 C 
HETATM   22  C   UNL     1      -3.926  -1.896 -33.808  1.00  0.00     0.235 C 
HETATM   23  C   UNL     1      -6.546   0.873 -33.269  1.00  0.00     0.053 C 
HETATM   24  C   UNL     1      -4.351  -3.223 -34.437  1.00  0.00     0.030 C 
ENDBRANCH  11  15
ENDBRANCH   7   9
TORSDOF 2
ENDMDL
MODEL 3
REMARK VINA RESULT:      -8.1      5.419      8.370
REMARK  2 active torsions:
REMARK  status: ('A' for Active; 'I' for Inactive)
REMARK    1  A    between atoms: C_7  and  N_8 
REMARK       I    between atoms: N_8  and  C_9 
REMARK       I    between atoms: C_9  and  N_10 
REMARK    2  A    between atoms: N_10  and  C_11 
ROOT
HETATM    1  C   UNL     1      -6.864  -1.494 -34.788  1.00  0.00     0.025 A 
HETATM    2  C   UNL     1      -5.926  -2.492 -34.519  1.00  0.00     0.044 A 
HETATM    3  C   UNL     1      -6.156  -3.838 -34.957  1.00  0.00     0.099 C 
HETATM    4  N   UNL     1      -6.345  -4.926 -35.311  1.00  0.00    -0.191 NA
HETATM    5  C   UNL     1      -4.763  -2.168 -33.816  1.00  0.00     0.025 A 
HETATM    6  C   UNL     1      -4.541  -0.857 -33.376  1.00  0.00     0.031 A 
HETATM    7  C   UNL     1      -5.481   0.144 -33.632  1.00  0.00     0.036 A 
HETATM    8  C   UNL     1      -6.640  -0.185 -34.348  1.00  0.00     0.031 A 
ENDROOT
BRANCH   7   9
HETATM    9  N   UNL     1      -5.347   1.482 -33.205  1.00  0.00    -0.309 N 
HETATM   10  C   UNL     1      -4.334   2.028 -32.452  1.00  0.00     0.321 C 
HETATM   11  N   UNL     1      -4.576   3.364 -32.189  1.00  0.00    -0.338 N 
HETATM   12  O   UNL     1      -3.347   1.455 -32.007  1.00  0.00    -0.247 OA
HETATM   13  H   UNL     1      -5.173   3.846 -32.848  1.00  0.00     0.164 HD
HETATM   14  H   UNL     1      -6.143   2.077 -33.379  1.00  0.00     0.170 HD
BRANCH  11  15
HETATM   15  C   UNL     1      -3.707   4.176 -31.343  1.00  0.00     0.089 C 
HETATM   16  C   UNL     1      -2.304   4.349 -31.960  1.00  0.00     0.058 C 
HETATM   17  C   UNL     1      -1.446   5.217 -31.065  1.00  0.00     0.190 C 
HETATM   18  N   UNL     1      -2.143   6.534 -30.862  1.00  0.00    -0.067 N 
HETATM   19  C   UNL     1      -0.111   5.670 -31.620  1.00  0.00     0.035 C 
HETATM   20  H   UNL     1      -2.369   6.915 -31.796  1.00  0.00     0.280 HD
HETATM   21  C   UNL     1      -3.432   6.397 -30.121  1.00  0.00     0.237 C 
HETATM   22  C   UNL     1      -1.104   7.453 -30.273  1.00  0.00     0.235 C 
HETATM   23  C   UNL     1      -4.361   5.514 -30.948  1.00  0.00     0.053 C 
HETATM   24  C   UNL     1       0.229   6.873 -30.744  1.00  0.00     0.030 C 
ENDBRANCH  11  15
ENDBRANCH   7   9
TORSDOF 2
ENDMDL
MODEL 4
REMARK VINA RESULT:      -8.0      1.597      8.419
REMARK  2 active torsions:
REMARK  status: ('A' for Active; 'I' for Inactive)
REMARK    1  A    between atoms: C_7  and  N_8 
REMARK       I    between atoms: N_8  and  C_9 
REMARK       I    between atoms: C_9  and  N_10 
REMARK    2  A    between atoms: N_10  and  C_11 
ROOT
HETATM    1  C   UNL     1     -14.281   1.000 -33.773  1.00  0.00     0.025 A 
HETATM    2  C   UNL     1     -14.576   2.046 -32.896  1.00  0.00     0.044 A 
HETATM    3  C   UNL     1     -15.894   2.180 -32.346  1.00  0.00     0.099 C 
HETATM    4  N   UNL     1     -16.961   2.288 -31.905  1.00  0.00    -0.191 NA
HETATM    5  C   UNL     1     -13.575   2.962 -32.560  1.00  0.00     0.025 A 
HETATM    6  C   UNL     1     -12.290   2.840 -33.105  1.00  0.00     0.031 A 
HETATM    7  C   UNL     1     -11.993   1.804 -33.992  1.00  0.00     0.036 A 
HETATM    8  C   UNL     1     -12.997   0.881 -34.315  1.00  0.00     0.031 A 
ENDROOT
BRANCH   7   9
HETATM    9  N   UNL     1     -10.734   1.623 -34.603  1.00  0.00    -0.309 N 
HETATM   10  C   UNL     1      -9.645   0.948 -34.104  1.00  0.00     0.321 C 
HETATM   11  N   UNL     1      -8.570   1.030 -34.971  1.00  0.00    -0.338 N 
HETATM   12  O   UNL     1      -9.558   0.369 -33.028  1.00  0.00    -0.247 OA
HETATM   13  H   UNL     1      -8.795   1.189 -35.944  1.00  0.00     0.164 HD
HETATM   14  H   UNL     1     -10.584   2.144 -35.454  1.00  0.00     0.170 HD
BRANCH  11  15
HETATM   15  C   UNL     1      -7.257   0.474 -34.661  1.00  0.00     0.089 C 
HETATM   16  C   UNL     1      -6.667   1.079 -33.371  1.00  0.00     0.058 C 
HETATM   17  C   UNL     1      -5.319   0.457 -33.074  1.00  0.00     0.190 C 
HETATM   18  N   UNL     1      -5.491  -1.034 -32.974  1.00  0.00    -0.067 N 
HETATM   19  C   UNL     1      -4.696   0.774 -31.730  1.00  0.00     0.035 C 
HETATM   20  H   UNL     1      -6.245  -1.216 -32.291  1.00  0.00     0.280 HD
HETATM   21  C   UNL     1      -5.910  -1.654 -34.266  1.00  0.00     0.237 C 
HETATM   22  C   UNL     1      -4.220  -1.545 -32.345  1.00  0.00     0.235 C 
HETATM   23  C   UNL     1      -7.262  -1.067 -34.657  1.00  0.00     0.053 C 
HETATM   24  C   UNL     1      -3.682  -0.353 -31.552  1.00  0.00     0.030 C 
ENDBRANCH  11  15
ENDBRANCH   7   9
TORSDOF 2
ENDMDL
MODEL 5
REMARK VINA RESULT:      -7.7      1.255      2.463
REMARK  2 active torsions:
REMARK  status: ('A' for Active; 'I' for Inactive)
REMARK    1  A    between atoms: C_7  and  N_8 
REMARK       I    between atoms: N_8  and  C_9 
REMARK       I    between atoms: C_9  and  N_10 
REMARK    2  A    between atoms: N_10  and  C_11 
ROOT
HETATM    1  C   UNL     1      -4.599  -1.779 -33.777  1.00  0.00     0.025 A 
HETATM    2  C   UNL     1      -4.838  -3.105 -34.145  1.00  0.00     0.044 A 
HETATM    3  C   UNL     1      -3.840  -4.109 -33.920  1.00  0.00     0.099 C 
HETATM    4  N   UNL     1      -3.030  -4.920 -33.738  1.00  0.00    -0.191 NA
HETATM    5  C   UNL     1      -6.057  -3.443 -34.738  1.00  0.00     0.025 A 
HETATM    6  C   UNL     1      -7.030  -2.462 -34.971  1.00  0.00     0.031 A 
HETATM    7  C   UNL     1      -6.792  -1.132 -34.616  1.00  0.00     0.036 A 
HETATM    8  C   UNL     1      -5.572  -0.801 -34.011  1.00  0.00     0.031 A 
ENDROOT
BRANCH   7   9
HETATM    9  N   UNL     1      -7.706  -0.080 -34.837  1.00  0.00    -0.309 N 
HETATM   10  C   UNL     1      -8.731   0.330 -34.017  1.00  0.00     0.321 C 
HETATM   11  N   UNL     1      -9.446   1.364 -34.596  1.00  0.00    -0.338 N 
HETATM   12  O   UNL     1      -9.049  -0.140 -32.932  1.00  0.00    -0.247 OA
HETATM   13  H   UNL     1      -8.947   1.924 -35.274  1.00  0.00     0.164 HD
HETATM   14  H   UNL     1      -7.669   0.345 -35.751  1.00  0.00     0.170 HD
BRANCH  11  15
HETATM   15  C   UNL     1     -10.638   1.943 -33.985  1.00  0.00     0.089 C 
HETATM   16  C   UNL     1     -10.353   3.328 -33.369  1.00  0.00     0.058 C 
HETATM   17  C   UNL     1     -11.620   3.901 -32.771  1.00  0.00     0.190 C 
HETATM   18  N   UNL     1     -12.672   3.964 -33.845  1.00  0.00    -0.067 N 
HETATM   19  C   UNL     1     -11.574   5.346 -32.317  1.00  0.00     0.035 C 
HETATM   20  H   UNL     1     -12.267   4.474 -34.648  1.00  0.00     0.280 HD
HETATM   21  C   UNL     1     -13.073   2.613 -34.339  1.00  0.00     0.237 C 
HETATM   22  C   UNL     1     -13.761   4.847 -33.291  1.00  0.00     0.235 C 
HETATM   23  C   UNL     1     -11.843   1.948 -34.947  1.00  0.00     0.053 C 
HETATM   24  C   UNL     1     -13.050   5.734 -32.269  1.00  0.00     0.030 C 
ENDBRANCH  11  15
ENDBRANCH   7   9
TORSDOF 2
ENDMDL
MODEL 6
REMARK VINA RESULT:      -7.6      1.558      8.616
REMARK  2 active torsions:
REMARK  status: ('A' for Active; 'I' for Inactive)
REMARK    1  A    between atoms: C_7  and  N_8 
REMARK       I    between atoms: N_8  and  C_9 
REMARK       I    between atoms: C_9  and  N_10 
REMARK    2  A    between atoms: N_10  and  C_11 
ROOT
HETATM    1  C   UNL     1     -11.412   4.713 -33.537  1.00  0.00     0.025 A 
HETATM    2  C   UNL     1     -12.719   4.226 -33.603  1.00  0.00     0.044 A 
HETATM    3  C   UNL     1     -13.822   5.057 -33.217  1.00  0.00     0.099 C 
HETATM    4  N   UNL     1     -14.712   5.730 -32.902  1.00  0.00    -0.191 NA
HETATM    5  C   UNL     1     -12.942   2.920 -34.047  1.00  0.00     0.025 A 
HETATM    6  C   UNL     1     -11.865   2.101 -34.414  1.00  0.00     0.031 A 
HETATM    7  C   UNL     1     -10.555   2.579 -34.338  1.00  0.00     0.036 A 
HETATM    8  C   UNL     1     -10.339   3.894 -33.904  1.00  0.00     0.031 A 
ENDROOT
BRANCH   7   9
HETATM    9  N   UNL     1      -9.415   1.815 -34.665  1.00  0.00    -0.309 N 
HETATM   10  C   UNL     1      -8.901   0.736 -33.983  1.00  0.00     0.321 C 
HETATM   11  N   UNL     1      -7.741   0.279 -34.581  1.00  0.00    -0.338 N 
HETATM   12  O   UNL     1      -9.339   0.228 -32.959  1.00  0.00    -0.247 OA
HETATM   13  H   UNL     1      -7.638   0.482 -35.567  1.00  0.00     0.164 HD
HETATM   14  H   UNL     1      -8.853   2.172 -35.422  1.00  0.00     0.170 HD
BRANCH  11  15
HETATM   15  C   UNL     1      -6.937  -0.806 -34.027  1.00  0.00     0.089 C 
HETATM   16  C   UNL     1      -7.090  -2.108 -34.839  1.00  0.00     0.058 C 
HETATM   17  C   UNL     1      -6.222  -3.197 -34.246  1.00  0.00     0.190 C 
HETATM   18  N   UNL     1      -4.799  -2.711 -34.214  1.00  0.00    -0.067 N 
HETATM   19  C   UNL     1      -6.082  -4.476 -35.044  1.00  0.00     0.035 C 
HETATM   20  H   UNL     1      -4.556  -2.395 -35.168  1.00  0.00     0.280 HD
HETATM   21  C   UNL     1      -4.607  -1.544 -33.303  1.00  0.00     0.237 C 
HETATM   22  C   UNL     1      -3.961  -3.936 -33.952  1.00  0.00     0.235 C 
HETATM   23  C   UNL     1      -5.467  -0.395 -33.817  1.00  0.00     0.053 C 
HETATM   24  C   UNL     1      -4.812  -5.097 -34.468  1.00  0.00     0.030 C 
ENDBRANCH  11  15
ENDBRANCH   7   9
TORSDOF 2
ENDMDL
MODEL 7
REMARK VINA RESULT:      -7.4     14.503     18.224
REMARK  2 active torsions:
REMARK  status: ('A' for Active; 'I' for Inactive)
REMARK    1  A    between atoms: C_7  and  N_8 
REMARK       I    between atoms: N_8  and  C_9 
REMARK       I    between atoms: C_9  and  N_10 
REMARK    2  A    between atoms: N_10  and  C_11 
ROOT
HETATM    1  C   UNL     1      -7.399 -12.295 -40.861  1.00  0.00     0.025 A 
HETATM    2  C   UNL     1      -8.286 -12.459 -39.796  1.00  0.00     0.044 A 
HETATM    3  C   UNL     1      -9.698 -12.544 -40.037  1.00  0.00     0.099 C 
HETATM    4  N   UNL     1     -10.839 -12.611 -40.234  1.00  0.00    -0.191 NA
HETATM    5  C   UNL     1      -7.787 -12.536 -38.493  1.00  0.00     0.025 A 
HETATM    6  C   UNL     1      -6.410 -12.442 -38.254  1.00  0.00     0.031 A 
HETATM    7  C   UNL     1      -5.518 -12.266 -39.314  1.00  0.00     0.036 A 
HETATM    8  C   UNL     1      -6.024 -12.201 -40.620  1.00  0.00     0.031 A 
ENDROOT
BRANCH   7   9
HETATM    9  N   UNL     1      -4.122 -12.137 -39.159  1.00  0.00    -0.309 N 
HETATM   10  C   UNL     1      -3.181 -13.140 -39.138  1.00  0.00     0.321 C 
HETATM   11  N   UNL     1      -1.916 -12.628 -38.915  1.00  0.00    -0.338 N 
HETATM   12  O   UNL     1      -3.375 -14.344 -39.253  1.00  0.00    -0.247 OA
HETATM   13  H   UNL     1      -1.772 -11.664 -39.183  1.00  0.00     0.164 HD
HETATM   14  H   UNL     1      -3.792 -11.212 -38.927  1.00  0.00     0.170 HD
BRANCH  11  15
HETATM   15  C   UNL     1      -0.734 -13.472 -38.763  1.00  0.00     0.089 C 
HETATM   16  C   UNL     1      -0.855 -14.415 -37.549  1.00  0.00     0.058 C 
HETATM   17  C   UNL     1       0.378 -15.288 -37.444  1.00  0.00     0.190 C 
HETATM   18  N   UNL     1       0.542 -16.043 -38.735  1.00  0.00    -0.067 N 
HETATM   19  C   UNL     1       0.334 -16.423 -36.441  1.00  0.00     0.035 C 
HETATM   20  H   UNL     1      -0.352 -16.526 -38.930  1.00  0.00     0.280 HD
HETATM   21  C   UNL     1       0.819 -15.147 -39.896  1.00  0.00     0.237 C 
HETATM   22  C   UNL     1       1.550 -17.125 -38.443  1.00  0.00     0.235 C 
HETATM   23  C   UNL     1      -0.373 -14.211 -40.067  1.00  0.00     0.053 C 
HETATM   24  C   UNL     1       1.436 -17.355 -36.936  1.00  0.00     0.030 C 
ENDBRANCH  11  15
ENDBRANCH   7   9
TORSDOF 2
ENDMDL
MODEL 8
REMARK VINA RESULT:      -7.4      4.834      6.487
REMARK  2 active torsions:
REMARK  status: ('A' for Active; 'I' for Inactive)
REMARK    1  A    between atoms: C_7  and  N_8 
REMARK       I    between atoms: N_8  and  C_9 
REMARK       I    between atoms: C_9  and  N_10 
REMARK    2  A    between atoms: N_10  and  C_11 
ROOT
HETATM    1  C   UNL     1      -6.913  -1.798 -34.710  1.00  0.00     0.025 A 
HETATM    2  C   UNL     1      -5.874  -2.719 -34.570  1.00  0.00     0.044 A 
HETATM    3  C   UNL     1      -6.032  -4.066 -35.035  1.00  0.00     0.099 C 
HETATM    4  N   UNL     1      -6.164  -5.155 -35.411  1.00  0.00    -0.191 NA
HETATM    5  C   UNL     1      -4.678  -2.317 -33.969  1.00  0.00     0.025 A 
HETATM    6  C   UNL     1      -4.524  -1.005 -33.502  1.00  0.00     0.031 A 
HETATM    7  C   UNL     1      -5.565  -0.082 -33.629  1.00  0.00     0.036 A 
HETATM    8  C   UNL     1      -6.758  -0.488 -34.243  1.00  0.00     0.031 A 
ENDROOT
BRANCH   7   9
HETATM    9  N   UNL     1      -5.503   1.248 -33.165  1.00  0.00    -0.309 N 
HETATM   10  C   UNL     1      -5.651   1.698 -31.873  1.00  0.00     0.321 C 
HETATM   11  N   UNL     1      -5.575   3.078 -31.817  1.00  0.00    -0.338 N 
HETATM   12  O   UNL     1      -5.864   1.025 -30.872  1.00  0.00    -0.247 OA
HETATM   13  H   UNL     1      -5.060   3.526 -32.562  1.00  0.00     0.164 HD
HETATM   14  H   UNL     1      -5.454   1.958 -33.880  1.00  0.00     0.170 HD
BRANCH  11  15
HETATM   15  C   UNL     1      -5.778   3.833 -30.584  1.00  0.00     0.089 C 
HETATM   16  C   UNL     1      -4.888   5.092 -30.529  1.00  0.00     0.058 C 
HETATM   17  C   UNL     1      -5.148   5.857 -29.249  1.00  0.00     0.190 C 
HETATM   18  N   UNL     1      -6.613   6.194 -29.182  1.00  0.00    -0.067 N 
HETATM   19  C   UNL     1      -4.522   7.231 -29.129  1.00  0.00     0.035 C 
HETATM   20  H   UNL     1      -6.864   6.670 -30.064  1.00  0.00     0.280 HD
HETATM   21  C   UNL     1      -7.480   4.983 -29.073  1.00  0.00     0.237 C 
HETATM   22  C   UNL     1      -6.738   7.230 -28.094  1.00  0.00     0.235 C 
HETATM   23  C   UNL     1      -7.267   4.136 -30.323  1.00  0.00     0.053 C 
HETATM   24  C   UNL     1      -5.360   7.892 -28.038  1.00  0.00     0.030 C 
ENDBRANCH  11  15
ENDBRANCH   7   9
TORSDOF 2
ENDMDL
MODEL 9
REMARK VINA RESULT:      -7.2      5.066      8.904
REMARK  2 active torsions:
REMARK  status: ('A' for Active; 'I' for Inactive)
REMARK    1  A    between atoms: C_7  and  N_8 
REMARK       I    between atoms: N_8  and  C_9 
REMARK       I    between atoms: C_9  and  N_10 
REMARK    2  A    between atoms: N_10  and  C_11 
ROOT
HETATM    1  C   UNL     1     -10.344   1.795 -34.264  1.00  0.00     0.025 A 
HETATM    2  C   UNL     1     -10.762   0.699 -33.507  1.00  0.00     0.044 A 
HETATM    3  C   UNL     1     -12.130   0.270 -33.548  1.00  0.00     0.099 C 
HETATM    4  N   UNL     1     -13.237  -0.073 -33.581  1.00  0.00    -0.191 NA
HETATM    5  C   UNL     1      -9.835   0.025 -32.707  1.00  0.00     0.025 A 
HETATM    6  C   UNL     1      -8.501   0.449 -32.655  1.00  0.00     0.031 A 
HETATM    7  C   UNL     1      -8.079   1.553 -33.401  1.00  0.00     0.036 A 
HETATM    8  C   UNL     1      -9.011   2.217 -34.211  1.00  0.00     0.031 A 
ENDROOT
BRANCH   7   9
HETATM    9  N   UNL     1      -6.763   2.059 -33.388  1.00  0.00    -0.309 N 
HETATM   10  C   UNL     1      -6.258   3.072 -32.605  1.00  0.00     0.321 C 
HETATM   11  N   UNL     1      -4.933   3.322 -32.913  1.00  0.00    -0.338 N 
HETATM   12  O   UNL     1      -6.857   3.729 -31.764  1.00  0.00    -0.247 OA
HETATM   13  H   UNL     1      -4.418   2.554 -33.322  1.00  0.00     0.164 HD
HETATM   14  H   UNL     1      -6.155   1.712 -34.114  1.00  0.00     0.170 HD
BRANCH  11  15
HETATM   15  C   UNL     1      -4.166   4.399 -32.295  1.00  0.00     0.089 C 
HETATM   16  C   UNL     1      -2.664   4.058 -32.211  1.00  0.00     0.058 C 
HETATM   17  C   UNL     1      -1.903   5.210 -31.588  1.00  0.00     0.190 C 
HETATM   18  N   UNL     1      -2.160   6.449 -32.401  1.00  0.00    -0.067 N 
HETATM   19  C   UNL     1      -0.390   5.137 -31.628  1.00  0.00     0.035 C 
HETATM   20  H   UNL     1      -1.938   6.227 -33.386  1.00  0.00     0.280 HD
HETATM   21  C   UNL     1      -3.588   6.881 -32.359  1.00  0.00     0.237 C 
HETATM   22  C   UNL     1      -1.124   7.447 -31.951  1.00  0.00     0.235 C 
HETATM   23  C   UNL     1      -4.438   5.764 -32.955  1.00  0.00     0.053 C 
HETATM   24  C   UNL     1       0.024   6.591 -31.417  1.00  0.00     0.030 C 
ENDBRANCH  11  15
ENDBRANCH   7   9
TORSDOF 2
ENDMDL
MODEL 10
REMARK VINA RESULT:      -7.2      5.299      7.171
REMARK  2 active torsions:
REMARK  status: ('A' for Active; 'I' for Inactive)
REMARK    1  A    between atoms: C_7  and  N_8 
REMARK       I    between atoms: N_8  and  C_9 
REMARK       I    between atoms: C_9  and  N_10 
REMARK    2  A    between atoms: N_10  and  C_11 
ROOT
HETATM    1  C   UNL     1      -6.844  -1.857 -33.940  1.00  0.00     0.025 A 
HETATM    2  C   UNL     1      -5.871  -2.741 -34.409  1.00  0.00     0.044 A 
HETATM    3  C   UNL     1      -6.253  -3.936 -35.104  1.00  0.00     0.099 C 
HETATM    4  N   UNL     1      -6.565  -4.902 -35.665  1.00  0.00    -0.191 NA
HETATM    5  C   UNL     1      -4.520  -2.454 -34.192  1.00  0.00     0.025 A 
HETATM    6  C   UNL     1      -4.144  -1.294 -33.502  1.00  0.00     0.031 A 
HETATM    7  C   UNL     1      -5.113  -0.411 -33.020  1.00  0.00     0.036 A 
HETATM    8  C   UNL     1      -6.465  -0.699 -33.251  1.00  0.00     0.031 A 
ENDROOT
BRANCH   7   9
HETATM    9  N   UNL     1      -4.822   0.764 -32.296  1.00  0.00    -0.309 N 
HETATM   10  C   UNL     1      -5.128   2.061 -32.638  1.00  0.00     0.321 C 
HETATM   11  N   UNL     1      -4.633   2.950 -31.701  1.00  0.00    -0.338 N 
HETATM   12  O   UNL     1      -5.717   2.446 -33.640  1.00  0.00    -0.247 OA
HETATM   13  H   UNL     1      -4.493   2.583 -30.769  1.00  0.00     0.164 HD
HETATM   14  H   UNL     1      -4.224   0.645 -31.492  1.00  0.00     0.170 HD
BRANCH  11  15
HETATM   15  C   UNL     1      -4.740   4.398 -31.848  1.00  0.00     0.089 C 
HETATM   16  C   UNL     1      -5.073   5.089 -30.510  1.00  0.00     0.058 C 
HETATM   17  C   UNL     1      -5.150   6.588 -30.703  1.00  0.00     0.190 C 
HETATM   18  N   UNL     1      -3.844   7.065 -31.278  1.00  0.00    -0.067 N 
HETATM   19  C   UNL     1      -5.252   7.439 -29.454  1.00  0.00     0.035 C 
HETATM   20  H   UNL     1      -3.088   6.715 -30.666  1.00  0.00     0.280 HD
HETATM   21  C   UNL     1      -3.585   6.527 -32.646  1.00  0.00     0.237 C 
HETATM   22  C   UNL     1      -3.856   8.563 -31.118  1.00  0.00     0.235 C 
HETATM   23  C   UNL     1      -3.511   5.007 -32.551  1.00  0.00     0.053 C 
HETATM   24  C   UNL     1      -4.800   8.813 -29.942  1.00  0.00     0.030 C 
ENDBRANCH  11  15
ENDBRANCH   7   9
TORSDOF 2
ENDMDL
