MODEL 1
REMARK VINA RESULT:      -8.4      0.000      0.000
REMARK  5 active torsions:
REMARK  status: ('A' for Active; 'I' for Inactive)
REMARK    1  A    between atoms: C_2  and  C_3 
REMARK    2  A    between atoms: C_8  and  C_9 
REMARK       I    between atoms: C_9  and  N_10 
REMARK    3  A    between atoms: N_10  and  C_11 
REMARK    4  A    between atoms: C_11  and  C_12 
REMARK    5  A    between atoms: C_19  and  C_20 
ROOT
HETATM    1  C   UNL     1      -7.579   0.783 -31.659  1.00  0.00     0.118 C 
HETATM    2  N   UNL     1      -6.842   1.359 -30.542  1.00  0.00    -0.366 N 
HETATM    3  C   UNL     1      -6.381   2.626 -30.543  1.00  0.00     0.123 A 
HETATM    4  N   UNL     1      -6.580   3.465 -31.602  1.00  0.00    -0.240 N 
HETATM    5  N   UNL     1      -6.120   4.713 -31.406  1.00  0.00    -0.165 NA
HETATM    6  C   UNL     1      -5.536   4.648 -30.188  1.00  0.00     0.148 A 
HETATM    7  C   UNL     1      -5.684   3.353 -29.616  1.00  0.00     0.088 A 
HETATM    8  C   UNL     1      -7.291   3.094 -32.808  1.00  0.00     0.221 C 
HETATM    9  C   UNL     1      -8.205   1.884 -32.536  1.00  0.00     0.066 C 
HETATM   10  H   UNL     1      -6.645   0.727 -29.766  1.00  0.00     0.161 HD
ENDROOT
BRANCH   6  11
HETATM   11  C   UNL     1      -4.869   5.803 -29.567  1.00  0.00     0.272 C 
HETATM   12  N   UNL     1      -3.549   5.942 -29.930  1.00  0.00    -0.353 N 
HETATM   13  H   UNL     1      -3.231   5.332 -30.681  1.00  0.00     0.162 HD
HETATM   14  O   UNL     1      -5.449   6.573 -28.806  1.00  0.00    -0.266 OA
BRANCH  12  15
HETATM   15  C   UNL     1      -2.786   7.134 -29.624  1.00  0.00     0.155 C 
BRANCH  15  16
HETATM   16  C   UNL     1      -1.310   6.962 -29.972  1.00  0.00     0.139 C 
HETATM   17  O   UNL     1      -0.591   6.387 -28.861  1.00  0.00    -0.384 OA
HETATM   18  C   UNL     1       0.368   5.450 -29.378  1.00  0.00     0.168 C 
HETATM   19  C   UNL     1       0.335   5.566 -30.888  1.00  0.00     0.029 C 
HETATM   20  C   UNL     1      -1.080   6.021 -31.142  1.00  0.00     0.035 C 
ENDBRANCH  15  16
ENDBRANCH  12  15
ENDBRANCH   6  11
BRANCH   8  21
HETATM   21  C   UNL     1      -6.317   2.884 -33.945  1.00  0.00     0.409 C 
HETATM   22  F   UNL     1      -6.023   4.007 -34.625  1.00  0.00    -0.169 F 
HETATM   23  F   UNL     1      -5.145   2.391 -33.467  1.00  0.00    -0.169 F 
HETATM   24  F   UNL     1      -6.770   1.977 -34.840  1.00  0.00    -0.169 F 
ENDBRANCH   8  21
BRANCH   1  25
HETATM   25  C   UNL     1      -6.769  -0.260 -32.413  1.00  0.00    -0.034 A 
HETATM   26  C   UNL     1      -7.233  -0.898 -33.575  1.00  0.00     0.011 A 
HETATM   27  C   UNL     1      -6.446  -1.839 -34.245  1.00  0.00     0.026 A 
HETATM   28  C   UNL     1      -5.171  -2.155 -33.777  1.00  0.00     0.055 A 
HETATM   29  C   UNL     1      -4.685  -1.524 -32.629  1.00  0.00     0.056 A 
HETATM   30 CL   UNL     1      -4.251  -3.319 -34.659  1.00  0.00    -0.083 Cl
HETATM   31  C   UNL     1      -5.479  -0.587 -31.956  1.00  0.00     0.034 A 
HETATM   32 CL   UNL     1      -3.111  -1.846 -31.991  1.00  0.00    -0.083 Cl
ENDBRANCH   1  25
TORSDOF 5
ENDMDL
MODEL 2
REMARK VINA RESULT:      -8.4      4.155      7.082
REMARK  5 active torsions:
REMARK  status: ('A' for Active; 'I' for Inactive)
REMARK    1  A    between atoms: C_2  and  C_3 
REMARK    2  A    between atoms: C_8  and  C_9 
REMARK       I    between atoms: C_9  and  N_10 
REMARK    3  A    between atoms: N_10  and  C_11 
REMARK    4  A    between atoms: C_11  and  C_12 
REMARK    5  A    between atoms: C_19  and  C_20 
ROOT
HETATM    1  C   UNL     1      -4.404   1.346 -31.949  1.00  0.00     0.118 C 
HETATM    2  N   UNL     1      -4.836   2.130 -33.099  1.00  0.00    -0.366 N 
HETATM    3  C   UNL     1      -6.098   2.583 -33.244  1.00  0.00     0.123 A 
HETATM    4  N   UNL     1      -7.065   2.337 -32.311  1.00  0.00    -0.240 N 
HETATM    5  N   UNL     1      -8.245   2.923 -32.578  1.00  0.00    -0.165 NA
HETATM    6  C   UNL     1      -8.040   3.516 -33.776  1.00  0.00     0.148 A 
HETATM    7  C   UNL     1      -6.703   3.325 -34.223  1.00  0.00     0.088 A 
HETATM    8  C   UNL     1      -6.845   1.583 -31.094  1.00  0.00     0.221 C 
HETATM    9  C   UNL     1      -5.344   1.560 -30.747  1.00  0.00     0.066 C 
HETATM   10  H   UNL     1      -4.136   2.279 -33.825  1.00  0.00     0.161 HD
ENDROOT
BRANCH   6  11
HETATM   11  C   UNL     1      -9.092   4.272 -34.475  1.00  0.00     0.272 C 
HETATM   12  N   UNL     1     -10.121   3.486 -34.944  1.00  0.00    -0.353 N 
HETATM   13  H   UNL     1     -10.112   2.516 -34.635  1.00  0.00     0.162 HD
HETATM   14  O   UNL     1      -9.052   5.491 -34.613  1.00  0.00    -0.266 OA
BRANCH  12  15
HETATM   15  C   UNL     1     -11.356   4.051 -35.444  1.00  0.00     0.155 C 
BRANCH  15  16
HETATM   16  C   UNL     1     -12.577   3.363 -34.837  1.00  0.00     0.139 C 
HETATM   17  O   UNL     1     -12.956   2.217 -35.626  1.00  0.00    -0.384 OA
HETATM   18  C   UNL     1     -13.359   1.166 -34.732  1.00  0.00     0.168 C 
HETATM   19  C   UNL     1     -13.365   1.747 -33.333  1.00  0.00     0.029 C 
HETATM   20  C   UNL     1     -12.324   2.833 -33.436  1.00  0.00     0.035 C 
ENDBRANCH  15  16
ENDBRANCH  12  15
ENDBRANCH   6  11
BRANCH   8  21
HETATM   21  C   UNL     1      -7.469   0.210 -31.210  1.00  0.00     0.409 C 
HETATM   22  F   UNL     1      -7.431  -0.302 -32.454  1.00  0.00    -0.169 F 
HETATM   23  F   UNL     1      -6.819  -0.665 -30.400  1.00  0.00    -0.169 F 
HETATM   24  F   UNL     1      -8.761   0.206 -30.810  1.00  0.00    -0.169 F 
ENDBRANCH   8  21
BRANCH   1  25
HETATM   25  C   UNL     1      -4.133  -0.107 -32.306  1.00  0.00    -0.034 A 
HETATM   26  C   UNL     1      -3.303  -0.942 -31.541  1.00  0.00     0.011 A 
HETATM   27  C   UNL     1      -3.096  -2.278 -31.898  1.00  0.00     0.026 A 
HETATM   28  C   UNL     1      -3.725  -2.813 -33.022  1.00  0.00     0.055 A 
HETATM   29  C   UNL     1      -4.563  -2.004 -33.792  1.00  0.00     0.056 A 
HETATM   30 CL   UNL     1      -3.431  -4.472 -33.399  1.00  0.00    -0.083 Cl
HETATM   31  C   UNL     1      -4.763  -0.664 -33.435  1.00  0.00     0.034 A 
HETATM   32 CL   UNL     1      -5.392  -2.591 -35.190  1.00  0.00    -0.083 Cl
ENDBRANCH   1  25
TORSDOF 5
ENDMDL
MODEL 3
REMARK VINA RESULT:      -8.0      5.057      8.654
REMARK  5 active torsions:
REMARK  status: ('A' for Active; 'I' for Inactive)
REMARK    1  A    between atoms: C_2  and  C_3 
REMARK    2  A    between atoms: C_8  and  C_9 
REMARK       I    between atoms: C_9  and  N_10 
REMARK    3  A    between atoms: N_10  and  C_11 
REMARK    4  A    between atoms: C_11  and  C_12 
REMARK    5  A    between atoms: C_19  and  C_20 
ROOT
HETATM    1  C   UNL     1      -6.564   1.439 -30.806  1.00  0.00     0.118 C 
HETATM    2  N   UNL     1      -7.852   2.098 -30.976  1.00  0.00    -0.366 N 
HETATM    3  C   UNL     1      -8.751   1.721 -31.909  1.00  0.00     0.123 A 
HETATM    4  N   UNL     1      -8.512   0.682 -32.763  1.00  0.00    -0.240 N 
HETATM    5  N   UNL     1      -9.541   0.395 -33.577  1.00  0.00    -0.165 NA
HETATM    6  C   UNL     1     -10.459   1.342 -33.275  1.00  0.00     0.148 A 
HETATM    7  C   UNL     1      -9.996   2.190 -32.230  1.00  0.00     0.088 A 
HETATM    8  C   UNL     1      -7.297  -0.108 -32.759  1.00  0.00     0.221 C 
HETATM    9  C   UNL     1      -6.587   0.017 -31.398  1.00  0.00     0.066 C 
HETATM   10  H   UNL     1      -8.021   2.905 -30.377  1.00  0.00     0.161 HD
ENDROOT
BRANCH   6  11
HETATM   11  C   UNL     1     -11.762   1.427 -33.952  1.00  0.00     0.272 C 
HETATM   12  N   UNL     1     -12.836   1.223 -33.115  1.00  0.00    -0.353 N 
HETATM   13  H   UNL     1     -12.619   1.182 -32.121  1.00  0.00     0.162 HD
HETATM   14  O   UNL     1     -11.872   1.670 -35.150  1.00  0.00    -0.266 OA
BRANCH  12  15
HETATM   15  C   UNL     1     -14.196   1.496 -33.525  1.00  0.00     0.155 C 
BRANCH  15  16
HETATM   16  C   UNL     1     -14.995   2.174 -32.414  1.00  0.00     0.139 C 
HETATM   17  O   UNL     1     -14.613   3.560 -32.289  1.00  0.00    -0.384 OA
HETATM   18  C   UNL     1     -15.796   4.333 -32.030  1.00  0.00     0.168 C 
HETATM   19  C   UNL     1     -16.938   3.355 -31.843  1.00  0.00     0.029 C 
HETATM   20  C   UNL     1     -16.491   2.182 -32.679  1.00  0.00     0.035 C 
ENDBRANCH  15  16
ENDBRANCH  12  15
ENDBRANCH   6  11
BRANCH   8  21
HETATM   21  C   UNL     1      -6.430   0.261 -33.941  1.00  0.00     0.409 C 
HETATM   22  F   UNL     1      -6.721  -0.420 -35.064  1.00  0.00    -0.169 F 
HETATM   23  F   UNL     1      -6.575   1.580 -34.229  1.00  0.00    -0.169 F 
HETATM   24  F   UNL     1      -5.116   0.073 -33.684  1.00  0.00    -0.169 F 
ENDBRANCH   8  21
BRANCH   1  25
HETATM   25  C   UNL     1      -5.402   2.309 -31.260  1.00  0.00    -0.034 A 
HETATM   26  C   UNL     1      -4.060   1.908 -31.160  1.00  0.00     0.011 A 
HETATM   27  C   UNL     1      -3.025   2.735 -31.607  1.00  0.00     0.026 A 
HETATM   28  C   UNL     1      -3.309   3.976 -32.176  1.00  0.00     0.055 A 
HETATM   29  C   UNL     1      -4.637   4.390 -32.295  1.00  0.00     0.056 A 
HETATM   30 CL   UNL     1      -1.982   4.941 -32.714  1.00  0.00    -0.083 Cl
HETATM   31  C   UNL     1      -5.672   3.563 -31.840  1.00  0.00     0.034 A 
HETATM   32 CL   UNL     1      -5.077   5.905 -33.002  1.00  0.00    -0.083 Cl
ENDBRANCH   1  25
TORSDOF 5
ENDMDL
MODEL 4
REMARK VINA RESULT:      -8.0      2.390      3.018
REMARK  5 active torsions:
REMARK  status: ('A' for Active; 'I' for Inactive)
REMARK    1  A    between atoms: C_2  and  C_3 
REMARK    2  A    between atoms: C_8  and  C_9 
REMARK       I    between atoms: C_9  and  N_10 
REMARK    3  A    between atoms: N_10  and  C_11 
REMARK    4  A    between atoms: C_11  and  C_12 
REMARK    5  A    between atoms: C_19  and  C_20 
ROOT
HETATM    1  C   UNL     1      -3.558  -0.438 -31.860  1.00  0.00     0.118 C 
HETATM    2  N   UNL     1      -3.014   0.746 -32.514  1.00  0.00    -0.366 N 
HETATM    3  C   UNL     1      -3.536   1.978 -32.349  1.00  0.00     0.123 A 
HETATM    4  N   UNL     1      -4.618   2.202 -31.546  1.00  0.00    -0.240 N 
HETATM    5  N   UNL     1      -4.961   3.497 -31.438  1.00  0.00    -0.165 NA
HETATM    6  C   UNL     1      -4.097   4.124 -32.268  1.00  0.00     0.148 A 
HETATM    7  C   UNL     1      -3.187   3.201 -32.855  1.00  0.00     0.088 A 
HETATM    8  C   UNL     1      -5.304   1.166 -30.802  1.00  0.00     0.221 C 
HETATM    9  C   UNL     1      -4.383  -0.054 -30.617  1.00  0.00     0.066 C 
HETATM   10  H   UNL     1      -2.237   0.583 -33.154  1.00  0.00     0.161 HD
ENDROOT
BRANCH   6  11
HETATM   11  C   UNL     1      -4.120   5.579 -32.484  1.00  0.00     0.272 C 
HETATM   12  N   UNL     1      -3.445   6.294 -31.520  1.00  0.00    -0.353 N 
HETATM   13  H   UNL     1      -2.896   5.741 -30.864  1.00  0.00     0.162 HD
HETATM   14  O   UNL     1      -4.682   6.098 -33.445  1.00  0.00    -0.266 OA
BRANCH  12  15
HETATM   15  C   UNL     1      -3.146   7.702 -31.671  1.00  0.00     0.155 C 
BRANCH  15  16
HETATM   16  C   UNL     1      -1.674   7.999 -31.395  1.00  0.00     0.139 C 
HETATM   17  O   UNL     1      -1.409   7.969 -29.977  1.00  0.00    -0.384 OA
HETATM   18  C   UNL     1      -0.130   7.350 -29.768  1.00  0.00     0.168 C 
HETATM   19  C   UNL     1       0.483   7.120 -31.134  1.00  0.00     0.029 C 
HETATM   20  C   UNL     1      -0.736   6.974 -32.010  1.00  0.00     0.035 C 
ENDBRANCH  15  16
ENDBRANCH  12  15
ENDBRANCH   6  11
BRANCH   8  21
HETATM   21  C   UNL     1      -6.628   0.842 -31.457  1.00  0.00     0.409 C 
HETATM   22  F   UNL     1      -6.676   1.143 -32.768  1.00  0.00    -0.169 F 
HETATM   23  F   UNL     1      -6.888  -0.486 -31.345  1.00  0.00    -0.169 F 
HETATM   24  F   UNL     1      -7.659   1.480 -30.858  1.00  0.00    -0.169 F 
ENDBRANCH   8  21
BRANCH   1  25
HETATM   25  C   UNL     1      -4.255  -1.373 -32.835  1.00  0.00    -0.034 A 
HETATM   26  C   UNL     1      -5.199  -0.932 -33.776  1.00  0.00     0.011 A 
HETATM   27  C   UNL     1      -5.803  -1.825 -34.666  1.00  0.00     0.026 A 
HETATM   28  C   UNL     1      -5.466  -3.179 -34.645  1.00  0.00     0.055 A 
HETATM   29  C   UNL     1      -4.521  -3.637 -33.724  1.00  0.00     0.056 A 
HETATM   30 CL   UNL     1      -6.244  -4.223 -35.778  1.00  0.00    -0.083 Cl
HETATM   31  C   UNL     1      -3.924  -2.741 -32.829  1.00  0.00     0.034 A 
HETATM   32 CL   UNL     1      -4.035  -5.294 -33.641  1.00  0.00    -0.083 Cl
ENDBRANCH   1  25
TORSDOF 5
ENDMDL
MODEL 5
REMARK VINA RESULT:      -8.0      4.442      7.954
REMARK  5 active torsions:
REMARK  status: ('A' for Active; 'I' for Inactive)
REMARK    1  A    between atoms: C_2  and  C_3 
REMARK    2  A    between atoms: C_8  and  C_9 
REMARK       I    between atoms: C_9  and  N_10 
REMARK    3  A    between atoms: N_10  and  C_11 
REMARK    4  A    between atoms: C_11  and  C_12 
REMARK    5  A    between atoms: C_19  and  C_20 
ROOT
HETATM    1  C   UNL     1      -5.387   1.949 -30.626  1.00  0.00     0.118 C 
HETATM    2  N   UNL     1      -6.791   2.300 -30.793  1.00  0.00    -0.366 N 
HETATM    3  C   UNL     1      -7.670   1.515 -31.449  1.00  0.00     0.123 A 
HETATM    4  N   UNL     1      -7.299   0.323 -32.002  1.00  0.00    -0.240 N 
HETATM    5  N   UNL     1      -8.314  -0.365 -32.552  1.00  0.00    -0.165 NA
HETATM    6  C   UNL     1      -9.374   0.461 -32.403  1.00  0.00     0.148 A 
HETATM    7  C   UNL     1      -9.006   1.650 -31.712  1.00  0.00     0.088 A 
HETATM    8  C   UNL     1      -5.954  -0.215 -31.945  1.00  0.00     0.221 C 
HETATM    9  C   UNL     1      -5.172   0.431 -30.786  1.00  0.00     0.066 C 
HETATM   10  H   UNL     1      -7.068   3.210 -30.426  1.00  0.00     0.161 HD
ENDROOT
BRANCH   6  11
HETATM   11  C   UNL     1     -10.720   0.119 -32.889  1.00  0.00     0.272 C 
HETATM   12  N   UNL     1     -11.416   1.192 -33.398  1.00  0.00    -0.353 N 
HETATM   13  H   UNL     1     -10.881   2.051 -33.512  1.00  0.00     0.162 HD
HETATM   14  O   UNL     1     -11.167  -1.024 -32.852  1.00  0.00    -0.266 OA
BRANCH  12  15
HETATM   15  C   UNL     1     -12.649   1.031 -34.137  1.00  0.00     0.155 C 
BRANCH  15  16
HETATM   16  C   UNL     1     -13.182   2.369 -34.644  1.00  0.00     0.139 C 
HETATM   17  O   UNL     1     -13.210   3.339 -33.576  1.00  0.00    -0.384 OA
HETATM   18  C   UNL     1     -12.807   4.611 -34.110  1.00  0.00     0.168 C 
HETATM   19  C   UNL     1     -12.664   4.442 -35.608  1.00  0.00     0.029 C 
HETATM   20  C   UNL     1     -12.315   2.980 -35.731  1.00  0.00     0.035 C 
ENDBRANCH  15  16
ENDBRANCH  12  15
ENDBRANCH   6  11
BRANCH   8  21
HETATM   21  C   UNL     1      -5.280  -0.079 -33.291  1.00  0.00     0.409 C 
HETATM   22  F   UNL     1      -5.399  -1.169 -34.072  1.00  0.00    -0.169 F 
HETATM   23  F   UNL     1      -5.820   0.961 -33.978  1.00  0.00    -0.169 F 
HETATM   24  F   UNL     1      -3.961   0.192 -33.173  1.00  0.00    -0.169 F 
ENDBRANCH   8  21
BRANCH   1  25
HETATM   25  C   UNL     1      -4.465   2.823 -31.462  1.00  0.00    -0.034 A 
HETATM   26  C   UNL     1      -3.096   2.971 -31.190  1.00  0.00     0.011 A 
HETATM   27  C   UNL     1      -2.283   3.773 -31.998  1.00  0.00     0.026 A 
HETATM   28  C   UNL     1      -2.818   4.435 -33.103  1.00  0.00     0.055 A 
HETATM   29  C   UNL     1      -4.176   4.293 -33.397  1.00  0.00     0.056 A 
HETATM   30 CL   UNL     1      -1.755   5.400 -34.060  1.00  0.00    -0.083 Cl
HETATM   31  C   UNL     1      -4.989   3.495 -32.582  1.00  0.00     0.034 A 
HETATM   32 CL   UNL     1      -4.917   5.065 -34.755  1.00  0.00    -0.083 Cl
ENDBRANCH   1  25
TORSDOF 5
ENDMDL
MODEL 6
REMARK VINA RESULT:      -7.9      1.029      1.398
REMARK  5 active torsions:
REMARK  status: ('A' for Active; 'I' for Inactive)
REMARK    1  A    between atoms: C_2  and  C_3 
REMARK    2  A    between atoms: C_8  and  C_9 
REMARK       I    between atoms: C_9  and  N_10 
REMARK    3  A    between atoms: N_10  and  C_11 
REMARK    4  A    between atoms: C_11  and  C_12 
REMARK    5  A    between atoms: C_19  and  C_20 
ROOT
HETATM    1  C   UNL     1      -8.007   0.790 -32.128  1.00  0.00     0.118 C 
HETATM    2  N   UNL     1      -7.519   1.259 -30.837  1.00  0.00    -0.366 N 
HETATM    3  C   UNL     1      -7.023   2.498 -30.648  1.00  0.00     0.123 A 
HETATM    4  N   UNL     1      -6.949   3.409 -31.663  1.00  0.00    -0.240 N 
HETATM    5  N   UNL     1      -6.499   4.617 -31.283  1.00  0.00    -0.165 NA
HETATM    6  C   UNL     1      -6.206   4.449 -29.974  1.00  0.00     0.148 A 
HETATM    7  C   UNL     1      -6.525   3.132 -29.541  1.00  0.00     0.088 A 
HETATM    8  C   UNL     1      -7.385   3.148 -33.020  1.00  0.00     0.221 C 
HETATM    9  C   UNL     1      -8.380   1.973 -33.042  1.00  0.00     0.066 C 
HETATM   10  H   UNL     1      -7.525   0.572 -30.083  1.00  0.00     0.161 HD
ENDROOT
BRANCH   6  11
HETATM   11  C   UNL     1      -5.653   5.529 -29.141  1.00  0.00     0.272 C 
HETATM   12  N   UNL     1      -5.161   6.591 -29.865  1.00  0.00    -0.353 N 
HETATM   13  H   UNL     1      -5.362   6.576 -30.863  1.00  0.00     0.162 HD
HETATM   14  O   UNL     1      -5.647   5.482 -27.914  1.00  0.00    -0.266 OA
BRANCH  12  15
HETATM   15  C   UNL     1      -4.796   7.845 -29.243  1.00  0.00     0.155 C 
BRANCH  15  16
HETATM   16  C   UNL     1      -3.309   8.147 -29.413  1.00  0.00     0.139 C 
HETATM   17  O   UNL     1      -2.516   7.261 -28.594  1.00  0.00    -0.384 OA
HETATM   18  C   UNL     1      -1.344   6.888 -29.337  1.00  0.00     0.168 C 
HETATM   19  C   UNL     1      -1.347   7.699 -30.615  1.00  0.00     0.029 C 
HETATM   20  C   UNL     1      -2.820   7.939 -30.836  1.00  0.00     0.035 C 
ENDBRANCH  15  16
ENDBRANCH  12  15
ENDBRANCH   6  11
BRANCH   8  21
HETATM   21  C   UNL     1      -6.189   2.956 -33.925  1.00  0.00     0.409 C 
HETATM   22  F   UNL     1      -5.089   2.513 -33.288  1.00  0.00    -0.169 F 
HETATM   23  F   UNL     1      -6.480   2.048 -34.892  1.00  0.00    -0.169 F 
HETATM   24  F   UNL     1      -5.852   4.097 -34.568  1.00  0.00    -0.169 F 
ENDBRANCH   8  21
BRANCH   1  25
HETATM   25  C   UNL     1      -7.088  -0.247 -32.755  1.00  0.00    -0.034 A 
HETATM   26  C   UNL     1      -7.420  -0.961 -33.917  1.00  0.00     0.011 A 
HETATM   27  C   UNL     1      -6.536  -1.893 -34.469  1.00  0.00     0.026 A 
HETATM   28  C   UNL     1      -5.293  -2.122 -33.878  1.00  0.00     0.055 A 
HETATM   29  C   UNL     1      -4.938  -1.414 -32.727  1.00  0.00     0.056 A 
HETATM   30 CL   UNL     1      -4.248  -3.280 -34.617  1.00  0.00    -0.083 Cl
HETATM   31  C   UNL     1      -5.829  -0.487 -32.173  1.00  0.00     0.034 A 
HETATM   32 CL   UNL     1      -3.413  -1.626 -31.942  1.00  0.00    -0.083 Cl
ENDBRANCH   1  25
TORSDOF 5
ENDMDL
MODEL 7
REMARK VINA RESULT:      -7.9      3.834      4.722
REMARK  5 active torsions:
REMARK  status: ('A' for Active; 'I' for Inactive)
REMARK    1  A    between atoms: C_2  and  C_3 
REMARK    2  A    between atoms: C_8  and  C_9 
REMARK       I    between atoms: C_9  and  N_10 
REMARK    3  A    between atoms: N_10  and  C_11 
REMARK    4  A    between atoms: C_11  and  C_12 
REMARK    5  A    between atoms: C_19  and  C_20 
ROOT
HETATM    1  C   UNL     1      -7.837   0.969 -33.214  1.00  0.00     0.118 C 
HETATM    2  N   UNL     1      -6.993   1.890 -33.964  1.00  0.00    -0.366 N 
HETATM    3  C   UNL     1      -6.367   2.939 -33.394  1.00  0.00     0.123 A 
HETATM    4  N   UNL     1      -6.479   3.209 -32.060  1.00  0.00    -0.240 N 
HETATM    5  N   UNL     1      -5.731   4.246 -31.645  1.00  0.00    -0.165 NA
HETATM    6  C   UNL     1      -5.166   4.704 -32.785  1.00  0.00     0.148 A 
HETATM    7  C   UNL     1      -5.541   3.906 -33.902  1.00  0.00     0.088 A 
HETATM    8  C   UNL     1      -7.265   2.416 -31.136  1.00  0.00     0.221 C 
HETATM    9  C   UNL     1      -7.501   1.007 -31.711  1.00  0.00     0.066 C 
HETATM   10  H   UNL     1      -6.940   1.727 -34.969  1.00  0.00     0.161 HD
ENDROOT
BRANCH   6  11
HETATM   11  C   UNL     1      -4.266   5.867 -32.811  1.00  0.00     0.272 C 
HETATM   12  N   UNL     1      -3.167   5.701 -33.624  1.00  0.00    -0.353 N 
HETATM   13  H   UNL     1      -3.176   4.872 -34.214  1.00  0.00     0.162 HD
HETATM   14  O   UNL     1      -4.488   6.892 -32.171  1.00  0.00    -0.266 OA
BRANCH  12  15
HETATM   15  C   UNL     1      -2.293   6.801 -33.973  1.00  0.00     0.155 C 
BRANCH  15  16
HETATM   16  C   UNL     1      -1.036   6.818 -33.107  1.00  0.00     0.139 C 
HETATM   17  O   UNL     1      -1.180   7.761 -32.024  1.00  0.00    -0.384 OA
HETATM   18  C   UNL     1      -0.587   7.191 -30.846  1.00  0.00     0.168 C 
HETATM   19  C   UNL     1       0.083   5.898 -31.264  1.00  0.00     0.029 C 
HETATM   20  C   UNL     1      -0.748   5.479 -32.450  1.00  0.00     0.035 C 
ENDBRANCH  15  16
ENDBRANCH  12  15
ENDBRANCH   6  11
BRANCH   8  21
HETATM   21  C   UNL     1      -8.535   3.149 -30.767  1.00  0.00     0.409 C 
HETATM   22  F   UNL     1      -8.420   3.918 -29.668  1.00  0.00    -0.169 F 
HETATM   23  F   UNL     1      -8.911   3.966 -31.784  1.00  0.00    -0.169 F 
HETATM   24  F   UNL     1      -9.568   2.301 -30.561  1.00  0.00    -0.169 F 
ENDBRANCH   8  21
BRANCH   1  25
HETATM   25  C   UNL     1      -9.312   1.128 -33.550  1.00  0.00    -0.034 A 
HETATM   26  C   UNL     1     -10.304   0.253 -33.080  1.00  0.00     0.011 A 
HETATM   27  C   UNL     1     -11.651   0.449 -33.400  1.00  0.00     0.026 A 
HETATM   28  C   UNL     1     -12.038   1.533 -34.188  1.00  0.00     0.055 A 
HETATM   29  C   UNL     1     -11.069   2.422 -34.658  1.00  0.00     0.056 A 
HETATM   30 CL   UNL     1     -13.719   1.718 -34.537  1.00  0.00    -0.083 Cl
HETATM   31  C   UNL     1      -9.720   2.219 -34.341  1.00  0.00     0.034 A 
HETATM   32 CL   UNL     1     -11.465   3.798 -35.626  1.00  0.00    -0.083 Cl
ENDBRANCH   1  25
TORSDOF 5
ENDMDL
MODEL 8
REMARK VINA RESULT:      -7.8      3.577      4.582
REMARK  5 active torsions:
REMARK  status: ('A' for Active; 'I' for Inactive)
REMARK    1  A    between atoms: C_2  and  C_3 
REMARK    2  A    between atoms: C_8  and  C_9 
REMARK       I    between atoms: C_9  and  N_10 
REMARK    3  A    between atoms: N_10  and  C_11 
REMARK    4  A    between atoms: C_11  and  C_12 
REMARK    5  A    between atoms: C_19  and  C_20 
ROOT
HETATM    1  C   UNL     1      -7.489   1.162 -33.159  1.00  0.00     0.118 C 
HETATM    2  N   UNL     1      -6.395   1.966 -33.688  1.00  0.00    -0.366 N 
HETATM    3  C   UNL     1      -5.619   2.749 -32.912  1.00  0.00     0.123 A 
HETATM    4  N   UNL     1      -5.805   2.837 -31.562  1.00  0.00    -0.240 N 
HETATM    5  N   UNL     1      -4.897   3.604 -30.933  1.00  0.00    -0.165 NA
HETATM    6  C   UNL     1      -4.135   4.084 -31.941  1.00  0.00     0.148 A 
HETATM    7  C   UNL     1      -4.558   3.566 -33.197  1.00  0.00     0.088 A 
HETATM    8  C   UNL     1      -6.831   2.117 -30.836  1.00  0.00     0.221 C 
HETATM    9  C   UNL     1      -7.305   0.900 -31.652  1.00  0.00     0.066 C 
HETATM   10  H   UNL     1      -6.278   1.946 -34.701  1.00  0.00     0.161 HD
ENDROOT
BRANCH   6  11
HETATM   11  C   UNL     1      -3.008   5.002 -31.714  1.00  0.00     0.272 C 
HETATM   12  N   UNL     1      -2.010   4.471 -30.928  1.00  0.00    -0.353 N 
HETATM   13  H   UNL     1      -2.093   3.478 -30.719  1.00  0.00     0.162 HD
HETATM   14  O   UNL     1      -2.965   6.131 -32.195  1.00  0.00    -0.266 OA
BRANCH  12  15
HETATM   15  C   UNL     1      -0.720   5.112 -30.782  1.00  0.00     0.155 C 
BRANCH  15  16
HETATM   16  C   UNL     1      -0.694   6.059 -29.584  1.00  0.00     0.139 C 
HETATM   17  O   UNL     1       0.192   5.557 -28.562  1.00  0.00    -0.384 OA
HETATM   18  C   UNL     1       0.898   6.670 -27.990  1.00  0.00     0.168 C 
HETATM   19  C   UNL     1       0.310   7.930 -28.591  1.00  0.00     0.029 C 
HETATM   20  C   UNL     1      -0.177   7.444 -29.933  1.00  0.00     0.035 C 
ENDBRANCH  15  16
ENDBRANCH  12  15
ENDBRANCH   6  11
BRANCH   8  21
HETATM   21  C   UNL     1      -7.944   3.057 -30.433  1.00  0.00     0.409 C 
HETATM   22  F   UNL     1      -8.078   4.122 -31.245  1.00  0.00    -0.169 F 
HETATM   23  F   UNL     1      -9.133   2.400 -30.442  1.00  0.00    -0.169 F 
HETATM   24  F   UNL     1      -7.782   3.526 -29.175  1.00  0.00    -0.169 F 
ENDBRANCH   8  21
BRANCH   1  25
HETATM   25  C   UNL     1      -8.853   1.701 -33.559  1.00  0.00    -0.034 A 
HETATM   26  C   UNL     1      -9.042   2.983 -34.098  1.00  0.00     0.011 A 
HETATM   27  C   UNL     1     -10.314   3.430 -34.468  1.00  0.00     0.026 A 
HETATM   28  C   UNL     1     -11.425   2.599 -34.320  1.00  0.00     0.055 A 
HETATM   29  C   UNL     1     -11.258   1.316 -33.796  1.00  0.00     0.056 A 
HETATM   30 CL   UNL     1     -12.964   3.214 -34.806  1.00  0.00    -0.083 Cl
HETATM   31  C   UNL     1      -9.984   0.874 -33.419  1.00  0.00     0.034 A 
HETATM   32 CL   UNL     1     -12.578   0.218 -33.593  1.00  0.00    -0.083 Cl
ENDBRANCH   1  25
TORSDOF 5
ENDMDL
MODEL 9
REMARK VINA RESULT:      -7.5      4.356      8.519
REMARK  5 active torsions:
REMARK  status: ('A' for Active; 'I' for Inactive)
REMARK    1  A    between atoms: C_2  and  C_3 
REMARK    2  A    between atoms: C_8  and  C_9 
REMARK       I    between atoms: C_9  and  N_10 
REMARK    3  A    between atoms: N_10  and  C_11 
REMARK    4  A    between atoms: C_11  and  C_12 
REMARK    5  A    between atoms: C_19  and  C_20 
ROOT
HETATM    1  C   UNL     1      -0.375   6.043 -31.082  1.00  0.00     0.118 C 
HETATM    2  N   UNL     1      -1.292   4.915 -30.976  1.00  0.00    -0.366 N 
HETATM    3  C   UNL     1      -2.589   4.990 -31.338  1.00  0.00     0.123 A 
HETATM    4  N   UNL     1      -3.134   6.138 -31.839  1.00  0.00    -0.240 N 
HETATM    5  N   UNL     1      -4.417   6.015 -32.218  1.00  0.00    -0.165 NA
HETATM    6  C   UNL     1      -4.727   4.743 -31.878  1.00  0.00     0.148 A 
HETATM    7  C   UNL     1      -3.602   4.070 -31.326  1.00  0.00     0.088 A 
HETATM    8  C   UNL     1      -2.395   7.370 -32.030  1.00  0.00     0.221 C 
HETATM    9  C   UNL     1      -0.885   7.079 -32.102  1.00  0.00     0.066 C 
HETATM   10  H   UNL     1      -0.909   4.068 -30.559  1.00  0.00     0.161 HD
ENDROOT
BRANCH   6  11
HETATM   11  C   UNL     1      -6.065   4.169 -32.096  1.00  0.00     0.272 C 
HETATM   12  N   UNL     1      -6.131   3.308 -33.168  1.00  0.00    -0.353 N 
HETATM   13  H   UNL     1      -5.238   3.058 -33.589  1.00  0.00     0.162 HD
HETATM   14  O   UNL     1      -7.024   4.431 -31.375  1.00  0.00    -0.266 OA
BRANCH  12  15
HETATM   15  C   UNL     1      -7.280   2.462 -33.407  1.00  0.00     0.155 C 
BRANCH  15  16
HETATM   16  C   UNL     1      -6.964   0.992 -33.138  1.00  0.00     0.139 C 
HETATM   17  O   UNL     1      -5.691   0.634 -33.713  1.00  0.00    -0.384 OA
HETATM   18  C   UNL     1      -5.015  -0.249 -32.804  1.00  0.00     0.168 C 
HETATM   19  C   UNL     1      -5.985  -0.563 -31.683  1.00  0.00     0.029 C 
HETATM   20  C   UNL     1      -6.851   0.671 -31.657  1.00  0.00     0.035 C 
ENDBRANCH  15  16
ENDBRANCH  12  15
ENDBRANCH   6  11
BRANCH   8  21
HETATM   21  C   UNL     1      -2.776   8.377 -30.969  1.00  0.00     0.409 C 
HETATM   22  F   UNL     1      -3.043   7.830 -29.768  1.00  0.00    -0.169 F 
HETATM   23  F   UNL     1      -1.763   9.263 -30.784  1.00  0.00    -0.169 F 
HETATM   24  F   UNL     1      -3.855   9.109 -31.328  1.00  0.00    -0.169 F 
ENDBRANCH   8  21
BRANCH   1  25
HETATM   25  C   UNL     1       0.009   6.609 -29.723  1.00  0.00    -0.034 A 
HETATM   26  C   UNL     1       0.826   7.740 -29.568  1.00  0.00     0.011 A 
HETATM   27  C   UNL     1       1.139   8.236 -28.299  1.00  0.00     0.026 A 
HETATM   28  C   UNL     1       0.630   7.620 -27.155  1.00  0.00     0.055 A 
HETATM   29  C   UNL     1      -0.193   6.499 -27.287  1.00  0.00     0.056 A 
HETATM   30 CL   UNL     1       1.050   8.290 -25.621  1.00  0.00    -0.083 Cl
HETATM   31  C   UNL     1      -0.499   6.001 -28.560  1.00  0.00     0.034 A 
HETATM   32 CL   UNL     1      -0.877   5.685 -25.924  1.00  0.00    -0.083 Cl
ENDBRANCH   1  25
TORSDOF 5
ENDMDL
MODEL 10
REMARK VINA RESULT:      -7.4      1.476      2.344
REMARK  5 active torsions:
REMARK  status: ('A' for Active; 'I' for Inactive)
REMARK    1  A    between atoms: C_2  and  C_3 
REMARK    2  A    between atoms: C_8  and  C_9 
REMARK       I    between atoms: C_9  and  N_10 
REMARK    3  A    between atoms: N_10  and  C_11 
REMARK    4  A    between atoms: C_11  and  C_12 
REMARK    5  A    between atoms: C_19  and  C_20 
ROOT
HETATM    1  C   UNL     1      -7.326   1.013 -31.460  1.00  0.00     0.118 C 
HETATM    2  N   UNL     1      -6.688   1.680 -30.332  1.00  0.00    -0.366 N 
HETATM    3  C   UNL     1      -6.283   2.966 -30.375  1.00  0.00     0.123 A 
HETATM    4  N   UNL     1      -6.450   3.738 -31.489  1.00  0.00    -0.240 N 
HETATM    5  N   UNL     1      -6.057   5.014 -31.334  1.00  0.00    -0.165 NA
HETATM    6  C   UNL     1      -5.551   5.040 -30.080  1.00  0.00     0.148 A 
HETATM    7  C   UNL     1      -5.678   3.772 -29.449  1.00  0.00     0.088 A 
HETATM    8  C   UNL     1      -7.066   3.272 -32.715  1.00  0.00     0.221 C 
HETATM    9  C   UNL     1      -7.942   2.037 -32.433  1.00  0.00     0.066 C 
HETATM   10  H   UNL     1      -6.514   1.099 -29.513  1.00  0.00     0.161 HD
ENDROOT
BRANCH   6  11
HETATM   11  C   UNL     1      -4.975   6.256 -29.484  1.00  0.00     0.272 C 
HETATM   12  N   UNL     1      -3.606   6.213 -29.351  1.00  0.00    -0.353 N 
HETATM   13  H   UNL     1      -3.143   5.427 -29.803  1.00  0.00     0.162 HD
HETATM   14  O   UNL     1      -5.660   7.219 -29.150  1.00  0.00    -0.266 OA
BRANCH  12  15
HETATM   15  C   UNL     1      -2.827   7.385 -29.013  1.00  0.00     0.155 C 
BRANCH  15  16
HETATM   16  C   UNL     1      -2.387   7.368 -27.551  1.00  0.00     0.139 C 
HETATM   17  O   UNL     1      -0.948   7.378 -27.455  1.00  0.00    -0.384 OA
HETATM   18  C   UNL     1      -0.574   8.224 -26.355  1.00  0.00     0.168 C 
HETATM   19  C   UNL     1      -1.852   8.636 -25.654  1.00  0.00     0.029 C 
HETATM   20  C   UNL     1      -2.860   8.585 -26.774  1.00  0.00     0.035 C 
ENDBRANCH  15  16
ENDBRANCH  12  15
ENDBRANCH   6  11
BRANCH   8  21
HETATM   21  C   UNL     1      -6.013   3.048 -33.776  1.00  0.00     0.409 C 
HETATM   22  F   UNL     1      -4.817   2.671 -33.287  1.00  0.00    -0.169 F 
HETATM   23  F   UNL     1      -6.416   2.073 -34.631  1.00  0.00    -0.169 F 
HETATM   24  F   UNL     1      -5.811   4.152 -34.531  1.00  0.00    -0.169 F 
ENDBRANCH   8  21
BRANCH   1  25
HETATM   25  C   UNL     1      -6.426  -0.029 -32.104  1.00  0.00    -0.034 A 
HETATM   26  C   UNL     1      -5.099  -0.248 -31.703  1.00  0.00     0.011 A 
HETATM   27  C   UNL     1      -4.313  -1.231 -32.312  1.00  0.00     0.026 A 
HETATM   28  C   UNL     1      -4.841  -2.027 -33.329  1.00  0.00     0.055 A 
HETATM   29  C   UNL     1      -6.163  -1.833 -33.737  1.00  0.00     0.056 A 
HETATM   30 CL   UNL     1      -3.817  -3.227 -34.030  1.00  0.00    -0.083 Cl
HETATM   31  C   UNL     1      -6.945  -0.843 -33.129  1.00  0.00     0.034 A 
HETATM   32 CL   UNL     1      -6.900  -2.785 -34.977  1.00  0.00    -0.083 Cl
ENDBRANCH   1  25
TORSDOF 5
ENDMDL
