MODEL 1
REMARK VINA RESULT:      -9.9      0.000      0.000
REMARK  6 active torsions:
REMARK  status: ('A' for Active; 'I' for Inactive)
REMARK    1  A    between atoms: C_2  and  C_3 
REMARK    2  A    between atoms: C_3  and  C_4 
REMARK    3  A    between atoms: N_7  and  C_9 
REMARK    4  A    between atoms: C_9  and  C_10 
REMARK    5  A    between atoms: N_23  and  C_24 
REMARK    6  A    between atoms: C_24  and  C_25 
ROOT
HETATM    1  C   UNL     1      -7.110   3.098 -31.087  1.00  0.00     0.119 A 
HETATM    2  N   UNL     1      -7.148   3.091 -32.529  1.00  0.00    -0.324 N 
HETATM    3  C   UNL     1      -6.460   4.157 -33.075  1.00  0.00     0.326 A 
HETATM    4  O   UNL     1      -6.305   4.276 -34.277  1.00  0.00    -0.247 OA
HETATM    5  N   UNL     1      -5.957   4.916 -32.069  1.00  0.00    -0.264 N 
HETATM    6  C   UNL     1      -6.335   4.418 -30.854  1.00  0.00     0.257 A 
HETATM    7  O   UNL     1      -6.041   4.865 -29.756  1.00  0.00    -0.270 OA
HETATM    8  H   UNL     1      -7.858   2.657 -33.108  1.00  0.00     0.165 HD
ENDROOT
BRANCH   1   9
HETATM    9  C   UNL     1      -8.521   3.171 -30.472  1.00  0.00     0.037 C 
HETATM   10  C   UNL     1      -9.666   2.957 -31.460  1.00  0.00     0.008 C 
ENDBRANCH   1   9
BRANCH   1  11
HETATM   11  C   UNL     1      -6.255   1.909 -30.506  1.00  0.00     0.026 C 
HETATM   12  C   UNL     1      -4.819   1.781 -31.060  1.00  0.00     0.035 C 
HETATM   13  C   UNL     1      -4.727   1.208 -32.468  1.00  0.00     0.235 C 
HETATM   14  N   UNL     1      -5.469  -0.100 -32.584  1.00  0.00    -0.067 N 
HETATM   15  H   UNL     1      -4.920  -0.793 -32.058  1.00  0.00     0.280 HD
HETATM   16  C   UNL     1      -6.864  -0.088 -32.002  1.00  0.00     0.235 C 
HETATM   17  C   UNL     1      -6.894   0.513 -30.604  1.00  0.00     0.035 C 
BRANCH  14  18
HETATM   18  C   UNL     1      -5.534  -0.599 -34.024  1.00  0.00     0.273 C 
BRANCH  18  19
HETATM   19  C   UNL     1      -5.353  -2.082 -34.200  1.00  0.00    -0.027 A 
HETATM   20  C   UNL     1      -4.208  -2.736 -33.727  1.00  0.00     0.051 A 
HETATM   21  C   UNL     1      -4.063  -4.112 -33.915  1.00  0.00     0.119 A 
HETATM   22  F   UNL     1      -2.960  -4.716 -33.454  1.00  0.00    -0.206 F 
HETATM   23  C   UNL     1      -5.029  -4.859 -34.572  1.00  0.00     0.084 A 
HETATM   24  C   UNL     1      -6.161  -4.212 -35.041  1.00  0.00     0.119 A 
HETATM   25  F   UNL     1      -7.104  -4.909 -35.686  1.00  0.00    -0.206 F 
HETATM   26  C   UNL     1      -6.333  -2.840 -34.865  1.00  0.00     0.051 A 
ENDBRANCH  18  19
ENDBRANCH  14  18
ENDBRANCH   1  11
BRANCH   5  27
HETATM   27  C   UNL     1      -5.081   6.052 -32.255  1.00  0.00     0.175 C 
BRANCH  27  28
HETATM   28  C   UNL     1      -3.625   5.715 -32.064  1.00  0.00    -0.037 A 
HETATM   29  C   UNL     1      -2.967   6.092 -30.881  1.00  0.00     0.048 A 
HETATM   30  C   UNL     1      -1.621   5.814 -30.769  1.00  0.00     0.105 A 
HETATM   31  C   UNL     1      -0.929   5.172 -31.765  1.00  0.00     0.105 A 
HETATM   32  O   UNL     1      -0.833   6.137 -29.709  1.00  0.00    -0.323 OA
HETATM   33  O   UNL     1       0.386   5.011 -31.460  1.00  0.00    -0.323 OA
HETATM   34  C   UNL     1      -1.544   4.764 -32.929  1.00  0.00     0.040 A 
HETATM   35  C   UNL     1       0.449   5.658 -30.171  1.00  0.00     0.352 A 
HETATM   36  C   UNL     1      -2.907   5.038 -33.078  1.00  0.00     0.012 A 
ENDBRANCH  27  28
ENDBRANCH   5  27
TORSDOF 6
ENDMDL
MODEL 2
REMARK VINA RESULT:      -9.8      0.478      1.486
REMARK  6 active torsions:
REMARK  status: ('A' for Active; 'I' for Inactive)
REMARK    1  A    between atoms: C_2  and  C_3 
REMARK    2  A    between atoms: C_3  and  C_4 
REMARK    3  A    between atoms: N_7  and  C_9 
REMARK    4  A    between atoms: C_9  and  C_10 
REMARK    5  A    between atoms: N_23  and  C_24 
REMARK    6  A    between atoms: C_24  and  C_25 
ROOT
HETATM    1  C   UNL     1      -6.790   3.127 -30.906  1.00  0.00     0.119 A 
HETATM    2  N   UNL     1      -7.053   3.104 -32.324  1.00  0.00    -0.324 N 
HETATM    3  C   UNL     1      -6.508   4.195 -32.973  1.00  0.00     0.326 A 
HETATM    4  O   UNL     1      -6.549   4.309 -34.186  1.00  0.00    -0.247 OA
HETATM    5  N   UNL     1      -5.887   4.984 -32.061  1.00  0.00    -0.264 N 
HETATM    6  C   UNL     1      -6.047   4.481 -30.800  1.00  0.00     0.257 A 
HETATM    7  O   UNL     1      -5.605   4.950 -29.763  1.00  0.00    -0.270 OA
HETATM    8  H   UNL     1      -7.826   2.635 -32.784  1.00  0.00     0.165 HD
ENDROOT
BRANCH   1   9
HETATM    9  C   UNL     1      -8.088   3.144 -30.078  1.00  0.00     0.037 C 
HETATM   10  C   UNL     1      -9.366   2.900 -30.877  1.00  0.00     0.008 C 
ENDBRANCH   1   9
BRANCH   1  11
HETATM   11  C   UNL     1      -5.802   1.980 -30.464  1.00  0.00     0.026 C 
HETATM   12  C   UNL     1      -4.482   1.888 -31.260  1.00  0.00     0.035 C 
HETATM   13  C   UNL     1      -4.617   1.286 -32.652  1.00  0.00     0.235 C 
HETATM   14  N   UNL     1      -5.318  -0.049 -32.613  1.00  0.00    -0.067 N 
HETATM   15  H   UNL     1      -4.660  -0.710 -32.180  1.00  0.00     0.280 HD
HETATM   16  C   UNL     1      -6.589  -0.070 -31.795  1.00  0.00     0.235 C 
HETATM   17  C   UNL     1      -6.396   0.562 -30.424  1.00  0.00     0.035 C 
BRANCH  14  18
HETATM   18  C   UNL     1      -5.617  -0.584 -34.011  1.00  0.00     0.273 C 
BRANCH  18  19
HETATM   19  C   UNL     1      -5.397  -2.061 -34.194  1.00  0.00    -0.027 A 
HETATM   20  C   UNL     1      -6.335  -2.859 -34.862  1.00  0.00     0.051 A 
HETATM   21  C   UNL     1      -6.108  -4.229 -35.006  1.00  0.00     0.119 A 
HETATM   22  F   UNL     1      -7.019  -4.972 -35.647  1.00  0.00    -0.206 F 
HETATM   23  C   UNL     1      -4.969  -4.832 -34.495  1.00  0.00     0.084 A 
HETATM   24  C   UNL     1      -4.042  -4.044 -33.834  1.00  0.00     0.119 A 
HETATM   25  F   UNL     1      -2.938  -4.603 -33.324  1.00  0.00    -0.206 F 
HETATM   26  C   UNL     1      -4.241  -2.673 -33.678  1.00  0.00     0.051 A 
ENDBRANCH  18  19
ENDBRANCH  14  18
ENDBRANCH   1  11
BRANCH   5  27
HETATM   27  C   UNL     1      -5.102   6.155 -32.384  1.00  0.00     0.175 C 
BRANCH  27  28
HETATM   28  C   UNL     1      -3.631   5.976 -32.113  1.00  0.00    -0.037 A 
HETATM   29  C   UNL     1      -2.987   6.795 -31.170  1.00  0.00     0.048 A 
HETATM   30  C   UNL     1      -1.630   6.638 -30.990  1.00  0.00     0.105 A 
HETATM   31  C   UNL     1      -0.911   5.701 -31.690  1.00  0.00     0.105 A 
HETATM   32  O   UNL     1      -0.854   7.366 -30.144  1.00  0.00    -0.323 OA
HETATM   33  O   UNL     1       0.411   5.721 -31.374  1.00  0.00    -0.323 OA
HETATM   34  C   UNL     1      -1.510   4.861 -32.604  1.00  0.00     0.040 A 
HETATM   35  C   UNL     1       0.448   6.805 -30.422  1.00  0.00     0.352 A 
HETATM   36  C   UNL     1      -2.886   5.001 -32.816  1.00  0.00     0.012 A 
ENDBRANCH  27  28
ENDBRANCH   5  27
TORSDOF 6
ENDMDL
MODEL 3
REMARK VINA RESULT:      -9.3      3.365      6.923
REMARK  6 active torsions:
REMARK  status: ('A' for Active; 'I' for Inactive)
REMARK    1  A    between atoms: C_2  and  C_3 
REMARK    2  A    between atoms: C_3  and  C_4 
REMARK    3  A    between atoms: N_7  and  C_9 
REMARK    4  A    between atoms: C_9  and  C_10 
REMARK    5  A    between atoms: N_23  and  C_24 
REMARK    6  A    between atoms: C_24  and  C_25 
ROOT
HETATM    1  C   UNL     1      -7.080   1.716 -32.727  1.00  0.00     0.119 A 
HETATM    2  N   UNL     1      -6.677   2.859 -33.509  1.00  0.00    -0.324 N 
HETATM    3  C   UNL     1      -7.709   3.761 -33.686  1.00  0.00     0.326 A 
HETATM    4  O   UNL     1      -7.540   4.830 -34.244  1.00  0.00    -0.247 OA
HETATM    5  N   UNL     1      -8.819   3.284 -33.070  1.00  0.00    -0.264 N 
HETATM    6  C   UNL     1      -8.578   2.053 -32.527  1.00  0.00     0.257 A 
HETATM    7  O   UNL     1      -9.367   1.361 -31.902  1.00  0.00    -0.270 OA
HETATM    8  H   UNL     1      -5.920   2.888 -34.184  1.00  0.00     0.165 HD
ENDROOT
BRANCH   1   9
HETATM    9  C   UNL     1      -6.910   0.397 -33.504  1.00  0.00     0.037 C 
HETATM   10  C   UNL     1      -7.613   0.351 -34.859  1.00  0.00     0.008 C 
ENDBRANCH   1   9
BRANCH   1  11
HETATM   11  C   UNL     1      -6.384   1.684 -31.314  1.00  0.00     0.026 C 
HETATM   12  C   UNL     1      -4.962   2.284 -31.252  1.00  0.00     0.035 C 
HETATM   13  C   UNL     1      -3.872   1.406 -31.850  1.00  0.00     0.235 C 
HETATM   14  N   UNL     1      -3.896   0.016 -31.265  1.00  0.00    -0.067 N 
HETATM   15  H   UNL     1      -3.563   0.103 -30.297  1.00  0.00     0.280 HD
HETATM   16  C   UNL     1      -5.264  -0.626 -31.221  1.00  0.00     0.235 C 
HETATM   17  C   UNL     1      -6.313   0.306 -30.633  1.00  0.00     0.035 C 
BRANCH  14  18
HETATM   18  C   UNL     1      -2.927  -0.924 -31.976  1.00  0.00     0.273 C 
BRANCH  18  19
HETATM   19  C   UNL     1      -3.569  -2.009 -32.796  1.00  0.00    -0.027 A 
HETATM   20  C   UNL     1      -3.324  -3.363 -32.531  1.00  0.00     0.051 A 
HETATM   21  C   UNL     1      -3.925  -4.348 -33.317  1.00  0.00     0.119 A 
HETATM   22  F   UNL     1      -3.676  -5.635 -33.046  1.00  0.00    -0.206 F 
HETATM   23  C   UNL     1      -4.764  -4.020 -34.372  1.00  0.00     0.084 A 
HETATM   24  C   UNL     1      -5.006  -2.682 -34.635  1.00  0.00     0.119 A 
HETATM   25  F   UNL     1      -5.806  -2.339 -35.651  1.00  0.00    -0.206 F 
HETATM   26  C   UNL     1      -4.421  -1.678 -33.864  1.00  0.00     0.051 A 
ENDBRANCH  18  19
ENDBRANCH  14  18
ENDBRANCH   1  11
BRANCH   5  27
HETATM   27  C   UNL     1     -10.064   4.008 -32.942  1.00  0.00     0.175 C 
BRANCH  27  28
HETATM   28  C   UNL     1     -11.243   3.266 -33.517  1.00  0.00    -0.037 A 
HETATM   29  C   UNL     1     -12.389   3.053 -32.732  1.00  0.00     0.048 A 
HETATM   30  C   UNL     1     -13.424   2.323 -33.276  1.00  0.00     0.105 A 
HETATM   31  C   UNL     1     -13.364   1.824 -34.553  1.00  0.00     0.105 A 
HETATM   32  O   UNL     1     -14.583   2.002 -32.643  1.00  0.00    -0.323 OA
HETATM   33  O   UNL     1     -14.480   1.123 -34.887  1.00  0.00    -0.323 OA
HETATM   34  C   UNL     1     -12.270   2.034 -35.364  1.00  0.00     0.040 A 
HETATM   35  C   UNL     1     -15.233   1.206 -33.658  1.00  0.00     0.352 A 
HETATM   36  C   UNL     1     -11.198   2.764 -34.838  1.00  0.00     0.012 A 
ENDBRANCH  27  28
ENDBRANCH   5  27
TORSDOF 6
ENDMDL
MODEL 4
REMARK VINA RESULT:      -9.2      1.752      2.113
REMARK  6 active torsions:
REMARK  status: ('A' for Active; 'I' for Inactive)
REMARK    1  A    between atoms: C_2  and  C_3 
REMARK    2  A    between atoms: C_3  and  C_4 
REMARK    3  A    between atoms: N_7  and  C_9 
REMARK    4  A    between atoms: C_9  and  C_10 
REMARK    5  A    between atoms: N_23  and  C_24 
REMARK    6  A    between atoms: C_24  and  C_25 
ROOT
HETATM    1  C   UNL     1      -7.087   2.276 -31.439  1.00  0.00     0.119 A 
HETATM    2  N   UNL     1      -6.863   1.726 -32.754  1.00  0.00    -0.324 N 
HETATM    3  C   UNL     1      -6.644   2.709 -33.699  1.00  0.00     0.326 A 
HETATM    4  O   UNL     1      -6.349   2.441 -34.851  1.00  0.00    -0.247 OA
HETATM    5  N   UNL     1      -6.722   3.923 -33.098  1.00  0.00    -0.264 N 
HETATM    6  C   UNL     1      -7.043   3.786 -31.776  1.00  0.00     0.257 A 
HETATM    7  O   UNL     1      -7.181   4.684 -30.960  1.00  0.00    -0.270 OA
HETATM    8  H   UNL     1      -7.187   0.827 -33.092  1.00  0.00     0.165 HD
ENDROOT
BRANCH   1   9
HETATM    9  C   UNL     1      -8.463   1.876 -30.874  1.00  0.00     0.037 C 
HETATM   10  C   UNL     1      -9.196   0.794 -31.664  1.00  0.00     0.008 C 
ENDBRANCH   1   9
BRANCH   1  11
HETATM   11  C   UNL     1      -5.906   1.952 -30.447  1.00  0.00     0.026 C 
HETATM   12  C   UNL     1      -4.515   2.478 -30.865  1.00  0.00     0.035 C 
HETATM   13  C   UNL     1      -3.843   1.689 -31.981  1.00  0.00     0.235 C 
HETATM   14  N   UNL     1      -3.790   0.215 -31.663  1.00  0.00    -0.067 N 
HETATM   15  H   UNL     1      -3.101   0.106 -30.908  1.00  0.00     0.280 HD
HETATM   16  C   UNL     1      -5.095  -0.373 -31.177  1.00  0.00     0.235 C 
HETATM   17  C   UNL     1      -5.727   0.469 -30.078  1.00  0.00     0.035 C 
BRANCH  14  18
HETATM   18  C   UNL     1      -3.280  -0.609 -32.841  1.00  0.00     0.273 C 
BRANCH  18  19
HETATM   19  C   UNL     1      -4.319  -1.442 -33.541  1.00  0.00    -0.027 A 
HETATM   20  C   UNL     1      -4.173  -2.829 -33.671  1.00  0.00     0.051 A 
HETATM   21  C   UNL     1      -5.149  -3.573 -34.336  1.00  0.00     0.119 A 
HETATM   22  F   UNL     1      -4.989  -4.898 -34.449  1.00  0.00    -0.206 F 
HETATM   23  C   UNL     1      -6.270  -2.970 -34.886  1.00  0.00     0.084 A 
HETATM   24  C   UNL     1      -6.414  -1.598 -34.759  1.00  0.00     0.119 A 
HETATM   25  F   UNL     1      -7.483  -0.991 -35.288  1.00  0.00    -0.206 F 
HETATM   26  C   UNL     1      -5.457  -0.831 -34.098  1.00  0.00     0.051 A 
ENDBRANCH  18  19
ENDBRANCH  14  18
ENDBRANCH   1  11
BRANCH   5  27
HETATM   27  C   UNL     1      -6.433   5.183 -33.746  1.00  0.00     0.175 C 
BRANCH  27  28
HETATM   28  C   UNL     1      -4.963   5.512 -33.774  1.00  0.00    -0.037 A 
HETATM   29  C   UNL     1      -4.390   6.250 -32.723  1.00  0.00     0.048 A 
HETATM   30  C   UNL     1      -3.055   6.578 -32.812  1.00  0.00     0.105 A 
HETATM   31  C   UNL     1      -2.283   6.191 -33.880  1.00  0.00     0.105 A 
HETATM   32  O   UNL     1      -2.357   7.308 -31.902  1.00  0.00    -0.323 OA
HETATM   33  O   UNL     1      -1.001   6.630 -33.778  1.00  0.00    -0.323 OA
HETATM   34  C   UNL     1      -2.802   5.445 -34.916  1.00  0.00     0.040 A 
HETATM   35  C   UNL     1      -1.063   7.371 -32.541  1.00  0.00     0.352 A 
HETATM   36  C   UNL     1      -4.157   5.103 -34.861  1.00  0.00     0.012 A 
ENDBRANCH  27  28
ENDBRANCH   5  27
TORSDOF 6
ENDMDL
MODEL 5
REMARK VINA RESULT:      -9.2      3.647      7.525
REMARK  6 active torsions:
REMARK  status: ('A' for Active; 'I' for Inactive)
REMARK    1  A    between atoms: C_2  and  C_3 
REMARK    2  A    between atoms: C_3  and  C_4 
REMARK    3  A    between atoms: N_7  and  C_9 
REMARK    4  A    between atoms: C_9  and  C_10 
REMARK    5  A    between atoms: N_23  and  C_24 
REMARK    6  A    between atoms: C_24  and  C_25 
ROOT
HETATM    1  C   UNL     1      -9.506   1.190 -32.717  1.00  0.00     0.119 A 
HETATM    2  N   UNL     1      -8.867   0.729 -31.508  1.00  0.00    -0.324 N 
HETATM    3  C   UNL     1      -7.584   0.274 -31.736  1.00  0.00     0.326 A 
HETATM    4  O   UNL     1      -6.853  -0.074 -30.826  1.00  0.00    -0.247 OA
HETATM    5  N   UNL     1      -7.307   0.385 -33.060  1.00  0.00    -0.264 N 
HETATM    6  C   UNL     1      -8.395   0.855 -33.742  1.00  0.00     0.257 A 
HETATM    7  O   UNL     1      -8.469   1.073 -34.941  1.00  0.00    -0.270 OA
HETATM    8  H   UNL     1      -9.335   0.389 -30.675  1.00  0.00     0.165 HD
ENDROOT
BRANCH   1   9
HETATM    9  C   UNL     1     -10.795   0.406 -33.024  1.00  0.00     0.037 C 
HETATM   10  C   UNL     1     -11.842   1.174 -33.827  1.00  0.00     0.008 C 
ENDBRANCH   1   9
BRANCH   1  11
HETATM   11  C   UNL     1      -9.729   2.751 -32.717  1.00  0.00     0.026 C 
HETATM   12  C   UNL     1      -8.563   3.596 -33.274  1.00  0.00     0.035 C 
HETATM   13  C   UNL     1      -7.368   3.730 -32.339  1.00  0.00     0.235 C 
HETATM   14  N   UNL     1      -7.785   4.218 -30.974  1.00  0.00    -0.067 N 
HETATM   15  H   UNL     1      -8.051   5.204 -31.088  1.00  0.00     0.280 HD
HETATM   16  C   UNL     1      -8.968   3.491 -30.378  1.00  0.00     0.235 C 
HETATM   17  C   UNL     1     -10.120   3.372 -31.365  1.00  0.00     0.035 C 
BRANCH  14  18
HETATM   18  C   UNL     1      -6.630   4.192 -29.977  1.00  0.00     0.273 C 
BRANCH  18  19
HETATM   19  C   UNL     1      -5.267   3.981 -30.577  1.00  0.00    -0.027 A 
HETATM   20  C   UNL     1      -4.745   2.694 -30.764  1.00  0.00     0.051 A 
HETATM   21  C   UNL     1      -3.472   2.531 -31.313  1.00  0.00     0.119 A 
HETATM   22  F   UNL     1      -2.994   1.291 -31.482  1.00  0.00    -0.206 F 
HETATM   23  C   UNL     1      -2.695   3.620 -31.677  1.00  0.00     0.084 A 
HETATM   24  C   UNL     1      -3.210   4.892 -31.491  1.00  0.00     0.119 A 
HETATM   25  F   UNL     1      -2.477   5.960 -31.827  1.00  0.00    -0.206 F 
HETATM   26  C   UNL     1      -4.479   5.085 -30.948  1.00  0.00     0.051 A 
ENDBRANCH  18  19
ENDBRANCH  14  18
ENDBRANCH   1  11
BRANCH   5  27
HETATM   27  C   UNL     1      -6.018   0.115 -33.657  1.00  0.00     0.175 C 
BRANCH  27  28
HETATM   28  C   UNL     1      -5.774  -1.352 -33.900  1.00  0.00    -0.037 A 
HETATM   29  C   UNL     1      -4.608  -1.960 -33.405  1.00  0.00     0.048 A 
HETATM   30  C   UNL     1      -4.395  -3.291 -33.695  1.00  0.00     0.105 A 
HETATM   31  C   UNL     1      -5.292  -4.024 -34.432  1.00  0.00     0.105 A 
HETATM   32  O   UNL     1      -3.309  -4.018 -33.321  1.00  0.00    -0.323 OA
HETATM   33  O   UNL     1      -4.883  -5.308 -34.615  1.00  0.00    -0.323 OA
HETATM   34  C   UNL     1      -6.459  -3.471 -34.912  1.00  0.00     0.040 A 
HETATM   35  C   UNL     1      -3.607  -5.288 -33.941  1.00  0.00     0.352 A 
HETATM   36  C   UNL     1      -6.701  -2.120 -34.642  1.00  0.00     0.012 A 
ENDBRANCH  27  28
ENDBRANCH   5  27
TORSDOF 6
ENDMDL
MODEL 6
REMARK VINA RESULT:      -9.2      4.773      8.297
REMARK  6 active torsions:
REMARK  status: ('A' for Active; 'I' for Inactive)
REMARK    1  A    between atoms: C_2  and  C_3 
REMARK    2  A    between atoms: C_3  and  C_4 
REMARK    3  A    between atoms: N_7  and  C_9 
REMARK    4  A    between atoms: C_9  and  C_10 
REMARK    5  A    between atoms: N_23  and  C_24 
REMARK    6  A    between atoms: C_24  and  C_25 
ROOT
HETATM    1  C   UNL     1      -8.671   1.949 -32.026  1.00  0.00     0.119 A 
HETATM    2  N   UNL     1      -8.173   1.070 -30.995  1.00  0.00    -0.324 N 
HETATM    3  C   UNL     1      -7.037   0.392 -31.391  1.00  0.00     0.326 A 
HETATM    4  O   UNL     1      -6.420  -0.331 -30.629  1.00  0.00    -0.247 OA
HETATM    5  N   UNL     1      -6.731   0.752 -32.663  1.00  0.00    -0.264 N 
HETATM    6  C   UNL     1      -7.667   1.618 -33.157  1.00  0.00     0.257 A 
HETATM    7  O   UNL     1      -7.676   2.131 -34.265  1.00  0.00    -0.270 OA
HETATM    8  H   UNL     1      -8.716   0.658 -30.244  1.00  0.00     0.165 HD
ENDROOT
BRANCH   1   9
HETATM    9  C   UNL     1     -10.110   1.592 -32.444  1.00  0.00     0.037 C 
HETATM   10  C   UNL     1     -10.280   0.199 -33.047  1.00  0.00     0.008 C 
ENDBRANCH   1   9
BRANCH   1  11
HETATM   11  C   UNL     1      -8.507   3.469 -31.644  1.00  0.00     0.026 C 
HETATM   12  C   UNL     1      -9.456   3.990 -30.543  1.00  0.00     0.035 C 
HETATM   13  C   UNL     1     -10.892   4.220 -30.993  1.00  0.00     0.235 C 
HETATM   14  N   UNL     1     -10.955   5.097 -32.219  1.00  0.00    -0.067 N 
HETATM   15  H   UNL     1     -10.696   6.043 -31.912  1.00  0.00     0.280 HD
HETATM   16  C   UNL     1     -10.006   4.701 -33.327  1.00  0.00     0.235 C 
HETATM   17  C   UNL     1      -8.593   4.467 -32.812  1.00  0.00     0.035 C 
BRANCH  14  18
HETATM   18  C   UNL     1     -12.369   5.194 -32.785  1.00  0.00     0.273 C 
BRANCH  18  19
HETATM   19  C   UNL     1     -13.062   3.879 -33.012  1.00  0.00    -0.027 A 
HETATM   20  C   UNL     1     -12.720   3.052 -34.089  1.00  0.00     0.051 A 
HETATM   21  C   UNL     1     -13.391   1.842 -34.281  1.00  0.00     0.119 A 
HETATM   22  F   UNL     1     -13.047   1.068 -35.318  1.00  0.00    -0.206 F 
HETATM   23  C   UNL     1     -14.404   1.433 -33.427  1.00  0.00     0.084 A 
HETATM   24  C   UNL     1     -14.743   2.250 -32.361  1.00  0.00     0.119 A 
HETATM   25  F   UNL     1     -15.722   1.882 -31.528  1.00  0.00    -0.206 F 
HETATM   26  C   UNL     1     -14.089   3.462 -32.146  1.00  0.00     0.051 A 
ENDBRANCH  18  19
ENDBRANCH  14  18
ENDBRANCH   1  11
BRANCH   5  27
HETATM   27  C   UNL     1      -5.542   0.336 -33.372  1.00  0.00     0.175 C 
BRANCH  27  28
HETATM   28  C   UNL     1      -5.550  -1.127 -33.736  1.00  0.00    -0.037 A 
HETATM   29  C   UNL     1      -4.458  -1.941 -33.389  1.00  0.00     0.048 A 
HETATM   30  C   UNL     1      -4.479  -3.260 -33.787  1.00  0.00     0.105 A 
HETATM   31  C   UNL     1      -5.534  -3.789 -34.488  1.00  0.00     0.105 A 
HETATM   32  O   UNL     1      -3.494  -4.170 -33.561  1.00  0.00    -0.323 OA
HETATM   33  O   UNL     1      -5.347  -5.100 -34.794  1.00  0.00    -0.323 OA
HETATM   34  C   UNL     1      -6.634  -3.030 -34.824  1.00  0.00     0.040 A 
HETATM   35  C   UNL     1      -4.035  -5.326 -34.237  1.00  0.00     0.352 A 
HETATM   36  C   UNL     1      -6.640  -1.684 -34.442  1.00  0.00     0.012 A 
ENDBRANCH  27  28
ENDBRANCH   5  27
TORSDOF 6
ENDMDL
MODEL 7
REMARK VINA RESULT:      -9.1      4.077      8.640
REMARK  6 active torsions:
REMARK  status: ('A' for Active; 'I' for Inactive)
REMARK    1  A    between atoms: C_2  and  C_3 
REMARK    2  A    between atoms: C_3  and  C_4 
REMARK    3  A    between atoms: N_7  and  C_9 
REMARK    4  A    between atoms: C_9  and  C_10 
REMARK    5  A    between atoms: N_23  and  C_24 
REMARK    6  A    between atoms: C_24  and  C_25 
ROOT
HETATM    1  C   UNL     1      -4.935   4.671 -32.657  1.00  0.00     0.119 A 
HETATM    2  N   UNL     1      -4.670   4.196 -31.320  1.00  0.00    -0.324 N 
HETATM    3  C   UNL     1      -5.532   3.184 -30.946  1.00  0.00     0.326 A 
HETATM    4  O   UNL     1      -5.411   2.594 -29.887  1.00  0.00    -0.247 OA
HETATM    5  N   UNL     1      -6.396   2.944 -31.964  1.00  0.00    -0.264 N 
HETATM    6  C   UNL     1      -6.175   3.810 -32.998  1.00  0.00     0.257 A 
HETATM    7  O   UNL     1      -6.777   3.851 -34.060  1.00  0.00    -0.270 OA
HETATM    8  H   UNL     1      -4.224   4.720 -30.575  1.00  0.00     0.165 HD
ENDROOT
BRANCH   1   9
HETATM    9  C   UNL     1      -5.283   6.172 -32.678  1.00  0.00     0.037 C 
HETATM   10  C   UNL     1      -5.320   6.845 -31.307  1.00  0.00     0.008 C 
ENDBRANCH   1   9
BRANCH   1  11
HETATM   11  C   UNL     1      -3.779   4.301 -33.662  1.00  0.00     0.026 C 
HETATM   12  C   UNL     1      -2.470   3.791 -33.021  1.00  0.00     0.035 C 
HETATM   13  C   UNL     1      -1.612   4.871 -32.375  1.00  0.00     0.235 C 
HETATM   14  N   UNL     1      -1.339   6.006 -33.330  1.00  0.00    -0.067 N 
HETATM   15  H   UNL     1      -0.688   5.641 -34.037  1.00  0.00     0.280 HD
HETATM   16  C   UNL     1      -2.558   6.526 -34.057  1.00  0.00     0.235 C 
HETATM   17  C   UNL     1      -3.384   5.400 -34.663  1.00  0.00     0.035 C 
BRANCH  14  18
HETATM   18  C   UNL     1      -0.631   7.174 -32.648  1.00  0.00     0.273 C 
BRANCH  18  19
HETATM   19  C   UNL     1      -0.777   7.228 -31.152  1.00  0.00    -0.027 A 
HETATM   20  C   UNL     1      -1.937   7.735 -30.552  1.00  0.00     0.051 A 
HETATM   21  C   UNL     1      -2.039   7.784 -29.161  1.00  0.00     0.119 A 
HETATM   22  F   UNL     1      -3.157   8.273 -28.610  1.00  0.00    -0.206 F 
HETATM   23  C   UNL     1      -1.008   7.346 -28.343  1.00  0.00     0.084 A 
HETATM   24  C   UNL     1       0.140   6.846 -28.936  1.00  0.00     0.119 A 
HETATM   25  F   UNL     1       1.153   6.424 -28.170  1.00  0.00    -0.206 F 
HETATM   26  C   UNL     1       0.267   6.783 -30.322  1.00  0.00     0.051 A 
ENDBRANCH  18  19
ENDBRANCH  14  18
ENDBRANCH   1  11
BRANCH   5  27
HETATM   27  C   UNL     1      -7.369   1.874 -31.983  1.00  0.00     0.175 C 
BRANCH  27  28
HETATM   28  C   UNL     1      -6.938   0.696 -32.818  1.00  0.00    -0.037 A 
HETATM   29  C   UNL     1      -5.854  -0.097 -32.405  1.00  0.00     0.048 A 
HETATM   30  C   UNL     1      -5.456  -1.132 -33.223  1.00  0.00     0.105 A 
HETATM   31  C   UNL     1      -6.098  -1.408 -34.405  1.00  0.00     0.105 A 
HETATM   32  O   UNL     1      -4.412  -1.971 -32.988  1.00  0.00    -0.323 OA
HETATM   33  O   UNL     1      -5.539  -2.457 -35.065  1.00  0.00    -0.323 OA
HETATM   34  C   UNL     1      -7.181  -0.671 -34.831  1.00  0.00     0.040 A 
HETATM   35  C   UNL     1      -4.446  -2.785 -34.181  1.00  0.00     0.352 A 
HETATM   36  C   UNL     1      -7.605   0.393 -34.027  1.00  0.00     0.012 A 
ENDBRANCH  27  28
ENDBRANCH   5  27
TORSDOF 6
ENDMDL
MODEL 8
REMARK VINA RESULT:      -9.0      3.187      5.726
REMARK  6 active torsions:
REMARK  status: ('A' for Active; 'I' for Inactive)
REMARK    1  A    between atoms: C_2  and  C_3 
REMARK    2  A    between atoms: C_3  and  C_4 
REMARK    3  A    between atoms: N_7  and  C_9 
REMARK    4  A    between atoms: C_9  and  C_10 
REMARK    5  A    between atoms: N_23  and  C_24 
REMARK    6  A    between atoms: C_24  and  C_25 
ROOT
HETATM    1  C   UNL     1      -2.250   6.164 -32.750  1.00  0.00     0.119 A 
HETATM    2  N   UNL     1      -1.553   4.990 -32.282  1.00  0.00    -0.324 N 
HETATM    3  C   UNL     1      -0.636   5.288 -31.294  1.00  0.00     0.326 A 
HETATM    4  O   UNL     1      -0.011   4.418 -30.712  1.00  0.00    -0.247 OA
HETATM    5  N   UNL     1      -0.655   6.625 -31.064  1.00  0.00    -0.264 N 
HETATM    6  C   UNL     1      -1.526   7.247 -31.914  1.00  0.00     0.257 A 
HETATM    7  O   UNL     1      -1.779   8.441 -31.957  1.00  0.00    -0.270 OA
HETATM    8  H   UNL     1      -1.406   4.133 -32.803  1.00  0.00     0.165 HD
ENDROOT
BRANCH   1   9
HETATM    9  C   UNL     1      -2.040   6.399 -34.257  1.00  0.00     0.037 C 
HETATM   10  C   UNL     1      -1.394   5.235 -35.007  1.00  0.00     0.008 C 
ENDBRANCH   1   9
BRANCH   1  11
HETATM   11  C   UNL     1      -3.773   6.155 -32.343  1.00  0.00     0.026 C 
HETATM   12  C   UNL     1      -4.116   5.397 -31.042  1.00  0.00     0.035 C 
HETATM   13  C   UNL     1      -4.103   3.879 -31.166  1.00  0.00     0.235 C 
HETATM   14  N   UNL     1      -4.967   3.409 -32.309  1.00  0.00    -0.067 N 
HETATM   15  H   UNL     1      -5.941   3.570 -32.022  1.00  0.00     0.280 HD
HETATM   16  C   UNL     1      -4.748   4.146 -33.610  1.00  0.00     0.235 C 
HETATM   17  C   UNL     1      -4.752   5.655 -33.419  1.00  0.00     0.035 C 
BRANCH  14  18
HETATM   18  C   UNL     1      -4.828   1.909 -32.556  1.00  0.00     0.273 C 
BRANCH  18  19
HETATM   19  C   UNL     1      -6.115   1.181 -32.829  1.00  0.00    -0.027 A 
HETATM   20  C   UNL     1      -7.174   1.206 -31.911  1.00  0.00     0.051 A 
HETATM   21  C   UNL     1      -8.352   0.510 -32.187  1.00  0.00     0.119 A 
HETATM   22  F   UNL     1      -9.351   0.548 -31.295  1.00  0.00    -0.206 F 
HETATM   23  C   UNL     1      -8.505  -0.221 -33.355  1.00  0.00     0.084 A 
HETATM   24  C   UNL     1      -7.459  -0.247 -34.263  1.00  0.00     0.119 A 
HETATM   25  F   UNL     1      -7.578  -0.951 -35.394  1.00  0.00    -0.206 F 
HETATM   26  C   UNL     1      -6.272   0.441 -34.014  1.00  0.00     0.051 A 
ENDBRANCH  18  19
ENDBRANCH  14  18
ENDBRANCH   1  11
BRANCH   5  27
HETATM   27  C   UNL     1       0.087   7.291 -30.017  1.00  0.00     0.175 C 
BRANCH  27  28
HETATM   28  C   UNL     1      -0.579   7.200 -28.668  1.00  0.00    -0.037 A 
HETATM   29  C   UNL     1      -1.694   8.006 -28.381  1.00  0.00     0.048 A 
HETATM   30  C   UNL     1      -2.241   7.933 -27.118  1.00  0.00     0.105 A 
HETATM   31  C   UNL     1      -1.737   7.092 -26.158  1.00  0.00     0.105 A 
HETATM   32  O   UNL     1      -3.297   8.664 -26.670  1.00  0.00    -0.323 OA
HETATM   33  O   UNL     1      -2.412   7.186 -24.981  1.00  0.00    -0.323 OA
HETATM   34  C   UNL     1      -0.662   6.267 -26.409  1.00  0.00     0.040 A 
HETATM   35  C   UNL     1      -3.375   8.213 -25.300  1.00  0.00     0.352 A 
HETATM   36  C   UNL     1      -0.078   6.323 -27.679  1.00  0.00     0.012 A 
ENDBRANCH  27  28
ENDBRANCH   5  27
TORSDOF 6
ENDMDL
MODEL 9
REMARK VINA RESULT:      -8.9      4.631      8.115
REMARK  6 active torsions:
REMARK  status: ('A' for Active; 'I' for Inactive)
REMARK    1  A    between atoms: C_2  and  C_3 
REMARK    2  A    between atoms: C_3  and  C_4 
REMARK    3  A    between atoms: N_7  and  C_9 
REMARK    4  A    between atoms: C_9  and  C_10 
REMARK    5  A    between atoms: N_23  and  C_24 
REMARK    6  A    between atoms: C_24  and  C_25 
ROOT
HETATM    1  C   UNL     1      -8.058   2.070 -32.318  1.00  0.00     0.119 A 
HETATM    2  N   UNL     1      -7.994   1.134 -31.223  1.00  0.00    -0.324 N 
HETATM    3  C   UNL     1      -6.850   0.361 -31.263  1.00  0.00     0.326 A 
HETATM    4  O   UNL     1      -6.574  -0.427 -30.376  1.00  0.00    -0.247 OA
HETATM    5  N   UNL     1      -6.121   0.712 -32.352  1.00  0.00    -0.264 N 
HETATM    6  C   UNL     1      -6.773   1.667 -33.081  1.00  0.00     0.257 A 
HETATM    7  O   UNL     1      -6.381   2.197 -34.110  1.00  0.00    -0.270 OA
HETATM    8  H   UNL     1      -8.783   0.762 -30.705  1.00  0.00     0.165 HD
ENDROOT
BRANCH   1   9
HETATM    9  C   UNL     1      -9.309   1.853 -33.191  1.00  0.00     0.037 C 
HETATM   10  C   UNL     1     -10.081   0.568 -32.903  1.00  0.00     0.008 C 
ENDBRANCH   1   9
BRANCH   1  11
HETATM   11  C   UNL     1      -7.904   3.563 -31.837  1.00  0.00     0.026 C 
HETATM   12  C   UNL     1      -8.782   3.976 -30.635  1.00  0.00     0.035 C 
HETATM   13  C   UNL     1     -10.253   4.195 -30.965  1.00  0.00     0.235 C 
HETATM   14  N   UNL     1     -10.425   5.156 -32.114  1.00  0.00    -0.067 N 
HETATM   15  H   UNL     1     -10.168   6.085 -31.757  1.00  0.00     0.280 HD
HETATM   16  C   UNL     1      -9.551   4.869 -33.313  1.00  0.00     0.235 C 
HETATM   17  C   UNL     1      -8.099   4.640 -32.919  1.00  0.00     0.035 C 
BRANCH  14  18
HETATM   18  C   UNL     1     -11.879   5.253 -32.570  1.00  0.00     0.273 C 
BRANCH  18  19
HETATM   19  C   UNL     1     -12.383   4.078 -33.362  1.00  0.00    -0.027 A 
HETATM   20  C   UNL     1     -13.065   3.022 -32.744  1.00  0.00     0.051 A 
HETATM   21  C   UNL     1     -13.511   1.939 -33.504  1.00  0.00     0.119 A 
HETATM   22  F   UNL     1     -14.161   0.941 -32.891  1.00  0.00    -0.206 F 
HETATM   23  C   UNL     1     -13.290   1.874 -34.871  1.00  0.00     0.084 A 
HETATM   24  C   UNL     1     -12.614   2.917 -35.483  1.00  0.00     0.119 A 
HETATM   25  F   UNL     1     -12.381   2.875 -36.800  1.00  0.00    -0.206 F 
HETATM   26  C   UNL     1     -12.161   4.012 -34.749  1.00  0.00     0.051 A 
ENDBRANCH  18  19
ENDBRANCH  14  18
ENDBRANCH   1  11
BRANCH   5  27
HETATM   27  C   UNL     1      -4.805   0.200 -32.661  1.00  0.00     0.175 C 
BRANCH  27  28
HETATM   28  C   UNL     1      -4.829  -1.196 -33.229  1.00  0.00    -0.037 A 
HETATM   29  C   UNL     1      -5.878  -1.588 -34.078  1.00  0.00     0.048 A 
HETATM   30  C   UNL     1      -5.894  -2.889 -34.533  1.00  0.00     0.105 A 
HETATM   31  C   UNL     1      -4.913  -3.788 -34.192  1.00  0.00     0.105 A 
HETATM   32  O   UNL     1      -6.848  -3.436 -35.332  1.00  0.00    -0.323 OA
HETATM   33  O   UNL     1      -5.127  -5.016 -34.733  1.00  0.00    -0.323 OA
HETATM   34  C   UNL     1      -3.855  -3.434 -33.383  1.00  0.00     0.040 A 
HETATM   35  C   UNL     1      -6.375  -4.798 -35.424  1.00  0.00     0.352 A 
HETATM   36  C   UNL     1      -3.814  -2.122 -32.898  1.00  0.00     0.012 A 
ENDBRANCH  27  28
ENDBRANCH   5  27
TORSDOF 6
ENDMDL
MODEL 10
REMARK VINA RESULT:      -8.7      2.414      3.448
REMARK  6 active torsions:
REMARK  status: ('A' for Active; 'I' for Inactive)
REMARK    1  A    between atoms: C_2  and  C_3 
REMARK    2  A    between atoms: C_3  and  C_4 
REMARK    3  A    between atoms: N_7  and  C_9 
REMARK    4  A    between atoms: C_9  and  C_10 
REMARK    5  A    between atoms: N_23  and  C_24 
REMARK    6  A    between atoms: C_24  and  C_25 
ROOT
HETATM    1  C   UNL     1      -9.263   2.784 -32.613  1.00  0.00     0.119 A 
HETATM    2  N   UNL     1      -8.322   3.194 -33.627  1.00  0.00    -0.324 N 
HETATM    3  C   UNL     1      -7.931   4.510 -33.474  1.00  0.00     0.326 A 
HETATM    4  O   UNL     1      -7.076   5.013 -34.180  1.00  0.00    -0.247 OA
HETATM    5  N   UNL     1      -8.574   5.037 -32.402  1.00  0.00    -0.264 N 
HETATM    6  C   UNL     1      -9.434   4.124 -31.858  1.00  0.00     0.257 A 
HETATM    7  O   UNL     1     -10.152   4.285 -30.883  1.00  0.00    -0.270 OA
HETATM    8  H   UNL     1      -8.221   2.788 -34.551  1.00  0.00     0.165 HD
ENDROOT
BRANCH   1   9
HETATM    9  C   UNL     1     -10.600   2.319 -33.220  1.00  0.00     0.037 C 
HETATM   10  C   UNL     1     -11.022   3.054 -34.490  1.00  0.00     0.008 C 
ENDBRANCH   1   9
BRANCH   1  11
HETATM   11  C   UNL     1      -8.647   1.727 -31.619  1.00  0.00     0.026 C 
HETATM   12  C   UNL     1      -7.137   1.876 -31.332  1.00  0.00     0.035 C 
HETATM   13  C   UNL     1      -6.224   1.406 -32.456  1.00  0.00     0.235 C 
HETATM   14  N   UNL     1      -6.556  -0.002 -32.887  1.00  0.00    -0.067 N 
HETATM   15  H   UNL     1      -6.252  -0.618 -32.122  1.00  0.00     0.280 HD
HETATM   16  C   UNL     1      -8.026  -0.259 -33.124  1.00  0.00     0.235 C 
HETATM   17  C   UNL     1      -8.887   0.250 -31.977  1.00  0.00     0.035 C 
BRANCH  14  18
HETATM   18  C   UNL     1      -5.770  -0.425 -34.125  1.00  0.00     0.273 C 
BRANCH  18  19
HETATM   19  C   UNL     1      -5.495  -1.899 -34.238  1.00  0.00    -0.027 A 
HETATM   20  C   UNL     1      -6.383  -2.756 -34.900  1.00  0.00     0.051 A 
HETATM   21  C   UNL     1      -6.107  -4.122 -34.979  1.00  0.00     0.119 A 
HETATM   22  F   UNL     1      -6.970  -4.922 -35.617  1.00  0.00    -0.206 F 
HETATM   23  C   UNL     1      -4.966  -4.664 -34.407  1.00  0.00     0.084 A 
HETATM   24  C   UNL     1      -4.087  -3.818 -33.751  1.00  0.00     0.119 A 
HETATM   25  F   UNL     1      -2.983  -4.317 -33.184  1.00  0.00    -0.206 F 
HETATM   26  C   UNL     1      -4.337  -2.449 -33.660  1.00  0.00     0.051 A 
ENDBRANCH  18  19
ENDBRANCH  14  18
ENDBRANCH   1  11
BRANCH   5  27
HETATM   27  C   UNL     1      -8.330   6.357 -31.864  1.00  0.00     0.175 C 
BRANCH  27  28
HETATM   28  C   UNL     1      -7.154   6.406 -30.923  1.00  0.00    -0.037 A 
HETATM   29  C   UNL     1      -7.326   6.072 -29.569  1.00  0.00     0.048 A 
HETATM   30  C   UNL     1      -6.239   6.182 -28.729  1.00  0.00     0.105 A 
HETATM   31  C   UNL     1      -5.009   6.588 -29.185  1.00  0.00     0.105 A 
HETATM   32  O   UNL     1      -6.242   5.929 -27.393  1.00  0.00    -0.323 OA
HETATM   33  O   UNL     1      -4.082   6.643 -28.193  1.00  0.00    -0.323 OA
HETATM   34  C   UNL     1      -4.795   6.899 -30.510  1.00  0.00     0.040 A 
HETATM   35  C   UNL     1      -4.879   6.261 -27.052  1.00  0.00     0.352 A 
HETATM   36  C   UNL     1      -5.880   6.805 -31.388  1.00  0.00     0.012 A 
ENDBRANCH  27  28
ENDBRANCH   5  27
TORSDOF 6
ENDMDL
