MODEL 1
REMARK VINA RESULT:      -8.4      0.000      0.000
REMARK  3 active torsions:
REMARK  status: ('A' for Active; 'I' for Inactive)
REMARK    1  A    between atoms: C_3  and  N_4 
REMARK    2  A    between atoms: C_3  and  C_17 
REMARK       I    between atoms: N_4  and  C_5 
REMARK    3  A    between atoms: C_5  and  C_6 
ROOT
HETATM    1  N   UNL     1      -3.673   1.851 -32.639  1.00  0.00    -0.306 N 
HETATM    2  C   UNL     1      -3.480   0.543 -32.227  1.00  0.00     0.275 C 
HETATM    3  O   UNL     1      -2.675   0.188 -31.374  1.00  0.00    -0.266 OA
HETATM    4  H   UNL     1      -4.385   1.955 -33.353  1.00  0.00     0.170 HD
ENDROOT
BRANCH   2   5
HETATM    5  C   UNL     1      -4.361  -0.433 -32.939  1.00  0.00     0.125 A 
HETATM    6  N   UNL     1      -3.852  -1.693 -33.065  1.00  0.00    -0.243 NA
HETATM    7  C   UNL     1      -4.609  -2.601 -33.706  1.00  0.00     0.068 A 
HETATM    8  C   UNL     1      -5.882  -2.290 -34.238  1.00  0.00    -0.007 A 
HETATM    9  C   UNL     1      -4.133  -3.897 -33.860  1.00  0.00     0.032 A 
HETATM   10  C   UNL     1      -6.365  -0.983 -34.084  1.00  0.00     0.016 A 
HETATM   11  C   UNL     1      -6.631  -3.276 -34.901  1.00  0.00     0.014 A 
HETATM   12  C   UNL     1      -5.594  -0.034 -33.424  1.00  0.00     0.038 A 
HETATM   13  C   UNL     1      -6.128  -4.568 -35.041  1.00  0.00     0.001 A 
HETATM   14  C   UNL     1      -4.878  -4.879 -34.520  1.00  0.00     0.002 A 
ENDBRANCH   2   5
BRANCH   1  15
HETATM   15  C   UNL     1      -3.053   2.970 -32.148  1.00  0.00     0.133 C 
HETATM   16  N   UNL     1      -2.646   3.068 -30.931  1.00  0.00    -0.283 NA
HETATM   17  H   UNL     1      -2.866   2.184 -30.444  1.00  0.00     0.188 HD
BRANCH  15  18
HETATM   18  C   UNL     1      -2.860   4.094 -33.060  1.00  0.00     0.016 A 
HETATM   19  C   UNL     1      -1.686   4.832 -33.087  1.00  0.00     0.065 A 
HETATM   20  S   UNL     1      -1.703   6.098 -34.233  1.00  0.00    -0.113 SA
HETATM   21  C   UNL     1      -3.280   5.689 -34.736  1.00  0.00     0.050 A 
HETATM   22  C   UNL     1      -3.782   4.611 -34.039  1.00  0.00     0.023 A 
ENDBRANCH  15  18
ENDBRANCH   1  15
TORSDOF 3
ENDMDL
MODEL 2
REMARK VINA RESULT:      -7.8      1.439      1.500
REMARK  3 active torsions:
REMARK  status: ('A' for Active; 'I' for Inactive)
REMARK    1  A    between atoms: C_3  and  N_4 
REMARK    2  A    between atoms: C_3  and  C_17 
REMARK       I    between atoms: N_4  and  C_5 
REMARK    3  A    between atoms: C_5  and  C_6 
ROOT
HETATM    1  N   UNL     1      -4.055   1.942 -32.444  1.00  0.00    -0.306 N 
HETATM    2  C   UNL     1      -3.630   0.652 -32.175  1.00  0.00     0.275 C 
HETATM    3  O   UNL     1      -2.720   0.358 -31.408  1.00  0.00    -0.266 OA
HETATM    4  H   UNL     1      -4.823   1.992 -33.103  1.00  0.00     0.170 HD
ENDROOT
BRANCH   2   5
HETATM    5  C   UNL     1      -4.396  -0.388 -32.927  1.00  0.00     0.125 A 
HETATM    6  N   UNL     1      -3.838  -1.633 -32.933  1.00  0.00    -0.243 NA
HETATM    7  C   UNL     1      -4.490  -2.597 -33.606  1.00  0.00     0.068 A 
HETATM    8  C   UNL     1      -5.706  -2.358 -34.288  1.00  0.00    -0.007 A 
HETATM    9  C   UNL     1      -3.961  -3.880 -33.642  1.00  0.00     0.032 A 
HETATM   10  C   UNL     1      -6.243  -1.064 -34.255  1.00  0.00     0.016 A 
HETATM   11  C   UNL     1      -6.347  -3.401 -34.978  1.00  0.00     0.014 A 
HETATM   12  C   UNL     1      -5.580  -0.057 -33.563  1.00  0.00     0.038 A 
HETATM   13  C   UNL     1      -5.791  -4.678 -34.997  1.00  0.00     0.001 A 
HETATM   14  C   UNL     1      -4.597  -4.919 -34.328  1.00  0.00     0.002 A 
ENDBRANCH   2   5
BRANCH   1  15
HETATM   15  C   UNL     1      -3.583   3.099 -31.882  1.00  0.00     0.133 C 
HETATM   16  N   UNL     1      -2.522   3.143 -31.154  1.00  0.00    -0.283 NA
HETATM   17  H   UNL     1      -2.129   2.189 -31.098  1.00  0.00     0.188 HD
BRANCH  15  18
HETATM   18  C   UNL     1      -4.336   4.327 -32.124  1.00  0.00     0.016 A 
HETATM   19  C   UNL     1      -4.222   5.439 -31.303  1.00  0.00     0.065 A 
HETATM   20  S   UNL     1      -5.207   6.748 -31.788  1.00  0.00    -0.113 SA
HETATM   21  C   UNL     1      -5.807   5.868 -33.120  1.00  0.00     0.050 A 
HETATM   22  C   UNL     1      -5.269   4.600 -33.187  1.00  0.00     0.023 A 
ENDBRANCH  15  18
ENDBRANCH   1  15
TORSDOF 3
ENDMDL
MODEL 3
REMARK VINA RESULT:      -7.8      2.181      2.660
REMARK  3 active torsions:
REMARK  status: ('A' for Active; 'I' for Inactive)
REMARK    1  A    between atoms: C_3  and  N_4 
REMARK    2  A    between atoms: C_3  and  C_17 
REMARK       I    between atoms: N_4  and  C_5 
REMARK    3  A    between atoms: C_5  and  C_6 
ROOT
HETATM    1  N   UNL     1      -5.988   3.163 -34.214  1.00  0.00    -0.306 N 
HETATM    2  C   UNL     1      -6.392   2.245 -33.261  1.00  0.00     0.275 C 
HETATM    3  O   UNL     1      -6.753   2.526 -32.124  1.00  0.00    -0.266 OA
HETATM    4  H   UNL     1      -5.727   2.747 -35.101  1.00  0.00     0.170 HD
ENDROOT
BRANCH   2   5
HETATM    5  C   UNL     1      -6.347   0.832 -33.750  1.00  0.00     0.125 A 
HETATM    6  N   UNL     1      -5.306   0.085 -33.277  1.00  0.00    -0.243 NA
HETATM    7  C   UNL     1      -5.223  -1.188 -33.699  1.00  0.00     0.068 A 
HETATM    8  C   UNL     1      -6.159  -1.757 -34.593  1.00  0.00    -0.007 A 
HETATM    9  C   UNL     1      -4.181  -1.988 -33.247  1.00  0.00     0.032 A 
HETATM   10  C   UNL     1      -7.212  -0.953 -35.052  1.00  0.00     0.016 A 
HETATM   11  C   UNL     1      -6.024  -3.093 -35.004  1.00  0.00     0.014 A 
HETATM   12  C   UNL     1      -7.311   0.366 -34.625  1.00  0.00     0.038 A 
HETATM   13  C   UNL     1      -4.968  -3.871 -34.534  1.00  0.00     0.001 A 
HETATM   14  C   UNL     1      -4.045  -3.318 -33.654  1.00  0.00     0.002 A 
ENDBRANCH   2   5
BRANCH   1  15
HETATM   15  C   UNL     1      -5.961   4.527 -34.085  1.00  0.00     0.133 C 
HETATM   16  N   UNL     1      -7.026   5.250 -34.071  1.00  0.00    -0.283 NA
HETATM   17  H   UNL     1      -7.843   4.625 -34.163  1.00  0.00     0.188 HD
BRANCH  15  18
HETATM   18  C   UNL     1      -4.656   5.173 -33.967  1.00  0.00     0.016 A 
HETATM   19  C   UNL     1      -4.204   5.714 -32.774  1.00  0.00     0.065 A 
HETATM   20  S   UNL     1      -2.652   6.418 -32.889  1.00  0.00    -0.113 SA
HETATM   21  C   UNL     1      -2.535   6.009 -34.541  1.00  0.00     0.050 A 
HETATM   22  C   UNL     1      -3.660   5.353 -34.992  1.00  0.00     0.023 A 
ENDBRANCH  15  18
ENDBRANCH   1  15
TORSDOF 3
ENDMDL
MODEL 4
REMARK VINA RESULT:      -7.8      4.222      5.520
REMARK  3 active torsions:
REMARK  status: ('A' for Active; 'I' for Inactive)
REMARK    1  A    between atoms: C_3  and  N_4 
REMARK    2  A    between atoms: C_3  and  C_17 
REMARK       I    between atoms: N_4  and  C_5 
REMARK    3  A    between atoms: C_5  and  C_6 
ROOT
HETATM    1  N   UNL     1      -8.402   0.527 -32.566  1.00  0.00    -0.306 N 
HETATM    2  C   UNL     1      -7.046   0.791 -32.656  1.00  0.00     0.275 C 
HETATM    3  O   UNL     1      -6.527   1.880 -32.438  1.00  0.00    -0.266 OA
HETATM    4  H   UNL     1      -8.649  -0.433 -32.780  1.00  0.00     0.170 HD
ENDROOT
BRANCH   2   5
HETATM    5  C   UNL     1      -6.241  -0.402 -33.061  1.00  0.00     0.125 A 
HETATM    6  N   UNL     1      -6.936  -1.382 -33.709  1.00  0.00    -0.243 NA
HETATM    7  C   UNL     1      -6.251  -2.476 -34.083  1.00  0.00     0.068 A 
HETATM    8  C   UNL     1      -4.869  -2.633 -33.828  1.00  0.00    -0.007 A 
HETATM    9  C   UNL     1      -6.915  -3.501 -34.745  1.00  0.00     0.032 A 
HETATM   10  C   UNL     1      -4.196  -1.601 -33.160  1.00  0.00     0.016 A 
HETATM   11  C   UNL     1      -4.201  -3.798 -34.238  1.00  0.00     0.014 A 
HETATM   12  C   UNL     1      -4.890  -0.463 -32.767  1.00  0.00     0.038 A 
HETATM   13  C   UNL     1      -4.894  -4.811 -34.900  1.00  0.00     0.001 A 
HETATM   14  C   UNL     1      -6.252  -4.662 -35.154  1.00  0.00     0.002 A 
ENDBRANCH   2   5
BRANCH   1  15
HETATM   15  C   UNL     1      -9.388   1.397 -32.179  1.00  0.00     0.133 C 
HETATM   16  N   UNL     1      -9.466   1.882 -30.989  1.00  0.00    -0.283 NA
HETATM   17  H   UNL     1      -8.680   1.507 -30.435  1.00  0.00     0.188 HD
BRANCH  15  18
HETATM   18  C   UNL     1     -10.389   1.774 -33.173  1.00  0.00     0.016 A 
HETATM   19  C   UNL     1     -10.408   3.028 -33.765  1.00  0.00     0.065 A 
HETATM   20  S   UNL     1     -11.677   3.232 -34.890  1.00  0.00    -0.113 SA
HETATM   21  C   UNL     1     -12.234   1.641 -34.626  1.00  0.00     0.050 A 
HETATM   22  C   UNL     1     -11.466   0.973 -33.695  1.00  0.00     0.023 A 
ENDBRANCH  15  18
ENDBRANCH   1  15
TORSDOF 3
ENDMDL
MODEL 5
REMARK VINA RESULT:      -7.7      1.186      1.336
REMARK  3 active torsions:
REMARK  status: ('A' for Active; 'I' for Inactive)
REMARK    1  A    between atoms: C_3  and  N_4 
REMARK    2  A    between atoms: C_3  and  C_17 
REMARK       I    between atoms: N_4  and  C_5 
REMARK    3  A    between atoms: C_5  and  C_6 
ROOT
HETATM    1  N   UNL     1      -4.328   2.891 -32.188  1.00  0.00    -0.306 N 
HETATM    2  C   UNL     1      -3.874   1.597 -32.002  1.00  0.00     0.275 C 
HETATM    3  O   UNL     1      -2.885   1.287 -31.349  1.00  0.00    -0.266 OA
HETATM    4  H   UNL     1      -5.165   2.955 -32.756  1.00  0.00     0.170 HD
ENDROOT
BRANCH   2   5
HETATM    5  C   UNL     1      -4.718   0.574 -32.692  1.00  0.00     0.125 A 
HETATM    6  N   UNL     1      -4.102  -0.619 -32.939  1.00  0.00    -0.243 NA
HETATM    7  C   UNL     1      -4.823  -1.565 -33.566  1.00  0.00     0.068 A 
HETATM    8  C   UNL     1      -6.164  -1.360 -33.965  1.00  0.00    -0.007 A 
HETATM    9  C   UNL     1      -4.240  -2.795 -33.840  1.00  0.00     0.032 A 
HETATM   10  C   UNL     1      -6.756  -0.119 -33.690  1.00  0.00     0.016 A 
HETATM   11  C   UNL     1      -6.872  -2.381 -34.619  1.00  0.00     0.014 A 
HETATM   12  C   UNL     1      -6.024   0.868 -33.042  1.00  0.00     0.038 A 
HETATM   13  C   UNL     1      -6.260  -3.605 -34.882  1.00  0.00     0.001 A 
HETATM   14  C   UNL     1      -4.943  -3.813 -34.492  1.00  0.00     0.002 A 
ENDBRANCH   2   5
BRANCH   1  15
HETATM   15  C   UNL     1      -3.799   4.036 -31.651  1.00  0.00     0.133 C 
HETATM   16  N   UNL     1      -3.997   4.393 -30.431  1.00  0.00    -0.283 NA
HETATM   17  H   UNL     1      -4.590   3.680 -29.977  1.00  0.00     0.188 HD
BRANCH  15  18
HETATM   18  C   UNL     1      -2.981   4.878 -32.520  1.00  0.00     0.016 A 
HETATM   19  C   UNL     1      -3.139   6.255 -32.578  1.00  0.00     0.065 A 
HETATM   20  S   UNL     1      -2.072   7.018 -33.672  1.00  0.00    -0.113 SA
HETATM   21  C   UNL     1      -1.358   5.527 -34.094  1.00  0.00     0.050 A 
HETATM   22  C   UNL     1      -1.928   4.471 -33.415  1.00  0.00     0.023 A 
ENDBRANCH  15  18
ENDBRANCH   1  15
TORSDOF 3
ENDMDL
MODEL 6
REMARK VINA RESULT:      -7.7      1.623      2.183
REMARK  3 active torsions:
REMARK  status: ('A' for Active; 'I' for Inactive)
REMARK    1  A    between atoms: C_3  and  N_4 
REMARK    2  A    between atoms: C_3  and  C_17 
REMARK       I    between atoms: N_4  and  C_5 
REMARK    3  A    between atoms: C_5  and  C_6 
ROOT
HETATM    1  N   UNL     1      -4.202   1.942 -31.713  1.00  0.00    -0.306 N 
HETATM    2  C   UNL     1      -5.276   1.391 -32.391  1.00  0.00     0.275 C 
HETATM    3  O   UNL     1      -6.348   1.953 -32.583  1.00  0.00    -0.266 OA
HETATM    4  H   UNL     1      -3.396   1.330 -31.655  1.00  0.00     0.170 HD
ENDROOT
BRANCH   2   5
HETATM    5  C   UNL     1      -5.011   0.005 -32.883  1.00  0.00     0.125 A 
HETATM    6  N   UNL     1      -6.076  -0.622 -33.463  1.00  0.00    -0.243 NA
HETATM    7  C   UNL     1      -5.884  -1.874 -33.912  1.00  0.00     0.068 A 
HETATM    8  C   UNL     1      -4.641  -2.540 -33.800  1.00  0.00    -0.007 A 
HETATM    9  C   UNL     1      -6.938  -2.553 -34.508  1.00  0.00     0.032 A 
HETATM   10  C   UNL     1      -3.574  -1.858 -33.198  1.00  0.00     0.016 A 
HETATM   11  C   UNL     1      -4.494  -3.850 -34.284  1.00  0.00     0.014 A 
HETATM   12  C   UNL     1      -3.758  -0.562 -32.729  1.00  0.00     0.038 A 
HETATM   13  C   UNL     1      -5.570  -4.506 -34.877  1.00  0.00     0.001 A 
HETATM   14  C   UNL     1      -6.794  -3.858 -34.990  1.00  0.00     0.002 A 
ENDBRANCH   2   5
BRANCH   1  15
HETATM   15  C   UNL     1      -4.121   3.204 -31.184  1.00  0.00     0.133 C 
HETATM   16  N   UNL     1      -4.834   3.591 -30.185  1.00  0.00    -0.283 NA
HETATM   17  H   UNL     1      -5.429   2.802 -29.887  1.00  0.00     0.188 HD
BRANCH  15  18
HETATM   18  C   UNL     1      -3.182   4.138 -31.800  1.00  0.00     0.016 A 
HETATM   19  C   UNL     1      -2.857   5.353 -31.215  1.00  0.00     0.065 A 
HETATM   20  S   UNL     1      -1.744   6.272 -32.128  1.00  0.00    -0.113 SA
HETATM   21  C   UNL     1      -1.656   5.065 -33.330  1.00  0.00     0.050 A 
HETATM   22  C   UNL     1      -2.464   3.986 -33.039  1.00  0.00     0.023 A 
ENDBRANCH  15  18
ENDBRANCH   1  15
TORSDOF 3
ENDMDL
MODEL 7
REMARK VINA RESULT:      -7.5      6.044      8.736
REMARK  3 active torsions:
REMARK  status: ('A' for Active; 'I' for Inactive)
REMARK    1  A    between atoms: C_3  and  N_4 
REMARK    2  A    between atoms: C_3  and  C_17 
REMARK       I    between atoms: N_4  and  C_5 
REMARK    3  A    between atoms: C_5  and  C_6 
ROOT
HETATM    1  N   UNL     1      -0.449   6.344 -28.230  1.00  0.00    -0.306 N 
HETATM    2  C   UNL     1       0.226   5.589 -29.173  1.00  0.00     0.275 C 
HETATM    3  O   UNL     1       1.150   4.823 -28.928  1.00  0.00    -0.266 OA
HETATM    4  H   UNL     1      -1.188   6.920 -28.617  1.00  0.00     0.170 HD
ENDROOT
BRANCH   2   5
HETATM    5  C   UNL     1      -0.280   5.798 -30.564  1.00  0.00     0.125 A 
HETATM    6  N   UNL     1      -1.145   4.846 -31.019  1.00  0.00    -0.243 NA
HETATM    7  C   UNL     1      -1.617   4.991 -32.269  1.00  0.00     0.068 A 
HETATM    8  C   UNL     1      -1.250   6.074 -33.100  1.00  0.00    -0.007 A 
HETATM    9  C   UNL     1      -2.500   4.046 -32.777  1.00  0.00     0.032 A 
HETATM   10  C   UNL     1      -0.359   7.030 -32.591  1.00  0.00     0.016 A 
HETATM   11  C   UNL     1      -1.772   6.178 -34.400  1.00  0.00     0.014 A 
HETATM   12  C   UNL     1       0.137   6.893 -31.301  1.00  0.00     0.038 A 
HETATM   13  C   UNL     1      -2.655   5.214 -34.883  1.00  0.00     0.001 A 
HETATM   14  C   UNL     1      -3.020   4.147 -34.071  1.00  0.00     0.002 A 
ENDBRANCH   2   5
BRANCH   1  15
HETATM   15  C   UNL     1      -0.250   6.340 -26.873  1.00  0.00     0.133 C 
HETATM   16  N   UNL     1      -0.626   5.372 -26.114  1.00  0.00    -0.283 NA
HETATM   17  H   UNL     1      -1.070   4.651 -26.704  1.00  0.00     0.188 HD
BRANCH  15  18
HETATM   18  C   UNL     1       0.416   7.498 -26.282  1.00  0.00     0.016 A 
HETATM   19  C   UNL     1      -0.290   8.533 -25.687  1.00  0.00     0.065 A 
HETATM   20  S   UNL     1       0.709   9.775 -25.074  1.00  0.00    -0.113 SA
HETATM   21  C   UNL     1       2.119   8.958 -25.578  1.00  0.00     0.050 A 
HETATM   22  C   UNL     1       1.829   7.765 -26.204  1.00  0.00     0.023 A 
ENDBRANCH  15  18
ENDBRANCH   1  15
TORSDOF 3
ENDMDL
MODEL 8
REMARK VINA RESULT:      -7.4      4.136      5.246
REMARK  3 active torsions:
REMARK  status: ('A' for Active; 'I' for Inactive)
REMARK    1  A    between atoms: C_3  and  N_4 
REMARK    2  A    between atoms: C_3  and  C_17 
REMARK       I    between atoms: N_4  and  C_5 
REMARK    3  A    between atoms: C_5  and  C_6 
ROOT
HETATM    1  N   UNL     1      -8.337   0.878 -33.936  1.00  0.00    -0.306 N 
HETATM    2  C   UNL     1      -6.981   1.084 -34.120  1.00  0.00     0.275 C 
HETATM    3  O   UNL     1      -6.457   2.175 -34.312  1.00  0.00    -0.266 OA
HETATM    4  H   UNL     1      -8.589  -0.093 -33.788  1.00  0.00     0.170 HD
ENDROOT
BRANCH   2   5
HETATM    5  C   UNL     1      -6.183  -0.179 -34.069  1.00  0.00     0.125 A 
HETATM    6  N   UNL     1      -6.821  -1.292 -34.536  1.00  0.00    -0.243 NA
HETATM    7  C   UNL     1      -6.141  -2.451 -34.499  1.00  0.00     0.068 A 
HETATM    8  C   UNL     1      -4.820  -2.543 -34.004  1.00  0.00    -0.007 A 
HETATM    9  C   UNL     1      -6.749  -3.611 -34.962  1.00  0.00     0.032 A 
HETATM   10  C   UNL     1      -4.203  -1.374 -33.535  1.00  0.00     0.016 A 
HETATM   11  C   UNL     1      -4.155  -3.780 -33.986  1.00  0.00     0.014 A 
HETATM   12  C   UNL     1      -4.893  -0.168 -33.566  1.00  0.00     0.038 A 
HETATM   13  C   UNL     1      -4.790  -4.927 -34.456  1.00  0.00     0.001 A 
HETATM   14  C   UNL     1      -6.088  -4.843 -34.945  1.00  0.00     0.002 A 
ENDBRANCH   2   5
BRANCH   1  15
HETATM   15  C   UNL     1      -9.318   1.835 -33.886  1.00  0.00     0.133 C 
HETATM   16  N   UNL     1     -10.031   2.160 -34.907  1.00  0.00    -0.283 NA
HETATM   17  H   UNL     1      -9.732   1.581 -35.708  1.00  0.00     0.188 HD
BRANCH  15  18
HETATM   18  C   UNL     1      -9.543   2.509 -32.610  1.00  0.00     0.016 A 
HETATM   19  C   UNL     1     -10.631   3.342 -32.396  1.00  0.00     0.065 A 
HETATM   20  S   UNL     1     -10.674   4.019 -30.828  1.00  0.00    -0.113 SA
HETATM   21  C   UNL     1      -9.241   3.206 -30.385  1.00  0.00     0.050 A 
HETATM   22  C   UNL     1      -8.741   2.439 -31.416  1.00  0.00     0.023 A 
ENDBRANCH  15  18
ENDBRANCH   1  15
TORSDOF 3
ENDMDL
MODEL 9
REMARK VINA RESULT:      -7.3      5.267      7.485
REMARK  3 active torsions:
REMARK  status: ('A' for Active; 'I' for Inactive)
REMARK    1  A    between atoms: C_3  and  N_4 
REMARK    2  A    between atoms: C_3  and  C_17 
REMARK       I    between atoms: N_4  and  C_5 
REMARK    3  A    between atoms: C_5  and  C_6 
ROOT
HETATM    1  N   UNL     1      -7.249  -0.273 -33.970  1.00  0.00    -0.306 N 
HETATM    2  C   UNL     1      -7.767   0.724 -33.162  1.00  0.00     0.275 C 
HETATM    3  O   UNL     1      -7.189   1.218 -32.200  1.00  0.00    -0.266 OA
HETATM    4  H   UNL     1      -7.869  -0.556 -34.721  1.00  0.00     0.170 HD
ENDROOT
BRANCH   2   5
HETATM    5  C   UNL     1      -9.137   1.160 -33.571  1.00  0.00     0.125 A 
HETATM    6  N   UNL     1     -10.136   0.268 -33.307  1.00  0.00    -0.243 NA
HETATM    7  C   UNL     1     -11.383   0.618 -33.667  1.00  0.00     0.068 A 
HETATM    8  C   UNL     1     -11.677   1.851 -34.294  1.00  0.00    -0.007 A 
HETATM    9  C   UNL     1     -12.433  -0.258 -33.421  1.00  0.00     0.032 A 
HETATM   10  C   UNL     1     -10.620   2.737 -34.544  1.00  0.00     0.016 A 
HETATM   11  C   UNL     1     -12.998   2.166 -34.651  1.00  0.00     0.014 A 
HETATM   12  C   UNL     1      -9.325   2.390 -34.178  1.00  0.00     0.038 A 
HETATM   13  C   UNL     1     -14.031   1.267 -34.392  1.00  0.00     0.001 A 
HETATM   14  C   UNL     1     -13.749   0.054 -33.776  1.00  0.00     0.002 A 
ENDBRANCH   2   5
BRANCH   1  15
HETATM   15  C   UNL     1      -6.008  -0.847 -33.880  1.00  0.00     0.133 C 
HETATM   16  N   UNL     1      -4.957  -0.190 -33.533  1.00  0.00    -0.283 NA
HETATM   17  H   UNL     1      -5.233   0.786 -33.344  1.00  0.00     0.188 HD
BRANCH  15  18
HETATM   18  C   UNL     1      -5.892  -2.267 -34.202  1.00  0.00     0.016 A 
HETATM   19  C   UNL     1      -4.706  -2.968 -34.041  1.00  0.00     0.065 A 
HETATM   20  S   UNL     1      -4.819  -4.611 -34.492  1.00  0.00    -0.113 SA
HETATM   21  C   UNL     1      -6.464  -4.436 -34.907  1.00  0.00     0.050 A 
HETATM   22  C   UNL     1      -6.913  -3.148 -34.708  1.00  0.00     0.023 A 
ENDBRANCH  15  18
ENDBRANCH   1  15
TORSDOF 3
ENDMDL
MODEL 10
REMARK VINA RESULT:      -7.2      2.741      7.618
REMARK  3 active torsions:
REMARK  status: ('A' for Active; 'I' for Inactive)
REMARK    1  A    between atoms: C_3  and  N_4 
REMARK    2  A    between atoms: C_3  and  C_17 
REMARK       I    between atoms: N_4  and  C_5 
REMARK    3  A    between atoms: C_5  and  C_6 
ROOT
HETATM    1  N   UNL     1      -5.044   1.420 -31.933  1.00  0.00    -0.306 N 
HETATM    2  C   UNL     1      -3.725   1.755 -31.684  1.00  0.00     0.275 C 
HETATM    3  O   UNL     1      -2.904   1.021 -31.147  1.00  0.00    -0.266 OA
HETATM    4  H   UNL     1      -5.575   2.154 -32.389  1.00  0.00     0.170 HD
ENDROOT
BRANCH   2   5
HETATM    5  C   UNL     1      -3.374   3.136 -32.136  1.00  0.00     0.125 A 
HETATM    6  N   UNL     1      -2.227   3.650 -31.603  1.00  0.00    -0.243 NA
HETATM    7  C   UNL     1      -1.879   4.894 -31.977  1.00  0.00     0.068 A 
HETATM    8  C   UNL     1      -2.649   5.660 -32.882  1.00  0.00    -0.007 A 
HETATM    9  C   UNL     1      -0.721   5.460 -31.460  1.00  0.00     0.032 A 
HETATM   10  C   UNL     1      -3.819   5.091 -33.405  1.00  0.00     0.016 A 
HETATM   11  C   UNL     1      -2.241   6.956 -33.238  1.00  0.00     0.014 A 
HETATM   12  C   UNL     1      -4.192   3.806 -33.029  1.00  0.00     0.038 A 
HETATM   13  C   UNL     1      -1.075   7.499 -32.703  1.00  0.00     0.001 A 
HETATM   14  C   UNL     1      -0.313   6.751 -31.813  1.00  0.00     0.002 A 
ENDBRANCH   2   5
BRANCH   1  15
HETATM   15  C   UNL     1      -5.653   0.219 -31.676  1.00  0.00     0.133 C 
HETATM   16  N   UNL     1      -6.282  -0.027 -30.581  1.00  0.00    -0.283 NA
HETATM   17  H   UNL     1      -6.238   0.816 -29.986  1.00  0.00     0.188 HD
BRANCH  15  18
HETATM   18  C   UNL     1      -5.567  -0.818 -32.702  1.00  0.00     0.016 A 
HETATM   19  C   UNL     1      -6.661  -1.195 -33.466  1.00  0.00     0.065 A 
HETATM   20  S   UNL     1      -6.313  -2.431 -34.592  1.00  0.00    -0.113 SA
HETATM   21  C   UNL     1      -4.681  -2.490 -34.098  1.00  0.00     0.050 A 
HETATM   22  C   UNL     1      -4.413  -1.587 -33.091  1.00  0.00     0.023 A 
ENDBRANCH  15  18
ENDBRANCH   1  15
TORSDOF 3
ENDMDL
