MODEL 1
REMARK VINA RESULT:      -7.3      0.000      0.000
REMARK  10 active torsions:
REMARK  status: ('A' for Active; 'I' for Inactive)
REMARK    1  A    between atoms: O_2  and  C_3 
REMARK    2  A    between atoms: C_4  and  O_5 
REMARK    3  A    between atoms: O_5  and  C_6 
REMARK    4  A    between atoms: C_6  and  C_7 
REMARK       I    between atoms: C_7  and  N_8 
REMARK    5  A    between atoms: N_8  and  C_9 
REMARK    6  A    between atoms: C_9  and  N_10 
REMARK    7  A    between atoms: N_10  and  N_11 
REMARK    8  A    between atoms: N_11  and  C_12 
REMARK    9  A    between atoms: C_12  and  N_13 
REMARK   10  A    between atoms: N_13  and  C_14 
ROOT
HETATM    1  C   UNL     1      -7.037   2.430 -30.485  1.00  0.00     0.193 C 
HETATM    2  S   UNL     1      -8.390   3.396 -30.287  1.00  0.00    -0.039 SA
ENDROOT
BRANCH   1   3
HETATM    3  N   UNL     1      -5.711   2.863 -30.563  1.00  0.00    -0.301 N 
HETATM    4  C   UNL     1      -4.784   2.777 -31.609  1.00  0.00     0.248 C 
HETATM    5  O   UNL     1      -4.971   2.243 -32.697  1.00  0.00    -0.271 OA
HETATM    6  H   UNL     1      -5.354   3.273 -29.713  1.00  0.00     0.171 HD
BRANCH   4   7
HETATM    7  C   UNL     1      -3.434   3.416 -31.253  1.00  0.00     0.278 C 
BRANCH   7   8
HETATM    8  O   UNL     1      -2.457   3.406 -32.289  1.00  0.00    -0.339 OA
BRANCH   8   9
HETATM    9  C   UNL     1      -2.026   4.655 -32.645  1.00  0.00     0.102 A 
HETATM   10  C   UNL     1      -0.939   5.296 -32.043  1.00  0.00     0.101 A 
HETATM   11  C   UNL     1      -0.524   6.550 -32.493  1.00  0.00     0.039 A 
HETATM   12  C   UNL     1      -1.235   7.191 -33.508  1.00  0.00     0.003 A 
HETATM   13  C   UNL     1      -2.352   6.576 -34.075  1.00  0.00     0.003 A 
HETATM   14  C   UNL     1      -2.751   5.311 -33.640  1.00  0.00     0.039 A 
BRANCH  10  15
HETATM   15  O   UNL     1      -0.201   4.697 -31.057  1.00  0.00    -0.353 OA
HETATM   16  C   UNL     1      -0.261   5.482 -29.864  1.00  0.00     0.210 C 
ENDBRANCH  10  15
ENDBRANCH   8   9
ENDBRANCH   7   8
ENDBRANCH   4   7
ENDBRANCH   1   3
BRANCH   1  17
HETATM   17  N   UNL     1      -7.100   1.036 -30.542  1.00  0.00    -0.274 N 
HETATM   18  H   UNL     1      -6.275   0.463 -30.372  1.00  0.00     0.189 HD
BRANCH  17  19
HETATM   19  N   UNL     1      -8.098   0.394 -31.303  1.00  0.00    -0.274 N 
HETATM   20  H   UNL     1      -8.532  -0.411 -30.851  1.00  0.00     0.189 HD
BRANCH  19  21
HETATM   21  C   UNL     1      -8.091   0.455 -32.671  1.00  0.00     0.191 C 
HETATM   22  S   UNL     1      -9.398   0.957 -33.598  1.00  0.00    -0.039 SA
BRANCH  21  23
HETATM   23  N   UNL     1      -6.941   0.113 -33.321  1.00  0.00    -0.332 N 
HETATM   24  H   UNL     1      -6.379   0.920 -33.574  1.00  0.00     0.168 HD
BRANCH  23  25
HETATM   25  C   UNL     1      -6.447  -1.131 -33.768  1.00  0.00     0.034 A 
HETATM   26  C   UNL     1      -7.242  -2.149 -34.298  1.00  0.00     0.029 A 
HETATM   27  C   UNL     1      -6.662  -3.344 -34.739  1.00  0.00     0.002 A 
HETATM   28  C   UNL     1      -5.284  -3.523 -34.670  1.00  0.00     0.000 A 
HETATM   29  C   UNL     1      -4.479  -2.503 -34.172  1.00  0.00     0.002 A 
HETATM   30  C   UNL     1      -5.059  -1.311 -33.729  1.00  0.00     0.029 A 
ENDBRANCH  23  25
ENDBRANCH  21  23
ENDBRANCH  19  21
ENDBRANCH  17  19
ENDBRANCH   1  17
TORSDOF 10
ENDMDL
MODEL 2
REMARK VINA RESULT:      -7.3      2.276      7.963
REMARK  10 active torsions:
REMARK  status: ('A' for Active; 'I' for Inactive)
REMARK    1  A    between atoms: O_2  and  C_3 
REMARK    2  A    between atoms: C_4  and  O_5 
REMARK    3  A    between atoms: O_5  and  C_6 
REMARK    4  A    between atoms: C_6  and  C_7 
REMARK       I    between atoms: C_7  and  N_8 
REMARK    5  A    between atoms: N_8  and  C_9 
REMARK    6  A    between atoms: C_9  and  N_10 
REMARK    7  A    between atoms: N_10  and  N_11 
REMARK    8  A    between atoms: N_11  and  C_12 
REMARK    9  A    between atoms: C_12  and  N_13 
REMARK   10  A    between atoms: N_13  and  C_14 
ROOT
HETATM    1  C   UNL     1      -5.432   1.303 -31.250  1.00  0.00     0.193 C 
HETATM    2  S   UNL     1      -7.063   1.591 -31.010  1.00  0.00    -0.039 SA
ENDROOT
BRANCH   1   3
HETATM    3  N   UNL     1      -4.853   0.099 -31.661  1.00  0.00    -0.301 N 
HETATM    4  C   UNL     1      -3.554  -0.394 -31.488  1.00  0.00     0.248 C 
HETATM    5  O   UNL     1      -2.626   0.193 -30.941  1.00  0.00    -0.271 OA
HETATM    6  H   UNL     1      -5.463  -0.496 -32.202  1.00  0.00     0.171 HD
BRANCH   4   7
HETATM    7  C   UNL     1      -3.370  -1.792 -32.095  1.00  0.00     0.278 C 
BRANCH   7   8
HETATM    8  O   UNL     1      -3.461  -1.864 -33.515  1.00  0.00    -0.339 OA
BRANCH   8   9
HETATM    9  C   UNL     1      -4.475  -2.668 -33.957  1.00  0.00     0.102 A 
HETATM   10  C   UNL     1      -5.754  -2.197 -34.266  1.00  0.00     0.101 A 
HETATM   11  C   UNL     1      -6.725  -3.068 -34.761  1.00  0.00     0.039 A 
HETATM   12  C   UNL     1      -6.433  -4.426 -34.892  1.00  0.00     0.003 A 
HETATM   13  C   UNL     1      -5.174  -4.908 -34.535  1.00  0.00     0.003 A 
HETATM   14  C   UNL     1      -4.196  -4.031 -34.062  1.00  0.00     0.039 A 
BRANCH  10  15
HETATM   15  O   UNL     1      -6.079  -0.869 -34.171  1.00  0.00    -0.353 OA
HETATM   16  C   UNL     1      -7.498  -0.713 -34.244  1.00  0.00     0.210 C 
ENDBRANCH  10  15
ENDBRANCH   8   9
ENDBRANCH   7   8
ENDBRANCH   4   7
ENDBRANCH   1   3
BRANCH   1  17
HETATM   17  N   UNL     1      -4.455   2.291 -31.107  1.00  0.00    -0.274 N 
HETATM   18  H   UNL     1      -3.476   2.097 -31.308  1.00  0.00     0.189 HD
BRANCH  17  19
HETATM   19  N   UNL     1      -4.659   3.378 -30.233  1.00  0.00    -0.274 N 
HETATM   20  H   UNL     1      -5.243   3.172 -29.422  1.00  0.00     0.189 HD
BRANCH  19  21
HETATM   21  C   UNL     1      -4.589   4.669 -30.683  1.00  0.00     0.191 C 
HETATM   22  S   UNL     1      -5.930   5.624 -31.014  1.00  0.00    -0.039 SA
BRANCH  21  23
HETATM   23  N   UNL     1      -3.353   5.224 -30.845  1.00  0.00    -0.332 N 
HETATM   24  H   UNL     1      -2.896   5.428 -29.963  1.00  0.00     0.168 HD
BRANCH  23  25
HETATM   25  C   UNL     1      -2.650   5.633 -31.998  1.00  0.00     0.034 A 
HETATM   26  C   UNL     1      -2.109   6.906 -32.181  1.00  0.00     0.029 A 
HETATM   27  C   UNL     1      -1.405   7.218 -33.350  1.00  0.00     0.002 A 
HETATM   28  C   UNL     1      -1.222   6.253 -34.337  1.00  0.00     0.000 A 
HETATM   29  C   UNL     1      -1.731   4.971 -34.152  1.00  0.00     0.002 A 
HETATM   30  C   UNL     1      -2.436   4.662 -32.985  1.00  0.00     0.029 A 
ENDBRANCH  23  25
ENDBRANCH  21  23
ENDBRANCH  19  21
ENDBRANCH  17  19
ENDBRANCH   1  17
TORSDOF 10
ENDMDL
MODEL 3
REMARK VINA RESULT:      -7.3      2.608      8.716
REMARK  10 active torsions:
REMARK  status: ('A' for Active; 'I' for Inactive)
REMARK    1  A    between atoms: O_2  and  C_3 
REMARK    2  A    between atoms: C_4  and  O_5 
REMARK    3  A    between atoms: O_5  and  C_6 
REMARK    4  A    between atoms: C_6  and  C_7 
REMARK       I    between atoms: C_7  and  N_8 
REMARK    5  A    between atoms: N_8  and  C_9 
REMARK    6  A    between atoms: C_9  and  N_10 
REMARK    7  A    between atoms: N_10  and  N_11 
REMARK    8  A    between atoms: N_11  and  C_12 
REMARK    9  A    between atoms: C_12  and  N_13 
REMARK   10  A    between atoms: N_13  and  C_14 
ROOT
HETATM    1  C   UNL     1      -5.147   2.226 -31.209  1.00  0.00     0.193 C 
HETATM    2  S   UNL     1      -6.443   2.575 -30.210  1.00  0.00    -0.039 SA
ENDROOT
BRANCH   1   3
HETATM    3  N   UNL     1      -4.759   0.960 -31.655  1.00  0.00    -0.301 N 
HETATM    4  C   UNL     1      -3.550   0.271 -31.504  1.00  0.00     0.248 C 
HETATM    5  O   UNL     1      -2.542   0.694 -30.948  1.00  0.00    -0.271 OA
HETATM    6  H   UNL     1      -5.454   0.480 -32.208  1.00  0.00     0.171 HD
BRANCH   4   7
HETATM    7  C   UNL     1      -3.582  -1.123 -32.149  1.00  0.00     0.278 C 
BRANCH   7   8
HETATM    8  O   UNL     1      -3.782  -1.144 -33.559  1.00  0.00    -0.339 OA
BRANCH   8   9
HETATM    9  C   UNL     1      -4.768  -2.004 -33.958  1.00  0.00     0.102 A 
HETATM   10  C   UNL     1      -6.115  -1.643 -34.053  1.00  0.00     0.101 A 
HETATM   11  C   UNL     1      -7.059  -2.560 -34.517  1.00  0.00     0.039 A 
HETATM   12  C   UNL     1      -6.663  -3.861 -34.832  1.00  0.00     0.003 A 
HETATM   13  C   UNL     1      -5.328  -4.239 -34.689  1.00  0.00     0.003 A 
HETATM   14  C   UNL     1      -4.381  -3.313 -34.247  1.00  0.00     0.039 A 
BRANCH  10  15
HETATM   15  O   UNL     1      -6.545  -0.373 -33.774  1.00  0.00    -0.353 OA
HETATM   16  C   UNL     1      -6.838   0.317 -34.992  1.00  0.00     0.210 C 
ENDBRANCH  10  15
ENDBRANCH   8   9
ENDBRANCH   7   8
ENDBRANCH   4   7
ENDBRANCH   1   3
BRANCH   1  17
HETATM   17  N   UNL     1      -4.323   3.211 -31.759  1.00  0.00    -0.274 N 
HETATM   18  H   UNL     1      -4.172   3.273 -32.764  1.00  0.00     0.189 HD
BRANCH  17  19
HETATM   19  N   UNL     1      -3.302   3.803 -30.988  1.00  0.00    -0.274 N 
HETATM   20  H   UNL     1      -3.599   4.146 -30.074  1.00  0.00     0.189 HD
BRANCH  19  21
HETATM   21  C   UNL     1      -2.209   4.375 -31.582  1.00  0.00     0.191 C 
HETATM   22  S   UNL     1      -2.117   4.754 -33.215  1.00  0.00    -0.039 SA
BRANCH  21  23
HETATM   23  N   UNL     1      -1.139   4.682 -30.793  1.00  0.00    -0.332 N 
HETATM   24  H   UNL     1      -0.499   3.903 -30.680  1.00  0.00     0.168 HD
BRANCH  23  25
HETATM   25  C   UNL     1      -0.817   5.841 -30.055  1.00  0.00     0.034 A 
HETATM   26  C   UNL     1       0.330   5.982 -29.272  1.00  0.00     0.029 A 
HETATM   27  C   UNL     1       0.581   7.179 -28.590  1.00  0.00     0.002 A 
HETATM   28  C   UNL     1      -0.303   8.249 -28.702  1.00  0.00     0.000 A 
HETATM   29  C   UNL     1      -1.433   8.129 -29.505  1.00  0.00     0.002 A 
HETATM   30  C   UNL     1      -1.685   6.933 -30.183  1.00  0.00     0.029 A 
ENDBRANCH  23  25
ENDBRANCH  21  23
ENDBRANCH  19  21
ENDBRANCH  17  19
ENDBRANCH   1  17
TORSDOF 10
ENDMDL
MODEL 4
REMARK VINA RESULT:      -7.2      2.647      7.776
REMARK  10 active torsions:
REMARK  status: ('A' for Active; 'I' for Inactive)
REMARK    1  A    between atoms: O_2  and  C_3 
REMARK    2  A    between atoms: C_4  and  O_5 
REMARK    3  A    between atoms: O_5  and  C_6 
REMARK    4  A    between atoms: C_6  and  C_7 
REMARK       I    between atoms: C_7  and  N_8 
REMARK    5  A    between atoms: N_8  and  C_9 
REMARK    6  A    between atoms: C_9  and  N_10 
REMARK    7  A    between atoms: N_10  and  N_11 
REMARK    8  A    between atoms: N_11  and  C_12 
REMARK    9  A    between atoms: C_12  and  N_13 
REMARK   10  A    between atoms: N_13  and  C_14 
ROOT
HETATM    1  C   UNL     1      -6.373   2.879 -32.828  1.00  0.00     0.193 C 
HETATM    2  S   UNL     1      -6.380   4.240 -33.802  1.00  0.00    -0.039 SA
ENDROOT
BRANCH   1   3
HETATM    3  N   UNL     1      -6.596   1.562 -33.239  1.00  0.00    -0.301 N 
HETATM    4  C   UNL     1      -7.518   0.610 -32.787  1.00  0.00     0.248 C 
HETATM    5  O   UNL     1      -8.320   0.758 -31.871  1.00  0.00    -0.271 OA
HETATM    6  H   UNL     1      -5.964   1.234 -33.954  1.00  0.00     0.171 HD
BRANCH   4   7
HETATM    7  C   UNL     1      -7.418  -0.716 -33.555  1.00  0.00     0.278 C 
BRANCH   7   8
HETATM    8  O   UNL     1      -6.213  -0.912 -34.290  1.00  0.00    -0.339 OA
BRANCH   8   9
HETATM    9  C   UNL     1      -5.829  -2.223 -34.369  1.00  0.00     0.102 A 
HETATM   10  C   UNL     1      -4.578  -2.686 -33.952  1.00  0.00     0.101 A 
HETATM   11  C   UNL     1      -4.273  -4.046 -34.015  1.00  0.00     0.039 A 
HETATM   12  C   UNL     1      -5.202  -4.938 -34.552  1.00  0.00     0.003 A 
HETATM   13  C   UNL     1      -6.432  -4.472 -35.018  1.00  0.00     0.003 A 
HETATM   14  C   UNL     1      -6.743  -3.114 -34.932  1.00  0.00     0.039 A 
BRANCH  10  15
HETATM   15  O   UNL     1      -3.644  -1.850 -33.400  1.00  0.00    -0.353 OA
HETATM   16  C   UNL     1      -3.292  -2.313 -32.094  1.00  0.00     0.210 C 
ENDBRANCH  10  15
ENDBRANCH   8   9
ENDBRANCH   7   8
ENDBRANCH   4   7
ENDBRANCH   1   3
BRANCH   1  17
HETATM   17  N   UNL     1      -6.083   2.922 -31.462  1.00  0.00    -0.274 N 
HETATM   18  H   UNL     1      -6.820   2.848 -30.764  1.00  0.00     0.189 HD
BRANCH  17  19
HETATM   19  N   UNL     1      -4.914   3.559 -30.998  1.00  0.00    -0.274 N 
HETATM   20  H   UNL     1      -4.979   4.575 -30.927  1.00  0.00     0.189 HD
BRANCH  19  21
HETATM   21  C   UNL     1      -3.682   2.989 -31.175  1.00  0.00     0.191 C 
HETATM   22  S   UNL     1      -3.425   1.339 -31.354  1.00  0.00    -0.039 SA
BRANCH  21  23
HETATM   23  N   UNL     1      -2.598   3.815 -31.239  1.00  0.00    -0.332 N 
HETATM   24  H   UNL     1      -2.101   3.880 -30.356  1.00  0.00     0.168 HD
BRANCH  23  25
HETATM   25  C   UNL     1      -2.106   4.643 -32.270  1.00  0.00     0.034 A 
HETATM   26  C   UNL     1      -2.302   4.407 -33.632  1.00  0.00     0.029 A 
HETATM   27  C   UNL     1      -1.797   5.296 -34.587  1.00  0.00     0.002 A 
HETATM   28  C   UNL     1      -1.107   6.438 -34.188  1.00  0.00     0.000 A 
HETATM   29  C   UNL     1      -0.933   6.699 -32.831  1.00  0.00     0.002 A 
HETATM   30  C   UNL     1      -1.435   5.809 -31.879  1.00  0.00     0.029 A 
ENDBRANCH  23  25
ENDBRANCH  21  23
ENDBRANCH  19  21
ENDBRANCH  17  19
ENDBRANCH   1  17
TORSDOF 10
ENDMDL
MODEL 5
REMARK VINA RESULT:      -7.1      4.712      7.184
REMARK  10 active torsions:
REMARK  status: ('A' for Active; 'I' for Inactive)
REMARK    1  A    between atoms: O_2  and  C_3 
REMARK    2  A    between atoms: C_4  and  O_5 
REMARK    3  A    between atoms: O_5  and  C_6 
REMARK    4  A    between atoms: C_6  and  C_7 
REMARK       I    between atoms: C_7  and  N_8 
REMARK    5  A    between atoms: N_8  and  C_9 
REMARK    6  A    between atoms: C_9  and  N_10 
REMARK    7  A    between atoms: N_10  and  N_11 
REMARK    8  A    between atoms: N_11  and  C_12 
REMARK    9  A    between atoms: C_12  and  N_13 
REMARK   10  A    between atoms: N_13  and  C_14 
ROOT
HETATM    1  C   UNL     1      -8.191   2.439 -31.020  1.00  0.00     0.193 C 
HETATM    2  S   UNL     1      -7.440   3.563 -30.031  1.00  0.00    -0.039 SA
ENDROOT
BRANCH   1   3
HETATM    3  N   UNL     1      -7.595   1.712 -32.053  1.00  0.00    -0.301 N 
HETATM    4  C   UNL     1      -7.917   1.629 -33.413  1.00  0.00     0.248 C 
HETATM    5  O   UNL     1      -8.858   2.187 -33.968  1.00  0.00    -0.271 OA
HETATM    6  H   UNL     1      -6.829   1.123 -31.762  1.00  0.00     0.171 HD
BRANCH   4   7
HETATM    7  C   UNL     1      -6.961   0.712 -34.189  1.00  0.00     0.278 C 
BRANCH   7   8
HETATM    8  O   UNL     1      -6.017  -0.004 -33.398  1.00  0.00    -0.339 OA
BRANCH   8   9
HETATM    9  C   UNL     1      -5.793  -1.280 -33.835  1.00  0.00     0.102 A 
HETATM   10  C   UNL     1      -4.545  -1.908 -33.775  1.00  0.00     0.101 A 
HETATM   11  C   UNL     1      -4.402  -3.232 -34.192  1.00  0.00     0.039 A 
HETATM   12  C   UNL     1      -5.498  -3.910 -34.728  1.00  0.00     0.003 A 
HETATM   13  C   UNL     1      -6.732  -3.268 -34.838  1.00  0.00     0.003 A 
HETATM   14  C   UNL     1      -6.878  -1.952 -34.397  1.00  0.00     0.039 A 
BRANCH  10  15
HETATM   15  O   UNL     1      -3.448  -1.288 -33.239  1.00  0.00    -0.353 OA
HETATM   16  C   UNL     1      -3.141  -1.863 -31.966  1.00  0.00     0.210 C 
ENDBRANCH  10  15
ENDBRANCH   8   9
ENDBRANCH   7   8
ENDBRANCH   4   7
ENDBRANCH   1   3
BRANCH   1  17
HETATM   17  N   UNL     1      -9.529   2.067 -30.869  1.00  0.00    -0.274 N 
HETATM   18  H   UNL     1      -9.882   1.197 -31.262  1.00  0.00     0.189 HD
BRANCH  17  19
HETATM   19  N   UNL     1     -10.523   3.042 -30.645  1.00  0.00    -0.274 N 
HETATM   20  H   UNL     1     -11.161   2.835 -29.877  1.00  0.00     0.189 HD
BRANCH  19  21
HETATM   21  C   UNL     1     -10.955   3.854 -31.659  1.00  0.00     0.191 C 
HETATM   22  S   UNL     1     -11.021   5.529 -31.561  1.00  0.00    -0.039 SA
BRANCH  21  23
HETATM   23  N   UNL     1     -11.330   3.268 -32.833  1.00  0.00    -0.332 N 
HETATM   24  H   UNL     1     -10.769   3.573 -33.621  1.00  0.00     0.168 HD
BRANCH  23  25
HETATM   25  C   UNL     1     -12.393   2.395 -33.151  1.00  0.00     0.034 A 
HETATM   26  C   UNL     1     -12.240   1.176 -33.813  1.00  0.00     0.029 A 
HETATM   27  C   UNL     1     -13.349   0.362 -34.068  1.00  0.00     0.002 A 
HETATM   28  C   UNL     1     -14.618   0.752 -33.646  1.00  0.00     0.000 A 
HETATM   29  C   UNL     1     -14.777   1.952 -32.958  1.00  0.00     0.002 A 
HETATM   30  C   UNL     1     -13.669   2.765 -32.707  1.00  0.00     0.029 A 
ENDBRANCH  23  25
ENDBRANCH  21  23
ENDBRANCH  19  21
ENDBRANCH  17  19
ENDBRANCH   1  17
TORSDOF 10
ENDMDL
MODEL 6
REMARK VINA RESULT:      -7.0      5.135      8.078
REMARK  10 active torsions:
REMARK  status: ('A' for Active; 'I' for Inactive)
REMARK    1  A    between atoms: O_2  and  C_3 
REMARK    2  A    between atoms: C_4  and  O_5 
REMARK    3  A    between atoms: O_5  and  C_6 
REMARK    4  A    between atoms: C_6  and  C_7 
REMARK       I    between atoms: C_7  and  N_8 
REMARK    5  A    between atoms: N_8  and  C_9 
REMARK    6  A    between atoms: C_9  and  N_10 
REMARK    7  A    between atoms: N_10  and  N_11 
REMARK    8  A    between atoms: N_11  and  C_12 
REMARK    9  A    between atoms: C_12  and  N_13 
REMARK   10  A    between atoms: N_13  and  C_14 
ROOT
HETATM    1  C   UNL     1      -9.148   2.810 -31.552  1.00  0.00     0.193 C 
HETATM    2  S   UNL     1      -8.204   4.175 -31.336  1.00  0.00    -0.039 SA
ENDROOT
BRANCH   1   3
HETATM    3  N   UNL     1     -10.037   2.573 -32.604  1.00  0.00    -0.301 N 
HETATM    4  C   UNL     1      -9.841   1.948 -33.841  1.00  0.00     0.248 C 
HETATM    5  O   UNL     1      -8.780   1.500 -34.263  1.00  0.00    -0.271 OA
HETATM    6  H   UNL     1     -10.964   2.947 -32.460  1.00  0.00     0.171 HD
BRANCH   4   7
HETATM    7  C   UNL     1     -11.124   1.892 -34.682  1.00  0.00     0.278 C 
BRANCH   7   8
HETATM    8  O   UNL     1     -12.050   2.952 -34.463  1.00  0.00    -0.339 OA
BRANCH   8   9
HETATM    9  C   UNL     1     -13.177   2.562 -33.792  1.00  0.00     0.102 A 
HETATM   10  C   UNL     1     -13.529   3.051 -32.530  1.00  0.00     0.101 A 
HETATM   11  C   UNL     1     -14.721   2.647 -31.927  1.00  0.00     0.039 A 
HETATM   12  C   UNL     1     -15.533   1.706 -32.561  1.00  0.00     0.003 A 
HETATM   13  C   UNL     1     -15.157   1.177 -33.796  1.00  0.00     0.003 A 
HETATM   14  C   UNL     1     -13.977   1.601 -34.409  1.00  0.00     0.039 A 
BRANCH  10  15
HETATM   15  O   UNL     1     -12.773   3.990 -31.880  1.00  0.00    -0.353 OA
HETATM   16  C   UNL     1     -13.357   4.285 -30.608  1.00  0.00     0.210 C 
ENDBRANCH  10  15
ENDBRANCH   8   9
ENDBRANCH   7   8
ENDBRANCH   4   7
ENDBRANCH   1   3
BRANCH   1  17
HETATM   17  N   UNL     1      -9.099   1.707 -30.695  1.00  0.00    -0.274 N 
HETATM   18  H   UNL     1      -9.192   1.819 -29.687  1.00  0.00     0.189 HD
BRANCH  17  19
HETATM   19  N   UNL     1      -8.436   0.526 -31.085  1.00  0.00    -0.274 N 
HETATM   20  H   UNL     1      -8.908  -0.338 -30.817  1.00  0.00     0.189 HD
BRANCH  19  21
HETATM   21  C   UNL     1      -7.080   0.506 -31.269  1.00  0.00     0.191 C 
HETATM   22  S   UNL     1      -5.959   0.663 -30.029  1.00  0.00    -0.039 SA
BRANCH  21  23
HETATM   23  N   UNL     1      -6.609   0.318 -32.536  1.00  0.00    -0.332 N 
HETATM   24  H   UNL     1      -6.567   1.179 -33.071  1.00  0.00     0.168 HD
BRANCH  23  25
HETATM   25  C   UNL     1      -6.259  -0.851 -33.245  1.00  0.00     0.034 A 
HETATM   26  C   UNL     1      -7.164  -1.641 -33.956  1.00  0.00     0.029 A 
HETATM   27  C   UNL     1      -6.723  -2.773 -34.651  1.00  0.00     0.002 A 
HETATM   28  C   UNL     1      -5.373  -3.113 -34.656  1.00  0.00     0.000 A 
HETATM   29  C   UNL     1      -4.458  -2.314 -33.976  1.00  0.00     0.002 A 
HETATM   30  C   UNL     1      -4.900  -1.186 -33.280  1.00  0.00     0.029 A 
ENDBRANCH  23  25
ENDBRANCH  21  23
ENDBRANCH  19  21
ENDBRANCH  17  19
ENDBRANCH   1  17
TORSDOF 10
ENDMDL
MODEL 7
REMARK VINA RESULT:      -7.0      3.575      6.787
REMARK  10 active torsions:
REMARK  status: ('A' for Active; 'I' for Inactive)
REMARK    1  A    between atoms: O_2  and  C_3 
REMARK    2  A    between atoms: C_4  and  O_5 
REMARK    3  A    between atoms: O_5  and  C_6 
REMARK    4  A    between atoms: C_6  and  C_7 
REMARK       I    between atoms: C_7  and  N_8 
REMARK    5  A    between atoms: N_8  and  C_9 
REMARK    6  A    between atoms: C_9  and  N_10 
REMARK    7  A    between atoms: N_10  and  N_11 
REMARK    8  A    between atoms: N_11  and  C_12 
REMARK    9  A    between atoms: C_12  and  N_13 
REMARK   10  A    between atoms: N_13  and  C_14 
ROOT
HETATM    1  C   UNL     1      -4.869   2.698 -32.052  1.00  0.00     0.193 C 
HETATM    2  S   UNL     1      -3.284   2.949 -31.575  1.00  0.00    -0.039 SA
ENDROOT
BRANCH   1   3
HETATM    3  N   UNL     1      -5.349   1.626 -32.808  1.00  0.00    -0.301 N 
HETATM    4  C   UNL     1      -6.257   1.596 -33.873  1.00  0.00     0.248 C 
HETATM    5  O   UNL     1      -6.856   2.559 -34.339  1.00  0.00    -0.271 OA
HETATM    6  H   UNL     1      -5.012   0.721 -32.512  1.00  0.00     0.171 HD
BRANCH   4   7
HETATM    7  C   UNL     1      -6.474   0.178 -34.421  1.00  0.00     0.278 C 
BRANCH   7   8
HETATM    8  O   UNL     1      -6.497  -0.862 -33.447  1.00  0.00    -0.339 OA
BRANCH   8   9
HETATM    9  C   UNL     1      -6.055  -2.066 -33.923  1.00  0.00     0.102 A 
HETATM   10  C   UNL     1      -4.718  -2.472 -33.866  1.00  0.00     0.101 A 
HETATM   11  C   UNL     1      -4.347  -3.737 -34.325  1.00  0.00     0.039 A 
HETATM   12  C   UNL     1      -5.307  -4.574 -34.896  1.00  0.00     0.003 A 
HETATM   13  C   UNL     1      -6.632  -4.150 -35.001  1.00  0.00     0.003 A 
HETATM   14  C   UNL     1      -7.005  -2.894 -34.520  1.00  0.00     0.039 A 
BRANCH  10  15
HETATM   15  O   UNL     1      -3.747  -1.692 -33.297  1.00  0.00    -0.353 OA
HETATM   16  C   UNL     1      -3.322  -2.274 -32.062  1.00  0.00     0.210 C 
ENDBRANCH  10  15
ENDBRANCH   8   9
ENDBRANCH   7   8
ENDBRANCH   4   7
ENDBRANCH   1   3
BRANCH   1  17
HETATM   17  N   UNL     1      -5.918   3.544 -31.682  1.00  0.00    -0.274 N 
HETATM   18  H   UNL     1      -6.078   4.426 -32.165  1.00  0.00     0.189 HD
BRANCH  17  19
HETATM   19  N   UNL     1      -6.450   3.498 -30.378  1.00  0.00    -0.274 N 
HETATM   20  H   UNL     1      -5.915   2.934 -29.717  1.00  0.00     0.189 HD
BRANCH  19  21
HETATM   21  C   UNL     1      -7.788   3.681 -30.155  1.00  0.00     0.191 C 
HETATM   22  S   UNL     1      -8.483   5.157 -29.756  1.00  0.00    -0.039 SA
BRANCH  21  23
HETATM   23  N   UNL     1      -8.614   2.603 -30.293  1.00  0.00    -0.332 N 
HETATM   24  H   UNL     1      -8.819   2.150 -29.408  1.00  0.00     0.168 HD
BRANCH  23  25
HETATM   25  C   UNL     1      -9.152   1.971 -31.434  1.00  0.00     0.034 A 
HETATM   26  C   UNL     1      -9.149   0.591 -31.644  1.00  0.00     0.029 A 
HETATM   27  C   UNL     1      -9.727   0.048 -32.797  1.00  0.00     0.002 A 
HETATM   28  C   UNL     1     -10.329   0.879 -33.739  1.00  0.00     0.000 A 
HETATM   29  C   UNL     1     -10.364   2.253 -33.524  1.00  0.00     0.002 A 
HETATM   30  C   UNL     1      -9.784   2.795 -32.374  1.00  0.00     0.029 A 
ENDBRANCH  23  25
ENDBRANCH  21  23
ENDBRANCH  19  21
ENDBRANCH  17  19
ENDBRANCH   1  17
TORSDOF 10
ENDMDL
MODEL 8
REMARK VINA RESULT:      -7.0      1.203      1.610
REMARK  10 active torsions:
REMARK  status: ('A' for Active; 'I' for Inactive)
REMARK    1  A    between atoms: O_2  and  C_3 
REMARK    2  A    between atoms: C_4  and  O_5 
REMARK    3  A    between atoms: O_5  and  C_6 
REMARK    4  A    between atoms: C_6  and  C_7 
REMARK       I    between atoms: C_7  and  N_8 
REMARK    5  A    between atoms: N_8  and  C_9 
REMARK    6  A    between atoms: C_9  and  N_10 
REMARK    7  A    between atoms: N_10  and  N_11 
REMARK    8  A    between atoms: N_11  and  C_12 
REMARK    9  A    between atoms: C_12  and  N_13 
REMARK   10  A    between atoms: N_13  and  C_14 
ROOT
HETATM    1  C   UNL     1      -6.456   3.223 -30.006  1.00  0.00     0.193 C 
HETATM    2  S   UNL     1      -6.928   4.679 -29.327  1.00  0.00    -0.039 SA
ENDROOT
BRANCH   1   3
HETATM    3  N   UNL     1      -5.222   2.946 -30.601  1.00  0.00    -0.301 N 
HETATM    4  C   UNL     1      -4.836   2.961 -31.947  1.00  0.00     0.248 C 
HETATM    5  O   UNL     1      -5.564   3.202 -32.905  1.00  0.00    -0.271 OA
HETATM    6  H   UNL     1      -4.503   2.652 -29.957  1.00  0.00     0.171 HD
BRANCH   4   7
HETATM    7  C   UNL     1      -3.354   2.606 -32.138  1.00  0.00     0.278 C 
BRANCH   7   8
HETATM    8  O   UNL     1      -2.427   3.459 -31.473  1.00  0.00    -0.339 OA
BRANCH   8   9
HETATM    9  C   UNL     1      -1.995   4.503 -32.244  1.00  0.00     0.102 A 
HETATM   10  C   UNL     1      -1.424   5.665 -31.718  1.00  0.00     0.101 A 
HETATM   11  C   UNL     1      -0.958   6.668 -32.568  1.00  0.00     0.039 A 
HETATM   12  C   UNL     1      -1.118   6.534 -33.948  1.00  0.00     0.003 A 
HETATM   13  C   UNL     1      -1.735   5.398 -34.474  1.00  0.00     0.003 A 
HETATM   14  C   UNL     1      -2.179   4.385 -33.622  1.00  0.00     0.039 A 
BRANCH  10  15
HETATM   15  O   UNL     1      -1.229   5.831 -30.372  1.00  0.00    -0.353 OA
HETATM   16  C   UNL     1       0.099   5.431 -30.023  1.00  0.00     0.210 C 
ENDBRANCH  10  15
ENDBRANCH   8   9
ENDBRANCH   7   8
ENDBRANCH   4   7
ENDBRANCH   1   3
BRANCH   1  17
HETATM   17  N   UNL     1      -7.262   2.083 -29.998  1.00  0.00    -0.274 N 
HETATM   18  H   UNL     1      -6.864   1.156 -29.857  1.00  0.00     0.189 HD
BRANCH  17  19
HETATM   19  N   UNL     1      -8.504   2.079 -30.664  1.00  0.00    -0.274 N 
HETATM   20  H   UNL     1      -9.319   2.035 -30.052  1.00  0.00     0.189 HD
BRANCH  19  21
HETATM   21  C   UNL     1      -8.617   1.607 -31.945  1.00  0.00     0.191 C 
HETATM   22  S   UNL     1      -9.058   2.552 -33.261  1.00  0.00    -0.039 SA
BRANCH  21  23
HETATM   23  N   UNL     1      -8.325   0.293 -32.170  1.00  0.00    -0.332 N 
HETATM   24  H   UNL     1      -9.023  -0.335 -31.786  1.00  0.00     0.168 HD
BRANCH  23  25
HETATM   25  C   UNL     1      -7.205  -0.334 -32.756  1.00  0.00     0.034 A 
HETATM   26  C   UNL     1      -5.977  -0.512 -32.115  1.00  0.00     0.029 A 
HETATM   27  C   UNL     1      -4.926  -1.168 -32.766  1.00  0.00     0.002 A 
HETATM   28  C   UNL     1      -5.099  -1.666 -34.054  1.00  0.00     0.000 A 
HETATM   29  C   UNL     1      -6.329  -1.521 -34.691  1.00  0.00     0.002 A 
HETATM   30  C   UNL     1      -7.377  -0.864 -34.041  1.00  0.00     0.029 A 
ENDBRANCH  23  25
ENDBRANCH  21  23
ENDBRANCH  19  21
ENDBRANCH  17  19
ENDBRANCH   1  17
TORSDOF 10
ENDMDL
MODEL 9
REMARK VINA RESULT:      -6.9      1.019      2.103
REMARK  10 active torsions:
REMARK  status: ('A' for Active; 'I' for Inactive)
REMARK    1  A    between atoms: O_2  and  C_3 
REMARK    2  A    between atoms: C_4  and  O_5 
REMARK    3  A    between atoms: O_5  and  C_6 
REMARK    4  A    between atoms: C_6  and  C_7 
REMARK       I    between atoms: C_7  and  N_8 
REMARK    5  A    between atoms: N_8  and  C_9 
REMARK    6  A    between atoms: C_9  and  N_10 
REMARK    7  A    between atoms: N_10  and  N_11 
REMARK    8  A    between atoms: N_11  and  C_12 
REMARK    9  A    between atoms: C_12  and  N_13 
REMARK   10  A    between atoms: N_13  and  C_14 
ROOT
HETATM    1  C   UNL     1      -7.253   3.190 -30.872  1.00  0.00     0.193 C 
HETATM    2  S   UNL     1      -8.377   4.183 -31.615  1.00  0.00    -0.039 SA
ENDROOT
BRANCH   1   3
HETATM    3  N   UNL     1      -5.883   3.434 -30.748  1.00  0.00    -0.301 N 
HETATM    4  C   UNL     1      -4.828   3.183 -31.633  1.00  0.00     0.248 C 
HETATM    5  O   UNL     1      -4.918   2.639 -32.729  1.00  0.00    -0.271 OA
HETATM    6  H   UNL     1      -5.606   3.822 -29.858  1.00  0.00     0.171 HD
BRANCH   4   7
HETATM    7  C   UNL     1      -3.472   3.643 -31.079  1.00  0.00     0.278 C 
BRANCH   7   8
HETATM    8  O   UNL     1      -2.399   3.663 -32.016  1.00  0.00    -0.339 OA
BRANCH   8   9
HETATM    9  C   UNL     1      -1.602   4.770 -31.910  1.00  0.00     0.102 A 
HETATM   10  C   UNL     1      -1.625   5.826 -32.826  1.00  0.00     0.101 A 
HETATM   11  C   UNL     1      -0.821   6.949 -32.627  1.00  0.00     0.039 A 
HETATM   12  C   UNL     1       0.053   6.989 -31.539  1.00  0.00     0.003 A 
HETATM   13  C   UNL     1       0.115   5.914 -30.653  1.00  0.00     0.003 A 
HETATM   14  C   UNL     1      -0.708   4.802 -30.841  1.00  0.00     0.039 A 
BRANCH  10  15
HETATM   15  O   UNL     1      -2.481   5.838 -33.896  1.00  0.00    -0.353 OA
HETATM   16  C   UNL     1      -1.899   5.120 -34.988  1.00  0.00     0.210 C 
ENDBRANCH  10  15
ENDBRANCH   8   9
ENDBRANCH   7   8
ENDBRANCH   4   7
ENDBRANCH   1   3
BRANCH   1  17
HETATM   17  N   UNL     1      -7.596   1.995 -30.234  1.00  0.00    -0.274 N 
HETATM   18  H   UNL     1      -7.673   1.943 -29.220  1.00  0.00     0.189 HD
BRANCH  17  19
HETATM   19  N   UNL     1      -7.354   0.755 -30.857  1.00  0.00    -0.274 N 
HETATM   20  H   UNL     1      -6.496   0.288 -30.565  1.00  0.00     0.189 HD
BRANCH  19  21
HETATM   21  C   UNL     1      -7.865   0.476 -32.097  1.00  0.00     0.191 C 
HETATM   22  S   UNL     1      -9.505   0.348 -32.433  1.00  0.00    -0.039 SA
BRANCH  21  23
HETATM   23  N   UNL     1      -6.987   0.319 -33.130  1.00  0.00    -0.332 N 
HETATM   24  H   UNL     1      -6.914   1.148 -33.711  1.00  0.00     0.168 HD
BRANCH  23  25
HETATM   25  C   UNL     1      -6.244  -0.796 -33.572  1.00  0.00     0.034 A 
HETATM   26  C   UNL     1      -4.898  -1.015 -33.272  1.00  0.00     0.029 A 
HETATM   27  C   UNL     1      -4.246  -2.163 -33.735  1.00  0.00     0.002 A 
HETATM   28  C   UNL     1      -4.938  -3.110 -34.485  1.00  0.00     0.000 A 
HETATM   29  C   UNL     1      -6.288  -2.916 -34.764  1.00  0.00     0.002 A 
HETATM   30  C   UNL     1      -6.938  -1.768 -34.304  1.00  0.00     0.029 A 
ENDBRANCH  23  25
ENDBRANCH  21  23
ENDBRANCH  19  21
ENDBRANCH  17  19
ENDBRANCH   1  17
TORSDOF 10
ENDMDL
MODEL 10
REMARK VINA RESULT:      -6.9      2.301      3.603
REMARK  10 active torsions:
REMARK  status: ('A' for Active; 'I' for Inactive)
REMARK    1  A    between atoms: O_2  and  C_3 
REMARK    2  A    between atoms: C_4  and  O_5 
REMARK    3  A    between atoms: O_5  and  C_6 
REMARK    4  A    between atoms: C_6  and  C_7 
REMARK       I    between atoms: C_7  and  N_8 
REMARK    5  A    between atoms: N_8  and  C_9 
REMARK    6  A    between atoms: C_9  and  N_10 
REMARK    7  A    between atoms: N_10  and  N_11 
REMARK    8  A    between atoms: N_11  and  C_12 
REMARK    9  A    between atoms: C_12  and  N_13 
REMARK   10  A    between atoms: N_13  and  C_14 
ROOT
HETATM    1  C   UNL     1      -4.231   3.303 -31.295  1.00  0.00     0.193 C 
HETATM    2  S   UNL     1      -5.436   3.416 -30.138  1.00  0.00    -0.039 SA
ENDROOT
BRANCH   1   3
HETATM    3  N   UNL     1      -2.997   3.957 -31.276  1.00  0.00    -0.301 N 
HETATM    4  C   UNL     1      -2.167   4.370 -32.325  1.00  0.00     0.248 C 
HETATM    5  O   UNL     1      -2.372   4.190 -33.521  1.00  0.00    -0.271 OA
HETATM    6  H   UNL     1      -2.627   4.127 -30.352  1.00  0.00     0.171 HD
BRANCH   4   7
HETATM    7  C   UNL     1      -0.899   5.080 -31.829  1.00  0.00     0.278 C 
BRANCH   7   8
HETATM    8  O   UNL     1      -1.008   6.491 -31.667  1.00  0.00    -0.339 OA
BRANCH   8   9
HETATM    9  C   UNL     1      -0.853   6.905 -30.372  1.00  0.00     0.102 A 
HETATM   10  C   UNL     1      -1.910   6.999 -29.462  1.00  0.00     0.101 A 
HETATM   11  C   UNL     1      -1.670   7.380 -28.141  1.00  0.00     0.039 A 
HETATM   12  C   UNL     1      -0.377   7.726 -27.745  1.00  0.00     0.003 A 
HETATM   13  C   UNL     1       0.671   7.683 -28.665  1.00  0.00     0.003 A 
HETATM   14  C   UNL     1       0.432   7.278 -29.980  1.00  0.00     0.039 A 
BRANCH  10  15
HETATM   15  O   UNL     1      -3.191   6.651 -29.801  1.00  0.00    -0.353 OA
HETATM   16  C   UNL     1      -3.931   7.822 -30.156  1.00  0.00     0.210 C 
ENDBRANCH  10  15
ENDBRANCH   8   9
ENDBRANCH   7   8
ENDBRANCH   4   7
ENDBRANCH   1   3
BRANCH   1  17
HETATM   17  N   UNL     1      -4.326   2.471 -32.413  1.00  0.00    -0.274 N 
HETATM   18  H   UNL     1      -4.923   2.713 -33.201  1.00  0.00     0.189 HD
BRANCH  17  19
HETATM   19  N   UNL     1      -4.046   1.094 -32.306  1.00  0.00    -0.274 N 
HETATM   20  H   UNL     1      -3.083   0.835 -32.519  1.00  0.00     0.189 HD
BRANCH  19  21
HETATM   21  C   UNL     1      -5.031   0.158 -32.473  1.00  0.00     0.191 C 
HETATM   22  S   UNL     1      -6.146  -0.258 -31.289  1.00  0.00    -0.039 SA
BRANCH  21  23
HETATM   23  N   UNL     1      -5.131  -0.456 -33.688  1.00  0.00    -0.332 N 
HETATM   24  H   UNL     1      -5.168   0.203 -34.459  1.00  0.00     0.168 HD
BRANCH  23  25
HETATM   25  C   UNL     1      -5.274  -1.813 -34.047  1.00  0.00     0.034 A 
HETATM   26  C   UNL     1      -4.263  -2.769 -33.934  1.00  0.00     0.029 A 
HETATM   27  C   UNL     1      -4.501  -4.100 -34.293  1.00  0.00     0.002 A 
HETATM   28  C   UNL     1      -5.757  -4.490 -34.751  1.00  0.00     0.000 A 
HETATM   29  C   UNL     1      -6.781  -3.552 -34.838  1.00  0.00     0.002 A 
HETATM   30  C   UNL     1      -6.541  -2.222 -34.482  1.00  0.00     0.029 A 
ENDBRANCH  23  25
ENDBRANCH  21  23
ENDBRANCH  19  21
ENDBRANCH  17  19
ENDBRANCH   1  17
TORSDOF 10
ENDMDL
