MODEL 1
REMARK VINA RESULT:      -7.5      0.000      0.000
REMARK  2 active torsions:
REMARK  status: ('A' for Active; 'I' for Inactive)
REMARK    1  A    between atoms: C_2  and  C_3 
REMARK       I    between atoms: C_3  and  N_4 
REMARK    2  A    between atoms: N_4  and  C_5 
ROOT
HETATM    1  C   UNL     1      -3.680   2.718 -31.787  1.00  0.00     0.174 A 
HETATM    2  S   UNL     1      -5.227   2.783 -32.487  1.00  0.00    -0.050 SA
HETATM    3  C   UNL     1      -5.089   1.135 -32.967  1.00  0.00     0.040 A 
HETATM    4  C   UNL     1      -3.844   0.648 -32.538  1.00  0.00     0.079 A 
HETATM    5  N   UNL     1      -3.057   1.568 -31.863  1.00  0.00    -0.223 NA
HETATM    6  C   UNL     1      -6.012   0.340 -33.671  1.00  0.00     0.061 A 
HETATM    7  C   UNL     1      -5.616  -0.959 -33.921  1.00  0.00     0.106 A 
HETATM    8  C   UNL     1      -4.405  -1.456 -33.510  1.00  0.00     0.107 A 
HETATM    9  O   UNL     1      -4.229  -2.758 -33.866  1.00  0.00    -0.323 OA
HETATM   10  C   UNL     1      -5.467  -3.022 -34.558  1.00  0.00     0.352 A 
HETATM   11  O   UNL     1      -6.356  -1.887 -34.589  1.00  0.00    -0.323 OA
HETATM   12  C   UNL     1      -3.488  -0.691 -32.814  1.00  0.00     0.073 A 
ENDROOT
BRANCH   1  13
HETATM   13  N   UNL     1      -3.084   3.791 -31.178  1.00  0.00    -0.301 N 
HETATM   14  C   UNL     1      -2.177   4.676 -31.714  1.00  0.00     0.264 C 
HETATM   15  O   UNL     1      -1.771   4.655 -32.871  1.00  0.00    -0.267 OA
HETATM   16  H   UNL     1      -3.356   3.905 -30.211  1.00  0.00     0.171 HD
BRANCH  14  17
HETATM   17  C   UNL     1      -1.697   5.692 -30.774  1.00  0.00     0.074 A 
HETATM   18  C   UNL     1      -2.451   6.704 -30.197  1.00  0.00     0.026 A 
HETATM   19  C   UNL     1      -1.684   7.538 -29.330  1.00  0.00     0.028 A 
HETATM   20  C   UNL     1      -0.378   7.126 -29.279  1.00  0.00     0.052 A 
HETATM   21  S   UNL     1      -0.064   5.771 -30.244  1.00  0.00    -0.077 SA
HETATM   22 BR   UNL     1       0.935   7.974 -28.248  1.00  0.00    -0.043 Br
ENDBRANCH  14  17
ENDBRANCH   1  13
TORSDOF 2
ENDMDL
MODEL 2
REMARK VINA RESULT:      -7.4      6.663      7.994
REMARK  2 active torsions:
REMARK  status: ('A' for Active; 'I' for Inactive)
REMARK    1  A    between atoms: C_2  and  C_3 
REMARK       I    between atoms: C_3  and  N_4 
REMARK    2  A    between atoms: N_4  and  C_5 
ROOT
HETATM    1  C   UNL     1      -7.751   0.303 -34.430  1.00  0.00     0.174 A 
HETATM    2  S   UNL     1      -6.377   0.676 -33.502  1.00  0.00    -0.050 SA
HETATM    3  C   UNL     1      -5.774  -0.921 -33.738  1.00  0.00     0.040 A 
HETATM    4  C   UNL     1      -6.688  -1.629 -34.533  1.00  0.00     0.079 A 
HETATM    5  N   UNL     1      -7.808  -0.910 -34.920  1.00  0.00    -0.223 NA
HETATM    6  C   UNL     1      -4.586  -1.496 -33.252  1.00  0.00     0.061 A 
HETATM    7  C   UNL     1      -4.371  -2.814 -33.604  1.00  0.00     0.106 A 
HETATM    8  C   UNL     1      -5.250  -3.525 -34.381  1.00  0.00     0.107 A 
HETATM    9  O   UNL     1      -4.835  -4.803 -34.599  1.00  0.00    -0.323 OA
HETATM   10  C   UNL     1      -3.595  -4.818 -33.862  1.00  0.00     0.352 A 
HETATM   11  O   UNL     1      -3.290  -3.556 -33.234  1.00  0.00    -0.323 OA
HETATM   12  C   UNL     1      -6.419  -2.974 -34.870  1.00  0.00     0.073 A 
ENDROOT
BRANCH   1  13
HETATM   13  N   UNL     1      -8.764   1.195 -34.664  1.00  0.00    -0.301 N 
HETATM   14  C   UNL     1      -9.976   1.291 -34.020  1.00  0.00     0.264 C 
HETATM   15  O   UNL     1     -10.335   0.584 -33.084  1.00  0.00    -0.267 OA
HETATM   16  H   UNL     1      -8.568   1.835 -35.421  1.00  0.00     0.171 HD
BRANCH  14  17
HETATM   17  C   UNL     1     -10.860   2.334 -34.548  1.00  0.00     0.074 A 
HETATM   18  C   UNL     1     -12.042   2.138 -35.246  1.00  0.00     0.026 A 
HETATM   19  C   UNL     1     -12.665   3.363 -35.631  1.00  0.00     0.028 A 
HETATM   20  C   UNL     1     -11.934   4.441 -35.208  1.00  0.00     0.052 A 
HETATM   21  S   UNL     1     -10.530   4.011 -34.366  1.00  0.00    -0.077 SA
HETATM   22 BR   UNL     1     -12.431   6.219 -35.526  1.00  0.00    -0.043 Br
ENDBRANCH  14  17
ENDBRANCH   1  13
TORSDOF 2
ENDMDL
MODEL 3
REMARK VINA RESULT:      -7.4      1.254      1.436
REMARK  2 active torsions:
REMARK  status: ('A' for Active; 'I' for Inactive)
REMARK    1  A    between atoms: C_2  and  C_3 
REMARK       I    between atoms: C_3  and  N_4 
REMARK    2  A    between atoms: N_4  and  C_5 
ROOT
HETATM    1  C   UNL     1      -4.027   1.963 -32.220  1.00  0.00     0.174 A 
HETATM    2  S   UNL     1      -5.620   2.021 -32.810  1.00  0.00    -0.050 SA
HETATM    3  C   UNL     1      -5.509   0.373 -33.299  1.00  0.00     0.040 A 
HETATM    4  C   UNL     1      -4.235  -0.108 -32.958  1.00  0.00     0.079 A 
HETATM    5  N   UNL     1      -3.407   0.815 -32.340  1.00  0.00    -0.223 NA
HETATM    6  C   UNL     1      -6.476  -0.425 -33.937  1.00  0.00     0.061 A 
HETATM    7  C   UNL     1      -6.093  -1.723 -34.214  1.00  0.00     0.106 A 
HETATM    8  C   UNL     1      -4.854  -2.215 -33.889  1.00  0.00     0.107 A 
HETATM    9  O   UNL     1      -4.698  -3.515 -34.257  1.00  0.00    -0.323 OA
HETATM   10  C   UNL     1      -5.980  -3.785 -34.861  1.00  0.00     0.352 A 
HETATM   11  O   UNL     1      -6.874  -2.653 -34.829  1.00  0.00    -0.323 OA
HETATM   12  C   UNL     1      -3.894  -1.445 -33.259  1.00  0.00     0.073 A 
ENDROOT
BRANCH   1  13
HETATM   13  N   UNL     1      -3.395   3.038 -31.654  1.00  0.00    -0.301 N 
HETATM   14  C   UNL     1      -2.583   3.965 -32.266  1.00  0.00     0.264 C 
HETATM   15  O   UNL     1      -2.317   3.987 -33.464  1.00  0.00    -0.267 OA
HETATM   16  H   UNL     1      -3.553   3.118 -30.659  1.00  0.00     0.171 HD
BRANCH  14  17
HETATM   17  C   UNL     1      -2.025   4.972 -31.360  1.00  0.00     0.074 A 
HETATM   18  C   UNL     1      -0.713   5.042 -30.914  1.00  0.00     0.026 A 
HETATM   19  C   UNL     1      -0.489   6.140 -30.030  1.00  0.00     0.028 A 
HETATM   20  C   UNL     1      -1.638   6.862 -29.841  1.00  0.00     0.052 A 
HETATM   21  S   UNL     1      -2.963   6.250 -30.698  1.00  0.00    -0.077 SA
HETATM   22 BR   UNL     1      -1.741   8.376 -28.743  1.00  0.00    -0.043 Br
ENDBRANCH  14  17
ENDBRANCH   1  13
TORSDOF 2
ENDMDL
MODEL 4
REMARK VINA RESULT:      -7.3      6.569      9.252
REMARK  2 active torsions:
REMARK  status: ('A' for Active; 'I' for Inactive)
REMARK    1  A    between atoms: C_2  and  C_3 
REMARK       I    between atoms: C_3  and  N_4 
REMARK    2  A    between atoms: N_4  and  C_5 
ROOT
HETATM    1  C   UNL     1      -9.213   0.557 -32.488  1.00  0.00     0.174 A 
HETATM    2  S   UNL     1      -8.363   1.488 -31.349  1.00  0.00    -0.050 SA
HETATM    3  C   UNL     1      -6.911   0.645 -31.730  1.00  0.00     0.040 A 
HETATM    4  C   UNL     1      -7.193  -0.301 -32.728  1.00  0.00     0.079 A 
HETATM    5  N   UNL     1      -8.513  -0.332 -33.149  1.00  0.00    -0.223 NA
HETATM    6  C   UNL     1      -5.625   0.810 -31.182  1.00  0.00     0.061 A 
HETATM    7  C   UNL     1      -4.647  -0.025 -31.688  1.00  0.00     0.106 A 
HETATM    8  C   UNL     1      -4.901  -0.956 -32.664  1.00  0.00     0.107 A 
HETATM    9  O   UNL     1      -3.791  -1.665 -33.006  1.00  0.00    -0.323 OA
HETATM   10  C   UNL     1      -2.809  -1.080 -32.126  1.00  0.00     0.352 A 
HETATM   11  O   UNL     1      -3.345  -0.032 -31.292  1.00  0.00    -0.323 OA
HETATM   12  C   UNL     1      -6.156  -1.128 -33.215  1.00  0.00     0.073 A 
ENDROOT
BRANCH   1  13
HETATM   13  N   UNL     1     -10.556   0.695 -32.721  1.00  0.00    -0.301 N 
HETATM   14  C   UNL     1     -11.177   1.457 -33.684  1.00  0.00     0.264 C 
HETATM   15  O   UNL     1     -10.599   2.132 -34.530  1.00  0.00    -0.267 OA
HETATM   16  H   UNL     1     -11.131   0.170 -32.077  1.00  0.00     0.171 HD
BRANCH  14  17
HETATM   17  C   UNL     1     -12.641   1.418 -33.635  1.00  0.00     0.074 A 
HETATM   18  C   UNL     1     -13.465   0.534 -34.314  1.00  0.00     0.026 A 
HETATM   19  C   UNL     1     -14.850   0.764 -34.061  1.00  0.00     0.028 A 
HETATM   20  C   UNL     1     -15.024   1.813 -33.196  1.00  0.00     0.052 A 
HETATM   21  S   UNL     1     -13.569   2.515 -32.691  1.00  0.00    -0.077 SA
HETATM   22 BR   UNL     1     -16.703   2.418 -32.626  1.00  0.00    -0.043 Br
ENDBRANCH  14  17
ENDBRANCH   1  13
TORSDOF 2
ENDMDL
MODEL 5
REMARK VINA RESULT:      -7.0      2.208      2.650
REMARK  2 active torsions:
REMARK  status: ('A' for Active; 'I' for Inactive)
REMARK    1  A    between atoms: C_2  and  C_3 
REMARK       I    between atoms: C_3  and  N_4 
REMARK    2  A    between atoms: N_4  and  C_5 
ROOT
HETATM    1  C   UNL     1      -4.994   1.347 -32.919  1.00  0.00     0.174 A 
HETATM    2  S   UNL     1      -6.542   1.088 -33.571  1.00  0.00    -0.050 SA
HETATM    3  C   UNL     1      -6.139  -0.555 -33.898  1.00  0.00     0.040 A 
HETATM    4  C   UNL     1      -4.824  -0.786 -33.466  1.00  0.00     0.079 A 
HETATM    5  N   UNL     1      -4.190   0.313 -32.907  1.00  0.00    -0.223 NA
HETATM    6  C   UNL     1      -6.929  -1.555 -34.494  1.00  0.00     0.061 A 
HETATM    7  C   UNL     1      -6.326  -2.790 -34.633  1.00  0.00     0.106 A 
HETATM    8  C   UNL     1      -5.043  -3.038 -34.217  1.00  0.00     0.107 A 
HETATM    9  O   UNL     1      -4.658  -4.322 -34.456  1.00  0.00    -0.323 OA
HETATM   10  C   UNL     1      -5.846  -4.852 -35.079  1.00  0.00     0.352 A 
HETATM   11  O   UNL     1      -6.912  -3.887 -35.187  1.00  0.00    -0.323 OA
HETATM   12  C   UNL     1      -4.255  -2.068 -33.627  1.00  0.00     0.073 A 
ENDROOT
BRANCH   1  13
HETATM   13  N   UNL     1      -4.576   2.557 -32.433  1.00  0.00    -0.301 N 
HETATM   14  C   UNL     1      -4.763   3.078 -31.173  1.00  0.00     0.264 C 
HETATM   15  O   UNL     1      -5.331   2.502 -30.251  1.00  0.00    -0.267 OA
HETATM   16  H   UNL     1      -4.085   3.117 -33.118  1.00  0.00     0.171 HD
BRANCH  14  17
HETATM   17  C   UNL     1      -4.224   4.427 -30.990  1.00  0.00     0.074 A 
HETATM   18  C   UNL     1      -4.813   5.461 -30.277  1.00  0.00     0.026 A 
HETATM   19  C   UNL     1      -4.036   6.658 -30.296  1.00  0.00     0.028 A 
HETATM   20  C   UNL     1      -2.886   6.486 -31.021  1.00  0.00     0.052 A 
HETATM   21  S   UNL     1      -2.727   4.930 -31.669  1.00  0.00    -0.077 SA
HETATM   22 BR   UNL     1      -1.611   7.835 -31.275  1.00  0.00    -0.043 Br
ENDBRANCH  14  17
ENDBRANCH   1  13
TORSDOF 2
ENDMDL
MODEL 6
REMARK VINA RESULT:      -6.9      4.084      8.553
REMARK  2 active torsions:
REMARK  status: ('A' for Active; 'I' for Inactive)
REMARK    1  A    between atoms: C_2  and  C_3 
REMARK       I    between atoms: C_3  and  N_4 
REMARK    2  A    between atoms: N_4  and  C_5 
ROOT
HETATM    1  C   UNL     1      -4.454   2.672 -32.212  1.00  0.00     0.174 A 
HETATM    2  S   UNL     1      -5.409   3.852 -31.449  1.00  0.00    -0.050 SA
HETATM    3  C   UNL     1      -4.004   4.796 -31.130  1.00  0.00     0.040 A 
HETATM    4  C   UNL     1      -2.887   4.124 -31.652  1.00  0.00     0.079 A 
HETATM    5  N   UNL     1      -3.167   2.915 -32.269  1.00  0.00    -0.223 NA
HETATM    6  C   UNL     1      -3.903   6.033 -30.467  1.00  0.00     0.061 A 
HETATM    7  C   UNL     1      -2.628   6.551 -30.355  1.00  0.00     0.106 A 
HETATM    8  C   UNL     1      -1.523   5.912 -30.859  1.00  0.00     0.107 A 
HETATM    9  O   UNL     1      -0.373   6.604 -30.632  1.00  0.00    -0.323 OA
HETATM   10  C   UNL     1      -0.881   7.751 -29.919  1.00  0.00     0.352 A 
HETATM   11  O   UNL     1      -2.313   7.727 -29.747  1.00  0.00    -0.323 OA
HETATM   12  C   UNL     1      -1.604   4.698 -31.516  1.00  0.00     0.073 A 
ENDROOT
BRANCH   1  13
HETATM   13  N   UNL     1      -4.965   1.517 -32.742  1.00  0.00    -0.301 N 
HETATM   14  C   UNL     1      -4.856   0.236 -32.252  1.00  0.00     0.264 C 
HETATM   15  O   UNL     1      -4.287  -0.073 -31.210  1.00  0.00    -0.267 OA
HETATM   16  H   UNL     1      -5.465   1.660 -33.609  1.00  0.00     0.171 HD
BRANCH  14  17
HETATM   17  C   UNL     1      -5.486  -0.788 -33.089  1.00  0.00     0.074 A 
HETATM   18  C   UNL     1      -6.789  -0.776 -33.565  1.00  0.00     0.026 A 
HETATM   19  C   UNL     1      -7.101  -1.928 -34.348  1.00  0.00     0.028 A 
HETATM   20  C   UNL     1      -6.022  -2.768 -34.439  1.00  0.00     0.052 A 
HETATM   21  S   UNL     1      -4.659  -2.201 -33.609  1.00  0.00    -0.077 SA
HETATM   22 BR   UNL     1      -6.045  -4.385 -35.384  1.00  0.00    -0.043 Br
ENDBRANCH  14  17
ENDBRANCH   1  13
TORSDOF 2
ENDMDL
MODEL 7
REMARK VINA RESULT:      -6.8      1.731      2.187
REMARK  2 active torsions:
REMARK  status: ('A' for Active; 'I' for Inactive)
REMARK    1  A    between atoms: C_2  and  C_3 
REMARK       I    between atoms: C_3  and  N_4 
REMARK    2  A    between atoms: N_4  and  C_5 
ROOT
HETATM    1  C   UNL     1      -3.620   4.241 -31.581  1.00  0.00     0.174 A 
HETATM    2  S   UNL     1      -4.783   4.877 -32.644  1.00  0.00    -0.050 SA
HETATM    3  C   UNL     1      -5.262   3.283 -33.088  1.00  0.00     0.040 A 
HETATM    4  C   UNL     1      -4.483   2.366 -32.365  1.00  0.00     0.079 A 
HETATM    5  N   UNL     1      -3.555   2.934 -31.507  1.00  0.00    -0.223 NA
HETATM    6  C   UNL     1      -6.249   2.881 -34.007  1.00  0.00     0.061 A 
HETATM    7  C   UNL     1      -6.405   1.517 -34.160  1.00  0.00     0.106 A 
HETATM    8  C   UNL     1      -5.656   0.603 -33.463  1.00  0.00     0.107 A 
HETATM    9  O   UNL     1      -5.981  -0.681 -33.774  1.00  0.00    -0.323 OA
HETATM   10  C   UNL     1      -7.017  -0.471 -34.756  1.00  0.00     0.352 A 
HETATM   11  O   UNL     1      -7.297   0.922 -34.999  1.00  0.00    -0.323 OA
HETATM   12  C   UNL     1      -4.686   0.981 -32.554  1.00  0.00     0.073 A 
ENDROOT
BRANCH   1  13
HETATM   13  N   UNL     1      -2.778   5.021 -30.834  1.00  0.00    -0.301 N 
HETATM   14  C   UNL     1      -1.428   5.222 -31.008  1.00  0.00     0.264 C 
HETATM   15  O   UNL     1      -0.754   4.737 -31.911  1.00  0.00    -0.267 OA
HETATM   16  H   UNL     1      -3.237   5.477 -30.057  1.00  0.00     0.171 HD
BRANCH  14  17
HETATM   17  C   UNL     1      -0.810   6.087 -30.000  1.00  0.00     0.074 A 
HETATM   18  C   UNL     1       0.377   5.848 -29.324  1.00  0.00     0.026 A 
HETATM   19  C   UNL     1       0.703   6.882 -28.397  1.00  0.00     0.028 A 
HETATM   20  C   UNL     1      -0.249   7.868 -28.405  1.00  0.00     0.052 A 
HETATM   21  S   UNL     1      -1.509   7.574 -29.497  1.00  0.00    -0.077 SA
HETATM   22 BR   UNL     1      -0.171   9.392 -27.320  1.00  0.00    -0.043 Br
ENDBRANCH  14  17
ENDBRANCH   1  13
TORSDOF 2
ENDMDL
MODEL 8
REMARK VINA RESULT:      -6.6      2.887      3.173
REMARK  2 active torsions:
REMARK  status: ('A' for Active; 'I' for Inactive)
REMARK    1  A    between atoms: C_2  and  C_3 
REMARK       I    between atoms: C_3  and  N_4 
REMARK    2  A    between atoms: N_4  and  C_5 
ROOT
HETATM    1  C   UNL     1      -5.553   1.754 -33.065  1.00  0.00     0.174 A 
HETATM    2  S   UNL     1      -7.027   1.292 -33.773  1.00  0.00    -0.050 SA
HETATM    3  C   UNL     1      -6.433  -0.311 -33.986  1.00  0.00     0.040 A 
HETATM    4  C   UNL     1      -5.126  -0.373 -33.479  1.00  0.00     0.079 A 
HETATM    5  N   UNL     1      -4.644   0.816 -32.954  1.00  0.00    -0.223 NA
HETATM    6  C   UNL     1      -7.079  -1.422 -34.559  1.00  0.00     0.061 A 
HETATM    7  C   UNL     1      -6.340  -2.589 -34.598  1.00  0.00     0.106 A 
HETATM    8  C   UNL     1      -5.062  -2.672 -34.107  1.00  0.00     0.107 A 
HETATM    9  O   UNL     1      -4.530  -3.917 -34.252  1.00  0.00    -0.323 OA
HETATM   10  C   UNL     1      -5.619  -4.606 -34.899  1.00  0.00     0.352 A 
HETATM   11  O   UNL     1      -6.775  -3.771 -35.114  1.00  0.00    -0.323 OA
HETATM   12  C   UNL     1      -4.415  -1.592 -33.537  1.00  0.00     0.073 A 
ENDROOT
BRANCH   1  13
HETATM   13  N   UNL     1      -5.293   3.026 -32.631  1.00  0.00    -0.301 N 
HETATM   14  C   UNL     1      -5.207   4.178 -33.379  1.00  0.00     0.264 C 
HETATM   15  O   UNL     1      -5.386   4.247 -34.590  1.00  0.00    -0.267 OA
HETATM   16  H   UNL     1      -5.133   3.086 -31.634  1.00  0.00     0.171 HD
BRANCH  14  17
HETATM   17  C   UNL     1      -4.868   5.377 -32.607  1.00  0.00     0.074 A 
HETATM   18  C   UNL     1      -3.762   6.192 -32.794  1.00  0.00     0.026 A 
HETATM   19  C   UNL     1      -3.714   7.278 -31.870  1.00  0.00     0.028 A 
HETATM   20  C   UNL     1      -4.787   7.247 -31.018  1.00  0.00     0.052 A 
HETATM   21  S   UNL     1      -5.837   5.951 -31.309  1.00  0.00    -0.077 SA
HETATM   22 BR   UNL     1      -5.070   8.508 -29.662  1.00  0.00    -0.043 Br
ENDBRANCH  14  17
ENDBRANCH   1  13
TORSDOF 2
ENDMDL
MODEL 9
REMARK VINA RESULT:      -6.6      2.992      3.144
REMARK  2 active torsions:
REMARK  status: ('A' for Active; 'I' for Inactive)
REMARK    1  A    between atoms: C_2  and  C_3 
REMARK       I    between atoms: C_3  and  N_4 
REMARK    2  A    between atoms: N_4  and  C_5 
ROOT
HETATM    1  C   UNL     1      -4.350   3.953 -31.580  1.00  0.00     0.174 A 
HETATM    2  S   UNL     1      -4.770   3.892 -33.225  1.00  0.00    -0.050 SA
HETATM    3  C   UNL     1      -6.086   2.842 -32.860  1.00  0.00     0.040 A 
HETATM    4  C   UNL     1      -6.108   2.621 -31.474  1.00  0.00     0.079 A 
HETATM    5  N   UNL     1      -5.111   3.268 -30.762  1.00  0.00    -0.223 NA
HETATM    6  C   UNL     1      -7.021   2.261 -33.737  1.00  0.00     0.061 A 
HETATM    7  C   UNL     1      -7.970   1.449 -33.147  1.00  0.00     0.106 A 
HETATM    8  C   UNL     1      -8.011   1.220 -31.795  1.00  0.00     0.107 A 
HETATM    9  O   UNL     1      -9.028   0.388 -31.440  1.00  0.00    -0.323 OA
HETATM   10  C   UNL     1      -9.618   0.112 -32.727  1.00  0.00     0.352 A 
HETATM   11  O   UNL     1      -8.957   0.790 -33.814  1.00  0.00    -0.323 OA
HETATM   12  C   UNL     1      -7.103   1.786 -30.920  1.00  0.00     0.073 A 
ENDROOT
BRANCH   1  13
HETATM   13  N   UNL     1      -3.280   4.661 -31.103  1.00  0.00    -0.301 N 
HETATM   14  C   UNL     1      -3.158   6.024 -30.961  1.00  0.00     0.264 C 
HETATM   15  O   UNL     1      -4.034   6.841 -31.224  1.00  0.00    -0.267 OA
HETATM   16  H   UNL     1      -2.494   4.078 -30.848  1.00  0.00     0.171 HD
BRANCH  14  17
HETATM   17  C   UNL     1      -1.855   6.466 -30.457  1.00  0.00     0.074 A 
HETATM   18  C   UNL     1      -0.626   6.275 -31.071  1.00  0.00     0.026 A 
HETATM   19  C   UNL     1       0.458   6.818 -30.318  1.00  0.00     0.028 A 
HETATM   20  C   UNL     1       0.010   7.403 -29.163  1.00  0.00     0.052 A 
HETATM   21  S   UNL     1      -1.670   7.312 -28.973  1.00  0.00    -0.077 SA
HETATM   22 BR   UNL     1       1.137   8.224 -27.913  1.00  0.00    -0.043 Br
ENDBRANCH  14  17
ENDBRANCH   1  13
TORSDOF 2
ENDMDL
MODEL 10
REMARK VINA RESULT:      -6.6      4.356      8.736
REMARK  2 active torsions:
REMARK  status: ('A' for Active; 'I' for Inactive)
REMARK    1  A    between atoms: C_2  and  C_3 
REMARK       I    between atoms: C_3  and  N_4 
REMARK    2  A    between atoms: N_4  and  C_5 
ROOT
HETATM    1  C   UNL     1      -4.627   2.921 -32.135  1.00  0.00     0.174 A 
HETATM    2  S   UNL     1      -5.262   3.404 -30.635  1.00  0.00    -0.050 SA
HETATM    3  C   UNL     1      -4.634   4.990 -30.870  1.00  0.00     0.040 A 
HETATM    4  C   UNL     1      -3.979   5.032 -32.110  1.00  0.00     0.079 A 
HETATM    5  N   UNL     1      -3.990   3.840 -32.818  1.00  0.00    -0.223 NA
HETATM    6  C   UNL     1      -4.716   6.107 -30.017  1.00  0.00     0.061 A 
HETATM    7  C   UNL     1      -4.104   7.257 -30.476  1.00  0.00     0.106 A 
HETATM    8  C   UNL     1      -3.459   7.320 -31.686  1.00  0.00     0.107 A 
HETATM    9  O   UNL     1      -2.931   8.551 -31.929  1.00  0.00    -0.323 OA
HETATM   10  C   UNL     1      -3.310   9.254 -30.729  1.00  0.00     0.352 A 
HETATM   11  O   UNL     1      -4.063   8.441 -29.805  1.00  0.00    -0.323 OA
HETATM   12  C   UNL     1      -3.373   6.234 -32.537  1.00  0.00     0.073 A 
ENDROOT
BRANCH   1  13
HETATM   13  N   UNL     1      -4.748   1.650 -32.630  1.00  0.00    -0.301 N 
HETATM   14  C   UNL     1      -5.798   1.110 -33.337  1.00  0.00     0.264 C 
HETATM   15  O   UNL     1      -6.811   1.717 -33.669  1.00  0.00    -0.267 OA
HETATM   16  H   UNL     1      -3.957   1.058 -32.415  1.00  0.00     0.171 HD
BRANCH  14  17
HETATM   17  C   UNL     1      -5.631  -0.304 -33.683  1.00  0.00     0.074 A 
HETATM   18  C   UNL     1      -4.459  -1.042 -33.593  1.00  0.00     0.026 A 
HETATM   19  C   UNL     1      -4.625  -2.395 -34.015  1.00  0.00     0.028 A 
HETATM   20  C   UNL     1      -5.916  -2.633 -34.407  1.00  0.00     0.052 A 
HETATM   21  S   UNL     1      -6.919  -1.275 -34.275  1.00  0.00    -0.077 SA
HETATM   22 BR   UNL     1      -6.520  -4.294 -35.028  1.00  0.00    -0.043 Br
ENDBRANCH  14  17
ENDBRANCH   1  13
TORSDOF 2
ENDMDL
