MODEL 1
REMARK VINA RESULT:      -8.7      0.000      0.000
REMARK  6 active torsions:
REMARK  status: ('A' for Active; 'I' for Inactive)
REMARK    1  A    between atoms: O_2  and  C_3 
REMARK    2  A    between atoms: C_6  and  N_7 
REMARK       I    between atoms: N_7  and  C_8 
REMARK    3  A    between atoms: C_8  and  C_9 
REMARK    4  A    between atoms: C_12  and  N_13 
REMARK       I    between atoms: N_13  and  C_14 
REMARK    5  A    between atoms: C_14  and  C_15 
REMARK       I    between atoms: N_18  and  C_19 
REMARK    6  A    between atoms: C_19  and  C_20 
ROOT
HETATM    1  C   UNL     1      -0.208   7.845 -27.619  1.00  0.00     0.032 A 
HETATM    2  C   UNL     1      -0.795   8.609 -26.605  1.00  0.00     0.019 A 
HETATM    3  C   UNL     1      -0.052   8.982 -25.479  1.00  0.00     0.030 A 
HETATM    4  C   UNL     1       1.282   8.591 -25.345  1.00  0.00     0.034 A 
HETATM    5  C   UNL     1       1.868   7.832 -26.366  1.00  0.00     0.030 A 
HETATM    6  C   UNL     1       1.129   7.455 -27.492  1.00  0.00     0.019 A 
ENDROOT
BRANCH   4   7
HETATM    7  N   UNL     1       2.077   8.879 -24.215  1.00  0.00    -0.327 N 
HETATM    8  C   UNL     1       2.648  10.095 -23.877  1.00  0.00     0.226 C 
HETATM    9  O   UNL     1       2.642  11.107 -24.569  1.00  0.00    -0.273 OA
HETATM   10  H   UNL     1       2.238   8.104 -23.584  1.00  0.00     0.169 HD
BRANCH   8  11
HETATM   11  C   UNL     1       3.344  10.066 -22.510  1.00  0.00     0.081 C 
HETATM   12  C   UNL     1       3.679   8.632 -22.068  1.00  0.00     0.034 C 
HETATM   13  C   UNL     1       4.861   8.041 -22.836  1.00  0.00     0.127 C 
HETATM   14  N   UNL     1       6.023   8.931 -22.802  1.00  0.00    -0.347 N 
HETATM   15  C   UNL     1       7.328   8.439 -23.022  1.00  0.00     0.260 C 
HETATM   16  C   UNL     1       5.762  10.292 -23.257  1.00  0.00     0.127 C 
HETATM   17  O   UNL     1       8.165   9.128 -23.606  1.00  0.00    -0.267 OA
HETATM   18  C   UNL     1       4.611  10.930 -22.483  1.00  0.00     0.034 C 
BRANCH  15  19
HETATM   19  C   UNL     1       7.654   7.126 -22.480  1.00  0.00     0.072 A 
HETATM   20  S   UNL     1       8.089   6.988 -20.828  1.00  0.00    -0.097 SA
HETATM   21  C   UNL     1       8.276   5.292 -20.949  1.00  0.00     0.050 A 
HETATM   22  C   UNL     1       7.989   4.830 -22.213  1.00  0.00     0.009 A 
HETATM   23  C   UNL     1       7.614   5.886 -23.094  1.00  0.00     0.025 A 
ENDBRANCH  15  19
ENDBRANCH   8  11
ENDBRANCH   4   7
BRANCH   1  24
HETATM   24  C   UNL     1      -0.998   7.354 -28.785  1.00  0.00     0.256 C 
HETATM   25  N   UNL     1      -0.309   6.526 -29.651  1.00  0.00    -0.323 N 
HETATM   26  H   UNL     1       0.572   6.148 -29.329  1.00  0.00     0.169 HD
HETATM   27  O   UNL     1      -2.168   7.701 -28.880  1.00  0.00    -0.267 OA
BRANCH  25  28
HETATM   28  C   UNL     1      -0.699   6.145 -30.952  1.00  0.00     0.035 A 
HETATM   29  C   UNL     1      -1.342   4.943 -31.249  1.00  0.00     0.032 A 
HETATM   30  C   UNL     1      -1.783   4.669 -32.551  1.00  0.00     0.039 A 
HETATM   31  C   UNL     1      -1.585   5.598 -33.571  1.00  0.00     0.068 A 
HETATM   32  C   UNL     1      -0.913   6.786 -33.284  1.00  0.00     0.039 A 
HETATM   33  C   UNL     1      -0.479   7.063 -31.984  1.00  0.00     0.032 A 
BRANCH  31  34
HETATM   34  O   UNL     1      -1.991   5.460 -34.869  1.00  0.00    -0.356 OA
HETATM   35  C   UNL     1      -3.390   5.315 -35.080  1.00  0.00     0.210 C 
ENDBRANCH  31  34
ENDBRANCH  25  28
ENDBRANCH   1  24
TORSDOF 6
ENDMDL
MODEL 2
REMARK VINA RESULT:      -8.6      6.210     10.703
REMARK  6 active torsions:
REMARK  status: ('A' for Active; 'I' for Inactive)
REMARK    1  A    between atoms: O_2  and  C_3 
REMARK    2  A    between atoms: C_6  and  N_7 
REMARK       I    between atoms: N_7  and  C_8 
REMARK    3  A    between atoms: C_8  and  C_9 
REMARK    4  A    between atoms: C_12  and  N_13 
REMARK       I    between atoms: N_13  and  C_14 
REMARK    5  A    between atoms: C_14  and  C_15 
REMARK       I    between atoms: N_18  and  C_19 
REMARK    6  A    between atoms: C_19  and  C_20 
ROOT
HETATM    1  C   UNL     1      -6.582   2.883 -33.623  1.00  0.00     0.032 A 
HETATM    2  C   UNL     1      -5.403   2.504 -32.972  1.00  0.00     0.019 A 
HETATM    3  C   UNL     1      -4.363   3.425 -32.799  1.00  0.00     0.030 A 
HETATM    4  C   UNL     1      -4.480   4.730 -33.280  1.00  0.00     0.034 A 
HETATM    5  C   UNL     1      -5.665   5.107 -33.925  1.00  0.00     0.030 A 
HETATM    6  C   UNL     1      -6.707   4.190 -34.102  1.00  0.00     0.019 A 
ENDROOT
BRANCH   4   7
HETATM    7  N   UNL     1      -3.455   5.696 -33.195  1.00  0.00    -0.327 N 
HETATM    8  C   UNL     1      -3.441   6.840 -32.415  1.00  0.00     0.226 C 
HETATM    9  O   UNL     1      -4.376   7.260 -31.742  1.00  0.00    -0.273 OA
HETATM   10  H   UNL     1      -2.639   5.521 -33.769  1.00  0.00     0.169 HD
BRANCH   8  11
HETATM   11  C   UNL     1      -2.105   7.591 -32.483  1.00  0.00     0.081 C 
HETATM   12  C   UNL     1      -1.894   8.497 -31.260  1.00  0.00     0.034 C 
HETATM   13  C   UNL     1      -1.545   7.709 -29.997  1.00  0.00     0.127 C 
HETATM   14  N   UNL     1      -0.423   6.796 -30.226  1.00  0.00    -0.347 N 
HETATM   15  C   UNL     1       0.363   6.321 -29.154  1.00  0.00     0.260 C 
HETATM   16  C   UNL     1      -0.600   5.885 -31.350  1.00  0.00     0.127 C 
HETATM   17  O   UNL     1       0.825   5.180 -29.177  1.00  0.00    -0.267 OA
HETATM   18  C   UNL     1      -0.911   6.640 -32.640  1.00  0.00     0.034 C 
BRANCH  15  19
HETATM   19  C   UNL     1       0.651   7.247 -28.066  1.00  0.00     0.072 A 
HETATM   20  S   UNL     1      -0.039   6.964 -26.523  1.00  0.00    -0.097 SA
HETATM   21  C   UNL     1       0.727   8.339 -25.853  1.00  0.00     0.050 A 
HETATM   22  C   UNL     1       1.515   8.990 -26.773  1.00  0.00     0.009 A 
HETATM   23  C   UNL     1       1.485   8.352 -28.048  1.00  0.00     0.025 A 
ENDBRANCH  15  19
ENDBRANCH   8  11
ENDBRANCH   4   7
BRANCH   1  24
HETATM   24  C   UNL     1      -7.670   1.901 -33.904  1.00  0.00     0.256 C 
HETATM   25  N   UNL     1      -8.923   2.454 -34.089  1.00  0.00    -0.323 N 
HETATM   26  H   UNL     1      -8.972   3.454 -34.237  1.00  0.00     0.169 HD
HETATM   27  O   UNL     1      -7.379   0.713 -33.961  1.00  0.00    -0.267 OA
BRANCH  25  28
HETATM   28  C   UNL     1     -10.159   1.775 -34.092  1.00  0.00     0.035 A 
HETATM   29  C   UNL     1     -10.429   0.652 -33.308  1.00  0.00     0.032 A 
HETATM   30  C   UNL     1     -11.708   0.081 -33.292  1.00  0.00     0.039 A 
HETATM   31  C   UNL     1     -12.733   0.628 -34.062  1.00  0.00     0.068 A 
HETATM   32  C   UNL     1     -12.458   1.730 -34.872  1.00  0.00     0.039 A 
HETATM   33  C   UNL     1     -11.183   2.305 -34.883  1.00  0.00     0.032 A 
BRANCH  31  34
HETATM   34  O   UNL     1     -14.024   0.181 -34.112  1.00  0.00    -0.356 OA
HETATM   35  C   UNL     1     -15.032   1.129 -33.781  1.00  0.00     0.210 C 
ENDBRANCH  31  34
ENDBRANCH  25  28
ENDBRANCH   1  24
TORSDOF 6
ENDMDL
MODEL 3
REMARK VINA RESULT:      -8.5      7.687     15.560
REMARK  6 active torsions:
REMARK  status: ('A' for Active; 'I' for Inactive)
REMARK    1  A    between atoms: O_2  and  C_3 
REMARK    2  A    between atoms: C_6  and  N_7 
REMARK       I    between atoms: N_7  and  C_8 
REMARK    3  A    between atoms: C_8  and  C_9 
REMARK    4  A    between atoms: C_12  and  N_13 
REMARK       I    between atoms: N_13  and  C_14 
REMARK    5  A    between atoms: C_14  and  C_15 
REMARK       I    between atoms: N_18  and  C_19 
REMARK    6  A    between atoms: C_19  and  C_20 
ROOT
HETATM    1  C   UNL     1      -3.162   4.539 -32.120  1.00  0.00     0.032 A 
HETATM    2  C   UNL     1      -2.962   3.240 -31.641  1.00  0.00     0.019 A 
HETATM    3  C   UNL     1      -3.859   2.217 -31.974  1.00  0.00     0.030 A 
HETATM    4  C   UNL     1      -4.969   2.477 -32.778  1.00  0.00     0.034 A 
HETATM    5  C   UNL     1      -5.162   3.778 -33.262  1.00  0.00     0.030 A 
HETATM    6  C   UNL     1      -4.270   4.804 -32.931  1.00  0.00     0.019 A 
ENDROOT
BRANCH   4   7
HETATM    7  N   UNL     1      -5.946   1.514 -33.109  1.00  0.00    -0.327 N 
HETATM    8  C   UNL     1      -6.928   0.996 -32.282  1.00  0.00     0.226 C 
HETATM    9  O   UNL     1      -7.043   1.214 -31.080  1.00  0.00    -0.273 OA
HETATM   10  H   UNL     1      -5.921   1.174 -34.062  1.00  0.00     0.169 HD
BRANCH   8  11
HETATM   11  C   UNL     1      -7.895   0.060 -33.019  1.00  0.00     0.081 C 
HETATM   12  C   UNL     1      -9.248  -0.049 -32.300  1.00  0.00     0.034 C 
HETATM   13  C   UNL     1     -10.109   1.203 -32.474  1.00  0.00     0.127 C 
HETATM   14  N   UNL     1     -10.245   1.569 -33.886  1.00  0.00    -0.347 N 
HETATM   15  C   UNL     1     -11.319   2.367 -34.333  1.00  0.00     0.260 C 
HETATM   16  C   UNL     1      -8.983   1.728 -34.598  1.00  0.00     0.127 C 
HETATM   17  O   UNL     1     -11.158   3.175 -35.249  1.00  0.00    -0.267 OA
HETATM   18  C   UNL     1      -8.112   0.480 -34.479  1.00  0.00     0.034 C 
BRANCH  15  19
HETATM   19  C   UNL     1     -12.623   2.152 -33.717  1.00  0.00     0.072 A 
HETATM   20  S   UNL     1     -13.242   3.330 -32.637  1.00  0.00    -0.097 SA
HETATM   21  C   UNL     1     -14.684   2.445 -32.390  1.00  0.00     0.050 A 
HETATM   22  C   UNL     1     -14.712   1.286 -33.133  1.00  0.00     0.009 A 
HETATM   23  C   UNL     1     -13.529   1.124 -33.911  1.00  0.00     0.025 A 
ENDBRANCH  15  19
ENDBRANCH   8  11
ENDBRANCH   4   7
BRANCH   1  24
HETATM   24  C   UNL     1      -2.278   5.668 -31.709  1.00  0.00     0.256 C 
HETATM   25  N   UNL     1      -1.801   5.596 -30.413  1.00  0.00    -0.323 N 
HETATM   26  H   UNL     1      -1.897   4.710 -29.933  1.00  0.00     0.169 HD
HETATM   27  O   UNL     1      -2.039   6.545 -32.529  1.00  0.00    -0.267 OA
BRANCH  25  28
HETATM   28  C   UNL     1      -1.191   6.630 -29.675  1.00  0.00     0.035 A 
HETATM   29  C   UNL     1      -1.866   7.765 -29.224  1.00  0.00     0.032 A 
HETATM   30  C   UNL     1      -1.219   8.710 -28.417  1.00  0.00     0.039 A 
HETATM   31  C   UNL     1       0.113   8.528 -28.050  1.00  0.00     0.068 A 
HETATM   32  C   UNL     1       0.800   7.412 -28.526  1.00  0.00     0.039 A 
HETATM   33  C   UNL     1       0.153   6.465 -29.327  1.00  0.00     0.032 A 
BRANCH  31  34
HETATM   34  O   UNL     1       0.845   9.360 -27.249  1.00  0.00    -0.356 OA
HETATM   35  C   UNL     1       1.905   8.758 -26.516  1.00  0.00     0.210 C 
ENDBRANCH  31  34
ENDBRANCH  25  28
ENDBRANCH   1  24
TORSDOF 6
ENDMDL
MODEL 4
REMARK VINA RESULT:      -8.5      6.022     10.177
REMARK  6 active torsions:
REMARK  status: ('A' for Active; 'I' for Inactive)
REMARK    1  A    between atoms: O_2  and  C_3 
REMARK    2  A    between atoms: C_6  and  N_7 
REMARK       I    between atoms: N_7  and  C_8 
REMARK    3  A    between atoms: C_8  and  C_9 
REMARK    4  A    between atoms: C_12  and  N_13 
REMARK       I    between atoms: N_13  and  C_14 
REMARK    5  A    between atoms: C_14  and  C_15 
REMARK       I    between atoms: N_18  and  C_19 
REMARK    6  A    between atoms: C_19  and  C_20 
ROOT
HETATM    1  C   UNL     1      -5.799   3.436 -33.443  1.00  0.00     0.032 A 
HETATM    2  C   UNL     1      -5.333   4.494 -34.232  1.00  0.00     0.019 A 
HETATM    3  C   UNL     1      -4.332   5.347 -33.752  1.00  0.00     0.030 A 
HETATM    4  C   UNL     1      -3.790   5.163 -32.479  1.00  0.00     0.034 A 
HETATM    5  C   UNL     1      -4.254   4.098 -31.695  1.00  0.00     0.030 A 
HETATM    6  C   UNL     1      -5.256   3.244 -32.169  1.00  0.00     0.019 A 
ENDROOT
BRANCH   4   7
HETATM    7  N   UNL     1      -2.821   6.013 -31.905  1.00  0.00    -0.327 N 
HETATM    8  C   UNL     1      -1.463   5.773 -31.774  1.00  0.00     0.226 C 
HETATM    9  O   UNL     1      -0.892   4.722 -32.044  1.00  0.00    -0.273 OA
HETATM   10  H   UNL     1      -3.166   6.900 -31.557  1.00  0.00     0.169 HD
BRANCH   8  11
HETATM   11  C   UNL     1      -0.697   6.978 -31.213  1.00  0.00     0.081 C 
HETATM   12  C   UNL     1      -1.611   7.914 -30.407  1.00  0.00     0.034 C 
HETATM   13  C   UNL     1      -1.984   7.339 -29.040  1.00  0.00     0.127 C 
HETATM   14  N   UNL     1      -0.796   6.924 -28.291  1.00  0.00    -0.347 N 
HETATM   15  C   UNL     1      -0.824   6.803 -26.885  1.00  0.00     0.260 C 
HETATM   16  C   UNL     1       0.079   5.998 -29.001  1.00  0.00     0.127 C 
HETATM   17  O   UNL     1      -0.169   5.926 -26.320  1.00  0.00    -0.267 OA
HETATM   18  C   UNL     1       0.504   6.556 -30.356  1.00  0.00     0.034 C 
BRANCH  15  19
HETATM   19  C   UNL     1      -1.601   7.784 -26.138  1.00  0.00     0.072 A 
HETATM   20  S   UNL     1      -1.063   9.410 -26.084  1.00  0.00    -0.097 SA
HETATM   21  C   UNL     1      -2.399   9.892 -25.132  1.00  0.00     0.050 A 
HETATM   22  C   UNL     1      -3.257   8.846 -24.878  1.00  0.00     0.009 A 
HETATM   23  C   UNL     1      -2.805   7.631 -25.472  1.00  0.00     0.025 A 
ENDBRANCH  15  19
ENDBRANCH   8  11
ENDBRANCH   4   7
BRANCH   1  24
HETATM   24  C   UNL     1      -6.928   2.568 -33.887  1.00  0.00     0.256 C 
HETATM   25  N   UNL     1      -8.172   2.934 -33.407  1.00  0.00    -0.323 N 
HETATM   26  H   UNL     1      -8.256   3.853 -32.992  1.00  0.00     0.169 HD
HETATM   27  O   UNL     1      -6.679   1.629 -34.632  1.00  0.00    -0.267 OA
BRANCH  25  28
HETATM   28  C   UNL     1      -9.351   2.162 -33.428  1.00  0.00     0.035 A 
HETATM   29  C   UNL     1     -10.503   2.522 -34.129  1.00  0.00     0.032 A 
HETATM   30  C   UNL     1     -11.608   1.663 -34.181  1.00  0.00     0.039 A 
HETATM   31  C   UNL     1     -11.572   0.430 -33.531  1.00  0.00     0.068 A 
HETATM   32  C   UNL     1     -10.435   0.081 -32.803  1.00  0.00     0.039 A 
HETATM   33  C   UNL     1      -9.329   0.936 -32.756  1.00  0.00     0.032 A 
BRANCH  31  34
HETATM   34  O   UNL     1     -12.570  -0.504 -33.529  1.00  0.00    -0.356 OA
HETATM   35  C   UNL     1     -13.897  -0.008 -33.662  1.00  0.00     0.210 C 
ENDBRANCH  31  34
ENDBRANCH  25  28
ENDBRANCH   1  24
TORSDOF 6
ENDMDL
MODEL 5
REMARK VINA RESULT:      -8.5      4.181     12.073
REMARK  6 active torsions:
REMARK  status: ('A' for Active; 'I' for Inactive)
REMARK    1  A    between atoms: O_2  and  C_3 
REMARK    2  A    between atoms: C_6  and  N_7 
REMARK       I    between atoms: N_7  and  C_8 
REMARK    3  A    between atoms: C_8  and  C_9 
REMARK    4  A    between atoms: C_12  and  N_13 
REMARK       I    between atoms: N_13  and  C_14 
REMARK    5  A    between atoms: C_14  and  C_15 
REMARK       I    between atoms: N_18  and  C_19 
REMARK    6  A    between atoms: C_19  and  C_20 
ROOT
HETATM    1  C   UNL     1       0.777   8.457 -26.274  1.00  0.00     0.032 A 
HETATM    2  C   UNL     1      -0.575   8.098 -26.257  1.00  0.00     0.019 A 
HETATM    3  C   UNL     1      -1.206   7.666 -27.430  1.00  0.00     0.030 A 
HETATM    4  C   UNL     1      -0.503   7.596 -28.634  1.00  0.00     0.034 A 
HETATM    5  C   UNL     1       0.853   7.951 -28.644  1.00  0.00     0.030 A 
HETATM    6  C   UNL     1       1.488   8.385 -27.475  1.00  0.00     0.019 A 
ENDROOT
BRANCH   4   7
HETATM    7  N   UNL     1      -1.083   7.227 -29.866  1.00  0.00    -0.327 N 
HETATM    8  C   UNL     1      -0.983   6.004 -30.509  1.00  0.00     0.226 C 
HETATM    9  O   UNL     1      -0.276   5.066 -30.158  1.00  0.00    -0.273 OA
HETATM   10  H   UNL     1      -1.639   7.941 -30.320  1.00  0.00     0.169 HD
BRANCH   8  11
HETATM   11  C   UNL     1      -1.852   5.923 -31.771  1.00  0.00     0.081 C 
HETATM   12  C   UNL     1      -1.906   4.495 -32.337  1.00  0.00     0.034 C 
HETATM   13  C   UNL     1      -2.788   3.565 -31.504  1.00  0.00     0.127 C 
HETATM   14  N   UNL     1      -4.118   4.139 -31.284  1.00  0.00    -0.347 N 
HETATM   15  C   UNL     1      -5.223   3.322 -30.963  1.00  0.00     0.260 C 
HETATM   16  C   UNL     1      -4.115   5.477 -30.704  1.00  0.00     0.127 C 
HETATM   17  O   UNL     1      -6.099   3.729 -30.199  1.00  0.00    -0.267 OA
HETATM   18  C   UNL     1      -3.274   6.445 -31.533  1.00  0.00     0.034 C 
BRANCH  15  19
HETATM   19  C   UNL     1      -5.312   2.022 -31.615  1.00  0.00     0.072 A 
HETATM   20  S   UNL     1      -5.160   0.601 -30.669  1.00  0.00    -0.097 SA
HETATM   21  C   UNL     1      -5.386  -0.411 -32.029  1.00  0.00     0.050 A 
HETATM   22  C   UNL     1      -5.601   0.312 -33.181  1.00  0.00     0.009 A 
HETATM   23  C   UNL     1      -5.573   1.717 -32.940  1.00  0.00     0.025 A 
ENDBRANCH  15  19
ENDBRANCH   8  11
ENDBRANCH   4   7
BRANCH   1  24
HETATM   24  C   UNL     1       1.454   9.009 -25.064  1.00  0.00     0.256 C 
HETATM   25  N   UNL     1       2.789   8.675 -24.938  1.00  0.00    -0.323 N 
HETATM   26  H   UNL     1       3.249   8.287 -25.751  1.00  0.00     0.169 HD
HETATM   27  O   UNL     1       0.798   9.705 -24.300  1.00  0.00    -0.267 OA
BRANCH  25  28
HETATM   28  C   UNL     1       3.593   8.813 -23.788  1.00  0.00     0.035 A 
HETATM   29  C   UNL     1       3.319   8.191 -22.569  1.00  0.00     0.032 A 
HETATM   30  C   UNL     1       4.210   8.298 -21.493  1.00  0.00     0.039 A 
HETATM   31  C   UNL     1       5.389   9.030 -21.626  1.00  0.00     0.068 A 
HETATM   32  C   UNL     1       5.650   9.681 -22.832  1.00  0.00     0.039 A 
HETATM   33  C   UNL     1       4.764   9.569 -23.908  1.00  0.00     0.032 A 
BRANCH  31  34
HETATM   34  O   UNL     1       6.347   9.188 -20.664  1.00  0.00    -0.356 OA
HETATM   35  C   UNL     1       6.440   8.152 -19.693  1.00  0.00     0.210 C 
ENDBRANCH  31  34
ENDBRANCH  25  28
ENDBRANCH   1  24
TORSDOF 6
ENDMDL
MODEL 6
REMARK VINA RESULT:      -8.1      5.954     10.363
REMARK  6 active torsions:
REMARK  status: ('A' for Active; 'I' for Inactive)
REMARK    1  A    between atoms: O_2  and  C_3 
REMARK    2  A    between atoms: C_6  and  N_7 
REMARK       I    between atoms: N_7  and  C_8 
REMARK    3  A    between atoms: C_8  and  C_9 
REMARK    4  A    between atoms: C_12  and  N_13 
REMARK       I    between atoms: N_13  and  C_14 
REMARK    5  A    between atoms: C_14  and  C_15 
REMARK       I    between atoms: N_18  and  C_19 
REMARK    6  A    between atoms: C_19  and  C_20 
ROOT
HETATM    1  C   UNL     1      -6.931   4.938 -33.577  1.00  0.00     0.032 A 
HETATM    2  C   UNL     1      -5.863   4.283 -34.199  1.00  0.00     0.019 A 
HETATM    3  C   UNL     1      -4.543   4.611 -33.868  1.00  0.00     0.030 A 
HETATM    4  C   UNL     1      -4.270   5.601 -32.923  1.00  0.00     0.034 A 
HETATM    5  C   UNL     1      -5.343   6.250 -32.298  1.00  0.00     0.030 A 
HETATM    6  C   UNL     1      -6.664   5.928 -32.626  1.00  0.00     0.019 A 
ENDROOT
BRANCH   4   7
HETATM    7  N   UNL     1      -2.969   6.027 -32.580  1.00  0.00    -0.327 N 
HETATM    8  C   UNL     1      -1.927   5.247 -32.107  1.00  0.00     0.226 C 
HETATM    9  O   UNL     1      -2.000   4.061 -31.803  1.00  0.00    -0.273 OA
HETATM   10  H   UNL     1      -2.784   7.015 -32.704  1.00  0.00     0.169 HD
BRANCH   8  11
HETATM   11  C   UNL     1      -0.616   6.030 -31.961  1.00  0.00     0.081 C 
HETATM   12  C   UNL     1      -0.853   7.448 -31.418  1.00  0.00     0.034 C 
HETATM   13  C   UNL     1      -1.186   7.459 -29.926  1.00  0.00     0.127 C 
HETATM   14  N   UNL     1      -0.194   6.713 -29.148  1.00  0.00    -0.347 N 
HETATM   15  C   UNL     1      -0.017   6.952 -27.769  1.00  0.00     0.260 C 
HETATM   16  C   UNL     1       0.030   5.345 -29.600  1.00  0.00     0.127 C 
HETATM   17  O   UNL     1       0.270   6.028 -27.007  1.00  0.00    -0.267 OA
HETATM   18  C   UNL     1       0.404   5.298 -31.079  1.00  0.00     0.034 C 
BRANCH  15  19
HETATM   19  C   UNL     1      -0.124   8.328 -27.303  1.00  0.00     0.072 A 
HETATM   20  S   UNL     1      -1.534   8.819 -26.462  1.00  0.00    -0.097 SA
HETATM   21  C   UNL     1      -0.935  10.407 -26.248  1.00  0.00     0.050 A 
HETATM   22  C   UNL     1       0.324  10.561 -26.780  1.00  0.00     0.009 A 
HETATM   23  C   UNL     1       0.801   9.357 -27.376  1.00  0.00     0.025 A 
ENDBRANCH  15  19
ENDBRANCH   8  11
ENDBRANCH   4   7
BRANCH   1  24
HETATM   24  C   UNL     1      -8.345   4.677 -33.974  1.00  0.00     0.256 C 
HETATM   25  N   UNL     1      -8.885   3.505 -33.479  1.00  0.00    -0.323 N 
HETATM   26  H   UNL     1      -8.381   3.041 -32.734  1.00  0.00     0.169 HD
HETATM   27  O   UNL     1      -8.911   5.503 -34.679  1.00  0.00    -0.267 OA
BRANCH  25  28
HETATM   28  C   UNL     1     -10.071   2.872 -33.902  1.00  0.00     0.035 A 
HETATM   29  C   UNL     1     -10.450   1.588 -33.505  1.00  0.00     0.032 A 
HETATM   30  C   UNL     1     -11.688   1.056 -33.891  1.00  0.00     0.039 A 
HETATM   31  C   UNL     1     -12.562   1.804 -34.679  1.00  0.00     0.068 A 
HETATM   32  C   UNL     1     -12.171   3.073 -35.104  1.00  0.00     0.039 A 
HETATM   33  C   UNL     1     -10.939   3.608 -34.714  1.00  0.00     0.032 A 
BRANCH  31  34
HETATM   34  O   UNL     1     -13.801   1.409 -35.096  1.00  0.00    -0.356 OA
HETATM   35  C   UNL     1     -14.677   0.914 -34.090  1.00  0.00     0.210 C 
ENDBRANCH  31  34
ENDBRANCH  25  28
ENDBRANCH   1  24
TORSDOF 6
ENDMDL
MODEL 7
REMARK VINA RESULT:      -8.0      6.029     13.566
REMARK  6 active torsions:
REMARK  status: ('A' for Active; 'I' for Inactive)
REMARK    1  A    between atoms: O_2  and  C_3 
REMARK    2  A    between atoms: C_6  and  N_7 
REMARK       I    between atoms: N_7  and  C_8 
REMARK    3  A    between atoms: C_8  and  C_9 
REMARK    4  A    between atoms: C_12  and  N_13 
REMARK       I    between atoms: N_13  and  C_14 
REMARK    5  A    between atoms: C_14  and  C_15 
REMARK       I    between atoms: N_18  and  C_19 
REMARK    6  A    between atoms: C_19  and  C_20 
ROOT
HETATM    1  C   UNL     1      -3.106   7.187 -30.511  1.00  0.00     0.032 A 
HETATM    2  C   UNL     1      -2.805   5.888 -30.933  1.00  0.00     0.019 A 
HETATM    3  C   UNL     1      -3.812   5.059 -31.441  1.00  0.00     0.030 A 
HETATM    4  C   UNL     1      -5.131   5.509 -31.525  1.00  0.00     0.034 A 
HETATM    5  C   UNL     1      -5.426   6.814 -31.108  1.00  0.00     0.030 A 
HETATM    6  C   UNL     1      -4.424   7.646 -30.597  1.00  0.00     0.019 A 
ENDROOT
BRANCH   4   7
HETATM    7  N   UNL     1      -6.208   4.714 -31.971  1.00  0.00    -0.327 N 
HETATM    8  C   UNL     1      -6.572   4.449 -33.281  1.00  0.00     0.226 C 
HETATM    9  O   UNL     1      -6.073   4.956 -34.280  1.00  0.00    -0.273 OA
HETATM   10  H   UNL     1      -6.769   4.289 -31.243  1.00  0.00     0.169 HD
BRANCH   8  11
HETATM   11  C   UNL     1      -7.722   3.439 -33.387  1.00  0.00     0.081 C 
HETATM   12  C   UNL     1      -7.456   2.379 -34.467  1.00  0.00     0.034 C 
HETATM   13  C   UNL     1      -6.410   1.351 -34.037  1.00  0.00     0.127 C 
HETATM   14  N   UNL     1      -6.737   0.764 -32.735  1.00  0.00    -0.347 N 
HETATM   15  C   UNL     1      -6.214  -0.488 -32.345  1.00  0.00     0.260 C 
HETATM   16  C   UNL     1      -6.953   1.734 -31.668  1.00  0.00     0.127 C 
HETATM   17  O   UNL     1      -5.926  -0.705 -31.168  1.00  0.00    -0.267 OA
HETATM   18  C   UNL     1      -8.022   2.756 -32.047  1.00  0.00     0.034 C 
BRANCH  15  19
HETATM   19  C   UNL     1      -6.091  -1.516 -33.370  1.00  0.00     0.072 A 
HETATM   20  S   UNL     1      -4.534  -2.095 -33.792  1.00  0.00    -0.097 SA
HETATM   21  C   UNL     1      -5.178  -3.197 -34.931  1.00  0.00     0.050 A 
HETATM   22  C   UNL     1      -6.552  -3.150 -34.976  1.00  0.00     0.009 A 
HETATM   23  C   UNL     1      -7.082  -2.191 -34.064  1.00  0.00     0.025 A 
ENDBRANCH  15  19
ENDBRANCH   8  11
ENDBRANCH   4   7
BRANCH   1  24
HETATM   24  C   UNL     1      -2.075   8.062 -29.880  1.00  0.00     0.256 C 
HETATM   25  N   UNL     1      -1.331   7.462 -28.881  1.00  0.00    -0.323 N 
HETATM   26  H   UNL     1      -1.381   6.454 -28.807  1.00  0.00     0.169 HD
HETATM   27  O   UNL     1      -1.959   9.210 -30.289  1.00  0.00    -0.267 OA
BRANCH  25  28
HETATM   28  C   UNL     1      -0.500   8.104 -27.940  1.00  0.00     0.035 A 
HETATM   29  C   UNL     1      -0.947   8.577 -26.705  1.00  0.00     0.032 A 
HETATM   30  C   UNL     1      -0.049   9.123 -25.779  1.00  0.00     0.039 A 
HETATM   31  C   UNL     1       1.310   9.202 -26.080  1.00  0.00     0.068 A 
HETATM   32  C   UNL     1       1.755   8.762 -27.326  1.00  0.00     0.039 A 
HETATM   33  C   UNL     1       0.860   8.210 -28.248  1.00  0.00     0.032 A 
BRANCH  31  34
HETATM   34  O   UNL     1       2.286   9.687 -25.255  1.00  0.00    -0.356 OA
HETATM   35  C   UNL     1       2.809   8.777 -24.294  1.00  0.00     0.210 C 
ENDBRANCH  31  34
ENDBRANCH  25  28
ENDBRANCH   1  24
TORSDOF 6
ENDMDL
MODEL 8
REMARK VINA RESULT:      -7.4      5.735      9.588
REMARK  6 active torsions:
REMARK  status: ('A' for Active; 'I' for Inactive)
REMARK    1  A    between atoms: O_2  and  C_3 
REMARK    2  A    between atoms: C_6  and  N_7 
REMARK       I    between atoms: N_7  and  C_8 
REMARK    3  A    between atoms: C_8  and  C_9 
REMARK    4  A    between atoms: C_12  and  N_13 
REMARK       I    between atoms: N_13  and  C_14 
REMARK    5  A    between atoms: C_14  and  C_15 
REMARK       I    between atoms: N_18  and  C_19 
REMARK    6  A    between atoms: C_19  and  C_20 
ROOT
HETATM    1  C   UNL     1      -5.525   2.938 -31.966  1.00  0.00     0.032 A 
HETATM    2  C   UNL     1      -4.993   4.181 -32.325  1.00  0.00     0.019 A 
HETATM    3  C   UNL     1      -4.799   5.174 -31.357  1.00  0.00     0.030 A 
HETATM    4  C   UNL     1      -5.140   4.945 -30.023  1.00  0.00     0.034 A 
HETATM    5  C   UNL     1      -5.667   3.696 -29.667  1.00  0.00     0.030 A 
HETATM    6  C   UNL     1      -5.865   2.701 -30.631  1.00  0.00     0.019 A 
ENDROOT
BRANCH   4   7
HETATM    7  N   UNL     1      -5.028   5.913 -29.003  1.00  0.00    -0.327 N 
HETATM    8  C   UNL     1      -5.918   6.934 -28.711  1.00  0.00     0.226 C 
HETATM    9  O   UNL     1      -6.910   7.230 -29.369  1.00  0.00    -0.273 OA
HETATM   10  H   UNL     1      -4.203   5.842 -28.420  1.00  0.00     0.169 HD
BRANCH   8  11
HETATM   11  C   UNL     1      -5.532   7.718 -27.451  1.00  0.00     0.081 C 
HETATM   12  C   UNL     1      -4.292   7.125 -26.765  1.00  0.00     0.034 C 
HETATM   13  C   UNL     1      -2.998   7.432 -27.520  1.00  0.00     0.127 C 
HETATM   14  N   UNL     1      -2.863   8.865 -27.795  1.00  0.00    -0.347 N 
HETATM   15  C   UNL     1      -1.602   9.445 -28.049  1.00  0.00     0.260 C 
HETATM   16  C   UNL     1      -4.000   9.461 -28.487  1.00  0.00     0.127 C 
HETATM   17  O   UNL     1      -1.493  10.374 -28.850  1.00  0.00    -0.267 OA
HETATM   18  C   UNL     1      -5.307   9.208 -27.739  1.00  0.00     0.034 C 
BRANCH  15  19
HETATM   19  C   UNL     1      -0.464   8.945 -27.290  1.00  0.00     0.072 A 
HETATM   20  S   UNL     1       0.734   8.016 -28.090  1.00  0.00    -0.097 SA
HETATM   21  C   UNL     1       1.657   7.850 -26.661  1.00  0.00     0.050 A 
HETATM   22  C   UNL     1       1.085   8.508 -25.596  1.00  0.00     0.009 A 
HETATM   23  C   UNL     1      -0.132   9.154 -25.961  1.00  0.00     0.025 A 
ENDBRANCH  15  19
ENDBRANCH   8  11
ENDBRANCH   4   7
BRANCH   1  24
HETATM   24  C   UNL     1      -5.830   1.894 -32.987  1.00  0.00     0.256 C 
HETATM   25  N   UNL     1      -5.757   0.591 -32.531  1.00  0.00    -0.323 N 
HETATM   26  H   UNL     1      -5.724   0.452 -31.530  1.00  0.00     0.169 HD
HETATM   27  O   UNL     1      -6.125   2.258 -34.118  1.00  0.00    -0.267 OA
BRANCH  25  28
HETATM   28  C   UNL     1      -5.719  -0.581 -33.314  1.00  0.00     0.035 A 
HETATM   29  C   UNL     1      -4.553  -1.301 -33.578  1.00  0.00     0.032 A 
HETATM   30  C   UNL     1      -4.602  -2.508 -34.288  1.00  0.00     0.039 A 
HETATM   31  C   UNL     1      -5.821  -3.009 -34.742  1.00  0.00     0.068 A 
HETATM   32  C   UNL     1      -6.984  -2.274 -34.509  1.00  0.00     0.039 A 
HETATM   33  C   UNL     1      -6.936  -1.073 -33.795  1.00  0.00     0.032 A 
BRANCH  31  34
HETATM   34  O   UNL     1      -6.003  -4.182 -35.420  1.00  0.00    -0.356 OA
HETATM   35  C   UNL     1      -5.241  -5.295 -34.967  1.00  0.00     0.210 C 
ENDBRANCH  31  34
ENDBRANCH  25  28
ENDBRANCH   1  24
TORSDOF 6
ENDMDL
MODEL 9
REMARK VINA RESULT:      -7.4      6.735     14.392
REMARK  6 active torsions:
REMARK  status: ('A' for Active; 'I' for Inactive)
REMARK    1  A    between atoms: O_2  and  C_3 
REMARK    2  A    between atoms: C_6  and  N_7 
REMARK       I    between atoms: N_7  and  C_8 
REMARK    3  A    between atoms: C_8  and  C_9 
REMARK    4  A    between atoms: C_12  and  N_13 
REMARK       I    between atoms: N_13  and  C_14 
REMARK    5  A    between atoms: C_14  and  C_15 
REMARK       I    between atoms: N_18  and  C_19 
REMARK    6  A    between atoms: C_19  and  C_20 
ROOT
HETATM    1  C   UNL     1      -1.990   5.556 -31.164  1.00  0.00     0.032 A 
HETATM    2  C   UNL     1      -1.724   4.569 -32.119  1.00  0.00     0.019 A 
HETATM    3  C   UNL     1      -2.763   3.784 -32.633  1.00  0.00     0.030 A 
HETATM    4  C   UNL     1      -4.076   3.965 -32.195  1.00  0.00     0.034 A 
HETATM    5  C   UNL     1      -4.339   4.960 -31.244  1.00  0.00     0.030 A 
HETATM    6  C   UNL     1      -3.303   5.746 -30.726  1.00  0.00     0.019 A 
ENDROOT
BRANCH   4   7
HETATM    7  N   UNL     1      -5.165   3.176 -32.622  1.00  0.00    -0.327 N 
HETATM    8  C   UNL     1      -6.032   2.440 -31.831  1.00  0.00     0.226 C 
HETATM    9  O   UNL     1      -5.926   2.268 -30.621  1.00  0.00    -0.273 OA
HETATM   10  H   UNL     1      -5.328   3.157 -33.622  1.00  0.00     0.169 HD
BRANCH   8  11
HETATM   11  C   UNL     1      -7.177   1.807 -32.631  1.00  0.00     0.081 C 
HETATM   12  C   UNL     1      -8.446   1.640 -31.781  1.00  0.00     0.034 C 
HETATM   13  C   UNL     1      -9.168   2.965 -31.535  1.00  0.00     0.127 C 
HETATM   14  N   UNL     1      -9.414   3.683 -32.787  1.00  0.00    -0.347 N 
HETATM   15  C   UNL     1     -10.430   4.659 -32.883  1.00  0.00     0.260 C 
HETATM   16  C   UNL     1      -8.228   3.905 -33.606  1.00  0.00     0.127 C 
HETATM   17  O   UNL     1     -10.276   5.653 -33.593  1.00  0.00    -0.267 OA
HETATM   18  C   UNL     1      -7.502   2.596 -33.906  1.00  0.00     0.034 C 
BRANCH  15  19
HETATM   19  C   UNL     1     -11.673   4.411 -32.164  1.00  0.00     0.072 A 
HETATM   20  S   UNL     1     -12.004   5.297 -30.735  1.00  0.00    -0.097 SA
HETATM   21  C   UNL     1     -13.516   4.525 -30.525  1.00  0.00     0.050 A 
HETATM   22  C   UNL     1     -13.782   3.628 -31.534  1.00  0.00     0.009 A 
HETATM   23  C   UNL     1     -12.726   3.572 -32.490  1.00  0.00     0.025 A 
ENDBRANCH  15  19
ENDBRANCH   8  11
ENDBRANCH   4   7
BRANCH   1  24
HETATM   24  C   UNL     1      -0.894   6.345 -30.530  1.00  0.00     0.256 C 
HETATM   25  N   UNL     1      -0.975   6.459 -29.155  1.00  0.00    -0.323 N 
HETATM   26  H   UNL     1      -1.616   5.840 -28.676  1.00  0.00     0.169 HD
HETATM   27  O   UNL     1      -0.022   6.811 -31.253  1.00  0.00    -0.267 OA
BRANCH  25  28
HETATM   28  C   UNL     1      -0.259   7.354 -28.334  1.00  0.00     0.035 A 
HETATM   29  C   UNL     1      -0.605   8.695 -28.161  1.00  0.00     0.032 A 
HETATM   30  C   UNL     1       0.096   9.505 -27.258  1.00  0.00     0.039 A 
HETATM   31  C   UNL     1       1.154   8.980 -26.517  1.00  0.00     0.068 A 
HETATM   32  C   UNL     1       1.524   7.650 -26.712  1.00  0.00     0.039 A 
HETATM   33  C   UNL     1       0.819   6.839 -27.608  1.00  0.00     0.032 A 
BRANCH  31  34
HETATM   34  O   UNL     1       1.896   9.657 -25.590  1.00  0.00    -0.356 OA
HETATM   35  C   UNL     1       2.716   8.865 -24.738  1.00  0.00     0.210 C 
ENDBRANCH  31  34
ENDBRANCH  25  28
ENDBRANCH   1  24
TORSDOF 6
ENDMDL
MODEL 10
REMARK VINA RESULT:      -7.4     14.591     16.864
REMARK  6 active torsions:
REMARK  status: ('A' for Active; 'I' for Inactive)
REMARK    1  A    between atoms: O_2  and  C_3 
REMARK    2  A    between atoms: C_6  and  N_7 
REMARK       I    between atoms: N_7  and  C_8 
REMARK    3  A    between atoms: C_8  and  C_9 
REMARK    4  A    between atoms: C_12  and  N_13 
REMARK       I    between atoms: N_13  and  C_14 
REMARK    5  A    between atoms: C_14  and  C_15 
REMARK       I    between atoms: N_18  and  C_19 
REMARK    6  A    between atoms: C_19  and  C_20 
ROOT
HETATM    1  C   UNL     1      -8.822   1.672 -32.233  1.00  0.00     0.032 A 
HETATM    2  C   UNL     1      -9.765   1.703 -33.266  1.00  0.00     0.019 A 
HETATM    3  C   UNL     1     -10.872   2.557 -33.188  1.00  0.00     0.030 A 
HETATM    4  C   UNL     1     -11.058   3.382 -32.078  1.00  0.00     0.034 A 
HETATM    5  C   UNL     1     -10.107   3.353 -31.049  1.00  0.00     0.030 A 
HETATM    6  C   UNL     1      -9.001   2.500 -31.120  1.00  0.00     0.019 A 
ENDROOT
BRANCH   4   7
HETATM    7  N   UNL     1     -12.175   4.225 -31.901  1.00  0.00    -0.327 N 
HETATM    8  C   UNL     1     -12.249   5.587 -32.148  1.00  0.00     0.226 C 
HETATM    9  O   UNL     1     -11.309   6.309 -32.464  1.00  0.00    -0.273 OA
HETATM   10  H   UNL     1     -13.016   3.774 -31.561  1.00  0.00     0.169 HD
BRANCH   8  11
HETATM   11  C   UNL     1     -13.663   6.150 -31.961  1.00  0.00     0.081 C 
HETATM   12  C   UNL     1     -14.483   5.321 -30.961  1.00  0.00     0.034 C 
HETATM   13  C   UNL     1     -14.051   5.551 -29.512  1.00  0.00     0.127 C 
HETATM   14  N   UNL     1     -14.026   6.977 -29.180  1.00  0.00    -0.347 N 
HETATM   15  C   UNL     1     -14.113   7.418 -27.842  1.00  0.00     0.260 C 
HETATM   16  C   UNL     1     -13.221   7.798 -30.078  1.00  0.00     0.127 C 
HETATM   17  O   UNL     1     -13.498   8.419 -27.473  1.00  0.00    -0.267 OA
HETATM   18  C   UNL     1     -13.651   7.623 -31.532  1.00  0.00     0.034 C 
BRANCH  15  19
HETATM   19  C   UNL     1     -14.998   6.684 -26.946  1.00  0.00     0.072 A 
HETATM   20  S   UNL     1     -16.691   6.744 -27.210  1.00  0.00    -0.097 SA
HETATM   21  C   UNL     1     -17.001   5.706 -25.886  1.00  0.00     0.050 A 
HETATM   22  C   UNL     1     -15.843   5.297 -25.267  1.00  0.00     0.009 A 
HETATM   23  C   UNL     1     -14.684   5.849 -25.888  1.00  0.00     0.025 A 
ENDBRANCH  15  19
ENDBRANCH   8  11
ENDBRANCH   4   7
BRANCH   1  24
HETATM   24  C   UNL     1      -7.684   0.708 -32.242  1.00  0.00     0.256 C 
HETATM   25  N   UNL     1      -7.256   0.320 -33.499  1.00  0.00    -0.323 N 
HETATM   26  H   UNL     1      -7.582   0.864 -34.287  1.00  0.00     0.169 HD
HETATM   27  O   UNL     1      -7.218   0.350 -31.168  1.00  0.00    -0.267 OA
BRANCH  25  28
HETATM   28  C   UNL     1      -6.410  -0.764 -33.810  1.00  0.00     0.035 A 
HETATM   29  C   UNL     1      -5.047  -0.795 -33.512  1.00  0.00     0.032 A 
HETATM   30  C   UNL     1      -4.284  -1.943 -33.768  1.00  0.00     0.039 A 
HETATM   31  C   UNL     1      -4.879  -3.074 -34.325  1.00  0.00     0.068 A 
HETATM   32  C   UNL     1      -6.233  -3.034 -34.655  1.00  0.00     0.039 A 
HETATM   33  C   UNL     1      -6.997  -1.891 -34.393  1.00  0.00     0.032 A 
BRANCH  31  34
HETATM   34  O   UNL     1      -4.251  -4.257 -34.597  1.00  0.00    -0.356 OA
HETATM   35  C   UNL     1      -3.485  -4.821 -33.538  1.00  0.00     0.210 C 
ENDBRANCH  31  34
ENDBRANCH  25  28
ENDBRANCH   1  24
TORSDOF 6
ENDMDL
