MODEL 1
REMARK VINA RESULT:      -9.2      0.000      0.000
REMARK  3 active torsions:
REMARK  status: ('A' for Active; 'I' for Inactive)
REMARK    1  A    between atoms: C_6  and  O_7 
REMARK    2  A    between atoms: O_7  and  C_8 
REMARK       I    between atoms: N_10  and  C_11 
REMARK       I    between atoms: C_11  and  N_12 
REMARK    3  A    between atoms: N_12  and  C_13 
ROOT
HETATM    1  C   UNL     1      -5.285   0.248 -32.926  1.00  0.00     0.148 C 
HETATM    2  C   UNL     1      -6.564   0.004 -32.110  1.00  0.00     0.160 C 
HETATM    3  N   UNL     1      -7.479   1.061 -32.530  1.00  0.00    -0.331 N 
HETATM    4  C   UNL     1      -8.841   0.921 -32.336  1.00  0.00     0.323 C 
HETATM    5  N   UNL     1      -9.597   1.889 -32.957  1.00  0.00    -0.309 N 
HETATM    6  O   UNL     1      -9.285  -0.014 -31.674  1.00  0.00    -0.247 OA
HETATM    7  C   UNL     1      -6.771   2.080 -33.286  1.00  0.00     0.130 C 
HETATM    8  C   UNL     1      -5.296   1.771 -33.067  1.00  0.00     0.054 C 
HETATM    9  H   UNL     1      -9.086   2.598 -33.453  1.00  0.00     0.170 HD
ENDROOT
BRANCH   5  10
HETATM   10  C   UNL     1     -11.003   1.983 -33.041  1.00  0.00     0.037 A 
HETATM   11  C   UNL     1     -11.820   0.986 -33.587  1.00  0.00     0.043 A 
HETATM   12  C   UNL     1     -13.216   1.185 -33.656  1.00  0.00    -0.006 A 
HETATM   13  C   UNL     1     -13.755   2.375 -33.171  1.00  0.00     0.042 A 
HETATM   14  C   UNL     1     -14.301   0.403 -34.142  1.00  0.00     0.030 A 
HETATM   15  N   UNL     1     -15.117   2.312 -33.363  1.00  0.00    -0.365 N 
HETATM   16  C   UNL     1     -12.966   3.384 -32.614  1.00  0.00     0.033 A 
HETATM   17  H   UNL     1     -15.766   3.043 -33.107  1.00  0.00     0.165 HD
HETATM   18  C   UNL     1     -15.458   1.123 -33.950  1.00  0.00     0.089 A 
HETATM   19  C   UNL     1     -11.584   3.163 -32.559  1.00  0.00     0.032 A 
ENDBRANCH   5  10
BRANCH   1  20
HETATM   20  O   UNL     1      -5.457  -0.392 -34.198  1.00  0.00    -0.344 OA
BRANCH  20  21
HETATM   21  C   UNL     1      -5.442  -1.754 -34.271  1.00  0.00     0.070 A 
HETATM   22  C   UNL     1      -4.374  -2.587 -33.945  1.00  0.00     0.060 A 
HETATM   23  C   UNL     1      -4.506  -3.971 -34.098  1.00  0.00     0.036 A 
HETATM   24  C   UNL     1      -5.694  -4.529 -34.566  1.00  0.00     0.024 A 
HETATM   25 CL   UNL     1      -3.180  -4.998 -33.710  1.00  0.00    -0.084 Cl
HETATM   26  C   UNL     1      -6.766  -3.698 -34.882  1.00  0.00     0.004 A 
HETATM   27  C   UNL     1      -6.636  -2.317 -34.733  1.00  0.00     0.037 A 
ENDBRANCH  20  21
ENDBRANCH   1  20
TORSDOF 3
ENDMDL
MODEL 2
REMARK VINA RESULT:      -9.1      5.206      8.502
REMARK  3 active torsions:
REMARK  status: ('A' for Active; 'I' for Inactive)
REMARK    1  A    between atoms: C_6  and  O_7 
REMARK    2  A    between atoms: O_7  and  C_8 
REMARK       I    between atoms: N_10  and  C_11 
REMARK       I    between atoms: C_11  and  N_12 
REMARK    3  A    between atoms: N_12  and  C_13 
ROOT
HETATM    1  C   UNL     1      -4.809   5.052 -32.766  1.00  0.00     0.148 C 
HETATM    2  C   UNL     1      -5.014   3.738 -31.995  1.00  0.00     0.160 C 
HETATM    3  N   UNL     1      -5.555   2.809 -32.983  1.00  0.00    -0.331 N 
HETATM    4  C   UNL     1      -5.469   1.445 -32.776  1.00  0.00     0.323 C 
HETATM    5  N   UNL     1      -5.830   0.689 -33.868  1.00  0.00    -0.309 N 
HETATM    6  O   UNL     1      -5.081   0.999 -31.699  1.00  0.00    -0.247 OA
HETATM    7  C   UNL     1      -5.972   3.521 -34.179  1.00  0.00     0.130 C 
HETATM    8  C   UNL     1      -5.950   4.991 -33.784  1.00  0.00     0.054 C 
HETATM    9  H   UNL     1      -6.139   1.201 -34.676  1.00  0.00     0.170 HD
ENDROOT
BRANCH   5  10
HETATM   10  C   UNL     1      -5.765  -0.711 -34.025  1.00  0.00     0.037 A 
HETATM   11  C   UNL     1      -4.630  -1.477 -33.733  1.00  0.00     0.043 A 
HETATM   12  C   UNL     1      -4.650  -2.872 -33.952  1.00  0.00    -0.006 A 
HETATM   13  C   UNL     1      -5.809  -3.461 -34.454  1.00  0.00     0.042 A 
HETATM   14  C   UNL     1      -3.697  -3.913 -33.773  1.00  0.00     0.030 A 
HETATM   15  N   UNL     1      -5.559  -4.809 -34.577  1.00  0.00    -0.365 N 
HETATM   16  C   UNL     1      -6.958  -2.724 -34.749  1.00  0.00     0.033 A 
HETATM   17  H   UNL     1      -6.224  -5.486 -34.923  1.00  0.00     0.165 HD
HETATM   18  C   UNL     1      -4.283  -5.093 -34.167  1.00  0.00     0.089 A 
HETATM   19  C   UNL     1      -6.912  -1.343 -34.524  1.00  0.00     0.032 A 
ENDBRANCH   5  10
BRANCH   1  20
HETATM   20  O   UNL     1      -3.532   4.978 -33.412  1.00  0.00    -0.344 OA
BRANCH  20  21
HETATM   21  C   UNL     1      -2.455   5.592 -32.842  1.00  0.00     0.070 A 
HETATM   22  C   UNL     1      -1.397   4.967 -32.187  1.00  0.00     0.060 A 
HETATM   23  C   UNL     1      -0.375   5.741 -31.631  1.00  0.00     0.036 A 
HETATM   24  C   UNL     1      -0.396   7.131 -31.729  1.00  0.00     0.024 A 
HETATM   25 CL   UNL     1       0.924   4.967 -30.806  1.00  0.00    -0.084 Cl
HETATM   26  C   UNL     1      -1.447   7.757 -32.392  1.00  0.00     0.004 A 
HETATM   27  C   UNL     1      -2.471   6.988 -32.946  1.00  0.00     0.037 A 
ENDBRANCH  20  21
ENDBRANCH   1  20
TORSDOF 3
ENDMDL
MODEL 3
REMARK VINA RESULT:      -8.9      4.265      7.768
REMARK  3 active torsions:
REMARK  status: ('A' for Active; 'I' for Inactive)
REMARK    1  A    between atoms: C_6  and  O_7 
REMARK    2  A    between atoms: O_7  and  C_8 
REMARK       I    between atoms: N_10  and  C_11 
REMARK       I    between atoms: C_11  and  N_12 
REMARK    3  A    between atoms: N_12  and  C_13 
ROOT
HETATM    1  C   UNL     1      -7.011  -0.064 -33.885  1.00  0.00     0.148 C 
HETATM    2  C   UNL     1      -6.880   1.465 -33.979  1.00  0.00     0.160 C 
HETATM    3  N   UNL     1      -6.090   1.842 -32.811  1.00  0.00    -0.331 N 
HETATM    4  C   UNL     1      -5.421   3.052 -32.784  1.00  0.00     0.323 C 
HETATM    5  N   UNL     1      -4.558   3.191 -31.721  1.00  0.00    -0.309 N 
HETATM    6  O   UNL     1      -5.605   3.887 -33.666  1.00  0.00    -0.247 OA
HETATM    7  C   UNL     1      -5.996   0.733 -31.877  1.00  0.00     0.130 C 
HETATM    8  C   UNL     1      -7.023  -0.278 -32.369  1.00  0.00     0.054 C 
HETATM    9  H   UNL     1      -4.528   2.422 -31.074  1.00  0.00     0.170 HD
ENDROOT
BRANCH   5  10
HETATM   10  C   UNL     1      -3.662   4.247 -31.452  1.00  0.00     0.037 A 
HETATM   11  C   UNL     1      -2.289   4.192 -31.719  1.00  0.00     0.043 A 
HETATM   12  C   UNL     1      -1.466   5.290 -31.386  1.00  0.00    -0.006 A 
HETATM   13  C   UNL     1      -2.042   6.414 -30.799  1.00  0.00     0.042 A 
HETATM   14  C   UNL     1      -0.073   5.553 -31.511  1.00  0.00     0.030 A 
HETATM   15  N   UNL     1      -1.030   7.320 -30.574  1.00  0.00    -0.365 N 
HETATM   16  C   UNL     1      -3.410   6.501 -30.526  1.00  0.00     0.033 A 
HETATM   17  H   UNL     1      -1.158   8.229 -30.152  1.00  0.00     0.165 HD
HETATM   18  C   UNL     1       0.166   6.808 -31.002  1.00  0.00     0.089 A 
HETATM   19  C   UNL     1      -4.204   5.398 -30.865  1.00  0.00     0.032 A 
ENDBRANCH   5  10
BRANCH   1  20
HETATM   20  O   UNL     1      -5.838  -0.634 -34.480  1.00  0.00    -0.344 OA
BRANCH  20  21
HETATM   21  C   UNL     1      -5.678  -1.989 -34.482  1.00  0.00     0.070 A 
HETATM   22  C   UNL     1      -4.542  -2.687 -34.078  1.00  0.00     0.060 A 
HETATM   23  C   UNL     1      -4.524  -4.083 -34.163  1.00  0.00     0.036 A 
HETATM   24  C   UNL     1      -5.628  -4.785 -34.640  1.00  0.00     0.024 A 
HETATM   25 CL   UNL     1      -3.113  -4.944 -33.679  1.00  0.00    -0.084 Cl
HETATM   26  C   UNL     1      -6.768  -4.090 -35.034  1.00  0.00     0.004 A 
HETATM   27  C   UNL     1      -6.789  -2.697 -34.953  1.00  0.00     0.037 A 
ENDBRANCH  20  21
ENDBRANCH   1  20
TORSDOF 3
ENDMDL
MODEL 4
REMARK VINA RESULT:      -8.7      1.669      2.422
REMARK  3 active torsions:
REMARK  status: ('A' for Active; 'I' for Inactive)
REMARK    1  A    between atoms: C_6  and  O_7 
REMARK    2  A    between atoms: O_7  and  C_8 
REMARK       I    between atoms: N_10  and  C_11 
REMARK       I    between atoms: C_11  and  N_12 
REMARK    3  A    between atoms: N_12  and  C_13 
ROOT
HETATM    1  C   UNL     1      -6.418   0.997 -33.182  1.00  0.00     0.148 C 
HETATM    2  C   UNL     1      -7.467   1.912 -32.531  1.00  0.00     0.160 C 
HETATM    3  N   UNL     1      -8.646   1.788 -33.383  1.00  0.00    -0.331 N 
HETATM    4  C   UNL     1      -9.896   2.122 -32.895  1.00  0.00     0.323 C 
HETATM    5  N   UNL     1     -10.934   1.768 -33.726  1.00  0.00    -0.309 N 
HETATM    6  O   UNL     1     -10.014   2.669 -31.801  1.00  0.00    -0.247 OA
HETATM    7  C   UNL     1      -8.307   1.131 -34.634  1.00  0.00     0.130 C 
HETATM    8  C   UNL     1      -6.785   1.114 -34.663  1.00  0.00     0.054 C 
HETATM    9  H   UNL     1     -10.676   1.338 -34.597  1.00  0.00     0.170 HD
ENDROOT
BRANCH   5  10
HETATM   10  C   UNL     1     -12.321   1.874 -33.489  1.00  0.00     0.037 A 
HETATM   11  C   UNL     1     -12.923   2.963 -32.848  1.00  0.00     0.043 A 
HETATM   12  C   UNL     1     -14.318   2.964 -32.629  1.00  0.00    -0.006 A 
HETATM   13  C   UNL     1     -15.072   1.875 -33.062  1.00  0.00     0.042 A 
HETATM   14  C   UNL     1     -15.220   3.881 -32.021  1.00  0.00     0.030 A 
HETATM   15  N   UNL     1     -16.382   2.126 -32.721  1.00  0.00    -0.365 N 
HETATM   16  C   UNL     1     -14.501   0.777 -33.710  1.00  0.00     0.033 A 
HETATM   17  H   UNL     1     -17.153   1.502 -32.910  1.00  0.00     0.165 HD
HETATM   18  C   UNL     1     -16.482   3.338 -32.090  1.00  0.00     0.089 A 
HETATM   19  C   UNL     1     -13.116   0.800 -33.914  1.00  0.00     0.032 A 
ENDBRANCH   5  10
BRANCH   1  20
HETATM   20  O   UNL     1      -6.644  -0.332 -32.694  1.00  0.00    -0.344 OA
BRANCH  20  21
HETATM   21  C   UNL     1      -6.051  -1.388 -33.323  1.00  0.00     0.070 A 
HETATM   22  C   UNL     1      -6.689  -2.352 -34.099  1.00  0.00     0.060 A 
HETATM   23  C   UNL     1      -5.942  -3.392 -34.660  1.00  0.00     0.036 A 
HETATM   24  C   UNL     1      -4.565  -3.474 -34.459  1.00  0.00     0.024 A 
HETATM   25 CL   UNL     1      -6.735  -4.593 -35.606  1.00  0.00    -0.084 Cl
HETATM   26  C   UNL     1      -3.925  -2.505 -33.692  1.00  0.00     0.004 A 
HETATM   27  C   UNL     1      -4.667  -1.467 -33.129  1.00  0.00     0.037 A 
ENDBRANCH  20  21
ENDBRANCH   1  20
TORSDOF 3
ENDMDL
MODEL 5
REMARK VINA RESULT:      -8.6      0.997      1.648
REMARK  3 active torsions:
REMARK  status: ('A' for Active; 'I' for Inactive)
REMARK    1  A    between atoms: C_6  and  O_7 
REMARK    2  A    between atoms: O_7  and  C_8 
REMARK       I    between atoms: N_10  and  C_11 
REMARK       I    between atoms: C_11  and  N_12 
REMARK    3  A    between atoms: N_12  and  C_13 
ROOT
HETATM    1  C   UNL     1      -5.045   0.301 -32.509  1.00  0.00     0.148 C 
HETATM    2  C   UNL     1      -6.389   0.108 -31.790  1.00  0.00     0.160 C 
HETATM    3  N   UNL     1      -7.167   1.294 -32.135  1.00  0.00    -0.331 N 
HETATM    4  C   UNL     1      -8.546   1.279 -32.027  1.00  0.00     0.323 C 
HETATM    5  N   UNL     1      -9.162   2.382 -32.572  1.00  0.00    -0.309 N 
HETATM    6  O   UNL     1      -9.120   0.331 -31.497  1.00  0.00    -0.247 OA
HETATM    7  C   UNL     1      -6.316   2.307 -32.735  1.00  0.00     0.130 C 
HETATM    8  C   UNL     1      -4.896   1.824 -32.477  1.00  0.00     0.054 C 
HETATM    9  H   UNL     1      -8.554   3.081 -32.959  1.00  0.00     0.170 HD
ENDROOT
BRANCH   5  10
HETATM   10  C   UNL     1     -10.544   2.632 -32.715  1.00  0.00     0.037 A 
HETATM   11  C   UNL     1     -11.277   3.469 -31.867  1.00  0.00     0.043 A 
HETATM   12  C   UNL     1     -12.665   3.633 -32.073  1.00  0.00    -0.006 A 
HETATM   13  C   UNL     1     -13.277   2.957 -33.126  1.00  0.00     0.042 A 
HETATM   14  C   UNL     1     -13.679   4.381 -31.412  1.00  0.00     0.030 A 
HETATM   15  N   UNL     1     -14.614   3.283 -33.096  1.00  0.00    -0.365 N 
HETATM   16  C   UNL     1     -12.570   2.120 -33.993  1.00  0.00     0.033 A 
HETATM   17  H   UNL     1     -15.305   2.932 -33.745  1.00  0.00     0.165 HD
HETATM   18  C   UNL     1     -14.868   4.145 -32.062  1.00  0.00     0.089 A 
HETATM   19  C   UNL     1     -11.196   1.974 -33.767  1.00  0.00     0.032 A 
ENDBRANCH   5  10
BRANCH   1  20
HETATM   20  O   UNL     1      -5.201  -0.178 -33.851  1.00  0.00    -0.344 OA
BRANCH  20  21
HETATM   21  C   UNL     1      -5.289  -1.520 -34.078  1.00  0.00     0.070 A 
HETATM   22  C   UNL     1      -4.299  -2.468 -33.828  1.00  0.00     0.060 A 
HETATM   23  C   UNL     1      -4.534  -3.810 -34.140  1.00  0.00     0.036 A 
HETATM   24  C   UNL     1      -5.747  -4.215 -34.693  1.00  0.00     0.024 A 
HETATM   25 CL   UNL     1      -3.303  -4.978 -33.845  1.00  0.00    -0.084 Cl
HETATM   26  C   UNL     1      -6.741  -3.271 -34.934  1.00  0.00     0.004 A 
HETATM   27  C   UNL     1      -6.510  -1.930 -34.626  1.00  0.00     0.037 A 
ENDBRANCH  20  21
ENDBRANCH   1  20
TORSDOF 3
ENDMDL
MODEL 6
REMARK VINA RESULT:      -8.3      2.271      2.589
REMARK  3 active torsions:
REMARK  status: ('A' for Active; 'I' for Inactive)
REMARK    1  A    between atoms: C_6  and  O_7 
REMARK    2  A    between atoms: O_7  and  C_8 
REMARK       I    between atoms: N_10  and  C_11 
REMARK       I    between atoms: C_11  and  N_12 
REMARK    3  A    between atoms: N_12  and  C_13 
ROOT
HETATM    1  C   UNL     1      -4.268  -0.488 -31.895  1.00  0.00     0.148 C 
HETATM    2  C   UNL     1      -5.737  -0.433 -31.447  1.00  0.00     0.160 C 
HETATM    3  N   UNL     1      -6.189   0.903 -31.823  1.00  0.00    -0.331 N 
HETATM    4  C   UNL     1      -7.539   1.167 -31.965  1.00  0.00     0.323 C 
HETATM    5  N   UNL     1      -7.814   2.398 -32.515  1.00  0.00    -0.309 N 
HETATM    6  O   UNL     1      -8.377   0.334 -31.629  1.00  0.00    -0.247 OA
HETATM    7  C   UNL     1      -5.059   1.746 -32.172  1.00  0.00     0.130 C 
HETATM    8  C   UNL     1      -3.836   0.968 -31.707  1.00  0.00     0.054 C 
HETATM    9  H   UNL     1      -7.018   2.975 -32.726  1.00  0.00     0.170 HD
ENDROOT
BRANCH   5  10
HETATM   10  C   UNL     1      -9.066   2.935 -32.882  1.00  0.00     0.037 A 
HETATM   11  C   UNL     1      -9.547   2.966 -34.196  1.00  0.00     0.043 A 
HETATM   12  C   UNL     1     -10.802   3.552 -34.469  1.00  0.00    -0.006 A 
HETATM   13  C   UNL     1     -11.543   4.087 -33.416  1.00  0.00     0.042 A 
HETATM   14  C   UNL     1     -11.562   3.751 -35.656  1.00  0.00     0.030 A 
HETATM   15  N   UNL     1     -12.705   4.594 -33.953  1.00  0.00    -0.365 N 
HETATM   16  C   UNL     1     -11.092   4.064 -32.094  1.00  0.00     0.033 A 
HETATM   17  H   UNL     1     -13.433   5.048 -33.419  1.00  0.00     0.165 HD
HETATM   18  C   UNL     1     -12.726   4.395 -35.308  1.00  0.00     0.089 A 
HETATM   19  C   UNL     1      -9.844   3.478 -31.850  1.00  0.00     0.032 A 
ENDBRANCH   5  10
BRANCH   1  20
HETATM   20  O   UNL     1      -4.253  -0.860 -33.279  1.00  0.00    -0.344 OA
BRANCH  20  21
HETATM   21  C   UNL     1      -4.422  -2.169 -33.623  1.00  0.00     0.070 A 
HETATM   22  C   UNL     1      -5.406  -2.682 -34.465  1.00  0.00     0.060 A 
HETATM   23  C   UNL     1      -5.463  -4.059 -34.701  1.00  0.00     0.036 A 
HETATM   24  C   UNL     1      -4.544  -4.925 -34.112  1.00  0.00     0.024 A 
HETATM   25 CL   UNL     1      -6.691  -4.693 -35.728  1.00  0.00    -0.084 Cl
HETATM   26  C   UNL     1      -3.554  -4.413 -33.280  1.00  0.00     0.004 A 
HETATM   27  C   UNL     1      -3.495  -3.040 -33.039  1.00  0.00     0.037 A 
ENDBRANCH  20  21
ENDBRANCH   1  20
TORSDOF 3
ENDMDL
MODEL 7
REMARK VINA RESULT:      -8.1      5.446      8.694
REMARK  3 active torsions:
REMARK  status: ('A' for Active; 'I' for Inactive)
REMARK    1  A    between atoms: C_6  and  O_7 
REMARK    2  A    between atoms: O_7  and  C_8 
REMARK       I    between atoms: N_10  and  C_11 
REMARK       I    between atoms: C_11  and  N_12 
REMARK    3  A    between atoms: N_12  and  C_13 
ROOT
HETATM    1  C   UNL     1      -4.225   5.862 -31.084  1.00  0.00     0.148 C 
HETATM    2  C   UNL     1      -4.904   4.566 -30.613  1.00  0.00     0.160 C 
HETATM    3  N   UNL     1      -5.395   3.940 -31.837  1.00  0.00    -0.331 N 
HETATM    4  C   UNL     1      -5.678   2.586 -31.861  1.00  0.00     0.323 C 
HETATM    5  N   UNL     1      -5.935   2.090 -33.119  1.00  0.00    -0.309 N 
HETATM    6  O   UNL     1      -5.669   1.928 -30.824  1.00  0.00    -0.247 OA
HETATM    7  C   UNL     1      -5.342   4.874 -32.947  1.00  0.00     0.130 C 
HETATM    8  C   UNL     1      -5.075   6.228 -32.303  1.00  0.00     0.054 C 
HETATM    9  H   UNL     1      -5.917   2.759 -33.868  1.00  0.00     0.170 HD
ENDROOT
BRANCH   5  10
HETATM   10  C   UNL     1      -6.159   0.751 -33.504  1.00  0.00     0.037 A 
HETATM   11  C   UNL     1      -5.142  -0.199 -33.649  1.00  0.00     0.043 A 
HETATM   12  C   UNL     1      -5.462  -1.509 -34.069  1.00  0.00    -0.006 A 
HETATM   13  C   UNL     1      -6.793  -1.830 -34.328  1.00  0.00     0.042 A 
HETATM   14  C   UNL     1      -4.694  -2.681 -34.317  1.00  0.00     0.030 A 
HETATM   15  N   UNL     1      -6.824  -3.149 -34.723  1.00  0.00    -0.365 N 
HETATM   16  C   UNL     1      -7.830  -0.905 -34.185  1.00  0.00     0.033 A 
HETATM   17  H   UNL     1      -7.662  -3.651 -34.979  1.00  0.00     0.165 HD
HETATM   18  C   UNL     1      -5.558  -3.673 -34.719  1.00  0.00     0.089 A 
HETATM   19  C   UNL     1      -7.486   0.387 -33.769  1.00  0.00     0.032 A 
ENDBRANCH   5  10
BRANCH   1  20
HETATM   20  O   UNL     1      -2.884   5.532 -31.466  1.00  0.00    -0.344 OA
BRANCH  20  21
HETATM   21  C   UNL     1      -1.838   6.161 -30.856  1.00  0.00     0.070 A 
HETATM   22  C   UNL     1      -1.900   6.931 -29.696  1.00  0.00     0.060 A 
HETATM   23  C   UNL     1      -0.738   7.535 -29.206  1.00  0.00     0.036 A 
HETATM   24  C   UNL     1       0.483   7.372 -29.859  1.00  0.00     0.024 A 
HETATM   25 CL   UNL     1      -0.818   8.499 -27.782  1.00  0.00    -0.084 Cl
HETATM   26  C   UNL     1       0.548   6.595 -31.012  1.00  0.00     0.004 A 
HETATM   27  C   UNL     1      -0.610   5.993 -31.505  1.00  0.00     0.037 A 
ENDBRANCH  20  21
ENDBRANCH   1  20
TORSDOF 3
ENDMDL
MODEL 8
REMARK VINA RESULT:      -7.9      7.246     11.007
REMARK  3 active torsions:
REMARK  status: ('A' for Active; 'I' for Inactive)
REMARK    1  A    between atoms: C_6  and  O_7 
REMARK    2  A    between atoms: O_7  and  C_8 
REMARK       I    between atoms: N_10  and  C_11 
REMARK       I    between atoms: C_11  and  N_12 
REMARK    3  A    between atoms: N_12  and  C_13 
ROOT
HETATM    1  C   UNL     1      -3.950   3.990 -33.153  1.00  0.00     0.148 C 
HETATM    2  C   UNL     1      -2.508   4.047 -32.622  1.00  0.00     0.160 C 
HETATM    3  N   UNL     1      -2.462   5.255 -31.804  1.00  0.00    -0.331 N 
HETATM    4  C   UNL     1      -1.480   5.408 -30.842  1.00  0.00     0.323 C 
HETATM    5  N   UNL     1      -1.672   6.489 -30.013  1.00  0.00    -0.309 N 
HETATM    6  O   UNL     1      -0.549   4.610 -30.768  1.00  0.00    -0.247 OA
HETATM    7  C   UNL     1      -3.637   6.077 -32.039  1.00  0.00     0.130 C 
HETATM    8  C   UNL     1      -4.290   5.477 -33.277  1.00  0.00     0.054 C 
HETATM    9  H   UNL     1      -2.477   7.058 -30.209  1.00  0.00     0.170 HD
ENDROOT
BRANCH   5  10
HETATM   10  C   UNL     1      -0.921   6.869 -28.881  1.00  0.00     0.037 A 
HETATM   11  C   UNL     1       0.143   7.778 -28.920  1.00  0.00     0.043 A 
HETATM   12  C   UNL     1       0.856   8.074 -27.738  1.00  0.00    -0.006 A 
HETATM   13  C   UNL     1       0.481   7.453 -26.548  1.00  0.00     0.042 A 
HETATM   14  C   UNL     1       1.960   8.920 -27.437  1.00  0.00     0.030 A 
HETATM   15  N   UNL     1       1.333   7.906 -25.567  1.00  0.00    -0.365 N 
HETATM   16  C   UNL     1      -0.579   6.547 -26.477  1.00  0.00     0.033 A 
HETATM   17  H   UNL     1       1.297   7.619 -24.599  1.00  0.00     0.165 HD
HETATM   18  C   UNL     1       2.232   8.795 -26.094  1.00  0.00     0.089 A 
HETATM   19  C   UNL     1      -1.270   6.270 -27.664  1.00  0.00     0.032 A 
ENDBRANCH   5  10
BRANCH   1  20
HETATM   20  O   UNL     1      -4.753   3.355 -32.150  1.00  0.00    -0.344 OA
BRANCH  20  21
HETATM   21  C   UNL     1      -5.313   2.139 -32.411  1.00  0.00     0.070 A 
HETATM   22  C   UNL     1      -5.997   1.774 -33.569  1.00  0.00     0.060 A 
HETATM   23  C   UNL     1      -6.537   0.489 -33.676  1.00  0.00     0.036 A 
HETATM   24  C   UNL     1      -6.396  -0.435 -32.642  1.00  0.00     0.024 A 
HETATM   25 CL   UNL     1      -7.397   0.046 -35.100  1.00  0.00    -0.084 Cl
HETATM   26  C   UNL     1      -5.704  -0.075 -31.489  1.00  0.00     0.004 A 
HETATM   27  C   UNL     1      -5.166   1.207 -31.378  1.00  0.00     0.037 A 
ENDBRANCH  20  21
ENDBRANCH   1  20
TORSDOF 3
ENDMDL
MODEL 9
REMARK VINA RESULT:      -7.8      7.996     11.053
REMARK  3 active torsions:
REMARK  status: ('A' for Active; 'I' for Inactive)
REMARK    1  A    between atoms: C_6  and  O_7 
REMARK    2  A    between atoms: O_7  and  C_8 
REMARK       I    between atoms: N_10  and  C_11 
REMARK       I    between atoms: C_11  and  N_12 
REMARK    3  A    between atoms: N_12  and  C_13 
ROOT
HETATM    1  C   UNL     1      -0.505   7.476 -30.098  1.00  0.00     0.148 C 
HETATM    2  C   UNL     1      -1.849   7.135 -30.761  1.00  0.00     0.160 C 
HETATM    3  N   UNL     1      -1.767   5.706 -31.051  1.00  0.00    -0.331 N 
HETATM    4  C   UNL     1      -2.920   4.969 -31.253  1.00  0.00     0.323 C 
HETATM    5  N   UNL     1      -2.712   3.610 -31.313  1.00  0.00    -0.309 N 
HETATM    6  O   UNL     1      -4.010   5.528 -31.345  1.00  0.00    -0.247 OA
HETATM    7  C   UNL     1      -0.402   5.231 -30.902  1.00  0.00     0.130 C 
HETATM    8  C   UNL     1       0.440   6.496 -30.798  1.00  0.00     0.054 C 
HETATM    9  H   UNL     1      -1.757   3.306 -31.233  1.00  0.00     0.170 HD
ENDROOT
BRANCH   5  10
HETATM   10  C   UNL     1      -3.672   2.580 -31.411  1.00  0.00     0.037 A 
HETATM   11  C   UNL     1      -3.600   1.532 -32.335  1.00  0.00     0.043 A 
HETATM   12  C   UNL     1      -4.627   0.563 -32.377  1.00  0.00    -0.006 A 
HETATM   13  C   UNL     1      -5.694   0.670 -31.488  1.00  0.00     0.042 A 
HETATM   14  C   UNL     1      -4.861  -0.593 -33.173  1.00  0.00     0.030 A 
HETATM   15  N   UNL     1      -6.544  -0.383 -31.744  1.00  0.00    -0.365 N 
HETATM   16  C   UNL     1      -5.790   1.701 -30.550  1.00  0.00     0.033 A 
HETATM   17  H   UNL     1      -7.407  -0.556 -31.250  1.00  0.00     0.165 HD
HETATM   18  C   UNL     1      -6.048  -1.153 -32.762  1.00  0.00     0.089 A 
HETATM   19  C   UNL     1      -4.759   2.649 -30.530  1.00  0.00     0.032 A 
ENDBRANCH   5  10
BRANCH   1  20
HETATM   20  O   UNL     1      -0.625   7.175 -28.702  1.00  0.00    -0.344 OA
BRANCH  20  21
HETATM   21  C   UNL     1       0.069   7.920 -27.793  1.00  0.00     0.070 A 
HETATM   22  C   UNL     1      -0.134   9.267 -27.502  1.00  0.00     0.060 A 
HETATM   23  C   UNL     1       0.680   9.899 -26.558  1.00  0.00     0.036 A 
HETATM   24  C   UNL     1       1.688   9.198 -25.898  1.00  0.00     0.024 A 
HETATM   25 CL   UNL     1       0.439  11.568 -26.211  1.00  0.00    -0.084 Cl
HETATM   26  C   UNL     1       1.885   7.849 -26.181  1.00  0.00     0.004 A 
HETATM   27  C   UNL     1       1.076   7.216 -27.124  1.00  0.00     0.037 A 
ENDBRANCH  20  21
ENDBRANCH   1  20
TORSDOF 3
ENDMDL
MODEL 10
REMARK VINA RESULT:      -7.7      4.083      7.471
REMARK  3 active torsions:
REMARK  status: ('A' for Active; 'I' for Inactive)
REMARK    1  A    between atoms: C_6  and  O_7 
REMARK    2  A    between atoms: O_7  and  C_8 
REMARK       I    between atoms: N_10  and  C_11 
REMARK       I    between atoms: C_11  and  N_12 
REMARK    3  A    between atoms: N_12  and  C_13 
ROOT
HETATM    1  C   UNL     1      -8.041   0.593 -33.624  1.00  0.00     0.148 C 
HETATM    2  C   UNL     1      -7.159   1.703 -34.219  1.00  0.00     0.160 C 
HETATM    3  N   UNL     1      -7.093   2.722 -33.176  1.00  0.00    -0.331 N 
HETATM    4  C   UNL     1      -6.070   3.653 -33.176  1.00  0.00     0.323 C 
HETATM    5  N   UNL     1      -6.011   4.421 -32.035  1.00  0.00    -0.309 N 
HETATM    6  O   UNL     1      -5.299   3.734 -34.129  1.00  0.00    -0.247 OA
HETATM    7  C   UNL     1      -8.086   2.467 -32.147  1.00  0.00     0.130 C 
HETATM    8  C   UNL     1      -8.995   1.400 -32.740  1.00  0.00     0.054 C 
HETATM    9  H   UNL     1      -6.723   4.244 -31.348  1.00  0.00     0.170 HD
ENDROOT
BRANCH   5  10
HETATM   10  C   UNL     1      -5.044   5.383 -31.675  1.00  0.00     0.037 A 
HETATM   11  C   UNL     1      -3.725   5.070 -31.328  1.00  0.00     0.043 A 
HETATM   12  C   UNL     1      -2.836   6.101 -30.952  1.00  0.00    -0.006 A 
HETATM   13  C   UNL     1      -3.293   7.417 -30.938  1.00  0.00     0.042 A 
HETATM   14  C   UNL     1      -1.472   6.129 -30.546  1.00  0.00     0.030 A 
HETATM   15  N   UNL     1      -2.242   8.209 -30.533  1.00  0.00    -0.365 N 
HETATM   16  C   UNL     1      -4.602   7.760 -31.286  1.00  0.00     0.033 A 
HETATM   17  H   UNL     1      -2.288   9.213 -30.428  1.00  0.00     0.165 HD
HETATM   18  C   UNL     1      -1.135   7.439 -30.294  1.00  0.00     0.089 A 
HETATM   19  C   UNL     1      -5.463   6.719 -31.654  1.00  0.00     0.032 A 
ENDBRANCH   5  10
BRANCH   1  20
HETATM   20  O   UNL     1      -7.194  -0.253 -32.835  1.00  0.00    -0.344 OA
BRANCH  20  21
HETATM   21  C   UNL     1      -6.448  -1.215 -33.450  1.00  0.00     0.070 A 
HETATM   22  C   UNL     1      -6.934  -2.295 -34.184  1.00  0.00     0.060 A 
HETATM   23  C   UNL     1      -6.037  -3.215 -34.735  1.00  0.00     0.036 A 
HETATM   24  C   UNL     1      -4.662  -3.063 -34.566  1.00  0.00     0.024 A 
HETATM   25 CL   UNL     1      -6.640  -4.559 -35.627  1.00  0.00    -0.084 Cl
HETATM   26  C   UNL     1      -4.175  -1.979 -33.842  1.00  0.00     0.004 A 
HETATM   27  C   UNL     1      -5.067  -1.060 -33.289  1.00  0.00     0.037 A 
ENDBRANCH  20  21
ENDBRANCH   1  20
TORSDOF 3
ENDMDL
