MODEL 1
REMARK VINA RESULT:      -9.3      0.000      0.000
REMARK  7 active torsions:
REMARK  status: ('A' for Active; 'I' for Inactive)
REMARK    1  A    between atoms: O_2  and  C_3 
REMARK    2  A    between atoms: C_6  and  C_7 
REMARK    3  A    between atoms: C_7  and  N_8 
REMARK    4  A    between atoms: C_7  and  C_23 
REMARK       I    between atoms: N_8  and  C_9 
REMARK    5  A    between atoms: C_9  and  C_10 
REMARK    6  A    between atoms: C_10  and  S_11 
REMARK    7  A    between atoms: S_11  and  C_12 
ROOT
HETATM    1  N   UNL     1      -6.212   1.700 -32.105  1.00  0.00    -0.348 N 
HETATM    2  C   UNL     1      -5.863   2.189 -30.863  1.00  0.00     0.228 C 
HETATM    3  O   UNL     1      -6.120   1.612 -29.811  1.00  0.00    -0.273 OA
HETATM    4  H   UNL     1      -6.110   2.300 -32.912  1.00  0.00     0.163 HD
ENDROOT
BRANCH   1   5
HETATM    5  C   UNL     1      -7.009   0.495 -32.260  1.00  0.00     0.151 C 
BRANCH   5   6
HETATM    6  C   UNL     1      -6.275  -0.627 -32.989  1.00  0.00    -0.031 A 
HETATM    7  C   UNL     1      -4.964  -0.947 -32.600  1.00  0.00     0.012 A 
HETATM    8  C   UNL     1      -4.281  -2.008 -33.199  1.00  0.00     0.037 A 
HETATM    9  C   UNL     1      -4.893  -2.783 -34.184  1.00  0.00     0.068 A 
HETATM   10  C   UNL     1      -6.188  -2.465 -34.592  1.00  0.00     0.037 A 
HETATM   11  C   UNL     1      -6.873  -1.396 -33.999  1.00  0.00     0.012 A 
BRANCH   9  12
HETATM   12  O   UNL     1      -4.126  -3.805 -34.669  1.00  0.00    -0.356 OA
HETATM   13  C   UNL     1      -3.596  -4.711 -33.709  1.00  0.00     0.210 C 
ENDBRANCH   9  12
ENDBRANCH   5   6
BRANCH   5  14
HETATM   14  C   UNL     1      -8.339   0.848 -32.922  1.00  0.00    -0.031 A 
HETATM   15  C   UNL     1      -9.490   0.104 -32.619  1.00  0.00     0.009 A 
HETATM   16  C   UNL     1     -10.716   0.418 -33.209  1.00  0.00     0.001 A 
HETATM   17  C   UNL     1     -10.810   1.481 -34.104  1.00  0.00     0.000 A 
HETATM   18  C   UNL     1      -9.679   2.235 -34.409  1.00  0.00     0.001 A 
HETATM   19  C   UNL     1      -8.453   1.923 -33.821  1.00  0.00     0.009 A 
ENDBRANCH   5  14
ENDBRANCH   1   5
BRANCH   2  20
HETATM   20  C   UNL     1      -5.156   3.530 -30.907  1.00  0.00     0.185 C 
BRANCH  20  21
HETATM   21  S   UNL     1      -6.099   4.642 -31.994  1.00  0.00    -0.081 SA
BRANCH  21  22
HETATM   22  C   UNL     1      -4.931   4.932 -33.234  1.00  0.00     0.192 A 
HETATM   23  N   UNL     1      -3.629   5.286 -32.993  1.00  0.00    -0.311 N 
HETATM   24  C   UNL     1      -3.084   5.525 -34.234  1.00  0.00     0.130 A 
HETATM   25  C   UNL     1      -2.999   5.434 -31.696  1.00  0.00     0.133 C 
HETATM   26  C   UNL     1      -1.702   6.013 -34.511  1.00  0.00     0.081 C 
HETATM   27  N   UNL     1      -3.994   5.269 -35.155  1.00  0.00    -0.134 NA
HETATM   28  C   UNL     1      -1.236   7.072 -33.519  1.00  0.00     0.008 C 
HETATM   29  C   UNL     1      -0.723   6.493 -32.201  1.00  0.00     0.002 C 
HETATM   30  C   UNL     1      -1.483   5.276 -31.673  1.00  0.00     0.020 C 
HETATM   31  N   UNL     1      -5.153   4.901 -34.525  1.00  0.00    -0.123 NA
ENDBRANCH  21  22
ENDBRANCH  20  21
ENDBRANCH   2  20
TORSDOF 7
ENDMDL
MODEL 2
REMARK VINA RESULT:      -9.3      1.522      2.058
REMARK  7 active torsions:
REMARK  status: ('A' for Active; 'I' for Inactive)
REMARK    1  A    between atoms: O_2  and  C_3 
REMARK    2  A    between atoms: C_6  and  C_7 
REMARK    3  A    between atoms: C_7  and  N_8 
REMARK    4  A    between atoms: C_7  and  C_23 
REMARK       I    between atoms: N_8  and  C_9 
REMARK    5  A    between atoms: C_9  and  C_10 
REMARK    6  A    between atoms: C_10  and  S_11 
REMARK    7  A    between atoms: S_11  and  C_12 
ROOT
HETATM    1  N   UNL     1      -6.432   1.384 -31.633  1.00  0.00    -0.348 N 
HETATM    2  C   UNL     1      -5.945   1.531 -30.351  1.00  0.00     0.228 C 
HETATM    3  O   UNL     1      -6.042   0.667 -29.485  1.00  0.00    -0.273 OA
HETATM    4  H   UNL     1      -6.457   2.191 -32.241  1.00  0.00     0.163 HD
ENDROOT
BRANCH   1   5
HETATM    5  C   UNL     1      -7.196   0.215 -32.035  1.00  0.00     0.151 C 
BRANCH   5   6
HETATM    6  C   UNL     1      -6.384  -0.790 -32.845  1.00  0.00    -0.031 A 
HETATM    7  C   UNL     1      -5.040  -1.012 -32.502  1.00  0.00     0.012 A 
HETATM    8  C   UNL     1      -4.279  -1.970 -33.178  1.00  0.00     0.037 A 
HETATM    9  C   UNL     1      -4.845  -2.738 -34.196  1.00  0.00     0.068 A 
HETATM   10  C   UNL     1      -6.173  -2.515 -34.559  1.00  0.00     0.037 A 
HETATM   11  C   UNL     1      -6.936  -1.550 -33.888  1.00  0.00     0.012 A 
BRANCH   9  12
HETATM   12  O   UNL     1      -4.002  -3.656 -34.758  1.00  0.00    -0.356 OA
HETATM   13  C   UNL     1      -3.502  -4.670 -33.894  1.00  0.00     0.210 C 
ENDBRANCH   9  12
ENDBRANCH   5   6
BRANCH   5  14
HETATM   14  C   UNL     1      -8.462   0.663 -32.761  1.00  0.00    -0.031 A 
HETATM   15  C   UNL     1      -8.405   1.730 -33.672  1.00  0.00     0.009 A 
HETATM   16  C   UNL     1      -9.551   2.149 -34.351  1.00  0.00     0.001 A 
HETATM   17  C   UNL     1     -10.767   1.504 -34.135  1.00  0.00     0.000 A 
HETATM   18  C   UNL     1     -10.839   0.437 -33.242  1.00  0.00     0.001 A 
HETATM   19  C   UNL     1      -9.695   0.018 -32.561  1.00  0.00     0.009 A 
ENDBRANCH   5  14
ENDBRANCH   1   5
BRANCH   2  20
HETATM   20  C   UNL     1      -5.300   2.879 -30.089  1.00  0.00     0.185 C 
BRANCH  20  21
HETATM   21  S   UNL     1      -5.079   3.730 -31.681  1.00  0.00    -0.081 SA
BRANCH  21  22
HETATM   22  C   UNL     1      -3.457   4.297 -31.511  1.00  0.00     0.192 A 
HETATM   23  N   UNL     1      -3.119   5.615 -31.343  1.00  0.00    -0.311 N 
HETATM   24  C   UNL     1      -1.743   5.641 -31.362  1.00  0.00     0.130 A 
HETATM   25  C   UNL     1      -4.033   6.735 -31.237  1.00  0.00     0.133 C 
HETATM   26  C   UNL     1      -0.883   6.857 -31.290  1.00  0.00     0.081 C 
HETATM   27  N   UNL     1      -1.296   4.404 -31.473  1.00  0.00    -0.134 NA
HETATM   28  C   UNL     1      -1.441   8.028 -32.091  1.00  0.00     0.008 C 
HETATM   29  C   UNL     1      -2.532   8.806 -31.355  1.00  0.00     0.002 C 
HETATM   30  C   UNL     1      -3.493   7.965 -30.515  1.00  0.00     0.020 C 
HETATM   31  N   UNL     1      -2.373   3.563 -31.570  1.00  0.00    -0.123 NA
ENDBRANCH  21  22
ENDBRANCH  20  21
ENDBRANCH   2  20
TORSDOF 7
ENDMDL
MODEL 3
REMARK VINA RESULT:      -9.2      1.643      2.357
REMARK  7 active torsions:
REMARK  status: ('A' for Active; 'I' for Inactive)
REMARK    1  A    between atoms: O_2  and  C_3 
REMARK    2  A    between atoms: C_6  and  C_7 
REMARK    3  A    between atoms: C_7  and  N_8 
REMARK    4  A    between atoms: C_7  and  C_23 
REMARK       I    between atoms: N_8  and  C_9 
REMARK    5  A    between atoms: C_9  and  C_10 
REMARK    6  A    between atoms: C_10  and  S_11 
REMARK    7  A    between atoms: S_11  and  C_12 
ROOT
HETATM    1  N   UNL     1      -8.760   3.255 -33.558  1.00  0.00    -0.348 N 
HETATM    2  C   UNL     1      -8.013   4.031 -32.696  1.00  0.00     0.228 C 
HETATM    3  O   UNL     1      -7.632   3.646 -31.595  1.00  0.00    -0.273 OA
HETATM    4  H   UNL     1      -9.169   3.689 -34.374  1.00  0.00     0.163 HD
ENDROOT
BRANCH   1   5
HETATM    5  C   UNL     1      -9.245   1.938 -33.182  1.00  0.00     0.151 C 
BRANCH   5   6
HETATM    6  C   UNL     1      -8.285   0.812 -33.550  1.00  0.00    -0.031 A 
HETATM    7  C   UNL     1      -8.048   0.535 -34.907  1.00  0.00     0.012 A 
HETATM    8  C   UNL     1      -7.127  -0.445 -35.286  1.00  0.00     0.037 A 
HETATM    9  C   UNL     1      -6.412  -1.159 -34.324  1.00  0.00     0.068 A 
HETATM   10  C   UNL     1      -6.651  -0.908 -32.973  1.00  0.00     0.037 A 
HETATM   11  C   UNL     1      -7.579   0.070 -32.590  1.00  0.00     0.012 A 
BRANCH   9  12
HETATM   12  O   UNL     1      -5.526  -2.070 -34.827  1.00  0.00    -0.356 OA
HETATM   13  C   UNL     1      -5.926  -3.434 -34.785  1.00  0.00     0.210 C 
ENDBRANCH   9  12
ENDBRANCH   5   6
BRANCH   5  14
HETATM   14  C   UNL     1     -10.641   1.728 -33.763  1.00  0.00    -0.031 A 
HETATM   15  C   UNL     1     -11.418   0.639 -33.338  1.00  0.00     0.009 A 
HETATM   16  C   UNL     1     -12.701   0.435 -33.853  1.00  0.00     0.001 A 
HETATM   17  C   UNL     1     -13.225   1.319 -34.794  1.00  0.00     0.000 A 
HETATM   18  C   UNL     1     -12.471   2.409 -35.219  1.00  0.00     0.001 A 
HETATM   19  C   UNL     1     -11.189   2.614 -34.707  1.00  0.00     0.009 A 
ENDBRANCH   5  14
ENDBRANCH   1   5
BRANCH   2  20
HETATM   20  C   UNL     1      -7.724   5.426 -33.217  1.00  0.00     0.185 C 
BRANCH  20  21
HETATM   21  S   UNL     1      -6.326   6.113 -32.279  1.00  0.00    -0.081 SA
BRANCH  21  22
HETATM   22  C   UNL     1      -5.024   5.768 -33.360  1.00  0.00     0.192 A 
HETATM   23  N   UNL     1      -3.701   5.934 -33.043  1.00  0.00    -0.311 N 
HETATM   24  C   UNL     1      -3.014   5.657 -34.204  1.00  0.00     0.130 A 
HETATM   25  C   UNL     1      -3.165   6.373 -31.771  1.00  0.00     0.133 C 
HETATM   26  C   UNL     1      -1.540   5.766 -34.404  1.00  0.00     0.081 C 
HETATM   27  N   UNL     1      -3.877   5.290 -35.132  1.00  0.00    -0.134 NA
HETATM   28  C   UNL     1      -0.936   6.983 -33.714  1.00  0.00     0.008 C 
HETATM   29  C   UNL     1      -0.676   6.774 -32.222  1.00  0.00     0.002 C 
HETATM   30  C   UNL     1      -1.728   5.954 -31.476  1.00  0.00     0.020 C 
HETATM   31  N   UNL     1      -5.139   5.365 -34.602  1.00  0.00    -0.123 NA
ENDBRANCH  21  22
ENDBRANCH  20  21
ENDBRANCH   2  20
TORSDOF 7
ENDMDL
MODEL 4
REMARK VINA RESULT:      -9.0      2.363      4.765
REMARK  7 active torsions:
REMARK  status: ('A' for Active; 'I' for Inactive)
REMARK    1  A    between atoms: O_2  and  C_3 
REMARK    2  A    between atoms: C_6  and  C_7 
REMARK    3  A    between atoms: C_7  and  N_8 
REMARK    4  A    between atoms: C_7  and  C_23 
REMARK       I    between atoms: N_8  and  C_9 
REMARK    5  A    between atoms: C_9  and  C_10 
REMARK    6  A    between atoms: C_10  and  S_11 
REMARK    7  A    between atoms: S_11  and  C_12 
ROOT
HETATM    1  N   UNL     1      -6.429   2.020 -32.251  1.00  0.00    -0.348 N 
HETATM    2  C   UNL     1      -6.258   3.386 -32.172  1.00  0.00     0.228 C 
HETATM    3  O   UNL     1      -6.590   4.164 -33.060  1.00  0.00    -0.273 OA
HETATM    4  H   UNL     1      -5.991   1.432 -31.555  1.00  0.00     0.163 HD
ENDROOT
BRANCH   1   5
HETATM    5  C   UNL     1      -6.934   1.377 -33.453  1.00  0.00     0.151 C 
BRANCH   5   6
HETATM    6  C   UNL     1      -8.450   1.215 -33.462  1.00  0.00    -0.031 A 
HETATM    7  C   UNL     1      -9.225   2.095 -34.236  1.00  0.00     0.012 A 
HETATM    8  C   UNL     1     -10.611   1.941 -34.321  1.00  0.00     0.037 A 
HETATM    9  C   UNL     1     -11.252   0.899 -33.652  1.00  0.00     0.068 A 
HETATM   10  C   UNL     1     -10.499   0.028 -32.865  1.00  0.00     0.037 A 
HETATM   11  C   UNL     1      -9.109   0.185 -32.772  1.00  0.00     0.012 A 
BRANCH   9  12
HETATM   12  O   UNL     1     -12.606   0.845 -33.839  1.00  0.00    -0.356 OA
HETATM   13  C   UNL     1     -13.232  -0.407 -33.585  1.00  0.00     0.210 C 
ENDBRANCH   9  12
ENDBRANCH   5   6
BRANCH   5  14
HETATM   14  C   UNL     1      -6.204   0.053 -33.664  1.00  0.00    -0.031 A 
HETATM   15  C   UNL     1      -6.639  -0.834 -34.661  1.00  0.00     0.009 A 
HETATM   16  C   UNL     1      -5.980  -2.047 -34.873  1.00  0.00     0.001 A 
HETATM   17  C   UNL     1      -4.874  -2.387 -34.096  1.00  0.00     0.000 A 
HETATM   18  C   UNL     1      -4.425  -1.515 -33.108  1.00  0.00     0.001 A 
HETATM   19  C   UNL     1      -5.082  -0.303 -32.894  1.00  0.00     0.009 A 
ENDBRANCH   5  14
ENDBRANCH   1   5
BRANCH   2  20
HETATM   20  C   UNL     1      -5.588   3.848 -30.891  1.00  0.00     0.185 C 
BRANCH  20  21
HETATM   21  S   UNL     1      -4.901   5.509 -31.169  1.00  0.00    -0.081 SA
BRANCH  21  22
HETATM   22  C   UNL     1      -3.245   5.117 -31.467  1.00  0.00     0.192 A 
HETATM   23  N   UNL     1      -2.189   5.712 -30.828  1.00  0.00    -0.311 N 
HETATM   24  C   UNL     1      -1.064   5.198 -31.432  1.00  0.00     0.130 A 
HETATM   25  C   UNL     1      -2.264   6.717 -29.787  1.00  0.00     0.133 C 
HETATM   26  C   UNL     1       0.347   5.586 -31.145  1.00  0.00     0.081 C 
HETATM   27  N   UNL     1      -1.435   4.306 -32.331  1.00  0.00    -0.134 NA
HETATM   28  C   UNL     1       0.515   7.082 -30.909  1.00  0.00     0.008 C 
HETATM   29  C   UNL     1       0.148   7.523 -29.491  1.00  0.00     0.002 C 
HETATM   30  C   UNL     1      -1.052   6.811 -28.867  1.00  0.00     0.020 C 
HETATM   31  N   UNL     1      -2.804   4.260 -32.355  1.00  0.00    -0.123 NA
ENDBRANCH  21  22
ENDBRANCH  20  21
ENDBRANCH   2  20
TORSDOF 7
ENDMDL
MODEL 5
REMARK VINA RESULT:      -9.0      2.811      7.637
REMARK  7 active torsions:
REMARK  status: ('A' for Active; 'I' for Inactive)
REMARK    1  A    between atoms: O_2  and  C_3 
REMARK    2  A    between atoms: C_6  and  C_7 
REMARK    3  A    between atoms: C_7  and  N_8 
REMARK    4  A    between atoms: C_7  and  C_23 
REMARK       I    between atoms: N_8  and  C_9 
REMARK    5  A    between atoms: C_9  and  C_10 
REMARK    6  A    between atoms: C_10  and  S_11 
REMARK    7  A    between atoms: S_11  and  C_12 
ROOT
HETATM    1  N   UNL     1      -7.138   2.103 -31.884  1.00  0.00    -0.348 N 
HETATM    2  C   UNL     1      -7.511   2.723 -30.710  1.00  0.00     0.228 C 
HETATM    3  O   UNL     1      -6.711   3.105 -29.861  1.00  0.00    -0.273 OA
HETATM    4  H   UNL     1      -7.852   1.677 -32.458  1.00  0.00     0.163 HD
ENDROOT
BRANCH   1   5
HETATM    5  C   UNL     1      -5.754   1.761 -32.167  1.00  0.00     0.151 C 
BRANCH   5   6
HETATM    6  C   UNL     1      -4.980   2.885 -32.848  1.00  0.00    -0.031 A 
HETATM    7  C   UNL     1      -5.652   3.723 -33.753  1.00  0.00     0.012 A 
HETATM    8  C   UNL     1      -4.996   4.803 -34.349  1.00  0.00     0.037 A 
HETATM    9  C   UNL     1      -3.663   5.081 -34.045  1.00  0.00     0.068 A 
HETATM   10  C   UNL     1      -2.978   4.246 -33.162  1.00  0.00     0.037 A 
HETATM   11  C   UNL     1      -3.632   3.158 -32.568  1.00  0.00     0.012 A 
BRANCH   9  12
HETATM   12  O   UNL     1      -3.148   6.179 -34.676  1.00  0.00    -0.356 OA
HETATM   13  C   UNL     1      -2.109   6.872 -33.995  1.00  0.00     0.210 C 
ENDBRANCH   9  12
ENDBRANCH   5   6
BRANCH   5  14
HETATM   14  C   UNL     1      -5.706   0.457 -32.958  1.00  0.00    -0.031 A 
HETATM   15  C   UNL     1      -4.671  -0.463 -32.729  1.00  0.00     0.009 A 
HETATM   16  C   UNL     1      -4.615  -1.664 -33.439  1.00  0.00     0.001 A 
HETATM   17  C   UNL     1      -5.596  -1.966 -34.382  1.00  0.00     0.000 A 
HETATM   18  C   UNL     1      -6.635  -1.069 -34.615  1.00  0.00     0.001 A 
HETATM   19  C   UNL     1      -6.692   0.133 -33.908  1.00  0.00     0.009 A 
ENDBRANCH   5  14
ENDBRANCH   1   5
BRANCH   2  20
HETATM   20  C   UNL     1      -9.011   2.865 -30.539  1.00  0.00     0.185 C 
BRANCH  20  21
HETATM   21  S   UNL     1      -9.612   4.096 -31.736  1.00  0.00    -0.081 SA
BRANCH  21  22
HETATM   22  C   UNL     1     -10.255   3.057 -32.957  1.00  0.00     0.192 A 
HETATM   23  N   UNL     1     -11.588   2.768 -33.093  1.00  0.00    -0.311 N 
HETATM   24  C   UNL     1     -11.654   1.832 -34.100  1.00  0.00     0.130 A 
HETATM   25  C   UNL     1     -12.673   3.296 -32.292  1.00  0.00     0.133 C 
HETATM   26  C   UNL     1     -12.883   1.138 -34.580  1.00  0.00     0.081 C 
HETATM   27  N   UNL     1     -10.438   1.627 -34.571  1.00  0.00    -0.134 NA
HETATM   28  C   UNL     1     -13.832   0.760 -33.449  1.00  0.00     0.008 C 
HETATM   29  C   UNL     1     -14.717   1.916 -32.981  1.00  0.00     0.002 C 
HETATM   30  C   UNL     1     -14.049   3.290 -32.951  1.00  0.00     0.020 C 
HETATM   31  N   UNL     1      -9.561   2.394 -33.849  1.00  0.00    -0.123 NA
ENDBRANCH  21  22
ENDBRANCH  20  21
ENDBRANCH   2  20
TORSDOF 7
ENDMDL
MODEL 6
REMARK VINA RESULT:      -9.0      2.700      5.315
REMARK  7 active torsions:
REMARK  status: ('A' for Active; 'I' for Inactive)
REMARK    1  A    between atoms: O_2  and  C_3 
REMARK    2  A    between atoms: C_6  and  C_7 
REMARK    3  A    between atoms: C_7  and  N_8 
REMARK    4  A    between atoms: C_7  and  C_23 
REMARK       I    between atoms: N_8  and  C_9 
REMARK    5  A    between atoms: C_9  and  C_10 
REMARK    6  A    between atoms: C_10  and  S_11 
REMARK    7  A    between atoms: S_11  and  C_12 
ROOT
HETATM    1  N   UNL     1      -7.879   0.523 -33.303  1.00  0.00    -0.348 N 
HETATM    2  C   UNL     1      -9.114   0.625 -32.698  1.00  0.00     0.228 C 
HETATM    3  O   UNL     1      -9.330   0.292 -31.537  1.00  0.00    -0.273 OA
HETATM    4  H   UNL     1      -7.811   0.667 -34.301  1.00  0.00     0.163 HD
ENDROOT
BRANCH   1   5
HETATM    5  C   UNL     1      -6.743  -0.087 -32.633  1.00  0.00     0.151 C 
BRANCH   5   6
HETATM    6  C   UNL     1      -5.629   0.903 -32.307  1.00  0.00    -0.031 A 
HETATM    7  C   UNL     1      -4.723   0.594 -31.279  1.00  0.00     0.012 A 
HETATM    8  C   UNL     1      -3.651   1.443 -30.992  1.00  0.00     0.037 A 
HETATM    9  C   UNL     1      -3.450   2.608 -31.733  1.00  0.00     0.068 A 
HETATM   10  C   UNL     1      -4.352   2.936 -32.744  1.00  0.00     0.037 A 
HETATM   11  C   UNL     1      -5.431   2.090 -33.029  1.00  0.00     0.012 A 
BRANCH   9  12
HETATM   12  O   UNL     1      -2.352   3.336 -31.368  1.00  0.00    -0.356 OA
HETATM   13  C   UNL     1      -2.423   4.741 -31.581  1.00  0.00     0.210 C 
ENDBRANCH   9  12
ENDBRANCH   5   6
BRANCH   5  14
HETATM   14  C   UNL     1      -6.247  -1.274 -33.455  1.00  0.00    -0.031 A 
HETATM   15  C   UNL     1      -7.170  -2.112 -34.099  1.00  0.00     0.009 A 
HETATM   16  C   UNL     1      -6.734  -3.199 -34.862  1.00  0.00     0.001 A 
HETATM   17  C   UNL     1      -5.371  -3.457 -34.996  1.00  0.00     0.000 A 
HETATM   18  C   UNL     1      -4.442  -2.630 -34.370  1.00  0.00     0.001 A 
HETATM   19  C   UNL     1      -4.875  -1.545 -33.607  1.00  0.00     0.009 A 
ENDBRANCH   5  14
ENDBRANCH   1   5
BRANCH   2  20
HETATM   20  C   UNL     1     -10.202   1.160 -33.610  1.00  0.00     0.185 C 
BRANCH  20  21
HETATM   21  S   UNL     1     -10.820   2.722 -32.913  1.00  0.00    -0.081 SA
BRANCH  21  22
HETATM   22  C   UNL     1      -9.478   3.761 -33.236  1.00  0.00     0.192 A 
HETATM   23  N   UNL     1      -8.542   4.118 -32.301  1.00  0.00    -0.311 N 
HETATM   24  C   UNL     1      -7.727   5.029 -32.934  1.00  0.00     0.130 A 
HETATM   25  C   UNL     1      -8.483   3.670 -30.924  1.00  0.00     0.133 C 
HETATM   26  C   UNL     1      -6.593   5.775 -32.317  1.00  0.00     0.081 C 
HETATM   27  N   UNL     1      -8.123   5.154 -34.187  1.00  0.00    -0.134 NA
HETATM   28  C   UNL     1      -6.888   6.234 -30.894  1.00  0.00     0.008 C 
HETATM   29  C   UNL     1      -6.685   5.141 -29.845  1.00  0.00     0.002 C 
HETATM   30  C   UNL     1      -7.108   3.733 -30.265  1.00  0.00     0.020 C 
HETATM   31  N   UNL     1      -9.224   4.361 -34.373  1.00  0.00    -0.123 NA
ENDBRANCH  21  22
ENDBRANCH  20  21
ENDBRANCH   2  20
TORSDOF 7
ENDMDL
MODEL 7
REMARK VINA RESULT:      -9.0      2.534      5.172
REMARK  7 active torsions:
REMARK  status: ('A' for Active; 'I' for Inactive)
REMARK    1  A    between atoms: O_2  and  C_3 
REMARK    2  A    between atoms: C_6  and  C_7 
REMARK    3  A    between atoms: C_7  and  N_8 
REMARK    4  A    between atoms: C_7  and  C_23 
REMARK       I    between atoms: N_8  and  C_9 
REMARK    5  A    between atoms: C_9  and  C_10 
REMARK    6  A    between atoms: C_10  and  S_11 
REMARK    7  A    between atoms: S_11  and  C_12 
ROOT
HETATM    1  N   UNL     1      -8.034   3.004 -32.616  1.00  0.00    -0.348 N 
HETATM    2  C   UNL     1      -7.337   4.192 -32.663  1.00  0.00     0.228 C 
HETATM    3  O   UNL     1      -7.019   4.751 -33.707  1.00  0.00    -0.273 OA
HETATM    4  H   UNL     1      -8.123   2.524 -31.731  1.00  0.00     0.163 HD
ENDROOT
BRANCH   1   5
HETATM    5  C   UNL     1      -8.365   2.259 -33.820  1.00  0.00     0.151 C 
BRANCH   5   6
HETATM    6  C   UNL     1      -9.865   2.056 -34.013  1.00  0.00    -0.031 A 
HETATM    7  C   UNL     1     -10.568   2.935 -34.852  1.00  0.00     0.012 A 
HETATM    8  C   UNL     1     -11.929   2.746 -35.105  1.00  0.00     0.037 A 
HETATM    9  C   UNL     1     -12.614   1.669 -34.542  1.00  0.00     0.068 A 
HETATM   10  C   UNL     1     -11.932   0.798 -33.693  1.00  0.00     0.037 A 
HETATM   11  C   UNL     1     -10.569   0.990 -33.431  1.00  0.00     0.012 A 
BRANCH   9  12
HETATM   12  O   UNL     1     -13.933   1.583 -34.890  1.00  0.00    -0.356 OA
HETATM   13  C   UNL     1     -14.714   0.626 -34.185  1.00  0.00     0.210 C 
ENDBRANCH   9  12
ENDBRANCH   5   6
BRANCH   5  14
HETATM   14  C   UNL     1      -7.592   0.943 -33.830  1.00  0.00    -0.031 A 
HETATM   15  C   UNL     1      -7.474   0.211 -35.022  1.00  0.00     0.009 A 
HETATM   16  C   UNL     1      -6.765  -0.992 -35.051  1.00  0.00     0.001 A 
HETATM   17  C   UNL     1      -6.159  -1.476 -33.893  1.00  0.00     0.000 A 
HETATM   18  C   UNL     1      -6.259  -0.757 -32.705  1.00  0.00     0.001 A 
HETATM   19  C   UNL     1      -6.968   0.444 -32.672  1.00  0.00     0.009 A 
ENDBRANCH   5  14
ENDBRANCH   1   5
BRANCH   2  20
HETATM   20  C   UNL     1      -6.965   4.741 -31.298  1.00  0.00     0.185 C 
BRANCH  20  21
HETATM   21  S   UNL     1      -5.267   4.217 -30.911  1.00  0.00    -0.081 SA
BRANCH  21  22
HETATM   22  C   UNL     1      -4.396   5.650 -31.322  1.00  0.00     0.192 A 
HETATM   23  N   UNL     1      -3.537   5.746 -32.387  1.00  0.00    -0.311 N 
HETATM   24  C   UNL     1      -2.979   7.001 -32.289  1.00  0.00     0.130 A 
HETATM   25  C   UNL     1      -3.244   4.710 -33.356  1.00  0.00     0.133 C 
HETATM   26  C   UNL     1      -1.921   7.566 -33.174  1.00  0.00     0.081 C 
HETATM   27  N   UNL     1      -3.523   7.629 -31.264  1.00  0.00    -0.134 NA
HETATM   28  C   UNL     1      -0.854   6.545 -33.551  1.00  0.00     0.008 C 
HETATM   29  C   UNL     1      -1.267   5.626 -34.701  1.00  0.00     0.002 C 
HETATM   30  C   UNL     1      -2.733   5.194 -34.710  1.00  0.00     0.020 C 
HETATM   31  N   UNL     1      -4.409   6.779 -30.656  1.00  0.00    -0.123 NA
ENDBRANCH  21  22
ENDBRANCH  20  21
ENDBRANCH   2  20
TORSDOF 7
ENDMDL
MODEL 8
REMARK VINA RESULT:      -8.8      1.664      2.316
REMARK  7 active torsions:
REMARK  status: ('A' for Active; 'I' for Inactive)
REMARK    1  A    between atoms: O_2  and  C_3 
REMARK    2  A    between atoms: C_6  and  C_7 
REMARK    3  A    between atoms: C_7  and  N_8 
REMARK    4  A    between atoms: C_7  and  C_23 
REMARK       I    between atoms: N_8  and  C_9 
REMARK    5  A    between atoms: C_9  and  C_10 
REMARK    6  A    between atoms: C_10  and  S_11 
REMARK    7  A    between atoms: S_11  and  C_12 
ROOT
HETATM    1  N   UNL     1      -5.949   2.102 -33.401  1.00  0.00    -0.348 N 
HETATM    2  C   UNL     1      -5.490   3.068 -32.531  1.00  0.00     0.228 C 
HETATM    3  O   UNL     1      -5.491   2.937 -31.311  1.00  0.00    -0.273 OA
HETATM    4  H   UNL     1      -6.064   2.340 -34.377  1.00  0.00     0.163 HD
ENDROOT
BRANCH   1   5
HETATM    5  C   UNL     1      -6.569   0.875 -32.930  1.00  0.00     0.151 C 
BRANCH   5   6
HETATM    6  C   UNL     1      -5.887  -0.386 -33.451  1.00  0.00    -0.031 A 
HETATM    7  C   UNL     1      -4.688  -0.808 -32.853  1.00  0.00     0.012 A 
HETATM    8  C   UNL     1      -4.066  -1.992 -33.257  1.00  0.00     0.037 A 
HETATM    9  C   UNL     1      -4.632  -2.788 -34.253  1.00  0.00     0.068 A 
HETATM   10  C   UNL     1      -5.812  -2.372 -34.868  1.00  0.00     0.037 A 
HETATM   11  C   UNL     1      -6.435  -1.182 -34.470  1.00  0.00     0.012 A 
BRANCH   9  12
HETATM   12  O   UNL     1      -3.938  -3.931 -34.537  1.00  0.00    -0.356 OA
HETATM   13  C   UNL     1      -3.551  -4.730 -33.425  1.00  0.00     0.210 C 
ENDBRANCH   9  12
ENDBRANCH   5   6
BRANCH   5  14
HETATM   14  C   UNL     1      -8.061   0.906 -33.251  1.00  0.00    -0.031 A 
HETATM   15  C   UNL     1      -8.936   0.029 -32.592  1.00  0.00     0.009 A 
HETATM   16  C   UNL     1     -10.305   0.048 -32.868  1.00  0.00     0.001 A 
HETATM   17  C   UNL     1     -10.819   0.948 -33.800  1.00  0.00     0.000 A 
HETATM   18  C   UNL     1      -9.965   1.831 -34.456  1.00  0.00     0.001 A 
HETATM   19  C   UNL     1      -8.597   1.813 -34.183  1.00  0.00     0.009 A 
ENDBRANCH   5  14
ENDBRANCH   1   5
BRANCH   2  20
HETATM   20  C   UNL     1      -5.008   4.334 -33.215  1.00  0.00     0.185 C 
BRANCH  20  21
HETATM   21  S   UNL     1      -3.210   4.467 -32.978  1.00  0.00    -0.081 SA
BRANCH  21  22
HETATM   22  C   UNL     1      -3.118   5.956 -32.108  1.00  0.00     0.192 A 
HETATM   23  N   UNL     1      -2.010   6.373 -31.417  1.00  0.00    -0.311 N 
HETATM   24  C   UNL     1      -2.393   7.537 -30.789  1.00  0.00     0.130 A 
HETATM   25  C   UNL     1      -0.738   5.685 -31.327  1.00  0.00     0.133 C 
HETATM   26  C   UNL     1      -1.563   8.346 -29.850  1.00  0.00     0.081 C 
HETATM   27  N   UNL     1      -3.633   7.821 -31.138  1.00  0.00    -0.134 NA
HETATM   28  C   UNL     1      -0.728   7.488 -28.906  1.00  0.00     0.008 C 
HETATM   29  C   UNL     1       0.564   6.968 -29.534  1.00  0.00     0.002 C 
HETATM   30  C   UNL     1       0.468   6.561 -31.004  1.00  0.00     0.020 C 
HETATM   31  N   UNL     1      -4.088   6.826 -31.963  1.00  0.00    -0.123 NA
ENDBRANCH  21  22
ENDBRANCH  20  21
ENDBRANCH   2  20
TORSDOF 7
ENDMDL
MODEL 9
REMARK VINA RESULT:      -8.7     16.171     17.639
REMARK  7 active torsions:
REMARK  status: ('A' for Active; 'I' for Inactive)
REMARK    1  A    between atoms: O_2  and  C_3 
REMARK    2  A    between atoms: C_6  and  C_7 
REMARK    3  A    between atoms: C_7  and  N_8 
REMARK    4  A    between atoms: C_7  and  C_23 
REMARK       I    between atoms: N_8  and  C_9 
REMARK    5  A    between atoms: C_9  and  C_10 
REMARK    6  A    between atoms: C_10  and  S_11 
REMARK    7  A    between atoms: S_11  and  C_12 
ROOT
HETATM    1  N   UNL     1      -6.792 -13.908 -38.176  1.00  0.00    -0.348 N 
HETATM    2  C   UNL     1      -6.890 -14.566 -36.968  1.00  0.00     0.228 C 
HETATM    3  O   UNL     1      -7.354 -15.695 -36.846  1.00  0.00    -0.273 OA
HETATM    4  H   UNL     1      -6.548 -12.927 -38.179  1.00  0.00     0.163 HD
ENDROOT
BRANCH   1   5
HETATM    5  C   UNL     1      -7.330 -14.471 -39.403  1.00  0.00     0.151 C 
BRANCH   5   6
HETATM    6  C   UNL     1      -6.336 -14.460 -40.560  1.00  0.00    -0.031 A 
HETATM    7  C   UNL     1      -6.602 -15.245 -41.694  1.00  0.00     0.012 A 
HETATM    8  C   UNL     1      -5.750 -15.213 -42.801  1.00  0.00     0.037 A 
HETATM    9  C   UNL     1      -4.625 -14.388 -42.809  1.00  0.00     0.068 A 
HETATM   10  C   UNL     1      -4.339 -13.616 -41.683  1.00  0.00     0.037 A 
HETATM   11  C   UNL     1      -5.188 -13.651 -40.569  1.00  0.00     0.012 A 
BRANCH   9  12
HETATM   12  O   UNL     1      -3.891 -14.431 -43.961  1.00  0.00    -0.356 OA
HETATM   13  C   UNL     1      -4.011 -15.612 -44.745  1.00  0.00     0.210 C 
ENDBRANCH   9  12
ENDBRANCH   5   6
BRANCH   5  14
HETATM   14  C   UNL     1      -8.639 -13.768 -39.752  1.00  0.00    -0.031 A 
HETATM   15  C   UNL     1      -8.659 -12.376 -39.932  1.00  0.00     0.009 A 
HETATM   16  C   UNL     1      -9.847 -11.717 -40.259  1.00  0.00     0.001 A 
HETATM   17  C   UNL     1     -11.028 -12.440 -40.415  1.00  0.00     0.000 A 
HETATM   18  C   UNL     1     -11.023 -13.823 -40.249  1.00  0.00     0.001 A 
HETATM   19  C   UNL     1      -9.839 -14.483 -39.922  1.00  0.00     0.009 A 
ENDBRANCH   5  14
ENDBRANCH   1   5
BRANCH   2  20
HETATM   20  C   UNL     1      -6.399 -13.753 -35.784  1.00  0.00     0.185 C 
BRANCH  20  21
HETATM   21  S   UNL     1      -4.697 -14.266 -35.401  1.00  0.00    -0.081 SA
BRANCH  21  22
HETATM   22  C   UNL     1      -3.841 -13.497 -36.690  1.00  0.00     0.192 A 
HETATM   23  N   UNL     1      -2.824 -14.087 -37.394  1.00  0.00    -0.311 N 
HETATM   24  C   UNL     1      -2.353 -13.107 -38.239  1.00  0.00     0.130 A 
HETATM   25  C   UNL     1      -2.323 -15.436 -37.222  1.00  0.00     0.133 C 
HETATM   26  C   UNL     1      -1.192 -13.226 -39.166  1.00  0.00     0.081 C 
HETATM   27  N   UNL     1      -3.089 -12.023 -38.085  1.00  0.00    -0.134 NA
HETATM   28  C   UNL     1      -0.028 -14.005 -38.565  1.00  0.00     0.008 C 
HETATM   29  C   UNL     1      -0.198 -15.522 -38.649  1.00  0.00     0.002 C 
HETATM   30  C   UNL     1      -1.619 -16.041 -38.433  1.00  0.00     0.020 C 
HETATM   31  N   UNL     1      -4.020 -12.268 -37.110  1.00  0.00    -0.123 NA
ENDBRANCH  21  22
ENDBRANCH  20  21
ENDBRANCH   2  20
TORSDOF 7
ENDMDL
MODEL 10
REMARK VINA RESULT:      -8.7      1.866      2.731
REMARK  7 active torsions:
REMARK  status: ('A' for Active; 'I' for Inactive)
REMARK    1  A    between atoms: O_2  and  C_3 
REMARK    2  A    between atoms: C_6  and  C_7 
REMARK    3  A    between atoms: C_7  and  N_8 
REMARK    4  A    between atoms: C_7  and  C_23 
REMARK       I    between atoms: N_8  and  C_9 
REMARK    5  A    between atoms: C_9  and  C_10 
REMARK    6  A    between atoms: C_10  and  S_11 
REMARK    7  A    between atoms: S_11  and  C_12 
ROOT
HETATM    1  N   UNL     1      -7.894   3.247 -33.551  1.00  0.00    -0.348 N 
HETATM    2  C   UNL     1      -7.045   3.858 -32.653  1.00  0.00     0.228 C 
HETATM    3  O   UNL     1      -6.786   3.398 -31.545  1.00  0.00    -0.273 OA
HETATM    4  H   UNL     1      -8.182   3.757 -34.375  1.00  0.00     0.163 HD
ENDROOT
BRANCH   1   5
HETATM    5  C   UNL     1      -8.637   2.044 -33.212  1.00  0.00     0.151 C 
BRANCH   5   6
HETATM    6  C   UNL     1      -7.898   0.757 -33.568  1.00  0.00    -0.031 A 
HETATM    7  C   UNL     1      -7.800   0.380 -34.917  1.00  0.00     0.012 A 
HETATM    8  C   UNL     1      -7.078  -0.757 -35.290  1.00  0.00     0.037 A 
HETATM    9  C   UNL     1      -6.426  -1.532 -34.330  1.00  0.00     0.068 A 
HETATM   10  C   UNL     1      -6.530  -1.179 -32.985  1.00  0.00     0.037 A 
HETATM   11  C   UNL     1      -7.260  -0.043 -32.608  1.00  0.00     0.012 A 
BRANCH   9  12
HETATM   12  O   UNL     1      -5.735  -2.600 -34.829  1.00  0.00    -0.356 OA
HETATM   13  C   UNL     1      -6.446  -3.829 -34.918  1.00  0.00     0.210 C 
ENDBRANCH   9  12
ENDBRANCH   5   6
BRANCH   5  14
HETATM   14  C   UNL     1     -10.026   2.112 -33.840  1.00  0.00    -0.031 A 
HETATM   15  C   UNL     1     -10.350   3.167 -34.709  1.00  0.00     0.009 A 
HETATM   16  C   UNL     1     -11.614   3.241 -35.298  1.00  0.00     0.001 A 
HETATM   17  C   UNL     1     -12.568   2.261 -35.033  1.00  0.00     0.000 A 
HETATM   18  C   UNL     1     -12.260   1.204 -34.181  1.00  0.00     0.001 A 
HETATM   19  C   UNL     1     -10.998   1.128 -33.590  1.00  0.00     0.009 A 
ENDBRANCH   5  14
ENDBRANCH   1   5
BRANCH   2  20
HETATM   20  C   UNL     1      -6.476   5.176 -33.142  1.00  0.00     0.185 C 
BRANCH  20  21
HETATM   21  S   UNL     1      -5.043   4.824 -34.206  1.00  0.00    -0.081 SA
BRANCH  21  22
HETATM   22  C   UNL     1      -3.857   4.432 -33.013  1.00  0.00     0.192 A 
HETATM   23  N   UNL     1      -3.001   5.345 -32.455  1.00  0.00    -0.311 N 
HETATM   24  C   UNL     1      -2.161   4.608 -31.650  1.00  0.00     0.130 A 
HETATM   25  C   UNL     1      -2.962   6.769 -32.721  1.00  0.00     0.133 C 
HETATM   26  C   UNL     1      -0.999   5.131 -30.875  1.00  0.00     0.081 C 
HETATM   27  N   UNL     1      -2.540   3.345 -31.684  1.00  0.00    -0.134 NA
HETATM   28  C   UNL     1      -0.205   6.187 -31.635  1.00  0.00     0.008 C 
HETATM   29  C   UNL     1      -0.825   7.583 -31.569  1.00  0.00     0.002 C 
HETATM   30  C   UNL     1      -2.351   7.633 -31.622  1.00  0.00     0.020 C 
HETATM   31  N   UNL     1      -3.602   3.236 -32.543  1.00  0.00    -0.123 NA
ENDBRANCH  21  22
ENDBRANCH  20  21
ENDBRANCH   2  20
TORSDOF 7
ENDMDL
