MODEL 1
REMARK VINA RESULT:      -8.0      0.000      0.000
REMARK  6 active torsions:
REMARK  status: ('A' for Active; 'I' for Inactive)
REMARK    1  A    between atoms: C_3  and  N_4 
REMARK    2  A    between atoms: N_4  and  C_5 
REMARK    3  A    between atoms: C_5  and  C_6 
REMARK    4  A    between atoms: N_8  and  C_10 
REMARK    5  A    between atoms: C_10  and  C_11 
REMARK    6  A    between atoms: C_16  and  O_17 
ROOT
HETATM    1  C   UNL     1      -8.764   1.809 -33.537  1.00  0.00     0.031 C 
HETATM    2  C   UNL     1      -8.635   0.625 -34.491  1.00  0.00     0.241 C 
HETATM    3  N   UNL     1      -7.652  -0.303 -33.810  1.00  0.00    -0.067 N 
HETATM    4  H   UNL     1      -8.070  -1.246 -33.788  1.00  0.00     0.280 HD
HETATM    5  C   UNL     1      -7.498   0.159 -32.374  1.00  0.00     0.235 C 
HETATM    6  C   UNL     1      -8.650   1.130 -32.174  1.00  0.00     0.035 C 
ENDROOT
BRANCH   3   7
HETATM    7  C   UNL     1      -6.345  -0.474 -34.554  1.00  0.00     0.274 C 
BRANCH   7   8
HETATM    8  C   UNL     1      -5.750  -1.848 -34.422  1.00  0.00    -0.013 A 
HETATM    9  C   UNL     1      -4.531  -2.097 -33.767  1.00  0.00     0.019 A 
HETATM   10 BR   UNL     1      -3.507  -0.693 -33.002  1.00  0.00    -0.051 Br
HETATM   11  C   UNL     1      -4.022  -3.397 -33.673  1.00  0.00     0.022 A 
HETATM   12  C   UNL     1      -4.716  -4.467 -34.238  1.00  0.00     0.038 A 
HETATM   13  C   UNL     1      -5.915  -4.226 -34.892  1.00  0.00     0.066 A 
HETATM   14  C   UNL     1      -6.435  -2.938 -34.985  1.00  0.00     0.046 A 
BRANCH  13  15
HETATM   15  O   UNL     1      -6.631  -5.226 -35.473  1.00  0.00    -0.361 OA
HETATM   16  H   UNL     1      -7.524  -5.257 -35.083  1.00  0.00     0.217 HD
ENDBRANCH  13  15
ENDBRANCH   7   8
ENDBRANCH   3   7
BRANCH   1  17
HETATM   17  C   UNL     1     -10.062   2.599 -33.737  1.00  0.00     0.127 C 
BRANCH  17  18
HETATM   18  N   UNL     1     -11.059   2.208 -32.735  1.00  0.00    -0.376 N 
HETATM   19  H   UNL     1     -10.987   2.696 -31.847  1.00  0.00     0.161 HD
BRANCH  18  20
HETATM   20  C   UNL     1     -12.332   1.815 -33.121  1.00  0.00     0.100 A 
HETATM   21  C   UNL     1     -12.607   0.747 -33.985  1.00  0.00     0.048 A 
HETATM   22  C   UNL     1     -13.925   0.412 -34.296  1.00  0.00     0.005 A 
HETATM   23  C   UNL     1     -14.968   1.133 -33.734  1.00  0.00     0.017 A 
HETATM   24  C   UNL     1     -14.666   2.167 -32.866  1.00  0.00     0.089 A 
HETATM   25  N   UNL     1     -13.385   2.464 -32.589  1.00  0.00    -0.353 N 
HETATM   26  H   UNL     1     -13.204   3.213 -31.928  1.00  0.00     0.166 HD
ENDBRANCH  18  20
ENDBRANCH  17  18
ENDBRANCH   1  17
TORSDOF 6
ENDMDL
MODEL 2
REMARK VINA RESULT:      -7.9      2.545      3.738
REMARK  6 active torsions:
REMARK  status: ('A' for Active; 'I' for Inactive)
REMARK    1  A    between atoms: C_3  and  N_4 
REMARK    2  A    between atoms: N_4  and  C_5 
REMARK    3  A    between atoms: C_5  and  C_6 
REMARK    4  A    between atoms: N_8  and  C_10 
REMARK    5  A    between atoms: C_10  and  C_11 
REMARK    6  A    between atoms: C_16  and  O_17 
ROOT
HETATM    1  C   UNL     1      -5.735   0.819 -31.268  1.00  0.00     0.031 C 
HETATM    2  C   UNL     1      -5.488  -0.628 -31.690  1.00  0.00     0.241 C 
HETATM    3  N   UNL     1      -4.102  -0.611 -32.301  1.00  0.00    -0.067 N 
HETATM    4  H   UNL     1      -3.554  -1.366 -31.861  1.00  0.00     0.280 HD
HETATM    5  C   UNL     1      -3.447   0.704 -31.925  1.00  0.00     0.235 C 
HETATM    6  C   UNL     1      -4.341   1.261 -30.830  1.00  0.00     0.035 C 
ENDROOT
BRANCH   3   7
HETATM    7  C   UNL     1      -4.075  -0.921 -33.781  1.00  0.00     0.274 C 
BRANCH   7   8
HETATM    8  C   UNL     1      -4.807  -2.181 -34.148  1.00  0.00    -0.013 A 
HETATM    9  C   UNL     1      -6.105  -2.185 -34.689  1.00  0.00     0.019 A 
HETATM   10 BR   UNL     1      -7.064  -0.574 -34.986  1.00  0.00    -0.051 Br
HETATM   11  C   UNL     1      -6.742  -3.388 -35.013  1.00  0.00     0.022 A 
HETATM   12  C   UNL     1      -6.098  -4.607 -34.794  1.00  0.00     0.038 A 
HETATM   13  C   UNL     1      -4.822  -4.609 -34.252  1.00  0.00     0.066 A 
HETATM   14  C   UNL     1      -4.175  -3.418 -33.934  1.00  0.00     0.046 A 
BRANCH  13  15
HETATM   15  O   UNL     1      -4.148  -5.764 -34.004  1.00  0.00    -0.361 OA
HETATM   16  H   UNL     1      -3.481  -5.909 -34.700  1.00  0.00     0.217 HD
ENDBRANCH  13  15
ENDBRANCH   7   8
ENDBRANCH   3   7
BRANCH   1  17
HETATM   17  C   UNL     1      -6.806   0.949 -30.180  1.00  0.00     0.127 C 
BRANCH  17  18
HETATM   18  N   UNL     1      -7.838   1.907 -30.591  1.00  0.00    -0.376 N 
HETATM   19  H   UNL     1      -7.606   2.882 -30.426  1.00  0.00     0.161 HD
BRANCH  18  20
HETATM   20  C   UNL     1      -8.651   1.643 -31.683  1.00  0.00     0.100 A 
HETATM   21  C   UNL     1      -8.760   2.466 -32.811  1.00  0.00     0.048 A 
HETATM   22  C   UNL     1      -9.589   2.104 -33.873  1.00  0.00     0.005 A 
HETATM   23  C   UNL     1     -10.297   0.913 -33.816  1.00  0.00     0.017 A 
HETATM   24  C   UNL     1     -10.151   0.108 -32.700  1.00  0.00     0.089 A 
HETATM   25  N   UNL     1      -9.345   0.488 -31.694  1.00  0.00    -0.353 N 
HETATM   26  H   UNL     1      -9.244  -0.140 -30.904  1.00  0.00     0.166 HD
ENDBRANCH  18  20
ENDBRANCH  17  18
ENDBRANCH   1  17
TORSDOF 6
ENDMDL
MODEL 3
REMARK VINA RESULT:      -7.7      3.150      7.746
REMARK  6 active torsions:
REMARK  status: ('A' for Active; 'I' for Inactive)
REMARK    1  A    between atoms: C_3  and  N_4 
REMARK    2  A    between atoms: N_4  and  C_5 
REMARK    3  A    between atoms: C_5  and  C_6 
REMARK    4  A    between atoms: N_8  and  C_10 
REMARK    5  A    between atoms: C_10  and  C_11 
REMARK    6  A    between atoms: C_16  and  O_17 
ROOT
HETATM    1  C   UNL     1      -6.649   0.640 -32.601  1.00  0.00     0.031 C 
HETATM    2  C   UNL     1      -8.042   0.185 -33.030  1.00  0.00     0.241 C 
HETATM    3  N   UNL     1      -8.655   1.409 -33.679  1.00  0.00    -0.067 N 
HETATM    4  H   UNL     1      -9.027   1.125 -34.598  1.00  0.00     0.280 HD
HETATM    5  C   UNL     1      -7.541   2.407 -33.929  1.00  0.00     0.235 C 
HETATM    6  C   UNL     1      -6.270   1.598 -33.728  1.00  0.00     0.035 C 
ENDROOT
BRANCH   3   7
HETATM    7  C   UNL     1      -9.844   1.975 -32.934  1.00  0.00     0.274 C 
BRANCH   7   8
HETATM    8  C   UNL     1     -11.167   1.640 -33.566  1.00  0.00    -0.013 A 
HETATM    9  C   UNL     1     -11.793   2.464 -34.517  1.00  0.00     0.019 A 
HETATM   10 BR   UNL     1     -11.020   4.106 -35.075  1.00  0.00    -0.051 Br
HETATM   11  C   UNL     1     -13.026   2.105 -35.073  1.00  0.00     0.022 A 
HETATM   12  C   UNL     1     -13.656   0.923 -34.684  1.00  0.00     0.038 A 
HETATM   13  C   UNL     1     -13.046   0.111 -33.740  1.00  0.00     0.066 A 
HETATM   14  C   UNL     1     -11.817   0.454 -33.185  1.00  0.00     0.046 A 
BRANCH  13  15
HETATM   15  O   UNL     1     -13.617  -1.047 -33.311  1.00  0.00    -0.361 OA
HETATM   16  H   UNL     1     -14.190  -0.864 -32.544  1.00  0.00     0.217 HD
ENDBRANCH  13  15
ENDBRANCH   7   8
ENDBRANCH   3   7
BRANCH   1  17
HETATM   17  C   UNL     1      -5.672  -0.526 -32.413  1.00  0.00     0.127 C 
BRANCH  17  18
HETATM   18  N   UNL     1      -5.192  -1.004 -33.713  1.00  0.00    -0.376 N 
HETATM   19  H   UNL     1      -4.344  -0.556 -34.047  1.00  0.00     0.161 HD
BRANCH  18  20
HETATM   20  C   UNL     1      -5.380  -2.325 -34.092  1.00  0.00     0.100 A 
HETATM   21  C   UNL     1      -6.547  -2.823 -34.689  1.00  0.00     0.048 A 
HETATM   22  C   UNL     1      -6.634  -4.165 -35.059  1.00  0.00     0.005 A 
HETATM   23  C   UNL     1      -5.552  -5.007 -34.848  1.00  0.00     0.017 A 
HETATM   24  C   UNL     1      -4.405  -4.482 -34.279  1.00  0.00     0.089 A 
HETATM   25  N   UNL     1      -4.356  -3.185 -33.934  1.00  0.00    -0.353 N 
HETATM   26  H   UNL     1      -3.489  -2.831 -33.543  1.00  0.00     0.166 HD
ENDBRANCH  18  20
ENDBRANCH  17  18
ENDBRANCH   1  17
TORSDOF 6
ENDMDL
MODEL 4
REMARK VINA RESULT:      -7.5      5.426      7.987
REMARK  6 active torsions:
REMARK  status: ('A' for Active; 'I' for Inactive)
REMARK    1  A    between atoms: C_3  and  N_4 
REMARK    2  A    between atoms: N_4  and  C_5 
REMARK    3  A    between atoms: C_5  and  C_6 
REMARK    4  A    between atoms: N_8  and  C_10 
REMARK    5  A    between atoms: C_10  and  C_11 
REMARK    6  A    between atoms: C_16  and  O_17 
ROOT
HETATM    1  C   UNL     1      -4.845   1.843 -32.135  1.00  0.00     0.031 C 
HETATM    2  C   UNL     1      -3.600   2.547 -31.601  1.00  0.00     0.241 C 
HETATM    3  N   UNL     1      -4.138   3.578 -30.631  1.00  0.00    -0.067 N 
HETATM    4  H   UNL     1      -3.624   3.475 -29.743  1.00  0.00     0.280 HD
HETATM    5  C   UNL     1      -5.591   3.243 -30.357  1.00  0.00     0.235 C 
HETATM    6  C   UNL     1      -5.754   1.836 -30.909  1.00  0.00     0.035 C 
ENDROOT
BRANCH   3   7
HETATM    7  C   UNL     1      -3.898   5.011 -31.056  1.00  0.00     0.274 C 
BRANCH   7   8
HETATM    8  C   UNL     1      -3.169   5.139 -32.364  1.00  0.00    -0.013 A 
HETATM    9  C   UNL     1      -1.771   5.252 -32.456  1.00  0.00     0.019 A 
HETATM   10 BR   UNL     1      -0.671   5.276 -30.908  1.00  0.00    -0.051 Br
HETATM   11  C   UNL     1      -1.142   5.369 -33.701  1.00  0.00     0.022 A 
HETATM   12  C   UNL     1      -1.899   5.383 -34.873  1.00  0.00     0.038 A 
HETATM   13  C   UNL     1      -3.279   5.280 -34.787  1.00  0.00     0.066 A 
HETATM   14  C   UNL     1      -3.915   5.155 -33.555  1.00  0.00     0.046 A 
BRANCH  13  15
HETATM   15  O   UNL     1      -4.071   5.300 -35.893  1.00  0.00    -0.361 OA
HETATM   16  H   UNL     1      -3.862   4.534 -36.458  1.00  0.00     0.217 HD
ENDBRANCH  13  15
ENDBRANCH   7   8
ENDBRANCH   3   7
BRANCH   1  17
HETATM   17  C   UNL     1      -4.546   0.450 -32.702  1.00  0.00     0.127 C 
BRANCH  17  18
HETATM   18  N   UNL     1      -5.794  -0.263 -32.990  1.00  0.00    -0.376 N 
HETATM   19  H   UNL     1      -6.588   0.334 -33.204  1.00  0.00     0.161 HD
BRANCH  18  20
HETATM   20  C   UNL     1      -5.772  -1.503 -33.611  1.00  0.00     0.100 A 
HETATM   21  C   UNL     1      -6.890  -2.132 -34.174  1.00  0.00     0.048 A 
HETATM   22  C   UNL     1      -6.764  -3.372 -34.800  1.00  0.00     0.005 A 
HETATM   23  C   UNL     1      -5.518  -3.977 -34.880  1.00  0.00     0.017 A 
HETATM   24  C   UNL     1      -4.428  -3.321 -34.337  1.00  0.00     0.089 A 
HETATM   25  N   UNL     1      -4.586  -2.128 -33.739  1.00  0.00    -0.353 N 
HETATM   26  H   UNL     1      -3.758  -1.667 -33.376  1.00  0.00     0.166 HD
ENDBRANCH  18  20
ENDBRANCH  17  18
ENDBRANCH   1  17
TORSDOF 6
ENDMDL
MODEL 5
REMARK VINA RESULT:      -7.3      3.650      8.023
REMARK  6 active torsions:
REMARK  status: ('A' for Active; 'I' for Inactive)
REMARK    1  A    between atoms: C_3  and  N_4 
REMARK    2  A    between atoms: N_4  and  C_5 
REMARK    3  A    between atoms: C_5  and  C_6 
REMARK    4  A    between atoms: N_8  and  C_10 
REMARK    5  A    between atoms: C_10  and  C_11 
REMARK    6  A    between atoms: C_16  and  O_17 
ROOT
HETATM    1  C   UNL     1      -6.976   0.055 -31.917  1.00  0.00     0.031 C 
HETATM    2  C   UNL     1      -7.643   0.551 -33.197  1.00  0.00     0.241 C 
HETATM    3  N   UNL     1      -8.622   1.606 -32.727  1.00  0.00    -0.067 N 
HETATM    4  H   UNL     1      -8.467   2.455 -33.293  1.00  0.00     0.280 HD
HETATM    5  C   UNL     1      -8.279   1.949 -31.291  1.00  0.00     0.235 C 
HETATM    6  C   UNL     1      -6.906   1.331 -31.083  1.00  0.00     0.035 C 
ENDROOT
BRANCH   3   7
HETATM    7  C   UNL     1     -10.075   1.247 -32.953  1.00  0.00     0.274 C 
BRANCH   7   8
HETATM    8  C   UNL     1     -10.783   2.168 -33.907  1.00  0.00    -0.013 A 
HETATM    9  C   UNL     1     -12.088   1.934 -34.373  1.00  0.00     0.019 A 
HETATM   10 BR   UNL     1     -13.074   0.399 -33.846  1.00  0.00    -0.051 Br
HETATM   11  C   UNL     1     -12.701   2.825 -35.262  1.00  0.00     0.022 A 
HETATM   12  C   UNL     1     -12.018   3.958 -35.706  1.00  0.00     0.038 A 
HETATM   13  C   UNL     1     -10.727   4.188 -35.256  1.00  0.00     0.066 A 
HETATM   14  C   UNL     1     -10.111   3.314 -34.366  1.00  0.00     0.046 A 
BRANCH  13  15
HETATM   15  O   UNL     1     -10.007   5.268 -35.662  1.00  0.00    -0.361 OA
HETATM   16  H   UNL     1      -9.077   5.162 -35.389  1.00  0.00     0.217 HD
ENDBRANCH  13  15
ENDBRANCH   7   8
ENDBRANCH   3   7
BRANCH   1  17
HETATM   17  C   UNL     1      -5.615  -0.604 -32.170  1.00  0.00     0.127 C 
BRANCH  17  18
HETATM   18  N   UNL     1      -5.467  -0.940 -33.589  1.00  0.00    -0.376 N 
HETATM   19  H   UNL     1      -4.836  -0.336 -34.108  1.00  0.00     0.161 HD
BRANCH  18  20
HETATM   20  C   UNL     1      -5.547  -2.258 -34.015  1.00  0.00     0.100 A 
HETATM   21  C   UNL     1      -6.672  -2.831 -34.622  1.00  0.00     0.048 A 
HETATM   22  C   UNL     1      -6.649  -4.163 -35.039  1.00  0.00     0.005 A 
HETATM   23  C   UNL     1      -5.498  -4.917 -34.864  1.00  0.00     0.017 A 
HETATM   24  C   UNL     1      -4.395  -4.317 -34.283  1.00  0.00     0.089 A 
HETATM   25  N   UNL     1      -4.452  -3.033 -33.892  1.00  0.00    -0.353 N 
HETATM   26  H   UNL     1      -3.614  -2.621 -33.493  1.00  0.00     0.166 HD
ENDBRANCH  18  20
ENDBRANCH  17  18
ENDBRANCH   1  17
TORSDOF 6
ENDMDL
MODEL 6
REMARK VINA RESULT:      -7.3      3.882      8.623
REMARK  6 active torsions:
REMARK  status: ('A' for Active; 'I' for Inactive)
REMARK    1  A    between atoms: C_3  and  N_4 
REMARK    2  A    between atoms: N_4  and  C_5 
REMARK    3  A    between atoms: C_5  and  C_6 
REMARK    4  A    between atoms: N_8  and  C_10 
REMARK    5  A    between atoms: C_10  and  C_11 
REMARK    6  A    between atoms: C_16  and  O_17 
ROOT
HETATM    1  C   UNL     1      -8.258   0.301 -34.590  1.00  0.00     0.031 C 
HETATM    2  C   UNL     1      -8.469   1.800 -34.395  1.00  0.00     0.241 C 
HETATM    3  N   UNL     1      -9.662   1.894 -33.467  1.00  0.00    -0.067 N 
HETATM    4  H   UNL     1      -9.408   2.524 -32.690  1.00  0.00     0.280 HD
HETATM    5  C   UNL     1      -9.899   0.518 -32.877  1.00  0.00     0.235 C 
HETATM    6  C   UNL     1      -8.634  -0.252 -33.219  1.00  0.00     0.035 C 
ENDROOT
BRANCH   3   7
HETATM    7  C   UNL     1     -10.887   2.524 -34.094  1.00  0.00     0.274 C 
BRANCH   7   8
HETATM    8  C   UNL     1     -11.940   2.920 -33.097  1.00  0.00    -0.013 A 
HETATM    9  C   UNL     1     -13.241   2.390 -33.103  1.00  0.00     0.019 A 
HETATM   10 BR   UNL     1     -13.794   1.125 -34.407  1.00  0.00    -0.051 Br
HETATM   11  C   UNL     1     -14.184   2.795 -32.152  1.00  0.00     0.022 A 
HETATM   12  C   UNL     1     -13.845   3.741 -31.184  1.00  0.00     0.038 A 
HETATM   13  C   UNL     1     -12.565   4.273 -31.178  1.00  0.00     0.066 A 
HETATM   14  C   UNL     1     -11.617   3.873 -32.115  1.00  0.00     0.046 A 
BRANCH  13  15
HETATM   15  O   UNL     1     -12.179   5.208 -30.268  1.00  0.00    -0.361 OA
HETATM   16  H   UNL     1     -11.791   4.765 -29.491  1.00  0.00     0.217 HD
ENDBRANCH  13  15
ENDBRANCH   7   8
ENDBRANCH   3   7
BRANCH   1  17
HETATM   17  C   UNL     1      -6.834  -0.047 -35.039  1.00  0.00     0.127 C 
BRANCH  17  18
HETATM   18  N   UNL     1      -6.148  -0.826 -34.002  1.00  0.00    -0.376 N 
HETATM   19  H   UNL     1      -6.362  -0.550 -33.048  1.00  0.00     0.161 HD
BRANCH  18  20
HETATM   20  C   UNL     1      -5.856  -2.166 -34.205  1.00  0.00     0.100 A 
HETATM   21  C   UNL     1      -6.766  -3.115 -34.692  1.00  0.00     0.048 A 
HETATM   22  C   UNL     1      -6.371  -4.439 -34.886  1.00  0.00     0.005 A 
HETATM   23  C   UNL     1      -5.065  -4.813 -34.609  1.00  0.00     0.017 A 
HETATM   24  C   UNL     1      -4.183  -3.850 -34.152  1.00  0.00     0.089 A 
HETATM   25  N   UNL     1      -4.596  -2.584 -33.975  1.00  0.00    -0.353 N 
HETATM   26  H   UNL     1      -3.914  -1.901 -33.663  1.00  0.00     0.166 HD
ENDBRANCH  18  20
ENDBRANCH  17  18
ENDBRANCH   1  17
TORSDOF 6
ENDMDL
MODEL 7
REMARK VINA RESULT:      -7.2      5.214      8.161
REMARK  6 active torsions:
REMARK  status: ('A' for Active; 'I' for Inactive)
REMARK    1  A    between atoms: C_3  and  N_4 
REMARK    2  A    between atoms: N_4  and  C_5 
REMARK    3  A    between atoms: C_5  and  C_6 
REMARK    4  A    between atoms: N_8  and  C_10 
REMARK    5  A    between atoms: C_10  and  C_11 
REMARK    6  A    between atoms: C_16  and  O_17 
ROOT
HETATM    1  C   UNL     1      -6.338   1.551 -33.712  1.00  0.00     0.031 C 
HETATM    2  C   UNL     1      -5.247   2.536 -33.297  1.00  0.00     0.241 C 
HETATM    3  N   UNL     1      -5.968   3.861 -33.162  1.00  0.00    -0.067 N 
HETATM    4  H   UNL     1      -5.723   4.260 -32.243  1.00  0.00     0.280 HD
HETATM    5  C   UNL     1      -7.458   3.578 -33.153  1.00  0.00     0.235 C 
HETATM    6  C   UNL     1      -7.546   2.076 -32.942  1.00  0.00     0.035 C 
ENDROOT
BRANCH   3   7
HETATM    7  C   UNL     1      -5.537   4.905 -34.169  1.00  0.00     0.274 C 
BRANCH   7   8
HETATM    8  C   UNL     1      -4.147   5.429 -33.937  1.00  0.00    -0.013 A 
HETATM    9  C   UNL     1      -3.817   6.285 -32.872  1.00  0.00     0.019 A 
HETATM   10 BR   UNL     1      -5.125   6.877 -31.629  1.00  0.00    -0.051 Br
HETATM   11  C   UNL     1      -2.506   6.745 -32.702  1.00  0.00     0.022 A 
HETATM   12  C   UNL     1      -1.506   6.365 -33.598  1.00  0.00     0.038 A 
HETATM   13  C   UNL     1      -1.828   5.528 -34.656  1.00  0.00     0.066 A 
HETATM   14  C   UNL     1      -3.127   5.058 -34.830  1.00  0.00     0.046 A 
BRANCH  13  15
HETATM   15  O   UNL     1      -0.900   5.133 -35.568  1.00  0.00    -0.361 OA
HETATM   16  H   UNL     1      -0.336   4.438 -35.181  1.00  0.00     0.217 HD
ENDBRANCH  13  15
ENDBRANCH   7   8
ENDBRANCH   3   7
BRANCH   1  17
HETATM   17  C   UNL     1      -5.977   0.095 -33.399  1.00  0.00     0.127 C 
BRANCH  17  18
HETATM   18  N   UNL     1      -6.272  -0.764 -34.550  1.00  0.00    -0.376 N 
HETATM   19  H   UNL     1      -6.217  -0.302 -35.453  1.00  0.00     0.161 HD
BRANCH  18  20
HETATM   20  C   UNL     1      -5.947  -2.112 -34.527  1.00  0.00     0.100 A 
HETATM   21  C   UNL     1      -6.834  -3.150 -34.843  1.00  0.00     0.048 A 
HETATM   22  C   UNL     1      -6.406  -4.478 -34.815  1.00  0.00     0.005 A 
HETATM   23  C   UNL     1      -5.091  -4.769 -34.487  1.00  0.00     0.017 A 
HETATM   24  C   UNL     1      -4.232  -3.722 -34.202  1.00  0.00     0.089 A 
HETATM   25  N   UNL     1      -4.677  -2.455 -34.238  1.00  0.00    -0.353 N 
HETATM   26  H   UNL     1      -4.011  -1.713 -34.048  1.00  0.00     0.166 HD
ENDBRANCH  18  20
ENDBRANCH  17  18
ENDBRANCH   1  17
TORSDOF 6
ENDMDL
MODEL 8
REMARK VINA RESULT:      -7.2      3.281      8.357
REMARK  6 active torsions:
REMARK  status: ('A' for Active; 'I' for Inactive)
REMARK    1  A    between atoms: C_3  and  N_4 
REMARK    2  A    between atoms: N_4  and  C_5 
REMARK    3  A    between atoms: C_5  and  C_6 
REMARK    4  A    between atoms: N_8  and  C_10 
REMARK    5  A    between atoms: C_10  and  C_11 
REMARK    6  A    between atoms: C_16  and  O_17 
ROOT
HETATM    1  C   UNL     1      -8.345   0.246 -34.151  1.00  0.00     0.031 C 
HETATM    2  C   UNL     1      -8.645   1.738 -34.031  1.00  0.00     0.241 C 
HETATM    3  N   UNL     1     -10.040   1.796 -33.445  1.00  0.00    -0.067 N 
HETATM    4  H   UNL     1     -10.016   2.434 -32.634  1.00  0.00     0.280 HD
HETATM    5  C   UNL     1     -10.380   0.413 -32.923  1.00  0.00     0.235 C 
HETATM    6  C   UNL     1      -9.047  -0.317 -32.918  1.00  0.00     0.035 C 
ENDROOT
BRANCH   3   7
HETATM    7  C   UNL     1     -11.078   2.385 -34.374  1.00  0.00     0.274 C 
BRANCH   7   8
HETATM    8  C   UNL     1     -12.490   2.227 -33.881  1.00  0.00    -0.013 A 
HETATM    9  C   UNL     1     -12.998   2.927 -32.773  1.00  0.00     0.019 A 
HETATM   10 BR   UNL     1     -11.922   4.133 -31.777  1.00  0.00    -0.051 Br
HETATM   11  C   UNL     1     -14.321   2.742 -32.355  1.00  0.00     0.022 A 
HETATM   12  C   UNL     1     -15.154   1.849 -33.031  1.00  0.00     0.038 A 
HETATM   13  C   UNL     1     -14.654   1.150 -34.119  1.00  0.00     0.066 A 
HETATM   14  C   UNL     1     -13.343   1.332 -34.549  1.00  0.00     0.046 A 
BRANCH  13  15
HETATM   15  O   UNL     1     -15.414   0.258 -34.810  1.00  0.00    -0.361 OA
HETATM   16  H   UNL     1     -15.213   0.327 -35.762  1.00  0.00     0.217 HD
ENDBRANCH  13  15
ENDBRANCH   7   8
ENDBRANCH   3   7
BRANCH   1  17
HETATM   17  C   UNL     1      -6.844  -0.057 -34.211  1.00  0.00     0.127 C 
BRANCH  17  18
HETATM   18  N   UNL     1      -6.572  -1.094 -35.213  1.00  0.00    -0.376 N 
HETATM   19  H   UNL     1      -6.356  -0.744 -36.142  1.00  0.00     0.161 HD
BRANCH  18  20
HETATM   20  C   UNL     1      -5.966  -2.286 -34.847  1.00  0.00     0.100 A 
HETATM   21  C   UNL     1      -6.493  -3.559 -35.106  1.00  0.00     0.048 A 
HETATM   22  C   UNL     1      -5.796  -4.704 -34.720  1.00  0.00     0.005 A 
HETATM   23  C   UNL     1      -4.567  -4.581 -34.090  1.00  0.00     0.017 A 
HETATM   24  C   UNL     1      -4.061  -3.312 -33.870  1.00  0.00     0.089 A 
HETATM   25  N   UNL     1      -4.758  -2.230 -34.253  1.00  0.00    -0.353 N 
HETATM   26  H   UNL     1      -4.343  -1.318 -34.097  1.00  0.00     0.166 HD
ENDBRANCH  18  20
ENDBRANCH  17  18
ENDBRANCH   1  17
TORSDOF 6
ENDMDL
MODEL 9
REMARK VINA RESULT:      -7.2      3.625      7.128
REMARK  6 active torsions:
REMARK  status: ('A' for Active; 'I' for Inactive)
REMARK    1  A    between atoms: C_3  and  N_4 
REMARK    2  A    between atoms: N_4  and  C_5 
REMARK    3  A    between atoms: C_5  and  C_6 
REMARK    4  A    between atoms: N_8  and  C_10 
REMARK    5  A    between atoms: C_10  and  C_11 
REMARK    6  A    between atoms: C_16  and  O_17 
ROOT
HETATM    1  C   UNL     1      -5.085   0.091 -31.825  1.00  0.00     0.031 C 
HETATM    2  C   UNL     1      -4.689   1.536 -32.119  1.00  0.00     0.241 C 
HETATM    3  N   UNL     1      -5.671   2.366 -31.318  1.00  0.00    -0.067 N 
HETATM    4  H   UNL     1      -5.130   3.051 -30.768  1.00  0.00     0.280 HD
HETATM    5  C   UNL     1      -6.365   1.443 -30.336  1.00  0.00     0.235 C 
HETATM    6  C   UNL     1      -5.525   0.176 -30.366  1.00  0.00     0.035 C 
ENDROOT
BRANCH   3   7
HETATM    7  C   UNL     1      -6.610   3.200 -32.163  1.00  0.00     0.274 C 
BRANCH   7   8
HETATM    8  C   UNL     1      -7.750   2.415 -32.751  1.00  0.00    -0.013 A 
HETATM    9  C   UNL     1      -9.041   2.406 -32.197  1.00  0.00     0.019 A 
HETATM   10 BR   UNL     1      -9.456   3.381 -30.621  1.00  0.00    -0.051 Br
HETATM   11  C   UNL     1     -10.067   1.657 -32.785  1.00  0.00     0.022 A 
HETATM   12  C   UNL     1      -9.817   0.899 -33.930  1.00  0.00     0.038 A 
HETATM   13  C   UNL     1      -8.542   0.898 -34.475  1.00  0.00     0.066 A 
HETATM   14  C   UNL     1      -7.517   1.645 -33.903  1.00  0.00     0.046 A 
BRANCH  13  15
HETATM   15  O   UNL     1      -8.235   0.170 -35.582  1.00  0.00    -0.361 OA
HETATM   16  H   UNL     1      -8.622  -0.721 -35.505  1.00  0.00     0.217 HD
ENDBRANCH  13  15
ENDBRANCH   7   8
ENDBRANCH   3   7
BRANCH   1  17
HETATM   17  C   UNL     1      -3.947  -0.903 -32.081  1.00  0.00     0.127 C 
BRANCH  17  18
HETATM   18  N   UNL     1      -3.936  -1.314 -33.488  1.00  0.00    -0.376 N 
HETATM   19  H   UNL     1      -3.041  -1.210 -33.957  1.00  0.00     0.161 HD
BRANCH  18  20
HETATM   20  C   UNL     1      -4.743  -2.354 -33.926  1.00  0.00     0.100 A 
HETATM   21  C   UNL     1      -6.075  -2.209 -34.337  1.00  0.00     0.048 A 
HETATM   22  C   UNL     1      -6.800  -3.312 -34.786  1.00  0.00     0.005 A 
HETATM   23  C   UNL     1      -6.192  -4.558 -34.839  1.00  0.00     0.017 A 
HETATM   24  C   UNL     1      -4.869  -4.666 -34.450  1.00  0.00     0.089 A 
HETATM   25  N   UNL     1      -4.200  -3.583 -34.022  1.00  0.00    -0.353 N 
HETATM   26  H   UNL     1      -3.224  -3.698 -33.770  1.00  0.00     0.166 HD
ENDBRANCH  18  20
ENDBRANCH  17  18
ENDBRANCH   1  17
TORSDOF 6
ENDMDL
MODEL 10
REMARK VINA RESULT:      -7.1      6.176      7.878
REMARK  6 active torsions:
REMARK  status: ('A' for Active; 'I' for Inactive)
REMARK    1  A    between atoms: C_3  and  N_4 
REMARK    2  A    between atoms: N_4  and  C_5 
REMARK    3  A    between atoms: C_5  and  C_6 
REMARK    4  A    between atoms: N_8  and  C_10 
REMARK    5  A    between atoms: C_10  and  C_11 
REMARK    6  A    between atoms: C_16  and  O_17 
ROOT
HETATM    1  C   UNL     1      -5.562   2.127 -30.962  1.00  0.00     0.031 C 
HETATM    2  C   UNL     1      -4.061   1.864 -31.054  1.00  0.00     0.241 C 
HETATM    3  N   UNL     1      -3.448   3.237 -31.232  1.00  0.00    -0.067 N 
HETATM    4  H   UNL     1      -2.694   3.340 -30.536  1.00  0.00     0.280 HD
HETATM    5  C   UNL     1      -4.513   4.266 -30.902  1.00  0.00     0.235 C 
HETATM    6  C   UNL     1      -5.604   3.459 -30.218  1.00  0.00     0.035 C 
ENDROOT
BRANCH   3   7
HETATM    7  C   UNL     1      -2.774   3.445 -32.571  1.00  0.00     0.274 C 
BRANCH   7   8
HETATM    8  C   UNL     1      -2.139   4.799 -32.724  1.00  0.00    -0.013 A 
HETATM    9  C   UNL     1      -2.479   5.694 -33.752  1.00  0.00     0.019 A 
HETATM   10 BR   UNL     1      -3.774   5.253 -35.069  1.00  0.00    -0.051 Br
HETATM   11  C   UNL     1      -1.856   6.944 -33.849  1.00  0.00     0.022 A 
HETATM   12  C   UNL     1      -0.878   7.315 -32.925  1.00  0.00     0.038 A 
HETATM   13  C   UNL     1      -0.533   6.432 -31.914  1.00  0.00     0.066 A 
HETATM   14  C   UNL     1      -1.152   5.190 -31.803  1.00  0.00     0.046 A 
BRANCH  13  15
HETATM   15  O   UNL     1       0.421   6.733 -30.992  1.00  0.00    -0.361 OA
HETATM   16  H   UNL     1       0.700   7.660 -31.101  1.00  0.00     0.217 HD
ENDBRANCH  13  15
ENDBRANCH   7   8
ENDBRANCH   3   7
BRANCH   1  17
HETATM   17  C   UNL     1      -6.324   0.994 -30.265  1.00  0.00     0.127 C 
BRANCH  17  18
HETATM   18  N   UNL     1      -7.542   0.663 -31.013  1.00  0.00    -0.376 N 
HETATM   19  H   UNL     1      -8.375   1.161 -30.716  1.00  0.00     0.161 HD
BRANCH  18  20
HETATM   20  C   UNL     1      -7.474   0.321 -32.356  1.00  0.00     0.100 A 
HETATM   21  C   UNL     1      -6.677  -0.707 -32.876  1.00  0.00     0.048 A 
HETATM   22  C   UNL     1      -6.694  -0.993 -34.241  1.00  0.00     0.005 A 
HETATM   23  C   UNL     1      -7.518  -0.263 -35.085  1.00  0.00     0.017 A 
HETATM   24  C   UNL     1      -8.311   0.730 -34.539  1.00  0.00     0.089 A 
HETATM   25  N   UNL     1      -8.269   0.980 -33.220  1.00  0.00    -0.353 N 
HETATM   26  H   UNL     1      -8.885   1.699 -32.854  1.00  0.00     0.166 HD
ENDBRANCH  18  20
ENDBRANCH  17  18
ENDBRANCH   1  17
TORSDOF 6
ENDMDL
