MODEL 1
REMARK VINA RESULT:      -8.9      0.000      0.000
REMARK  3 active torsions:
REMARK  status: ('A' for Active; 'I' for Inactive)
REMARK    1  A    between atoms: C_7  and  C_8 
REMARK    2  A    between atoms: C_17  and  C_18 
REMARK       I    between atoms: C_18  and  N_19 
REMARK    3  A    between atoms: N_19  and  C_20 
ROOT
HETATM    1  C   UNL     1      -5.756   2.157 -32.841  1.00  0.00     0.206 C 
HETATM    2  N   UNL     1      -5.336   3.454 -32.290  1.00  0.00    -0.084 N 
HETATM    3  C   UNL     1      -4.181   3.636 -31.575  1.00  0.00     0.725 A 
HETATM    4  N   UNL     1      -4.035   4.903 -31.289  1.00  0.00    -0.054 NA
HETATM    5  C   UNL     1      -5.122   5.477 -31.893  1.00  0.00     0.275 A 
HETATM    6  N   UNL     1      -5.920   4.642 -32.568  1.00  0.00    -0.149 NA
HETATM    7  N   UNL     1      -3.405   2.574 -31.296  1.00  0.00    -0.192 N 
HETATM    8  C   UNL     1      -3.765   1.266 -31.595  1.00  0.00     0.037 C 
HETATM    9  C   UNL     1      -2.819   0.202 -31.088  1.00  0.00     0.070 C 
HETATM   10  C   UNL     1      -4.893   1.020 -32.310  1.00  0.00     0.063 C 
HETATM   11  H   UNL     1      -2.587   2.712 -30.707  1.00  0.00     0.184 HD
ENDROOT
BRANCH  10  12
HETATM   12  C   UNL     1      -5.350  -0.386 -32.478  1.00  0.00     0.256 C 
HETATM   13  N   UNL     1      -5.010  -0.955 -33.684  1.00  0.00    -0.323 N 
HETATM   14  H   UNL     1      -4.521  -0.388 -34.362  1.00  0.00     0.169 HD
HETATM   15  O   UNL     1      -5.980  -0.910 -31.566  1.00  0.00    -0.267 OA
BRANCH  13  16
HETATM   16  C   UNL     1      -5.288  -2.280 -34.095  1.00  0.00     0.035 A 
HETATM   17  C   UNL     1      -6.519  -2.696 -34.611  1.00  0.00     0.029 A 
HETATM   18  C   UNL     1      -6.723  -4.029 -34.983  1.00  0.00     0.002 A 
HETATM   19  C   UNL     1      -5.696  -4.958 -34.850  1.00  0.00     0.000 A 
HETATM   20  C   UNL     1      -4.465  -4.557 -34.340  1.00  0.00     0.002 A 
HETATM   21  C   UNL     1      -4.264  -3.226 -33.962  1.00  0.00     0.029 A 
ENDBRANCH  13  16
ENDBRANCH  10  12
BRANCH   1  22
HETATM   22  C   UNL     1      -7.242   1.968 -32.679  1.00  0.00     0.015 A 
HETATM   23  C   UNL     1      -8.125   1.373 -33.573  1.00  0.00     0.036 A 
HETATM   24  C   UNL     1      -7.911   0.807 -34.931  1.00  0.00     0.070 C 
HETATM   25  N   UNL     1      -9.358   1.424 -32.971  1.00  0.00    -0.278 N 
HETATM   26  C   UNL     1     -10.614   0.930 -33.487  1.00  0.00     0.179 C 
HETATM   27  N   UNL     1      -9.341   2.032 -31.775  1.00  0.00    -0.185 NA
HETATM   28  C   UNL     1      -8.063   2.369 -31.599  1.00  0.00     0.150 A 
ENDBRANCH   1  22
TORSDOF 3
ENDMDL
MODEL 2
REMARK VINA RESULT:      -8.3      1.818      4.263
REMARK  3 active torsions:
REMARK  status: ('A' for Active; 'I' for Inactive)
REMARK    1  A    between atoms: C_7  and  C_8 
REMARK    2  A    between atoms: C_17  and  C_18 
REMARK       I    between atoms: C_18  and  N_19 
REMARK    3  A    between atoms: N_19  and  C_20 
ROOT
HETATM    1  C   UNL     1      -6.677   2.230 -31.305  1.00  0.00     0.206 C 
HETATM    2  N   UNL     1      -7.331   3.395 -30.692  1.00  0.00    -0.084 N 
HETATM    3  C   UNL     1      -8.613   3.784 -30.980  1.00  0.00     0.725 A 
HETATM    4  N   UNL     1      -8.946   4.798 -30.224  1.00  0.00    -0.054 NA
HETATM    5  C   UNL     1      -7.833   4.973 -29.445  1.00  0.00     0.275 A 
HETATM    6  N   UNL     1      -6.837   4.105 -29.651  1.00  0.00    -0.149 NA
HETATM    7  N   UNL     1      -9.308   3.118 -31.918  1.00  0.00    -0.192 N 
HETATM    8  C   UNL     1      -8.759   2.114 -32.706  1.00  0.00     0.037 C 
HETATM    9  C   UNL     1      -9.663   1.574 -33.790  1.00  0.00     0.070 C 
HETATM   10  C   UNL     1      -7.496   1.677 -32.464  1.00  0.00     0.063 C 
HETATM   11  H   UNL     1     -10.233   3.459 -32.171  1.00  0.00     0.184 HD
ENDROOT
BRANCH  10  12
HETATM   12  C   UNL     1      -6.867   0.723 -33.417  1.00  0.00     0.256 C 
HETATM   13  N   UNL     1      -6.752  -0.564 -32.942  1.00  0.00    -0.323 N 
HETATM   14  H   UNL     1      -7.060  -0.758 -31.999  1.00  0.00     0.169 HD
HETATM   15  O   UNL     1      -6.503   1.142 -34.510  1.00  0.00    -0.267 OA
BRANCH  13  16
HETATM   16  C   UNL     1      -6.223  -1.673 -33.643  1.00  0.00     0.035 A 
HETATM   17  C   UNL     1      -4.856  -1.928 -33.786  1.00  0.00     0.029 A 
HETATM   18  C   UNL     1      -4.409  -3.040 -34.507  1.00  0.00     0.002 A 
HETATM   19  C   UNL     1      -5.325  -3.913 -35.087  1.00  0.00     0.000 A 
HETATM   20  C   UNL     1      -6.689  -3.672 -34.951  1.00  0.00     0.002 A 
HETATM   21  C   UNL     1      -7.135  -2.556 -34.235  1.00  0.00     0.029 A 
ENDBRANCH  13  16
ENDBRANCH  10  12
BRANCH   1  22
HETATM   22  C   UNL     1      -5.237   2.536 -31.623  1.00  0.00     0.015 A 
HETATM   23  C   UNL     1      -4.746   3.485 -32.514  1.00  0.00     0.036 A 
HETATM   24  C   UNL     1      -5.448   4.418 -33.434  1.00  0.00     0.070 C 
HETATM   25  N   UNL     1      -3.379   3.397 -32.440  1.00  0.00    -0.278 N 
HETATM   26  C   UNL     1      -2.403   4.176 -33.167  1.00  0.00     0.179 C 
HETATM   27  N   UNL     1      -2.952   2.446 -31.595  1.00  0.00    -0.185 NA
HETATM   28  C   UNL     1      -4.074   1.919 -31.105  1.00  0.00     0.150 A 
ENDBRANCH   1  22
TORSDOF 3
ENDMDL
MODEL 3
REMARK VINA RESULT:      -8.2      1.887      4.462
REMARK  3 active torsions:
REMARK  status: ('A' for Active; 'I' for Inactive)
REMARK    1  A    between atoms: C_7  and  C_8 
REMARK    2  A    between atoms: C_17  and  C_18 
REMARK       I    between atoms: C_18  and  N_19 
REMARK    3  A    between atoms: N_19  and  C_20 
ROOT
HETATM    1  C   UNL     1      -7.358   2.752 -31.692  1.00  0.00     0.206 C 
HETATM    2  N   UNL     1      -8.241   3.764 -31.093  1.00  0.00    -0.084 N 
HETATM    3  C   UNL     1      -9.607   3.660 -31.069  1.00  0.00     0.725 A 
HETATM    4  N   UNL     1     -10.113   4.664 -30.401  1.00  0.00    -0.054 NA
HETATM    5  C   UNL     1      -8.999   5.348 -29.993  1.00  0.00     0.275 A 
HETATM    6  N   UNL     1      -7.826   4.809 -30.341  1.00  0.00    -0.149 NA
HETATM    7  N   UNL     1     -10.199   2.616 -31.675  1.00  0.00    -0.192 N 
HETATM    8  C   UNL     1      -9.507   1.680 -32.434  1.00  0.00     0.037 C 
HETATM    9  C   UNL     1     -10.364   0.655 -33.138  1.00  0.00     0.070 C 
HETATM   10  C   UNL     1      -8.150   1.724 -32.490  1.00  0.00     0.063 C 
HETATM   11  H   UNL     1     -11.215   2.586 -31.708  1.00  0.00     0.184 HD
ENDROOT
BRANCH  10  12
HETATM   12  C   UNL     1      -7.438   0.822 -33.434  1.00  0.00     0.256 C 
HETATM   13  N   UNL     1      -6.984  -0.349 -32.871  1.00  0.00    -0.323 N 
HETATM   14  H   UNL     1      -7.130  -0.495 -31.882  1.00  0.00     0.169 HD
HETATM   15  O   UNL     1      -7.305   1.181 -34.599  1.00  0.00    -0.267 OA
BRANCH  13  16
HETATM   16  C   UNL     1      -6.305  -1.394 -33.541  1.00  0.00     0.035 A 
HETATM   17  C   UNL     1      -4.913  -1.521 -33.583  1.00  0.00     0.029 A 
HETATM   18  C   UNL     1      -4.314  -2.576 -34.278  1.00  0.00     0.002 A 
HETATM   19  C   UNL     1      -5.099  -3.520 -34.933  1.00  0.00     0.000 A 
HETATM   20  C   UNL     1      -6.486  -3.406 -34.897  1.00  0.00     0.002 A 
HETATM   21  C   UNL     1      -7.085  -2.348 -34.207  1.00  0.00     0.029 A 
ENDBRANCH  13  16
ENDBRANCH  10  12
BRANCH   1  22
HETATM   22  C   UNL     1      -6.225   3.410 -32.436  1.00  0.00     0.015 A 
HETATM   23  C   UNL     1      -4.862   3.282 -32.194  1.00  0.00     0.036 A 
HETATM   24  C   UNL     1      -4.120   2.537 -31.143  1.00  0.00     0.070 C 
HETATM   25  N   UNL     1      -4.239   4.056 -33.141  1.00  0.00    -0.278 N 
HETATM   26  C   UNL     1      -2.820   4.257 -33.324  1.00  0.00     0.179 C 
HETATM   27  N   UNL     1      -5.096   4.694 -33.954  1.00  0.00    -0.185 NA
HETATM   28  C   UNL     1      -6.298   4.311 -33.524  1.00  0.00     0.150 A 
ENDBRANCH   1  22
TORSDOF 3
ENDMDL
MODEL 4
REMARK VINA RESULT:      -7.9      1.855      4.574
REMARK  3 active torsions:
REMARK  status: ('A' for Active; 'I' for Inactive)
REMARK    1  A    between atoms: C_7  and  C_8 
REMARK    2  A    between atoms: C_17  and  C_18 
REMARK       I    between atoms: C_18  and  N_19 
REMARK    3  A    between atoms: N_19  and  C_20 
ROOT
HETATM    1  C   UNL     1      -8.114   2.859 -31.859  1.00  0.00     0.206 C 
HETATM    2  N   UNL     1      -9.155   3.841 -32.199  1.00  0.00    -0.084 N 
HETATM    3  C   UNL     1     -10.436   3.500 -32.543  1.00  0.00     0.725 A 
HETATM    4  N   UNL     1     -11.151   4.582 -32.710  1.00  0.00    -0.054 NA
HETATM    5  C   UNL     1     -10.262   5.580 -32.411  1.00  0.00     0.275 A 
HETATM    6  N   UNL     1      -9.041   5.179 -32.037  1.00  0.00    -0.149 NA
HETATM    7  N   UNL     1     -10.767   2.200 -32.645  1.00  0.00    -0.192 N 
HETATM    8  C   UNL     1      -9.846   1.167 -32.530  1.00  0.00     0.037 C 
HETATM    9  C   UNL     1     -10.388  -0.217 -32.800  1.00  0.00     0.070 C 
HETATM   10  C   UNL     1      -8.562   1.439 -32.181  1.00  0.00     0.063 C 
HETATM   11  H   UNL     1     -11.702   1.961 -32.967  1.00  0.00     0.184 HD
ENDROOT
BRANCH  10  12
HETATM   12  C   UNL     1      -7.554   0.345 -32.224  1.00  0.00     0.256 C 
HETATM   13  N   UNL     1      -7.313  -0.157 -33.482  1.00  0.00    -0.323 N 
HETATM   14  H   UNL     1      -7.844   0.213 -34.258  1.00  0.00     0.169 HD
HETATM   15  O   UNL     1      -7.039  -0.019 -31.173  1.00  0.00    -0.267 OA
BRANCH  13  16
HETATM   16  C   UNL     1      -6.388  -1.174 -33.817  1.00  0.00     0.035 A 
HETATM   17  C   UNL     1      -5.022  -1.117 -33.523  1.00  0.00     0.029 A 
HETATM   18  C   UNL     1      -4.167  -2.157 -33.899  1.00  0.00     0.002 A 
HETATM   19  C   UNL     1      -4.669  -3.270 -34.567  1.00  0.00     0.000 A 
HETATM   20  C   UNL     1      -6.027  -3.341 -34.864  1.00  0.00     0.002 A 
HETATM   21  C   UNL     1      -6.881  -2.297 -34.493  1.00  0.00     0.029 A 
ENDBRANCH  13  16
ENDBRANCH  10  12
BRANCH   1  22
HETATM   22  C   UNL     1      -6.789   3.265 -32.448  1.00  0.00     0.015 A 
HETATM   23  C   UNL     1      -5.558   3.337 -31.804  1.00  0.00     0.036 A 
HETATM   24  C   UNL     1      -5.181   3.102 -30.385  1.00  0.00     0.070 C 
HETATM   25  N   UNL     1      -4.658   3.737 -32.759  1.00  0.00    -0.278 N 
HETATM   26  C   UNL     1      -3.239   3.955 -32.599  1.00  0.00     0.179 C 
HETATM   27  N   UNL     1      -5.218   3.957 -33.959  1.00  0.00    -0.185 NA
HETATM   28  C   UNL     1      -6.508   3.679 -33.771  1.00  0.00     0.150 A 
ENDBRANCH   1  22
TORSDOF 3
ENDMDL
MODEL 5
REMARK VINA RESULT:      -7.8      1.787      2.744
REMARK  3 active torsions:
REMARK  status: ('A' for Active; 'I' for Inactive)
REMARK    1  A    between atoms: C_7  and  C_8 
REMARK    2  A    between atoms: C_17  and  C_18 
REMARK       I    between atoms: C_18  and  N_19 
REMARK    3  A    between atoms: N_19  and  C_20 
ROOT
HETATM    1  C   UNL     1      -8.168   2.577 -32.812  1.00  0.00     0.206 C 
HETATM    2  N   UNL     1      -8.329   3.439 -31.631  1.00  0.00    -0.084 N 
HETATM    3  C   UNL     1      -7.292   3.812 -30.818  1.00  0.00     0.725 A 
HETATM    4  N   UNL     1      -7.724   4.642 -29.904  1.00  0.00    -0.054 NA
HETATM    5  C   UNL     1      -9.048   4.783 -30.226  1.00  0.00     0.275 A 
HETATM    6  N   UNL     1      -9.457   4.113 -31.310  1.00  0.00    -0.149 NA
HETATM    7  N   UNL     1      -6.061   3.325 -31.054  1.00  0.00    -0.192 N 
HETATM    8  C   UNL     1      -5.794   2.362 -32.020  1.00  0.00     0.037 C 
HETATM    9  C   UNL     1      -4.373   1.850 -32.049  1.00  0.00     0.070 C 
HETATM   10  C   UNL     1      -6.778   1.958 -32.864  1.00  0.00     0.063 C 
HETATM   11  H   UNL     1      -5.314   3.556 -30.403  1.00  0.00     0.184 HD
ENDROOT
BRANCH  10  12
HETATM   12  C   UNL     1      -6.520   0.813 -33.779  1.00  0.00     0.256 C 
HETATM   13  N   UNL     1      -6.184  -0.359 -33.142  1.00  0.00    -0.323 N 
HETATM   14  H   UNL     1      -6.103  -0.354 -32.135  1.00  0.00     0.169 HD
HETATM   15  O   UNL     1      -6.613   0.997 -34.987  1.00  0.00    -0.267 OA
BRANCH  13  16
HETATM   16  C   UNL     1      -5.917  -1.603 -33.760  1.00  0.00     0.035 A 
HETATM   17  C   UNL     1      -4.633  -2.124 -33.949  1.00  0.00     0.029 A 
HETATM   18  C   UNL     1      -4.449  -3.357 -34.582  1.00  0.00     0.002 A 
HETATM   19  C   UNL     1      -5.547  -4.086 -35.029  1.00  0.00     0.000 A 
HETATM   20  C   UNL     1      -6.831  -3.581 -34.846  1.00  0.00     0.002 A 
HETATM   21  C   UNL     1      -7.014  -2.345 -34.218  1.00  0.00     0.029 A 
ENDBRANCH  13  16
ENDBRANCH  10  12
BRANCH   1  22
HETATM   22  C   UNL     1      -9.312   1.601 -32.915  1.00  0.00     0.015 A 
HETATM   23  C   UNL     1     -10.518   1.773 -33.585  1.00  0.00     0.036 A 
HETATM   24  C   UNL     1     -11.066   2.937 -34.331  1.00  0.00     0.070 C 
HETATM   25  N   UNL     1     -11.217   0.606 -33.404  1.00  0.00    -0.278 N 
HETATM   26  C   UNL     1     -12.530   0.276 -33.908  1.00  0.00     0.179 C 
HETATM   27  N   UNL     1     -10.567  -0.291 -32.646  1.00  0.00    -0.185 NA
HETATM   28  C   UNL     1      -9.417   0.312 -32.343  1.00  0.00     0.150 A 
ENDBRANCH   1  22
TORSDOF 3
ENDMDL
MODEL 6
REMARK VINA RESULT:      -7.8      1.962      5.496
REMARK  3 active torsions:
REMARK  status: ('A' for Active; 'I' for Inactive)
REMARK    1  A    between atoms: C_7  and  C_8 
REMARK    2  A    between atoms: C_17  and  C_18 
REMARK       I    between atoms: C_18  and  N_19 
REMARK    3  A    between atoms: N_19  and  C_20 
ROOT
HETATM    1  C   UNL     1      -4.872   0.510 -33.388  1.00  0.00     0.206 C 
HETATM    2  N   UNL     1      -3.913  -0.301 -32.623  1.00  0.00    -0.084 N 
HETATM    3  C   UNL     1      -3.886  -1.670 -32.650  1.00  0.00     0.725 A 
HETATM    4  N   UNL     1      -2.879  -2.106 -31.940  1.00  0.00    -0.054 NA
HETATM    5  C   UNL     1      -2.280  -0.947 -31.522  1.00  0.00     0.275 A 
HETATM    6  N   UNL     1      -2.839   0.187 -31.960  1.00  0.00    -0.149 NA
HETATM    7  N   UNL     1      -4.818  -2.334 -33.356  1.00  0.00    -0.192 N 
HETATM    8  C   UNL     1      -5.892  -1.708 -33.980  1.00  0.00     0.037 C 
HETATM    9  C   UNL     1      -6.900  -2.635 -34.618  1.00  0.00     0.070 C 
HETATM   10  C   UNL     1      -5.970  -0.353 -33.997  1.00  0.00     0.063 C 
HETATM   11  H   UNL     1      -4.829  -3.349 -33.313  1.00  0.00     0.184 HD
ENDROOT
BRANCH  10  12
HETATM   12  C   UNL     1      -7.203   0.294 -34.521  1.00  0.00     0.256 C 
HETATM   13  N   UNL     1      -8.198   0.465 -33.585  1.00  0.00    -0.323 N 
HETATM   14  H   UNL     1      -8.041   0.120 -32.648  1.00  0.00     0.169 HD
HETATM   15  O   UNL     1      -7.243   0.605 -35.706  1.00  0.00    -0.267 OA
BRANCH  13  16
HETATM   16  C   UNL     1      -9.456   1.075 -33.800  1.00  0.00     0.035 A 
HETATM   17  C   UNL     1      -9.624   2.344 -34.361  1.00  0.00     0.029 A 
HETATM   18  C   UNL     1     -10.902   2.886 -34.529  1.00  0.00     0.002 A 
HETATM   19  C   UNL     1     -12.027   2.162 -34.144  1.00  0.00     0.000 A 
HETATM   20  C   UNL     1     -11.874   0.897 -33.585  1.00  0.00     0.002 A 
HETATM   21  C   UNL     1     -10.595   0.358 -33.412  1.00  0.00     0.029 A 
ENDBRANCH  13  16
ENDBRANCH  10  12
BRANCH   1  22
HETATM   22  C   UNL     1      -5.352   1.678 -32.566  1.00  0.00     0.015 A 
HETATM   23  C   UNL     1      -5.946   1.647 -31.310  1.00  0.00     0.036 A 
HETATM   24  C   UNL     1      -6.330   0.506 -30.437  1.00  0.00     0.070 C 
HETATM   25  N   UNL     1      -6.186   2.956 -30.976  1.00  0.00    -0.278 N 
HETATM   26  C   UNL     1      -6.786   3.463 -29.763  1.00  0.00     0.179 C 
HETATM   27  N   UNL     1      -5.822   3.824 -31.932  1.00  0.00    -0.185 NA
HETATM   28  C   UNL     1      -5.323   3.053 -32.898  1.00  0.00     0.150 A 
ENDBRANCH   1  22
TORSDOF 3
ENDMDL
MODEL 7
REMARK VINA RESULT:      -7.7      1.740      5.979
REMARK  3 active torsions:
REMARK  status: ('A' for Active; 'I' for Inactive)
REMARK    1  A    between atoms: C_7  and  C_8 
REMARK    2  A    between atoms: C_17  and  C_18 
REMARK       I    between atoms: C_18  and  N_19 
REMARK    3  A    between atoms: N_19  and  C_20 
ROOT
HETATM    1  C   UNL     1      -6.198  -1.204 -32.963  1.00  0.00     0.206 C 
HETATM    2  N   UNL     1      -5.984  -2.353 -33.855  1.00  0.00    -0.084 N 
HETATM    3  C   UNL     1      -4.809  -3.054 -33.921  1.00  0.00     0.725 A 
HETATM    4  N   UNL     1      -4.944  -4.065 -34.738  1.00  0.00    -0.054 NA
HETATM    5  C   UNL     1      -6.254  -3.968 -35.126  1.00  0.00     0.275 A 
HETATM    6  N   UNL     1      -6.952  -2.971 -34.570  1.00  0.00    -0.149 NA
HETATM    7  N   UNL     1      -3.758  -2.649 -33.186  1.00  0.00    -0.192 N 
HETATM    8  C   UNL     1      -3.757  -1.478 -32.437  1.00  0.00     0.037 C 
HETATM    9  C   UNL     1      -2.441  -1.131 -31.781  1.00  0.00     0.070 C 
HETATM   10  C   UNL     1      -4.894  -0.744 -32.324  1.00  0.00     0.063 C 
HETATM   11  H   UNL     1      -2.873  -3.137 -33.295  1.00  0.00     0.184 HD
ENDROOT
BRANCH  10  12
HETATM   12  C   UNL     1      -4.832   0.585 -31.660  1.00  0.00     0.256 C 
HETATM   13  N   UNL     1      -4.354   1.599 -32.458  1.00  0.00    -0.323 N 
HETATM   14  H   UNL     1      -4.054   1.372 -33.396  1.00  0.00     0.169 HD
HETATM   15  O   UNL     1      -5.191   0.673 -30.491  1.00  0.00    -0.267 OA
BRANCH  13  16
HETATM   16  C   UNL     1      -4.218   2.960 -32.095  1.00  0.00     0.035 A 
HETATM   17  C   UNL     1      -5.290   3.850 -31.981  1.00  0.00     0.029 A 
HETATM   18  C   UNL     1      -5.073   5.186 -31.630  1.00  0.00     0.002 A 
HETATM   19  C   UNL     1      -3.784   5.646 -31.384  1.00  0.00     0.000 A 
HETATM   20  C   UNL     1      -2.707   4.770 -31.491  1.00  0.00     0.002 A 
HETATM   21  C   UNL     1      -2.923   3.435 -31.848  1.00  0.00     0.029 A 
ENDBRANCH  13  16
ENDBRANCH  10  12
BRANCH   1  22
HETATM   22  C   UNL     1      -6.986  -0.128 -33.663  1.00  0.00     0.015 A 
HETATM   23  C   UNL     1      -8.112   0.541 -33.197  1.00  0.00     0.036 A 
HETATM   24  C   UNL     1      -8.896   0.382 -31.944  1.00  0.00     0.070 C 
HETATM   25  N   UNL     1      -8.452   1.435 -34.182  1.00  0.00    -0.278 N 
HETATM   26  C   UNL     1      -9.549   2.375 -34.181  1.00  0.00     0.179 C 
HETATM   27  N   UNL     1      -7.650   1.372 -35.256  1.00  0.00    -0.185 NA
HETATM   28  C   UNL     1      -6.767   0.422 -34.948  1.00  0.00     0.150 A 
ENDBRANCH   1  22
TORSDOF 3
ENDMDL
MODEL 8
REMARK VINA RESULT:      -7.6      1.977      5.340
REMARK  3 active torsions:
REMARK  status: ('A' for Active; 'I' for Inactive)
REMARK    1  A    between atoms: C_7  and  C_8 
REMARK    2  A    between atoms: C_17  and  C_18 
REMARK       I    between atoms: C_18  and  N_19 
REMARK    3  A    between atoms: N_19  and  C_20 
ROOT
HETATM    1  C   UNL     1      -5.111   0.600 -33.252  1.00  0.00     0.206 C 
HETATM    2  N   UNL     1      -4.079  -0.137 -32.507  1.00  0.00    -0.084 N 
HETATM    3  C   UNL     1      -3.918  -1.496 -32.578  1.00  0.00     0.725 A 
HETATM    4  N   UNL     1      -2.875  -1.853 -31.876  1.00  0.00    -0.054 NA
HETATM    5  C   UNL     1      -2.395  -0.655 -31.418  1.00  0.00     0.275 A 
HETATM    6  N   UNL     1      -3.061   0.432 -31.822  1.00  0.00    -0.149 NA
HETATM    7  N   UNL     1      -4.779  -2.224 -33.311  1.00  0.00    -0.192 N 
HETATM    8  C   UNL     1      -5.906  -1.688 -33.921  1.00  0.00     0.037 C 
HETATM    9  C   UNL     1      -6.816  -2.688 -34.595  1.00  0.00     0.070 C 
HETATM   10  C   UNL     1      -6.117  -0.346 -33.895  1.00  0.00     0.063 C 
HETATM   11  H   UNL     1      -4.689  -3.237 -33.301  1.00  0.00     0.184 HD
ENDROOT
BRANCH  10  12
HETATM   12  C   UNL     1      -7.406   0.192 -34.406  1.00  0.00     0.256 C 
HETATM   13  N   UNL     1      -8.369   0.376 -33.440  1.00  0.00    -0.323 N 
HETATM   14  H   UNL     1      -8.154   0.108 -32.490  1.00  0.00     0.169 HD
HETATM   15  O   UNL     1      -7.513   0.416 -35.606  1.00  0.00    -0.267 OA
BRANCH  13  16
HETATM   16  C   UNL     1      -9.669   0.899 -33.639  1.00  0.00     0.035 A 
HETATM   17  C   UNL     1     -10.845   0.207 -33.337  1.00  0.00     0.029 A 
HETATM   18  C   UNL     1     -12.095   0.787 -33.575  1.00  0.00     0.002 A 
HETATM   19  C   UNL     1     -12.183   2.068 -34.112  1.00  0.00     0.000 A 
HETATM   20  C   UNL     1     -11.019   2.769 -34.415  1.00  0.00     0.002 A 
HETATM   21  C   UNL     1      -9.769   2.186 -34.183  1.00  0.00     0.029 A 
ENDBRANCH  13  16
ENDBRANCH  10  12
BRANCH   1  22
HETATM   22  C   UNL     1      -5.707   1.688 -32.396  1.00  0.00     0.015 A 
HETATM   23  C   UNL     1      -6.029   2.986 -32.774  1.00  0.00     0.036 A 
HETATM   24  C   UNL     1      -5.850   3.703 -34.064  1.00  0.00     0.070 C 
HETATM   25  N   UNL     1      -6.556   3.583 -31.656  1.00  0.00    -0.278 N 
HETATM   26  C   UNL     1      -7.051   4.934 -31.526  1.00  0.00     0.179 C 
HETATM   27  N   UNL     1      -6.569   2.779 -30.581  1.00  0.00    -0.185 NA
HETATM   28  C   UNL     1      -6.050   1.635 -31.024  1.00  0.00     0.150 A 
ENDBRANCH   1  22
TORSDOF 3
ENDMDL
MODEL 9
REMARK VINA RESULT:      -7.3      2.098      5.208
REMARK  3 active torsions:
REMARK  status: ('A' for Active; 'I' for Inactive)
REMARK    1  A    between atoms: C_7  and  C_8 
REMARK    2  A    between atoms: C_17  and  C_18 
REMARK       I    between atoms: C_18  and  N_19 
REMARK    3  A    between atoms: N_19  and  C_20 
ROOT
HETATM    1  C   UNL     1      -5.809   1.073 -32.960  1.00  0.00     0.206 C 
HETATM    2  N   UNL     1      -4.678   0.481 -32.230  1.00  0.00    -0.084 N 
HETATM    3  C   UNL     1      -4.330  -0.842 -32.314  1.00  0.00     0.725 A 
HETATM    4  N   UNL     1      -3.241  -1.056 -31.624  1.00  0.00    -0.054 NA
HETATM    5  C   UNL     1      -2.927   0.194 -31.159  1.00  0.00     0.275 A 
HETATM    6  N   UNL     1      -3.742   1.181 -31.549  1.00  0.00    -0.149 NA
HETATM    7  N   UNL     1      -5.088  -1.677 -33.046  1.00  0.00    -0.192 N 
HETATM    8  C   UNL     1      -6.285  -1.298 -33.642  1.00  0.00     0.037 C 
HETATM    9  C   UNL     1      -7.054  -2.409 -34.316  1.00  0.00     0.070 C 
HETATM   10  C   UNL     1      -6.680   0.001 -33.603  1.00  0.00     0.063 C 
HETATM   11  H   UNL     1      -4.859  -2.668 -33.045  1.00  0.00     0.184 HD
ENDROOT
BRANCH  10  12
HETATM   12  C   UNL     1      -8.036   0.359 -34.098  1.00  0.00     0.256 C 
HETATM   13  N   UNL     1      -9.031   0.264 -33.152  1.00  0.00    -0.323 N 
HETATM   14  H   UNL     1      -8.787  -0.065 -32.229  1.00  0.00     0.169 HD
HETATM   15  O   UNL     1      -8.162   0.692 -35.271  1.00  0.00    -0.267 OA
BRANCH  13  16
HETATM   16  C   UNL     1     -10.399   0.571 -33.340  1.00  0.00     0.035 A 
HETATM   17  C   UNL     1     -10.883   1.855 -33.607  1.00  0.00     0.029 A 
HETATM   18  C   UNL     1     -12.254   2.082 -33.767  1.00  0.00     0.002 A 
HETATM   19  C   UNL     1     -13.155   1.026 -33.667  1.00  0.00     0.000 A 
HETATM   20  C   UNL     1     -12.687  -0.257 -33.404  1.00  0.00     0.002 A 
HETATM   21  C   UNL     1     -11.317  -0.483 -33.238  1.00  0.00     0.029 A 
ENDBRANCH  13  16
ENDBRANCH  10  12
BRANCH   1  22
HETATM   22  C   UNL     1      -6.541   2.062 -32.090  1.00  0.00     0.015 A 
HETATM   23  C   UNL     1      -6.878   3.376 -32.395  1.00  0.00     0.036 A 
HETATM   24  C   UNL     1      -6.590   4.207 -33.593  1.00  0.00     0.070 C 
HETATM   25  N   UNL     1      -7.548   3.855 -31.297  1.00  0.00    -0.278 N 
HETATM   26  C   UNL     1      -8.114   5.171 -31.113  1.00  0.00     0.179 C 
HETATM   27  N   UNL     1      -7.644   2.962 -30.300  1.00  0.00    -0.185 NA
HETATM   28  C   UNL     1      -7.029   1.878 -30.775  1.00  0.00     0.150 A 
ENDBRANCH   1  22
TORSDOF 3
ENDMDL
MODEL 10
REMARK VINA RESULT:      -7.2      2.275      5.215
REMARK  3 active torsions:
REMARK  status: ('A' for Active; 'I' for Inactive)
REMARK    1  A    between atoms: C_7  and  C_8 
REMARK    2  A    between atoms: C_17  and  C_18 
REMARK       I    between atoms: C_18  and  N_19 
REMARK    3  A    between atoms: N_19  and  C_20 
ROOT
HETATM    1  C   UNL     1      -8.033   3.859 -33.029  1.00  0.00     0.206 C 
HETATM    2  N   UNL     1      -8.920   4.406 -34.067  1.00  0.00    -0.084 N 
HETATM    3  C   UNL     1      -9.877   3.669 -34.713  1.00  0.00     0.725 A 
HETATM    4  N   UNL     1     -10.559   4.441 -35.518  1.00  0.00    -0.054 NA
HETATM    5  C   UNL     1     -10.003   5.673 -35.298  1.00  0.00     0.275 A 
HETATM    6  N   UNL     1      -9.034   5.718 -34.377  1.00  0.00    -0.149 NA
HETATM    7  N   UNL     1      -9.988   2.355 -34.447  1.00  0.00    -0.192 N 
HETATM    8  C   UNL     1      -9.103   1.665 -33.626  1.00  0.00     0.037 C 
HETATM    9  C   UNL     1      -9.320   0.172 -33.551  1.00  0.00     0.070 C 
HETATM   10  C   UNL     1      -8.139   2.341 -32.950  1.00  0.00     0.063 C 
HETATM   11  H   UNL     1     -10.656   1.806 -34.982  1.00  0.00     0.184 HD
ENDROOT
BRANCH  10  12
HETATM   12  C   UNL     1      -7.102   1.572 -32.211  1.00  0.00     0.256 C 
HETATM   13  N   UNL     1      -6.134   1.007 -33.010  1.00  0.00    -0.323 N 
HETATM   14  H   UNL     1      -6.211   1.120 -34.011  1.00  0.00     0.169 HD
HETATM   15  O   UNL     1      -7.189   1.495 -30.990  1.00  0.00    -0.267 OA
BRANCH  13  16
HETATM   16  C   UNL     1      -5.019   0.254 -32.572  1.00  0.00     0.035 A 
HETATM   17  C   UNL     1      -3.997   0.765 -31.768  1.00  0.00     0.029 A 
HETATM   18  C   UNL     1      -2.918  -0.040 -31.387  1.00  0.00     0.002 A 
HETATM   19  C   UNL     1      -2.854  -1.367 -31.801  1.00  0.00     0.000 A 
HETATM   20  C   UNL     1      -3.867  -1.890 -32.600  1.00  0.00     0.002 A 
HETATM   21  C   UNL     1      -4.942  -1.082 -32.986  1.00  0.00     0.029 A 
ENDBRANCH  13  16
ENDBRANCH  10  12
BRANCH   1  22
HETATM   22  C   UNL     1      -6.636   4.400 -33.187  1.00  0.00     0.015 A 
HETATM   23  C   UNL     1      -5.893   5.119 -32.257  1.00  0.00     0.036 A 
HETATM   24  C   UNL     1      -6.238   5.609 -30.897  1.00  0.00     0.070 C 
HETATM   25  N   UNL     1      -4.684   5.368 -32.856  1.00  0.00    -0.278 N 
HETATM   26  C   UNL     1      -3.554   6.079 -32.303  1.00  0.00     0.179 C 
HETATM   27  N   UNL     1      -4.602   4.892 -34.108  1.00  0.00    -0.185 NA
HETATM   28  C   UNL     1      -5.784   4.312 -34.313  1.00  0.00     0.150 A 
ENDBRANCH   1  22
TORSDOF 3
ENDMDL
