MODEL 1
REMARK VINA RESULT:      -8.7      0.000      0.000
REMARK  3 active torsions:
REMARK  status: ('A' for Active; 'I' for Inactive)
REMARK    1  A    between atoms: C_9  and  C_10 
REMARK    2  A    between atoms: C_10  and  C_11 
REMARK       I    between atoms: C_11  and  N_12 
REMARK    3  A    between atoms: N_12  and  C_13 
ROOT
HETATM    1  C   UNL     1      -6.514  -0.757 -34.689  1.00  0.00     0.001 A 
HETATM    2  C   UNL     1      -5.996   0.245 -33.863  1.00  0.00     0.014 A 
HETATM    3  C   UNL     1      -4.945  -0.047 -32.983  1.00  0.00     0.006 A 
HETATM    4  C   UNL     1      -4.436  -1.343 -32.933  1.00  0.00     0.046 A 
HETATM    5  C   UNL     1      -3.351  -1.651 -31.989  1.00  0.00     0.272 A 
HETATM    6  O   UNL     1      -2.871  -2.776 -31.909  1.00  0.00    -0.266 OA
HETATM    7  N   UNL     1      -2.918  -0.608 -31.207  1.00  0.00    -0.243 N 
HETATM    8  N   UNL     1      -3.379   0.669 -31.248  1.00  0.00    -0.175 NA
HETATM    9  C   UNL     1      -4.329   0.966 -32.084  1.00  0.00     0.074 A 
HETATM   10  C   UNL     1      -4.954  -2.346 -33.760  1.00  0.00     0.018 A 
HETATM   11  C   UNL     1      -5.992  -2.049 -34.641  1.00  0.00     0.001 A 
HETATM   12  H   UNL     1      -2.174  -0.807 -30.544  1.00  0.00     0.192 HD
ENDROOT
BRANCH   9  13
HETATM   13  C   UNL     1      -4.836   2.393 -32.148  1.00  0.00     0.165 C 
BRANCH  13  14
HETATM   14  C   UNL     1      -3.995   3.545 -31.632  1.00  0.00     0.228 C 
HETATM   15  N   UNL     1      -2.753   3.700 -32.204  1.00  0.00    -0.326 N 
HETATM   16  H   UNL     1      -2.412   2.911 -32.757  1.00  0.00     0.169 HD
HETATM   17  O   UNL     1      -4.497   4.306 -30.804  1.00  0.00    -0.273 OA
BRANCH  15  18
HETATM   18  C   UNL     1      -1.819   4.747 -32.017  1.00  0.00     0.052 A 
HETATM   19  C   UNL     1      -1.713   5.752 -32.998  1.00  0.00     0.037 A 
HETATM   20 BR   UNL     1      -2.788   5.738 -34.569  1.00  0.00    -0.049 Br
HETATM   21  C   UNL     1      -0.811   6.812 -32.854  1.00  0.00     0.021 A 
HETATM   22  C   UNL     1      -0.002   6.887 -31.722  1.00  0.00     0.002 A 
HETATM   23  C   UNL     1      -0.099   5.905 -30.741  1.00  0.00     0.002 A 
HETATM   24  C   UNL     1      -1.002   4.845 -30.887  1.00  0.00     0.031 A 
ENDBRANCH  15  18
ENDBRANCH  13  14
ENDBRANCH   9  13
TORSDOF 3
ENDMDL
MODEL 2
REMARK VINA RESULT:      -8.3      4.850      7.710
REMARK  3 active torsions:
REMARK  status: ('A' for Active; 'I' for Inactive)
REMARK    1  A    between atoms: C_9  and  C_10 
REMARK    2  A    between atoms: C_10  and  C_11 
REMARK       I    between atoms: C_11  and  N_12 
REMARK    3  A    between atoms: N_12  and  C_13 
ROOT
HETATM    1  C   UNL     1      -6.208  -3.602 -34.960  1.00  0.00     0.001 A 
HETATM    2  C   UNL     1      -6.811  -2.343 -34.883  1.00  0.00     0.014 A 
HETATM    3  C   UNL     1      -6.134  -1.280 -34.269  1.00  0.00     0.006 A 
HETATM    4  C   UNL     1      -4.868  -1.496 -33.730  1.00  0.00     0.046 A 
HETATM    5  C   UNL     1      -4.173  -0.383 -33.063  1.00  0.00     0.272 A 
HETATM    6  O   UNL     1      -3.059  -0.525 -32.574  1.00  0.00    -0.266 OA
HETATM    7  N   UNL     1      -4.850   0.810 -33.021  1.00  0.00    -0.243 N 
HETATM    8  N   UNL     1      -6.074   1.057 -33.556  1.00  0.00    -0.175 NA
HETATM    9  C   UNL     1      -6.700   0.092 -34.161  1.00  0.00     0.074 A 
HETATM   10  C   UNL     1      -4.264  -2.756 -33.808  1.00  0.00     0.018 A 
HETATM   11  C   UNL     1      -4.936  -3.808 -34.428  1.00  0.00     0.001 A 
HETATM   12  H   UNL     1      -4.386   1.587 -32.557  1.00  0.00     0.192 HD
ENDROOT
BRANCH   9  13
HETATM   13  C   UNL     1      -8.058   0.365 -34.776  1.00  0.00     0.165 C 
BRANCH  13  14
HETATM   14  C   UNL     1      -9.282   0.574 -33.904  1.00  0.00     0.228 C 
HETATM   15  N   UNL     1     -10.306   1.309 -34.455  1.00  0.00    -0.326 N 
HETATM   16  H   UNL     1     -10.076   1.836 -35.300  1.00  0.00     0.169 HD
HETATM   17  O   UNL     1      -9.317   0.015 -32.808  1.00  0.00    -0.273 OA
BRANCH  15  18
HETATM   18  C   UNL     1     -11.600   1.551 -33.934  1.00  0.00     0.052 A 
HETATM   19  C   UNL     1     -11.873   2.793 -33.330  1.00  0.00     0.037 A 
HETATM   20 BR   UNL     1     -10.549   4.154 -33.193  1.00  0.00    -0.049 Br
HETATM   21  C   UNL     1     -13.139   3.082 -32.808  1.00  0.00     0.021 A 
HETATM   22  C   UNL     1     -14.155   2.133 -32.886  1.00  0.00     0.002 A 
HETATM   23  C   UNL     1     -13.903   0.902 -33.485  1.00  0.00     0.002 A 
HETATM   24  C   UNL     1     -12.637   0.615 -34.006  1.00  0.00     0.031 A 
ENDBRANCH  15  18
ENDBRANCH  13  14
ENDBRANCH   9  13
TORSDOF 3
ENDMDL
MODEL 3
REMARK VINA RESULT:      -8.2      2.152      2.780
REMARK  3 active torsions:
REMARK  status: ('A' for Active; 'I' for Inactive)
REMARK    1  A    between atoms: C_9  and  C_10 
REMARK    2  A    between atoms: C_10  and  C_11 
REMARK       I    between atoms: C_11  and  N_12 
REMARK    3  A    between atoms: N_12  and  C_13 
ROOT
HETATM    1  C   UNL     1      -4.650  -2.366 -33.910  1.00  0.00     0.001 A 
HETATM    2  C   UNL     1      -4.436  -1.114 -33.327  1.00  0.00     0.014 A 
HETATM    3  C   UNL     1      -5.411  -0.113 -33.439  1.00  0.00     0.006 A 
HETATM    4  C   UNL     1      -6.583  -0.377 -34.145  1.00  0.00     0.046 A 
HETATM    5  C   UNL     1      -7.592   0.685 -34.282  1.00  0.00     0.272 A 
HETATM    6  O   UNL     1      -8.638   0.500 -34.894  1.00  0.00    -0.266 OA
HETATM    7  N   UNL     1      -7.286   1.885 -33.691  1.00  0.00    -0.243 N 
HETATM    8  N   UNL     1      -6.164   2.166 -32.979  1.00  0.00    -0.175 NA
HETATM    9  C   UNL     1      -5.266   1.238 -32.834  1.00  0.00     0.074 A 
HETATM   10  C   UNL     1      -6.798  -1.632 -34.728  1.00  0.00     0.018 A 
HETATM   11  C   UNL     1      -5.830  -2.626 -34.606  1.00  0.00     0.001 A 
HETATM   12  H   UNL     1      -7.971   2.632 -33.784  1.00  0.00     0.192 HD
ENDROOT
BRANCH   9  13
HETATM   13  C   UNL     1      -4.019   1.538 -32.026  1.00  0.00     0.165 C 
BRANCH  13  14
HETATM   14  C   UNL     1      -3.546   2.965 -31.820  1.00  0.00     0.228 C 
HETATM   15  N   UNL     1      -2.614   3.435 -32.717  1.00  0.00    -0.326 N 
HETATM   16  H   UNL     1      -2.156   2.731 -33.299  1.00  0.00     0.169 HD
HETATM   17  O   UNL     1      -4.073   3.629 -30.929  1.00  0.00    -0.273 OA
BRANCH  15  18
HETATM   18  C   UNL     1      -2.097   4.747 -32.848  1.00  0.00     0.052 A 
HETATM   19  C   UNL     1      -2.634   5.598 -33.833  1.00  0.00     0.037 A 
HETATM   20 BR   UNL     1      -4.031   5.032 -34.995  1.00  0.00    -0.049 Br
HETATM   21  C   UNL     1      -2.162   6.906 -33.994  1.00  0.00     0.021 A 
HETATM   22  C   UNL     1      -1.148   7.385 -33.168  1.00  0.00     0.002 A 
HETATM   23  C   UNL     1      -0.611   6.558 -32.186  1.00  0.00     0.002 A 
HETATM   24  C   UNL     1      -1.084   5.251 -32.026  1.00  0.00     0.031 A 
ENDBRANCH  15  18
ENDBRANCH  13  14
ENDBRANCH   9  13
TORSDOF 3
ENDMDL
MODEL 4
REMARK VINA RESULT:      -8.1      2.687      7.323
REMARK  3 active torsions:
REMARK  status: ('A' for Active; 'I' for Inactive)
REMARK    1  A    between atoms: C_9  and  C_10 
REMARK    2  A    between atoms: C_10  and  C_11 
REMARK       I    between atoms: C_11  and  N_12 
REMARK    3  A    between atoms: N_12  and  C_13 
ROOT
HETATM    1  C   UNL     1      -1.501   4.475 -31.311  1.00  0.00     0.001 A 
HETATM    2  C   UNL     1      -2.705   3.766 -31.372  1.00  0.00     0.014 A 
HETATM    3  C   UNL     1      -3.555   3.924 -32.475  1.00  0.00     0.006 A 
HETATM    4  C   UNL     1      -3.193   4.801 -33.496  1.00  0.00     0.046 A 
HETATM    5  C   UNL     1      -4.102   4.983 -34.639  1.00  0.00     0.272 A 
HETATM    6  O   UNL     1      -3.827   5.742 -35.561  1.00  0.00    -0.266 OA
HETATM    7  N   UNL     1      -5.267   4.258 -34.604  1.00  0.00    -0.243 N 
HETATM    8  N   UNL     1      -5.637   3.381 -33.635  1.00  0.00    -0.175 NA
HETATM    9  C   UNL     1      -4.843   3.195 -32.622  1.00  0.00     0.074 A 
HETATM   10  C   UNL     1      -1.988   5.510 -33.435  1.00  0.00     0.018 A 
HETATM   11  C   UNL     1      -1.141   5.342 -32.342  1.00  0.00     0.001 A 
HETATM   12  H   UNL     1      -5.908   4.379 -35.384  1.00  0.00     0.192 HD
ENDROOT
BRANCH   9  13
HETATM   13  C   UNL     1      -5.241   2.205 -31.546  1.00  0.00     0.165 C 
BRANCH  13  14
HETATM   14  C   UNL     1      -5.577   0.767 -31.893  1.00  0.00     0.228 C 
HETATM   15  N   UNL     1      -5.090   0.297 -33.091  1.00  0.00    -0.326 N 
HETATM   16  H   UNL     1      -4.741   1.004 -33.742  1.00  0.00     0.169 HD
HETATM   17  O   UNL     1      -6.185   0.095 -31.060  1.00  0.00    -0.273 OA
BRANCH  15  18
HETATM   18  C   UNL     1      -5.134  -1.021 -33.607  1.00  0.00     0.052 A 
HETATM   19  C   UNL     1      -6.191  -1.385 -34.463  1.00  0.00     0.037 A 
HETATM   20 BR   UNL     1      -7.562  -0.155 -34.943  1.00  0.00    -0.049 Br
HETATM   21  C   UNL     1      -6.272  -2.673 -35.005  1.00  0.00     0.021 A 
HETATM   22  C   UNL     1      -5.294  -3.617 -34.702  1.00  0.00     0.002 A 
HETATM   23  C   UNL     1      -4.241  -3.271 -33.861  1.00  0.00     0.002 A 
HETATM   24  C   UNL     1      -4.160  -1.983 -33.320  1.00  0.00     0.031 A 
ENDBRANCH  15  18
ENDBRANCH  13  14
ENDBRANCH   9  13
TORSDOF 3
ENDMDL
MODEL 5
REMARK VINA RESULT:      -8.0      2.447      7.787
REMARK  3 active torsions:
REMARK  status: ('A' for Active; 'I' for Inactive)
REMARK    1  A    between atoms: C_9  and  C_10 
REMARK    2  A    between atoms: C_10  and  C_11 
REMARK       I    between atoms: C_11  and  N_12 
REMARK    3  A    between atoms: N_12  and  C_13 
ROOT
HETATM    1  C   UNL     1       0.259   5.532 -30.239  1.00  0.00     0.001 A 
HETATM    2  C   UNL     1      -0.858   4.781 -30.618  1.00  0.00     0.014 A 
HETATM    3  C   UNL     1      -1.610   5.161 -31.737  1.00  0.00     0.006 A 
HETATM    4  C   UNL     1      -1.241   6.297 -32.455  1.00  0.00     0.046 A 
HETATM    5  C   UNL     1      -2.050   6.707 -33.613  1.00  0.00     0.272 A 
HETATM    6  O   UNL     1      -1.765   7.699 -34.275  1.00  0.00    -0.266 OA
HETATM    7  N   UNL     1      -3.136   5.918 -33.899  1.00  0.00    -0.243 N 
HETATM    8  N   UNL     1      -3.508   4.794 -33.233  1.00  0.00    -0.175 NA
HETATM    9  C   UNL     1      -2.800   4.406 -32.214  1.00  0.00     0.074 A 
HETATM   10  C   UNL     1      -0.123   7.049 -32.076  1.00  0.00     0.018 A 
HETATM   11  C   UNL     1       0.628   6.662 -30.968  1.00  0.00     0.001 A 
HETATM   12  H   UNL     1      -3.710   6.193 -34.692  1.00  0.00     0.192 HD
ENDROOT
BRANCH   9  13
HETATM   13  C   UNL     1      -3.199   3.144 -31.476  1.00  0.00     0.165 C 
BRANCH  13  14
HETATM   14  C   UNL     1      -4.463   2.390 -31.843  1.00  0.00     0.228 C 
HETATM   15  N   UNL     1      -4.412   1.633 -32.991  1.00  0.00    -0.326 N 
HETATM   16  H   UNL     1      -3.621   1.812 -33.612  1.00  0.00     0.169 HD
HETATM   17  O   UNL     1      -5.415   2.438 -31.064  1.00  0.00    -0.273 OA
BRANCH  15  18
HETATM   18  C   UNL     1      -5.382   0.735 -33.501  1.00  0.00     0.052 A 
HETATM   19  C   UNL     1      -5.238  -0.642 -33.247  1.00  0.00     0.037 A 
HETATM   20 BR   UNL     1      -3.777  -1.331 -32.241  1.00  0.00    -0.049 Br
HETATM   21  C   UNL     1      -6.176  -1.567 -33.723  1.00  0.00     0.021 A 
HETATM   22  C   UNL     1      -7.275  -1.127 -34.457  1.00  0.00     0.002 A 
HETATM   23  C   UNL     1      -7.433   0.232 -34.711  1.00  0.00     0.002 A 
HETATM   24  C   UNL     1      -6.495   1.155 -34.235  1.00  0.00     0.031 A 
ENDBRANCH  15  18
ENDBRANCH  13  14
ENDBRANCH   9  13
TORSDOF 3
ENDMDL
MODEL 6
REMARK VINA RESULT:      -8.0      2.692      6.990
REMARK  3 active torsions:
REMARK  status: ('A' for Active; 'I' for Inactive)
REMARK    1  A    between atoms: C_9  and  C_10 
REMARK    2  A    between atoms: C_10  and  C_11 
REMARK       I    between atoms: C_11  and  N_12 
REMARK    3  A    between atoms: N_12  and  C_13 
ROOT
HETATM    1  C   UNL     1      -3.889   5.211 -35.329  1.00  0.00     0.001 A 
HETATM    2  C   UNL     1      -4.643   4.399 -34.475  1.00  0.00     0.014 A 
HETATM    3  C   UNL     1      -4.129   4.032 -33.224  1.00  0.00     0.006 A 
HETATM    4  C   UNL     1      -2.861   4.472 -32.850  1.00  0.00     0.046 A 
HETATM    5  C   UNL     1      -2.316   4.061 -31.547  1.00  0.00     0.272 A 
HETATM    6  O   UNL     1      -1.206   4.424 -31.174  1.00  0.00    -0.266 OA
HETATM    7  N   UNL     1      -3.120   3.251 -30.785  1.00  0.00    -0.243 N 
HETATM    8  N   UNL     1      -4.367   2.824 -31.113  1.00  0.00    -0.175 NA
HETATM    9  C   UNL     1      -4.874   3.185 -32.254  1.00  0.00     0.074 A 
HETATM   10  C   UNL     1      -2.107   5.285 -33.704  1.00  0.00     0.018 A 
HETATM   11  C   UNL     1      -2.625   5.656 -34.943  1.00  0.00     0.001 A 
HETATM   12  H   UNL     1      -2.754   2.953 -29.885  1.00  0.00     0.192 HD
ENDROOT
BRANCH   9  13
HETATM   13  C   UNL     1      -6.272   2.727 -32.619  1.00  0.00     0.165 C 
BRANCH  13  14
HETATM   14  C   UNL     1      -6.582   1.257 -32.831  1.00  0.00     0.228 C 
HETATM   15  N   UNL     1      -5.820   0.601 -33.770  1.00  0.00    -0.326 N 
HETATM   16  H   UNL     1      -5.273   1.194 -34.398  1.00  0.00     0.169 HD
HETATM   17  O   UNL     1      -7.426   0.730 -32.105  1.00  0.00    -0.273 OA
BRANCH  15  18
HETATM   18  C   UNL     1      -5.797  -0.780 -34.081  1.00  0.00     0.052 A 
HETATM   19  C   UNL     1      -4.684  -1.550 -33.692  1.00  0.00     0.037 A 
HETATM   20 BR   UNL     1      -3.210  -0.785 -32.764  1.00  0.00    -0.049 Br
HETATM   21  C   UNL     1      -4.620  -2.921 -33.969  1.00  0.00     0.021 A 
HETATM   22  C   UNL     1      -5.672  -3.544 -34.636  1.00  0.00     0.002 A 
HETATM   23  C   UNL     1      -6.781  -2.798 -35.022  1.00  0.00     0.002 A 
HETATM   24  C   UNL     1      -6.844  -1.428 -34.745  1.00  0.00     0.031 A 
ENDBRANCH  15  18
ENDBRANCH  13  14
ENDBRANCH   9  13
TORSDOF 3
ENDMDL
MODEL 7
REMARK VINA RESULT:      -7.9      1.488      1.947
REMARK  3 active torsions:
REMARK  status: ('A' for Active; 'I' for Inactive)
REMARK    1  A    between atoms: C_9  and  C_10 
REMARK    2  A    between atoms: C_10  and  C_11 
REMARK       I    between atoms: C_11  and  N_12 
REMARK    3  A    between atoms: N_12  and  C_13 
ROOT
HETATM    1  C   UNL     1      -7.870   0.954 -34.173  1.00  0.00     0.001 A 
HETATM    2  C   UNL     1      -6.998   1.151 -33.098  1.00  0.00     0.014 A 
HETATM    3  C   UNL     1      -5.892   0.308 -32.930  1.00  0.00     0.006 A 
HETATM    4  C   UNL     1      -5.681  -0.732 -33.834  1.00  0.00     0.046 A 
HETATM    5  C   UNL     1      -4.533  -1.631 -33.638  1.00  0.00     0.272 A 
HETATM    6  O   UNL     1      -4.307  -2.558 -34.406  1.00  0.00    -0.266 OA
HETATM    7  N   UNL     1      -3.743  -1.369 -32.547  1.00  0.00    -0.243 N 
HETATM    8  N   UNL     1      -3.910  -0.352 -31.661  1.00  0.00    -0.175 NA
HETATM    9  C   UNL     1      -4.909   0.462 -31.823  1.00  0.00     0.074 A 
HETATM   10  C   UNL     1      -6.554  -0.929 -34.911  1.00  0.00     0.018 A 
HETATM   11  C   UNL     1      -7.647  -0.082 -35.080  1.00  0.00     0.001 A 
HETATM   12  H   UNL     1      -2.950  -1.987 -32.393  1.00  0.00     0.192 HD
ENDROOT
BRANCH   9  13
HETATM   13  C   UNL     1      -5.092   1.609 -30.850  1.00  0.00     0.165 C 
BRANCH  13  14
HETATM   14  C   UNL     1      -4.454   2.962 -31.108  1.00  0.00     0.228 C 
HETATM   15  N   UNL     1      -3.551   3.024 -32.144  1.00  0.00    -0.326 N 
HETATM   16  H   UNL     1      -3.219   2.127 -32.505  1.00  0.00     0.169 HD
HETATM   17  O   UNL     1      -4.835   3.921 -30.437  1.00  0.00    -0.273 OA
BRANCH  15  18
HETATM   18  C   UNL     1      -2.909   4.162 -32.689  1.00  0.00     0.052 A 
HETATM   19  C   UNL     1      -3.570   4.909 -33.683  1.00  0.00     0.037 A 
HETATM   20 BR   UNL     1      -5.300   4.430 -34.315  1.00  0.00    -0.049 Br
HETATM   21  C   UNL     1      -2.980   6.048 -34.245  1.00  0.00     0.021 A 
HETATM   22  C   UNL     1      -1.719   6.459 -33.818  1.00  0.00     0.002 A 
HETATM   23  C   UNL     1      -1.056   5.734 -32.833  1.00  0.00     0.002 A 
HETATM   24  C   UNL     1      -1.647   4.597 -32.272  1.00  0.00     0.031 A 
ENDBRANCH  15  18
ENDBRANCH  13  14
ENDBRANCH   9  13
TORSDOF 3
ENDMDL
MODEL 8
REMARK VINA RESULT:      -7.7      2.367      7.619
REMARK  3 active torsions:
REMARK  status: ('A' for Active; 'I' for Inactive)
REMARK    1  A    between atoms: C_9  and  C_10 
REMARK    2  A    between atoms: C_10  and  C_11 
REMARK       I    between atoms: C_11  and  N_12 
REMARK    3  A    between atoms: N_12  and  C_13 
ROOT
HETATM    1  C   UNL     1       0.267   5.547 -30.229  1.00  0.00     0.001 A 
HETATM    2  C   UNL     1      -0.812   4.764 -30.649  1.00  0.00     0.014 A 
HETATM    3  C   UNL     1      -1.551   5.138 -31.779  1.00  0.00     0.006 A 
HETATM    4  C   UNL     1      -1.207   6.300 -32.467  1.00  0.00     0.046 A 
HETATM    5  C   UNL     1      -2.002   6.703 -33.637  1.00  0.00     0.272 A 
HETATM    6  O   UNL     1      -1.738   7.717 -34.273  1.00  0.00    -0.266 OA
HETATM    7  N   UNL     1      -3.052   5.882 -33.963  1.00  0.00    -0.243 N 
HETATM    8  N   UNL     1      -3.399   4.733 -33.327  1.00  0.00    -0.175 NA
HETATM    9  C   UNL     1      -2.702   4.351 -32.299  1.00  0.00     0.074 A 
HETATM   10  C   UNL     1      -0.126   7.084 -32.047  1.00  0.00     0.018 A 
HETATM   11  C   UNL     1       0.612   6.703 -30.928  1.00  0.00     0.001 A 
HETATM   12  H   UNL     1      -3.616   6.151 -34.766  1.00  0.00     0.192 HD
ENDROOT
BRANCH   9  13
HETATM   13  C   UNL     1      -3.072   3.061 -31.595  1.00  0.00     0.165 C 
BRANCH  13  14
HETATM   14  C   UNL     1      -4.456   2.458 -31.745  1.00  0.00     0.228 C 
HETATM   15  N   UNL     1      -4.864   2.176 -33.028  1.00  0.00    -0.326 N 
HETATM   16  H   UNL     1      -4.309   2.594 -33.778  1.00  0.00     0.169 HD
HETATM   17  O   UNL     1      -5.086   2.188 -30.722  1.00  0.00    -0.273 OA
BRANCH  15  18
HETATM   18  C   UNL     1      -6.033   1.501 -33.455  1.00  0.00     0.052 A 
HETATM   19  C   UNL     1      -7.178   2.254 -33.778  1.00  0.00     0.037 A 
HETATM   20 BR   UNL     1      -7.198   4.153 -33.654  1.00  0.00    -0.049 Br
HETATM   21  C   UNL     1      -8.354   1.632 -34.214  1.00  0.00     0.021 A 
HETATM   22  C   UNL     1      -8.402   0.245 -34.337  1.00  0.00     0.002 A 
HETATM   23  C   UNL     1      -7.276  -0.513 -34.027  1.00  0.00     0.002 A 
HETATM   24  C   UNL     1      -6.101   0.110 -33.592  1.00  0.00     0.031 A 
ENDBRANCH  15  18
ENDBRANCH  13  14
ENDBRANCH   9  13
TORSDOF 3
ENDMDL
MODEL 9
REMARK VINA RESULT:      -7.7      5.063      7.216
REMARK  3 active torsions:
REMARK  status: ('A' for Active; 'I' for Inactive)
REMARK    1  A    between atoms: C_9  and  C_10 
REMARK    2  A    between atoms: C_10  and  C_11 
REMARK       I    between atoms: C_11  and  N_12 
REMARK    3  A    between atoms: N_12  and  C_13 
ROOT
HETATM    1  C   UNL     1      -6.358  -3.334 -34.925  1.00  0.00     0.001 A 
HETATM    2  C   UNL     1      -6.955  -2.097 -34.667  1.00  0.00     0.014 A 
HETATM    3  C   UNL     1      -6.215  -1.076 -34.056  1.00  0.00     0.006 A 
HETATM    4  C   UNL     1      -4.889  -1.313 -33.698  1.00  0.00     0.046 A 
HETATM    5  C   UNL     1      -4.125  -0.247 -33.032  1.00  0.00     0.272 A 
HETATM    6  O   UNL     1      -2.956  -0.409 -32.700  1.00  0.00    -0.266 OA
HETATM    7  N   UNL     1      -4.799   0.926 -32.806  1.00  0.00    -0.243 N 
HETATM    8  N   UNL     1      -6.082   1.195 -33.161  1.00  0.00    -0.175 NA
HETATM    9  C   UNL     1      -6.772   0.272 -33.762  1.00  0.00     0.074 A 
HETATM   10  C   UNL     1      -4.291  -2.552 -33.957  1.00  0.00     0.018 A 
HETATM   11  C   UNL     1      -5.027  -3.561 -34.574  1.00  0.00     0.001 A 
HETATM   12  H   UNL     1      -4.286   1.670 -32.340  1.00  0.00     0.192 HD
ENDROOT
BRANCH   9  13
HETATM   13  C   UNL     1      -8.199   0.570 -34.178  1.00  0.00     0.165 C 
BRANCH  13  14
HETATM   14  C   UNL     1      -9.218   1.069 -33.170  1.00  0.00     0.228 C 
HETATM   15  N   UNL     1      -9.946   2.178 -33.536  1.00  0.00    -0.326 N 
HETATM   16  H   UNL     1      -9.594   2.701 -34.340  1.00  0.00     0.169 HD
HETATM   17  O   UNL     1      -9.385   0.416 -32.140  1.00  0.00    -0.273 OA
BRANCH  15  18
HETATM   18  C   UNL     1     -11.039   2.778 -32.864  1.00  0.00     0.052 A 
HETATM   19  C   UNL     1     -12.345   2.530 -33.327  1.00  0.00     0.037 A 
HETATM   20 BR   UNL     1     -12.682   1.414 -34.832  1.00  0.00    -0.049 Br
HETATM   21  C   UNL     1     -13.457   3.093 -32.691  1.00  0.00     0.021 A 
HETATM   22  C   UNL     1     -13.280   3.911 -31.577  1.00  0.00     0.002 A 
HETATM   23  C   UNL     1     -11.996   4.161 -31.104  1.00  0.00     0.002 A 
HETATM   24  C   UNL     1     -10.885   3.597 -31.741  1.00  0.00     0.031 A 
ENDBRANCH  15  18
ENDBRANCH  13  14
ENDBRANCH   9  13
TORSDOF 3
ENDMDL
MODEL 10
REMARK VINA RESULT:      -7.7      4.182      6.050
REMARK  3 active torsions:
REMARK  status: ('A' for Active; 'I' for Inactive)
REMARK    1  A    between atoms: C_9  and  C_10 
REMARK    2  A    between atoms: C_10  and  C_11 
REMARK       I    between atoms: C_11  and  N_12 
REMARK    3  A    between atoms: N_12  and  C_13 
ROOT
HETATM    1  C   UNL     1      -5.946  -3.122 -35.115  1.00  0.00     0.001 A 
HETATM    2  C   UNL     1      -5.754  -1.865 -34.534  1.00  0.00     0.014 A 
HETATM    3  C   UNL     1      -4.808  -1.704 -33.513  1.00  0.00     0.006 A 
HETATM    4  C   UNL     1      -4.076  -2.807 -33.079  1.00  0.00     0.046 A 
HETATM    5  C   UNL     1      -3.103  -2.637 -31.988  1.00  0.00     0.272 A 
HETATM    6  O   UNL     1      -2.436  -3.578 -31.573  1.00  0.00    -0.266 OA
HETATM    7  N   UNL     1      -2.995  -1.371 -31.468  1.00  0.00    -0.243 N 
HETATM    8  N   UNL     1      -3.678  -0.273 -31.884  1.00  0.00    -0.175 NA
HETATM    9  C   UNL     1      -4.533  -0.397 -32.855  1.00  0.00     0.074 A 
HETATM   10  C   UNL     1      -4.268  -4.065 -33.661  1.00  0.00     0.018 A 
HETATM   11  C   UNL     1      -5.202  -4.220 -34.683  1.00  0.00     0.001 A 
HETATM   12  H   UNL     1      -2.332  -1.240 -30.709  1.00  0.00     0.192 HD
ENDROOT
BRANCH   9  13
HETATM   13  C   UNL     1      -5.286   0.826 -33.337  1.00  0.00     0.165 C 
BRANCH  13  14
HETATM   14  C   UNL     1      -6.699   1.111 -32.863  1.00  0.00     0.228 C 
HETATM   15  N   UNL     1      -7.600   1.499 -33.828  1.00  0.00    -0.326 N 
HETATM   16  H   UNL     1      -7.203   1.778 -34.727  1.00  0.00     0.169 HD
HETATM   17  O   UNL     1      -6.968   0.904 -31.680  1.00  0.00    -0.273 OA
BRANCH  15  18
HETATM   18  C   UNL     1      -8.997   1.700 -33.703  1.00  0.00     0.052 A 
HETATM   19  C   UNL     1      -9.497   3.016 -33.679  1.00  0.00     0.037 A 
HETATM   20 BR   UNL     1      -8.350   4.529 -33.808  1.00  0.00    -0.049 Br
HETATM   21  C   UNL     1     -10.870   3.265 -33.566  1.00  0.00     0.021 A 
HETATM   22  C   UNL     1     -11.765   2.201 -33.479  1.00  0.00     0.002 A 
HETATM   23  C   UNL     1     -11.285   0.895 -33.507  1.00  0.00     0.002 A 
HETATM   24  C   UNL     1      -9.913   0.647 -33.620  1.00  0.00     0.031 A 
ENDBRANCH  15  18
ENDBRANCH  13  14
ENDBRANCH   9  13
TORSDOF 3
ENDMDL
