MODEL 1
REMARK VINA RESULT:      -7.7      0.000      0.000
REMARK  5 active torsions:
REMARK  status: ('A' for Active; 'I' for Inactive)
REMARK    1  A    between atoms: C_2  and  C_3 
REMARK       I    between atoms: C_3  and  N_4 
REMARK    2  A    between atoms: N_4  and  C_5 
REMARK    3  A    between atoms: C_7  and  N_8 
REMARK       I    between atoms: N_8  and  C_9 
REMARK       I    between atoms: C_9  and  N_10 
REMARK    4  A    between atoms: N_10  and  C_11 
REMARK    5  A    between atoms: C_11  and  C_12 
ROOT
HETATM    1  N   UNL     1      -5.276   5.371 -33.494  1.00  0.00    -0.306 N 
HETATM    2  C   UNL     1      -6.093   4.333 -33.732  1.00  0.00     0.321 C 
HETATM    3  N   UNL     1      -5.801   3.048 -33.505  1.00  0.00    -0.338 N 
HETATM    4  O   UNL     1      -7.235   4.587 -34.130  1.00  0.00    -0.247 OA
HETATM    5  H   UNL     1      -5.823   6.229 -33.481  1.00  0.00     0.171 HD
HETATM    6  H   UNL     1      -6.599   2.470 -33.731  1.00  0.00     0.164 HD
ENDROOT
BRANCH   1   7
HETATM    7  C   UNL     1      -3.894   5.585 -33.367  1.00  0.00     0.077 C 
HETATM    8  C   UNL     1      -3.205   5.738 -32.165  1.00  0.00     0.062 C 
HETATM    9  C   UNL     1      -1.835   6.038 -32.154  1.00  0.00     0.037 C 
HETATM   10  C   UNL     1      -1.124   6.044 -33.361  1.00  0.00     0.032 C 
HETATM   11  C   UNL     1      -1.780   5.793 -34.565  1.00  0.00     0.047 C 
HETATM   12  C   UNL     1      -3.152   5.579 -34.556  1.00  0.00     0.143 C 
HETATM   13  F   UNL     1      -3.776   5.368 -35.727  1.00  0.00    -0.204 F 
BRANCH   9  14
HETATM   14  N   UNL     1      -1.115   6.396 -30.994  1.00  0.00    -0.327 N 
HETATM   15  C   UNL     1      -0.333   5.571 -30.204  1.00  0.00     0.221 C 
HETATM   16  O   UNL     1       0.027   4.429 -30.469  1.00  0.00    -0.273 OA
HETATM   17  H   UNL     1      -1.273   7.333 -30.645  1.00  0.00     0.169 HD
BRANCH  15  18
HETATM   18  C   UNL     1       0.029   6.207 -28.875  1.00  0.00     0.098 C 
HETATM   19  C   UNL     1       0.633   7.587 -29.078  1.00  0.00     0.014 C 
ENDBRANCH  15  18
ENDBRANCH   9  14
ENDBRANCH   1   7
BRANCH   3  20
HETATM   20  C   UNL     1      -4.803   2.412 -32.674  1.00  0.00     0.167 C 
BRANCH  20  21
HETATM   21  C   UNL     1      -5.449   1.818 -31.466  1.00  0.00     0.009 A 
HETATM   22  C   UNL     1      -5.878   0.472 -31.292  1.00  0.00     0.060 A 
HETATM   23  C   UNL     1      -5.771  -0.653 -32.253  1.00  0.00     0.073 C 
HETATM   24  N   UNL     1      -6.466   0.284 -30.104  1.00  0.00    -0.179 NA
HETATM   25  N   UNL     1      -6.428   1.492 -29.525  1.00  0.00    -0.282 N 
HETATM   26  H   UNL     1      -6.837   1.592 -28.602  1.00  0.00     0.189 HD
HETATM   27  C   UNL     1      -5.847   2.455 -30.300  1.00  0.00     0.034 A 
HETATM   28  C   UNL     1      -5.750   3.866 -29.857  1.00  0.00     0.070 C 
ENDBRANCH  20  21
ENDBRANCH   3  20
TORSDOF 5
ENDMDL
MODEL 2
REMARK VINA RESULT:      -7.6      5.379      8.510
REMARK  5 active torsions:
REMARK  status: ('A' for Active; 'I' for Inactive)
REMARK    1  A    between atoms: C_2  and  C_3 
REMARK       I    between atoms: C_3  and  N_4 
REMARK    2  A    between atoms: N_4  and  C_5 
REMARK    3  A    between atoms: C_7  and  N_8 
REMARK       I    between atoms: N_8  and  C_9 
REMARK       I    between atoms: C_9  and  N_10 
REMARK    4  A    between atoms: N_10  and  C_11 
REMARK    5  A    between atoms: C_11  and  C_12 
ROOT
HETATM    1  N   UNL     1      -7.181   1.421 -30.646  1.00  0.00    -0.306 N 
HETATM    2  C   UNL     1      -6.174   0.581 -30.358  1.00  0.00     0.321 C 
HETATM    3  N   UNL     1      -5.379  -0.013 -31.254  1.00  0.00    -0.338 N 
HETATM    4  O   UNL     1      -5.914   0.392 -29.165  1.00  0.00    -0.247 OA
HETATM    5  H   UNL     1      -7.432   1.939 -29.807  1.00  0.00     0.171 HD
HETATM    6  H   UNL     1      -4.677  -0.563 -30.778  1.00  0.00     0.164 HD
ENDROOT
BRANCH   1   7
HETATM    7  C   UNL     1      -8.020   1.684 -31.741  1.00  0.00     0.077 C 
HETATM    8  C   UNL     1      -9.253   1.079 -31.981  1.00  0.00     0.062 C 
HETATM    9  C   UNL     1      -9.971   1.351 -33.154  1.00  0.00     0.037 C 
HETATM   10  C   UNL     1      -9.511   2.347 -34.026  1.00  0.00     0.032 C 
HETATM   11  C   UNL     1      -8.331   3.033 -33.750  1.00  0.00     0.047 C 
HETATM   12  C   UNL     1      -7.596   2.688 -32.622  1.00  0.00     0.143 C 
HETATM   13  F   UNL     1      -6.445   3.338 -32.384  1.00  0.00    -0.204 F 
BRANCH   9  14
HETATM   14  N   UNL     1     -11.122   0.640 -33.558  1.00  0.00    -0.327 N 
HETATM   15  C   UNL     1     -12.421   1.113 -33.622  1.00  0.00     0.221 C 
HETATM   16  O   UNL     1     -12.781   2.280 -33.522  1.00  0.00    -0.273 OA
HETATM   17  H   UNL     1     -10.997  -0.353 -33.715  1.00  0.00     0.169 HD
BRANCH  15  18
HETATM   18  C   UNL     1     -13.440   0.001 -33.788  1.00  0.00     0.098 C 
HETATM   19  C   UNL     1     -14.792   0.558 -34.205  1.00  0.00     0.014 C 
ENDBRANCH  15  18
ENDBRANCH   9  14
ENDBRANCH   1   7
BRANCH   3  20
HETATM   20  C   UNL     1      -5.086   0.284 -32.639  1.00  0.00     0.167 C 
BRANCH  20  21
HETATM   21  C   UNL     1      -5.151  -0.967 -33.452  1.00  0.00     0.009 A 
HETATM   22  C   UNL     1      -6.057  -1.263 -34.509  1.00  0.00     0.060 A 
HETATM   23  C   UNL     1      -7.131  -0.400 -35.061  1.00  0.00     0.073 C 
HETATM   24  N   UNL     1      -5.874  -2.497 -34.994  1.00  0.00    -0.179 NA
HETATM   25  N   UNL     1      -4.875  -2.995 -34.254  1.00  0.00    -0.282 N 
HETATM   26  H   UNL     1      -4.569  -3.944 -34.441  1.00  0.00     0.189 HD
HETATM   27  C   UNL     1      -4.412  -2.132 -33.302  1.00  0.00     0.034 A 
HETATM   28  C   UNL     1      -3.340  -2.512 -32.352  1.00  0.00     0.070 C 
ENDBRANCH  20  21
ENDBRANCH   3  20
TORSDOF 5
ENDMDL
MODEL 3
REMARK VINA RESULT:      -7.3      2.738      4.069
REMARK  5 active torsions:
REMARK  status: ('A' for Active; 'I' for Inactive)
REMARK    1  A    between atoms: C_2  and  C_3 
REMARK       I    between atoms: C_3  and  N_4 
REMARK    2  A    between atoms: N_4  and  C_5 
REMARK    3  A    between atoms: C_7  and  N_8 
REMARK       I    between atoms: N_8  and  C_9 
REMARK       I    between atoms: C_9  and  N_10 
REMARK    4  A    between atoms: N_10  and  C_11 
REMARK    5  A    between atoms: C_11  and  C_12 
ROOT
HETATM    1  N   UNL     1      -6.238   2.009 -31.795  1.00  0.00    -0.306 N 
HETATM    2  C   UNL     1      -6.878   0.870 -32.103  1.00  0.00     0.321 C 
HETATM    3  N   UNL     1      -6.534   0.028 -33.084  1.00  0.00    -0.338 N 
HETATM    4  O   UNL     1      -7.823   0.535 -31.381  1.00  0.00    -0.247 OA
HETATM    5  H   UNL     1      -6.516   2.305 -30.862  1.00  0.00     0.171 HD
HETATM    6  H   UNL     1      -7.152  -0.771 -33.081  1.00  0.00     0.164 HD
ENDROOT
BRANCH   1   7
HETATM    7  C   UNL     1      -5.394   2.924 -32.445  1.00  0.00     0.077 C 
HETATM    8  C   UNL     1      -4.039   3.111 -32.171  1.00  0.00     0.062 C 
HETATM    9  C   UNL     1      -3.307   4.117 -32.820  1.00  0.00     0.037 C 
HETATM   10  C   UNL     1      -3.909   4.846 -33.854  1.00  0.00     0.032 C 
HETATM   11  C   UNL     1      -5.234   4.601 -34.208  1.00  0.00     0.047 C 
HETATM   12  C   UNL     1      -5.961   3.656 -33.496  1.00  0.00     0.143 C 
HETATM   13  F   UNL     1      -7.246   3.451 -33.830  1.00  0.00    -0.204 F 
BRANCH   9  14
HETATM   14  N   UNL     1      -1.995   4.494 -32.461  1.00  0.00    -0.327 N 
HETATM   15  C   UNL     1      -1.620   5.521 -31.612  1.00  0.00     0.221 C 
HETATM   16  O   UNL     1      -2.356   6.167 -30.874  1.00  0.00    -0.273 OA
HETATM   17  H   UNL     1      -1.247   4.030 -32.962  1.00  0.00     0.169 HD
BRANCH  15  18
HETATM   18  C   UNL     1      -0.141   5.844 -31.704  1.00  0.00     0.098 C 
HETATM   19  C   UNL     1       0.280   6.794 -30.593  1.00  0.00     0.014 C 
ENDBRANCH  15  18
ENDBRANCH   9  14
ENDBRANCH   1   7
BRANCH   3  20
HETATM   20  C   UNL     1      -5.301  -0.156 -33.816  1.00  0.00     0.167 C 
BRANCH  20  21
HETATM   21  C   UNL     1      -4.586  -1.368 -33.314  1.00  0.00     0.009 A 
HETATM   22  C   UNL     1      -3.713  -1.452 -32.193  1.00  0.00     0.060 A 
HETATM   23  C   UNL     1      -3.324  -0.369 -31.255  1.00  0.00     0.073 C 
HETATM   24  N   UNL     1      -3.199  -2.679 -32.050  1.00  0.00    -0.179 NA
HETATM   25  N   UNL     1      -3.722  -3.374 -33.069  1.00  0.00    -0.282 N 
HETATM   26  H   UNL     1      -3.456  -4.348 -33.169  1.00  0.00     0.189 HD
HETATM   27  C   UNL     1      -4.546  -2.637 -33.871  1.00  0.00     0.034 A 
HETATM   28  C   UNL     1      -5.186  -3.213 -35.079  1.00  0.00     0.070 C 
ENDBRANCH  20  21
ENDBRANCH   3  20
TORSDOF 5
ENDMDL
MODEL 4
REMARK VINA RESULT:      -7.3      3.363      7.340
REMARK  5 active torsions:
REMARK  status: ('A' for Active; 'I' for Inactive)
REMARK    1  A    between atoms: C_2  and  C_3 
REMARK       I    between atoms: C_3  and  N_4 
REMARK    2  A    between atoms: N_4  and  C_5 
REMARK    3  A    between atoms: C_7  and  N_8 
REMARK       I    between atoms: N_8  and  C_9 
REMARK       I    between atoms: C_9  and  N_10 
REMARK    4  A    between atoms: N_10  and  C_11 
REMARK    5  A    between atoms: C_11  and  C_12 
ROOT
HETATM    1  N   UNL     1      -6.663   1.825 -31.702  1.00  0.00    -0.306 N 
HETATM    2  C   UNL     1      -5.804   2.420 -30.859  1.00  0.00     0.321 C 
HETATM    3  N   UNL     1      -4.504   2.626 -31.095  1.00  0.00    -0.338 N 
HETATM    4  O   UNL     1      -6.263   2.875 -29.806  1.00  0.00    -0.247 OA
HETATM    5  H   UNL     1      -7.615   2.044 -31.416  1.00  0.00     0.171 HD
HETATM    6  H   UNL     1      -4.091   3.127 -30.320  1.00  0.00     0.164 HD
ENDROOT
BRANCH   1   7
HETATM    7  C   UNL     1      -6.594   0.924 -32.777  1.00  0.00     0.077 C 
HETATM    8  C   UNL     1      -5.807  -0.226 -32.819  1.00  0.00     0.062 C 
HETATM    9  C   UNL     1      -5.744  -1.012 -33.979  1.00  0.00     0.037 C 
HETATM   10  C   UNL     1      -6.588  -0.715 -35.057  1.00  0.00     0.032 C 
HETATM   11  C   UNL     1      -7.455   0.374 -34.991  1.00  0.00     0.047 C 
HETATM   12  C   UNL     1      -7.440   1.184 -33.863  1.00  0.00     0.143 C 
HETATM   13  F   UNL     1      -8.260   2.247 -33.825  1.00  0.00    -0.204 F 
BRANCH   9  14
HETATM   14  N   UNL     1      -4.830  -2.071 -34.166  1.00  0.00    -0.327 N 
HETATM   15  C   UNL     1      -5.126  -3.404 -34.393  1.00  0.00     0.221 C 
HETATM   16  O   UNL     1      -6.227  -3.875 -34.660  1.00  0.00    -0.273 OA
HETATM   17  H   UNL     1      -3.854  -1.849 -34.011  1.00  0.00     0.169 HD
BRANCH  15  18
HETATM   18  C   UNL     1      -3.919  -4.307 -34.229  1.00  0.00     0.098 C 
HETATM   19  C   UNL     1      -3.365  -4.226 -32.815  1.00  0.00     0.014 C 
ENDBRANCH  15  18
ENDBRANCH   9  14
ENDBRANCH   1   7
BRANCH   3  20
HETATM   20  C   UNL     1      -3.731   2.646 -32.316  1.00  0.00     0.167 C 
BRANCH  20  21
HETATM   21  C   UNL     1      -3.572   4.051 -32.796  1.00  0.00     0.009 A 
HETATM   22  C   UNL     1      -4.414   4.753 -33.705  1.00  0.00     0.060 A 
HETATM   23  C   UNL     1      -5.647   4.264 -34.370  1.00  0.00     0.073 C 
HETATM   24  N   UNL     1      -3.957   5.984 -33.962  1.00  0.00    -0.179 NA
HETATM   25  N   UNL     1      -2.831   6.072 -33.241  1.00  0.00    -0.282 N 
HETATM   26  H   UNL     1      -2.298   6.934 -33.292  1.00  0.00     0.189 HD
HETATM   27  C   UNL     1      -2.539   4.940 -32.536  1.00  0.00     0.034 A 
HETATM   28  C   UNL     1      -1.312   4.822 -31.713  1.00  0.00     0.070 C 
ENDBRANCH  20  21
ENDBRANCH   3  20
TORSDOF 5
ENDMDL
MODEL 5
REMARK VINA RESULT:      -7.3      4.789      7.428
REMARK  5 active torsions:
REMARK  status: ('A' for Active; 'I' for Inactive)
REMARK    1  A    between atoms: C_2  and  C_3 
REMARK       I    between atoms: C_3  and  N_4 
REMARK    2  A    between atoms: N_4  and  C_5 
REMARK    3  A    between atoms: C_7  and  N_8 
REMARK       I    between atoms: N_8  and  C_9 
REMARK       I    between atoms: C_9  and  N_10 
REMARK    4  A    between atoms: N_10  and  C_11 
REMARK    5  A    between atoms: C_11  and  C_12 
ROOT
HETATM    1  N   UNL     1      -6.161   3.341 -33.052  1.00  0.00    -0.306 N 
HETATM    2  C   UNL     1      -7.188   4.082 -33.498  1.00  0.00     0.321 C 
HETATM    3  N   UNL     1      -8.477   3.869 -33.216  1.00  0.00    -0.338 N 
HETATM    4  O   UNL     1      -6.917   5.083 -34.169  1.00  0.00    -0.247 OA
HETATM    5  H   UNL     1      -5.297   3.864 -33.170  1.00  0.00     0.171 HD
HETATM    6  H   UNL     1      -9.044   4.590 -33.642  1.00  0.00     0.164 HD
ENDROOT
BRANCH   1   7
HETATM    7  C   UNL     1      -5.964   2.033 -32.580  1.00  0.00     0.077 C 
HETATM    8  C   UNL     1      -5.514   0.956 -33.341  1.00  0.00     0.062 C 
HETATM    9  C   UNL     1      -5.437  -0.332 -32.791  1.00  0.00     0.037 C 
HETATM   10  C   UNL     1      -5.681  -0.510 -31.423  1.00  0.00     0.032 C 
HETATM   11  C   UNL     1      -6.035   0.575 -30.625  1.00  0.00     0.047 C 
HETATM   12  C   UNL     1      -6.183   1.826 -31.211  1.00  0.00     0.143 C 
HETATM   13  F   UNL     1      -6.553   2.858 -30.435  1.00  0.00    -0.204 F 
BRANCH   9  14
HETATM   14  N   UNL     1      -5.179  -1.498 -33.544  1.00  0.00    -0.327 N 
HETATM   15  C   UNL     1      -6.006  -2.090 -34.483  1.00  0.00     0.221 C 
HETATM   16  O   UNL     1      -7.025  -1.610 -34.968  1.00  0.00    -0.273 OA
HETATM   17  H   UNL     1      -4.345  -2.014 -33.292  1.00  0.00     0.169 HD
BRANCH  15  18
HETATM   18  C   UNL     1      -5.556  -3.489 -34.859  1.00  0.00     0.098 C 
HETATM   19  C   UNL     1      -6.750  -4.389 -35.136  1.00  0.00     0.014 C 
ENDBRANCH  15  18
ENDBRANCH   9  14
ENDBRANCH   1   7
BRANCH   3  20
HETATM   20  C   UNL     1      -9.130   3.119 -32.167  1.00  0.00     0.167 C 
BRANCH  20  21
HETATM   21  C   UNL     1     -10.261   2.326 -32.735  1.00  0.00     0.009 A 
HETATM   22  C   UNL     1     -11.565   2.795 -33.061  1.00  0.00     0.060 A 
HETATM   23  C   UNL     1     -12.099   4.173 -32.931  1.00  0.00     0.073 C 
HETATM   24  N   UNL     1     -12.355   1.810 -33.505  1.00  0.00    -0.179 NA
HETATM   25  N   UNL     1     -11.578   0.719 -33.455  1.00  0.00    -0.282 N 
HETATM   26  H   UNL     1     -11.980  -0.167 -33.740  1.00  0.00     0.189 HD
HETATM   27  C   UNL     1     -10.319   0.963 -32.985  1.00  0.00     0.034 A 
HETATM   28  C   UNL     1      -9.323  -0.121 -32.811  1.00  0.00     0.070 C 
ENDBRANCH  20  21
ENDBRANCH   3  20
TORSDOF 5
ENDMDL
MODEL 6
REMARK VINA RESULT:      -7.2      3.676      7.092
REMARK  5 active torsions:
REMARK  status: ('A' for Active; 'I' for Inactive)
REMARK    1  A    between atoms: C_2  and  C_3 
REMARK       I    between atoms: C_3  and  N_4 
REMARK    2  A    between atoms: N_4  and  C_5 
REMARK    3  A    between atoms: C_7  and  N_8 
REMARK       I    between atoms: N_8  and  C_9 
REMARK       I    between atoms: C_9  and  N_10 
REMARK    4  A    between atoms: N_10  and  C_11 
REMARK    5  A    between atoms: C_11  and  C_12 
ROOT
HETATM    1  N   UNL     1      -8.287   1.712 -31.970  1.00  0.00    -0.306 N 
HETATM    2  C   UNL     1      -7.868   2.653 -31.109  1.00  0.00     0.321 C 
HETATM    3  N   UNL     1      -6.754   3.381 -31.238  1.00  0.00    -0.338 N 
HETATM    4  O   UNL     1      -8.603   2.917 -30.151  1.00  0.00    -0.247 OA
HETATM    5  H   UNL     1      -9.271   1.518 -31.797  1.00  0.00     0.171 HD
HETATM    6  H   UNL     1      -6.688   4.044 -30.478  1.00  0.00     0.164 HD
ENDROOT
BRANCH   1   7
HETATM    7  C   UNL     1      -7.714   0.878 -32.943  1.00  0.00     0.077 C 
HETATM    8  C   UNL     1      -6.737  -0.088 -32.708  1.00  0.00     0.062 C 
HETATM    9  C   UNL     1      -6.167  -0.807 -33.769  1.00  0.00     0.037 C 
HETATM   10  C   UNL     1      -6.685  -0.652 -35.061  1.00  0.00     0.032 C 
HETATM   11  C   UNL     1      -7.731   0.238 -35.297  1.00  0.00     0.047 C 
HETATM   12  C   UNL     1      -8.224   0.998 -34.243  1.00  0.00     0.143 C 
HETATM   13  F   UNL     1      -9.213   1.872 -34.491  1.00  0.00    -0.204 F 
BRANCH   9  14
HETATM   14  N   UNL     1      -5.046  -1.655 -33.635  1.00  0.00    -0.327 N 
HETATM   15  C   UNL     1      -4.879  -2.917 -34.178  1.00  0.00     0.221 C 
HETATM   16  O   UNL     1      -5.589  -3.450 -35.024  1.00  0.00    -0.273 OA
HETATM   17  H   UNL     1      -4.333  -1.349 -32.984  1.00  0.00     0.169 HD
BRANCH  15  18
HETATM   18  C   UNL     1      -3.704  -3.662 -33.575  1.00  0.00     0.098 C 
HETATM   19  C   UNL     1      -3.946  -5.163 -33.587  1.00  0.00     0.014 C 
ENDBRANCH  15  18
ENDBRANCH   9  14
ENDBRANCH   1   7
BRANCH   3  20
HETATM   20  C   UNL     1      -5.912   3.672 -32.377  1.00  0.00     0.167 C 
BRANCH  20  21
HETATM   21  C   UNL     1      -4.507   3.904 -31.926  1.00  0.00     0.009 A 
HETATM   22  C   UNL     1      -3.456   2.948 -31.855  1.00  0.00     0.060 A 
HETATM   23  C   UNL     1      -3.500   1.511 -32.225  1.00  0.00     0.073 C 
HETATM   24  N   UNL     1      -2.332   3.477 -31.357  1.00  0.00    -0.179 NA
HETATM   25  N   UNL     1      -2.655   4.751 -31.099  1.00  0.00    -0.282 N 
HETATM   26  H   UNL     1      -1.944   5.352 -30.697  1.00  0.00     0.189 HD
HETATM   27  C   UNL     1      -3.950   5.061 -31.402  1.00  0.00     0.034 A 
HETATM   28  C   UNL     1      -4.514   6.408 -31.147  1.00  0.00     0.070 C 
ENDBRANCH  20  21
ENDBRANCH   3  20
TORSDOF 5
ENDMDL
MODEL 7
REMARK VINA RESULT:      -7.2      4.956      7.501
REMARK  5 active torsions:
REMARK  status: ('A' for Active; 'I' for Inactive)
REMARK    1  A    between atoms: C_2  and  C_3 
REMARK       I    between atoms: C_3  and  N_4 
REMARK    2  A    between atoms: N_4  and  C_5 
REMARK    3  A    between atoms: C_7  and  N_8 
REMARK       I    between atoms: N_8  and  C_9 
REMARK       I    between atoms: C_9  and  N_10 
REMARK    4  A    between atoms: N_10  and  C_11 
REMARK    5  A    between atoms: C_11  and  C_12 
ROOT
HETATM    1  N   UNL     1      -7.081   1.597 -30.632  1.00  0.00    -0.306 N 
HETATM    2  C   UNL     1      -7.832   2.697 -30.805  1.00  0.00     0.321 C 
HETATM    3  N   UNL     1      -8.188   3.215 -31.985  1.00  0.00    -0.338 N 
HETATM    4  O   UNL     1      -8.290   3.238 -29.793  1.00  0.00    -0.247 OA
HETATM    5  H   UNL     1      -7.194   1.264 -29.677  1.00  0.00     0.171 HD
HETATM    6  H   UNL     1      -8.785   4.018 -31.840  1.00  0.00     0.164 HD
ENDROOT
BRANCH   1   7
HETATM    7  C   UNL     1      -6.130   0.874 -31.370  1.00  0.00     0.077 C 
HETATM    8  C   UNL     1      -6.410  -0.179 -32.240  1.00  0.00     0.062 C 
HETATM    9  C   UNL     1      -5.375  -0.893 -32.861  1.00  0.00     0.037 C 
HETATM   10  C   UNL     1      -4.053  -0.454 -32.715  1.00  0.00     0.032 C 
HETATM   11  C   UNL     1      -3.765   0.660 -31.928  1.00  0.00     0.047 C 
HETATM   12  C   UNL     1      -4.800   1.301 -31.259  1.00  0.00     0.143 C 
HETATM   13  F   UNL     1      -4.504   2.355 -30.481  1.00  0.00    -0.204 F 
BRANCH   9  14
HETATM   14  N   UNL     1      -5.568  -2.083 -33.595  1.00  0.00    -0.327 N 
HETATM   15  C   UNL     1      -6.521  -2.323 -34.570  1.00  0.00     0.221 C 
HETATM   16  O   UNL     1      -7.246  -1.491 -35.105  1.00  0.00    -0.273 OA
HETATM   17  H   UNL     1      -5.018  -2.881 -33.301  1.00  0.00     0.169 HD
BRANCH  15  18
HETATM   18  C   UNL     1      -6.646  -3.794 -34.916  1.00  0.00     0.098 C 
HETATM   19  C   UNL     1      -5.347  -4.533 -34.634  1.00  0.00     0.014 C 
ENDBRANCH  15  18
ENDBRANCH   9  14
ENDBRANCH   1   7
BRANCH   3  20
HETATM   20  C   UNL     1      -8.229   2.656 -33.318  1.00  0.00     0.167 C 
BRANCH  20  21
HETATM   21  C   UNL     1      -9.643   2.377 -33.709  1.00  0.00     0.009 A 
HETATM   22  C   UNL     1     -10.389   1.189 -33.461  1.00  0.00     0.060 A 
HETATM   23  C   UNL     1      -9.947  -0.034 -32.747  1.00  0.00     0.073 C 
HETATM   24  N   UNL     1     -11.615   1.249 -33.993  1.00  0.00    -0.179 NA
HETATM   25  N   UNL     1     -11.658   2.450 -34.584  1.00  0.00    -0.282 N 
HETATM   26  H   UNL     1     -12.509   2.712 -35.072  1.00  0.00     0.189 HD
HETATM   27  C   UNL     1     -10.501   3.164 -34.463  1.00  0.00     0.034 A 
HETATM   28  C   UNL     1     -10.332   4.498 -35.088  1.00  0.00     0.070 C 
ENDBRANCH  20  21
ENDBRANCH   3  20
TORSDOF 5
ENDMDL
MODEL 8
REMARK VINA RESULT:      -7.1      3.708      7.833
REMARK  5 active torsions:
REMARK  status: ('A' for Active; 'I' for Inactive)
REMARK    1  A    between atoms: C_2  and  C_3 
REMARK       I    between atoms: C_3  and  N_4 
REMARK    2  A    between atoms: N_4  and  C_5 
REMARK    3  A    between atoms: C_7  and  N_8 
REMARK       I    between atoms: N_8  and  C_9 
REMARK       I    between atoms: C_9  and  N_10 
REMARK    4  A    between atoms: N_10  and  C_11 
REMARK    5  A    between atoms: C_11  and  C_12 
ROOT
HETATM    1  N   UNL     1      -4.976  -0.059 -31.886  1.00  0.00    -0.306 N 
HETATM    2  C   UNL     1      -3.789   0.518 -31.641  1.00  0.00     0.321 C 
HETATM    3  N   UNL     1      -3.403   1.718 -32.087  1.00  0.00    -0.338 N 
HETATM    4  O   UNL     1      -3.012  -0.076 -30.886  1.00  0.00    -0.247 OA
HETATM    5  H   UNL     1      -5.123  -0.813 -31.219  1.00  0.00     0.171 HD
HETATM    6  H   UNL     1      -2.483   1.936 -31.730  1.00  0.00     0.164 HD
ENDROOT
BRANCH   1   7
HETATM    7  C   UNL     1      -5.985   0.036 -32.857  1.00  0.00     0.077 C 
HETATM    8  C   UNL     1      -7.106   0.862 -32.783  1.00  0.00     0.062 C 
HETATM    9  C   UNL     1      -8.102   0.814 -33.770  1.00  0.00     0.037 C 
HETATM   10  C   UNL     1      -7.898   0.029 -34.913  1.00  0.00     0.032 C 
HETATM   11  C   UNL     1      -6.736  -0.726 -35.050  1.00  0.00     0.047 C 
HETATM   12  C   UNL     1      -5.802  -0.724 -34.021  1.00  0.00     0.143 C 
HETATM   13  F   UNL     1      -4.700  -1.479 -34.154  1.00  0.00    -0.204 F 
BRANCH   9  14
HETATM   14  N   UNL     1      -9.347   1.470 -33.667  1.00  0.00    -0.327 N 
HETATM   15  C   UNL     1     -10.572   0.903 -33.365  1.00  0.00     0.221 C 
HETATM   16  O   UNL     1     -10.770  -0.234 -32.950  1.00  0.00    -0.273 OA
HETATM   17  H   UNL     1      -9.360   2.443 -33.949  1.00  0.00     0.169 HD
BRANCH  15  18
HETATM   18  C   UNL     1     -11.735   1.834 -33.652  1.00  0.00     0.098 C 
HETATM   19  C   UNL     1     -12.571   1.321 -34.814  1.00  0.00     0.014 C 
ENDBRANCH  15  18
ENDBRANCH   9  14
ENDBRANCH   1   7
BRANCH   3  20
HETATM   20  C   UNL     1      -4.146   2.851 -32.592  1.00  0.00     0.167 C 
BRANCH  20  21
HETATM   21  C   UNL     1      -3.955   4.027 -31.693  1.00  0.00     0.009 A 
HETATM   22  C   UNL     1      -2.876   4.957 -31.706  1.00  0.00     0.060 A 
HETATM   23  C   UNL     1      -1.707   4.987 -32.620  1.00  0.00     0.073 C 
HETATM   24  N   UNL     1      -2.986   5.865 -30.730  1.00  0.00    -0.179 NA
HETATM   25  N   UNL     1      -4.111   5.521 -30.088  1.00  0.00    -0.282 N 
HETATM   26  H   UNL     1      -4.392   6.076 -29.286  1.00  0.00     0.189 HD
HETATM   27  C   UNL     1      -4.725   4.418 -30.608  1.00  0.00     0.034 A 
HETATM   28  C   UNL     1      -5.958   3.851 -30.010  1.00  0.00     0.070 C 
ENDBRANCH  20  21
ENDBRANCH   3  20
TORSDOF 5
ENDMDL
MODEL 9
REMARK VINA RESULT:      -7.0      4.044      8.296
REMARK  5 active torsions:
REMARK  status: ('A' for Active; 'I' for Inactive)
REMARK    1  A    between atoms: C_2  and  C_3 
REMARK       I    between atoms: C_3  and  N_4 
REMARK    2  A    between atoms: N_4  and  C_5 
REMARK    3  A    between atoms: C_7  and  N_8 
REMARK       I    between atoms: N_8  and  C_9 
REMARK       I    between atoms: C_9  and  N_10 
REMARK    4  A    between atoms: N_10  and  C_11 
REMARK    5  A    between atoms: C_11  and  C_12 
ROOT
HETATM    1  N   UNL     1      -7.012   0.327 -30.632  1.00  0.00    -0.306 N 
HETATM    2  C   UNL     1      -6.064   1.021 -29.981  1.00  0.00     0.321 C 
HETATM    3  N   UNL     1      -5.818   2.326 -30.131  1.00  0.00    -0.338 N 
HETATM    4  O   UNL     1      -5.409   0.421 -29.122  1.00  0.00    -0.247 OA
HETATM    5  H   UNL     1      -7.177  -0.550 -30.143  1.00  0.00     0.171 HD
HETATM    6  H   UNL     1      -5.082   2.611 -29.499  1.00  0.00     0.164 HD
ENDROOT
BRANCH   1   7
HETATM    7  C   UNL     1      -7.734   0.446 -31.830  1.00  0.00     0.077 C 
HETATM    8  C   UNL     1      -9.112   0.627 -31.931  1.00  0.00     0.062 C 
HETATM    9  C   UNL     1      -9.746   0.645 -33.181  1.00  0.00     0.037 C 
HETATM   10  C   UNL     1      -8.968   0.620 -34.346  1.00  0.00     0.032 C 
HETATM   11  C   UNL     1      -7.580   0.540 -34.263  1.00  0.00     0.047 C 
HETATM   12  C   UNL     1      -6.982   0.443 -33.013  1.00  0.00     0.143 C 
HETATM   13  F   UNL     1      -5.644   0.337 -32.948  1.00  0.00    -0.204 F 
BRANCH   9  14
HETATM   14  N   UNL     1     -11.147   0.629 -33.356  1.00  0.00    -0.327 N 
HETATM   15  C   UNL     1     -11.976   1.714 -33.582  1.00  0.00     0.221 C 
HETATM   16  O   UNL     1     -11.629   2.857 -33.856  1.00  0.00    -0.273 OA
HETATM   17  H   UNL     1     -11.605  -0.259 -33.194  1.00  0.00     0.169 HD
BRANCH  15  18
HETATM   18  C   UNL     1     -13.444   1.374 -33.404  1.00  0.00     0.098 C 
HETATM   19  C   UNL     1     -13.699  -0.101 -33.671  1.00  0.00     0.014 C 
ENDBRANCH  15  18
ENDBRANCH   9  14
ENDBRANCH   1   7
BRANCH   3  20
HETATM   20  C   UNL     1      -6.611   3.408 -30.671  1.00  0.00     0.167 C 
BRANCH  20  21
HETATM   21  C   UNL     1      -6.095   3.795 -32.018  1.00  0.00     0.009 A 
HETATM   22  C   UNL     1      -6.859   4.111 -33.177  1.00  0.00     0.060 A 
HETATM   23  C   UNL     1      -8.336   4.146 -33.315  1.00  0.00     0.073 C 
HETATM   24  N   UNL     1      -6.080   4.367 -34.235  1.00  0.00    -0.179 NA
HETATM   25  N   UNL     1      -4.834   4.207 -33.770  1.00  0.00    -0.282 N 
HETATM   26  H   UNL     1      -4.063   4.342 -34.416  1.00  0.00     0.189 HD
HETATM   27  C   UNL     1      -4.779   3.847 -32.454  1.00  0.00     0.034 A 
HETATM   28  C   UNL     1      -3.494   3.578 -31.767  1.00  0.00     0.070 C 
ENDBRANCH  20  21
ENDBRANCH   3  20
TORSDOF 5
ENDMDL
MODEL 10
REMARK VINA RESULT:      -6.9      6.274      8.483
REMARK  5 active torsions:
REMARK  status: ('A' for Active; 'I' for Inactive)
REMARK    1  A    between atoms: C_2  and  C_3 
REMARK       I    between atoms: C_3  and  N_4 
REMARK    2  A    between atoms: N_4  and  C_5 
REMARK    3  A    between atoms: C_7  and  N_8 
REMARK       I    between atoms: N_8  and  C_9 
REMARK       I    between atoms: C_9  and  N_10 
REMARK    4  A    between atoms: N_10  and  C_11 
REMARK    5  A    between atoms: C_11  and  C_12 
ROOT
HETATM    1  N   UNL     1      -9.308   3.282 -34.178  1.00  0.00    -0.306 N 
HETATM    2  C   UNL     1     -10.406   3.441 -34.933  1.00  0.00     0.321 C 
HETATM    3  N   UNL     1     -11.480   2.645 -34.919  1.00  0.00    -0.338 N 
HETATM    4  O   UNL     1     -10.461   4.444 -35.654  1.00  0.00    -0.247 OA
HETATM    5  H   UNL     1      -8.781   4.152 -34.170  1.00  0.00     0.171 HD
HETATM    6  H   UNL     1     -12.182   3.006 -35.550  1.00  0.00     0.164 HD
ENDROOT
BRANCH   1   7
HETATM    7  C   UNL     1      -8.665   2.230 -33.506  1.00  0.00     0.077 C 
HETATM    8  C   UNL     1      -8.051   1.136 -34.114  1.00  0.00     0.062 C 
HETATM    9  C   UNL     1      -7.514   0.093 -33.345  1.00  0.00     0.037 C 
HETATM   10  C   UNL     1      -7.470   0.221 -31.951  1.00  0.00     0.032 C 
HETATM   11  C   UNL     1      -7.990   1.355 -31.332  1.00  0.00     0.047 C 
HETATM   12  C   UNL     1      -8.589   2.337 -32.111  1.00  0.00     0.143 C 
HETATM   13  F   UNL     1      -9.112   3.412 -31.498  1.00  0.00    -0.204 F 
BRANCH   9  14
HETATM   14  N   UNL     1      -7.054  -1.128 -33.883  1.00  0.00    -0.327 N 
HETATM   15  C   UNL     1      -5.745  -1.483 -34.160  1.00  0.00     0.221 C 
HETATM   16  O   UNL     1      -4.735  -0.879 -33.817  1.00  0.00    -0.273 OA
HETATM   17  H   UNL     1      -7.769  -1.772 -34.198  1.00  0.00     0.169 HD
BRANCH  15  18
HETATM   18  C   UNL     1      -5.647  -2.730 -35.018  1.00  0.00     0.098 C 
HETATM   19  C   UNL     1      -6.811  -3.671 -34.749  1.00  0.00     0.014 C 
ENDBRANCH  15  18
ENDBRANCH   9  14
ENDBRANCH   1   7
BRANCH   3  20
HETATM   20  C   UNL     1     -11.964   1.686 -33.951  1.00  0.00     0.167 C 
BRANCH  20  21
HETATM   21  C   UNL     1     -13.244   2.169 -33.351  1.00  0.00     0.009 A 
HETATM   22  C   UNL     1     -13.407   3.190 -32.373  1.00  0.00     0.060 A 
HETATM   23  C   UNL     1     -12.356   4.021 -31.736  1.00  0.00     0.073 C 
HETATM   24  N   UNL     1     -14.688   3.339 -32.015  1.00  0.00    -0.179 NA
HETATM   25  N   UNL     1     -15.340   2.421 -32.741  1.00  0.00    -0.282 N 
HETATM   26  H   UNL     1     -16.345   2.344 -32.622  1.00  0.00     0.189 HD
HETATM   27  C   UNL     1     -14.526   1.678 -33.547  1.00  0.00     0.034 A 
HETATM   28  C   UNL     1     -15.051   0.580 -34.394  1.00  0.00     0.070 C 
ENDBRANCH  20  21
ENDBRANCH   3  20
TORSDOF 5
ENDMDL
