MODEL 1
REMARK VINA RESULT:      -9.2      0.000      0.000
REMARK  6 active torsions:
REMARK  status: ('A' for Active; 'I' for Inactive)
REMARK    1  A    between atoms: N_7  and  C_8 
REMARK    2  A    between atoms: C_8  and  C_9 
REMARK    3  A    between atoms: C_9  and  N_10 
REMARK    4  A    between atoms: C_17  and  C_18 
REMARK    5  A    between atoms: C_18  and  N_19 
REMARK       I    between atoms: N_19  and  C_20 
REMARK    6  A    between atoms: C_20  and  C_21 
ROOT
HETATM    1  C   UNL     1      -4.314  -2.950 -33.789  1.00  0.00     0.001 A 
HETATM    2  C   UNL     1      -4.176  -1.687 -33.206  1.00  0.00     0.014 A 
HETATM    3  C   UNL     1      -5.075  -0.666 -33.534  1.00  0.00     0.008 A 
HETATM    4  C   UNL     1      -6.109  -0.920 -34.434  1.00  0.00     0.046 A 
HETATM    5  C   UNL     1      -7.072   0.149 -34.760  1.00  0.00     0.274 A 
HETATM    6  O   UNL     1      -8.030  -0.076 -35.495  1.00  0.00    -0.266 OA
HETATM    7  N   UNL     1      -6.835   1.394 -34.186  1.00  0.00    -0.232 N 
HETATM    8  N   UNL     1      -5.832   1.645 -33.297  1.00  0.00    -0.172 NA
HETATM    9  C   UNL     1      -4.999   0.702 -32.971  1.00  0.00     0.084 A 
HETATM   10  C   UNL     1      -6.247  -2.187 -35.015  1.00  0.00     0.018 A 
HETATM   11  C   UNL     1      -5.345  -3.200 -34.693  1.00  0.00     0.001 A 
ENDROOT
BRANCH   9  12
HETATM   12  C   UNL     1      -3.928   1.054 -31.942  1.00  0.00     0.185 C 
BRANCH  12  13
HETATM   13  N   UNL     1      -3.206   2.237 -32.366  1.00  0.00    -0.351 N 
HETATM   14  C   UNL     1      -3.489   3.486 -31.858  1.00  0.00     0.253 C 
HETATM   15  O   UNL     1      -4.277   3.660 -30.932  1.00  0.00    -0.268 OA
HETATM   16  H   UNL     1      -2.583   2.160 -33.161  1.00  0.00     0.163 HD
BRANCH  14  17
HETATM   17  C   UNL     1      -2.756   4.653 -32.434  1.00  0.00     0.055 A 
HETATM   18  C   UNL     1      -3.089   5.319 -33.626  1.00  0.00     0.049 A 
HETATM   19 CL   UNL     1      -4.446   4.906 -34.614  1.00  0.00    -0.083 Cl
HETATM   20  C   UNL     1      -2.318   6.408 -34.062  1.00  0.00     0.026 A 
HETATM   21  C   UNL     1      -1.221   6.845 -33.318  1.00  0.00     0.021 A 
HETATM   22  C   UNL     1      -0.896   6.196 -32.132  1.00  0.00     0.012 A 
HETATM   23 BR   UNL     1       0.582   6.786 -31.113  1.00  0.00    -0.051 Br
HETATM   24  C   UNL     1      -1.653   5.113 -31.688  1.00  0.00     0.038 A 
ENDBRANCH  14  17
ENDBRANCH  12  13
ENDBRANCH   9  12
BRANCH   7  25
HETATM   25  C   UNL     1      -7.835   2.443 -34.342  1.00  0.00     0.182 C 
BRANCH  25  26
HETATM   26  C   UNL     1      -8.352   2.993 -33.008  1.00  0.00     0.256 C 
BRANCH  26  27
HETATM   27  N   UNL     1      -9.630   2.299 -32.567  1.00  0.00    -0.070 N 
HETATM   28  H   UNL     1     -10.169   2.963 -31.996  1.00  0.00     0.279 HD
HETATM   29  C   UNL     1      -9.362   1.077 -31.703  1.00  0.00     0.235 C 
HETATM   30  C   UNL     1      -9.812  -0.095 -32.550  1.00  0.00     0.029 C 
HETATM   31  C   UNL     1     -10.992   0.469 -33.313  1.00  0.00     0.029 C 
HETATM   32  C   UNL     1     -10.501   1.842 -33.727  1.00  0.00     0.235 C 
ENDBRANCH  26  27
ENDBRANCH  25  26
ENDBRANCH   7  25
TORSDOF 6
ENDMDL
MODEL 2
REMARK VINA RESULT:      -8.8      0.819      1.192
REMARK  6 active torsions:
REMARK  status: ('A' for Active; 'I' for Inactive)
REMARK    1  A    between atoms: N_7  and  C_8 
REMARK    2  A    between atoms: C_8  and  C_9 
REMARK    3  A    between atoms: C_9  and  N_10 
REMARK    4  A    between atoms: C_17  and  C_18 
REMARK    5  A    between atoms: C_18  and  N_19 
REMARK       I    between atoms: N_19  and  C_20 
REMARK    6  A    between atoms: C_20  and  C_21 
ROOT
HETATM    1  C   UNL     1      -4.323  -2.548 -33.983  1.00  0.00     0.001 A 
HETATM    2  C   UNL     1      -4.292  -1.359 -33.248  1.00  0.00     0.014 A 
HETATM    3  C   UNL     1      -5.329  -0.429 -33.381  1.00  0.00     0.008 A 
HETATM    4  C   UNL     1      -6.392  -0.700 -34.242  1.00  0.00     0.046 A 
HETATM    5  C   UNL     1      -7.498   0.269 -34.364  1.00  0.00     0.274 A 
HETATM    6  O   UNL     1      -8.475   0.016 -35.062  1.00  0.00    -0.266 OA
HETATM    7  N   UNL     1      -7.366   1.454 -33.645  1.00  0.00    -0.232 N 
HETATM    8  N   UNL     1      -6.335   1.718 -32.794  1.00  0.00    -0.172 NA
HETATM    9  C   UNL     1      -5.373   0.857 -32.648  1.00  0.00     0.084 A 
HETATM   10  C   UNL     1      -6.422  -1.892 -34.977  1.00  0.00     0.018 A 
HETATM   11  C   UNL     1      -5.384  -2.813 -34.848  1.00  0.00     0.001 A 
ENDROOT
BRANCH   9  12
HETATM   12  C   UNL     1      -4.275   1.212 -31.648  1.00  0.00     0.185 C 
BRANCH  12  13
HETATM   13  N   UNL     1      -3.485   2.316 -32.156  1.00  0.00    -0.351 N 
HETATM   14  C   UNL     1      -3.699   3.614 -31.751  1.00  0.00     0.253 C 
HETATM   15  O   UNL     1      -4.482   3.906 -30.851  1.00  0.00    -0.268 OA
HETATM   16  H   UNL     1      -2.861   2.141 -32.936  1.00  0.00     0.163 HD
BRANCH  14  17
HETATM   17  C   UNL     1      -2.897   4.689 -32.410  1.00  0.00     0.055 A 
HETATM   18  C   UNL     1      -3.185   5.279 -33.653  1.00  0.00     0.049 A 
HETATM   19 CL   UNL     1      -4.561   4.870 -34.617  1.00  0.00    -0.083 Cl
HETATM   20  C   UNL     1      -2.350   6.284 -34.165  1.00  0.00     0.026 A 
HETATM   21  C   UNL     1      -1.233   6.713 -33.447  1.00  0.00     0.021 A 
HETATM   22  C   UNL     1      -0.951   6.141 -32.212  1.00  0.00     0.012 A 
HETATM   23 BR   UNL     1       0.554   6.721 -31.228  1.00  0.00    -0.051 Br
HETATM   24  C   UNL     1      -1.772   5.141 -31.692  1.00  0.00     0.038 A 
ENDBRANCH  14  17
ENDBRANCH  12  13
ENDBRANCH   9  12
BRANCH   7  25
HETATM   25  C   UNL     1      -8.493   2.377 -33.599  1.00  0.00     0.182 C 
BRANCH  25  26
HETATM   26  C   UNL     1      -9.424   2.141 -32.404  1.00  0.00     0.256 C 
BRANCH  26  27
HETATM   27  N   UNL     1     -10.883   2.351 -32.774  1.00  0.00    -0.070 N 
HETATM   28  H   UNL     1     -11.419   2.450 -31.902  1.00  0.00     0.279 HD
HETATM   29  C   UNL     1     -11.469   1.169 -33.531  1.00  0.00     0.235 C 
HETATM   30  C   UNL     1     -11.736   1.701 -34.923  1.00  0.00     0.029 C 
HETATM   31  C   UNL     1     -12.127   3.142 -34.668  1.00  0.00     0.029 C 
HETATM   32  C   UNL     1     -11.118   3.587 -33.628  1.00  0.00     0.235 C 
ENDBRANCH  26  27
ENDBRANCH  25  26
ENDBRANCH   7  25
TORSDOF 6
ENDMDL
MODEL 3
REMARK VINA RESULT:      -8.8      3.042      6.659
REMARK  6 active torsions:
REMARK  status: ('A' for Active; 'I' for Inactive)
REMARK    1  A    between atoms: N_7  and  C_8 
REMARK    2  A    between atoms: C_8  and  C_9 
REMARK    3  A    between atoms: C_9  and  N_10 
REMARK    4  A    between atoms: C_17  and  C_18 
REMARK    5  A    between atoms: C_18  and  N_19 
REMARK       I    between atoms: N_19  and  C_20 
REMARK    6  A    between atoms: C_20  and  C_21 
ROOT
HETATM    1  C   UNL     1      -5.751  -3.994 -34.904  1.00  0.00     0.001 A 
HETATM    2  C   UNL     1      -6.412  -2.766 -34.982  1.00  0.00     0.014 A 
HETATM    3  C   UNL     1      -5.879  -1.644 -34.337  1.00  0.00     0.008 A 
HETATM    4  C   UNL     1      -4.685  -1.759 -33.627  1.00  0.00     0.046 A 
HETATM    5  C   UNL     1      -4.109  -0.572 -32.968  1.00  0.00     0.274 A 
HETATM    6  O   UNL     1      -3.023  -0.638 -32.399  1.00  0.00    -0.266 OA
HETATM    7  N   UNL     1      -4.855   0.601 -33.042  1.00  0.00    -0.232 N 
HETATM    8  N   UNL     1      -6.017   0.722 -33.744  1.00  0.00    -0.172 NA
HETATM    9  C   UNL     1      -6.516  -0.307 -34.361  1.00  0.00     0.084 A 
HETATM   10  C   UNL     1      -4.022  -2.992 -33.551  1.00  0.00     0.018 A 
HETATM   11  C   UNL     1      -4.560  -4.109 -34.188  1.00  0.00     0.001 A 
ENDROOT
BRANCH   9  12
HETATM   12  C   UNL     1      -7.800  -0.079 -35.155  1.00  0.00     0.185 C 
BRANCH  12  13
HETATM   13  N   UNL     1      -8.580   0.975 -34.538  1.00  0.00    -0.351 N 
HETATM   14  C   UNL     1      -9.532   0.713 -33.578  1.00  0.00     0.253 C 
HETATM   15  O   UNL     1      -9.694  -0.405 -33.096  1.00  0.00    -0.268 OA
HETATM   16  H   UNL     1      -8.524   1.907 -34.932  1.00  0.00     0.163 HD
BRANCH  14  17
HETATM   17  C   UNL     1     -10.350   1.859 -33.078  1.00  0.00     0.055 A 
HETATM   18  C   UNL     1     -11.676   2.140 -33.450  1.00  0.00     0.049 A 
HETATM   19 CL   UNL     1     -12.599   1.164 -34.539  1.00  0.00    -0.083 Cl
HETATM   20  C   UNL     1     -12.338   3.251 -32.907  1.00  0.00     0.026 A 
HETATM   21  C   UNL     1     -11.693   4.084 -31.990  1.00  0.00     0.021 A 
HETATM   22  C   UNL     1     -10.387   3.802 -31.611  1.00  0.00     0.012 A 
HETATM   23 BR   UNL     1      -9.508   4.917 -30.363  1.00  0.00    -0.051 Br
HETATM   24  C   UNL     1      -9.717   2.701 -32.143  1.00  0.00     0.038 A 
ENDBRANCH  14  17
ENDBRANCH  12  13
ENDBRANCH   9  12
BRANCH   7  25
HETATM   25  C   UNL     1      -4.267   1.840 -32.550  1.00  0.00     0.182 C 
BRANCH  25  26
HETATM   26  C   UNL     1      -5.073   3.088 -32.928  1.00  0.00     0.256 C 
BRANCH  26  27
HETATM   27  N   UNL     1      -4.204   4.335 -32.960  1.00  0.00    -0.070 N 
HETATM   28  H   UNL     1      -4.376   4.861 -32.093  1.00  0.00     0.279 HD
HETATM   29  C   UNL     1      -4.547   5.255 -34.121  1.00  0.00     0.235 C 
HETATM   30  C   UNL     1      -3.332   5.200 -35.023  1.00  0.00     0.029 C 
HETATM   31  C   UNL     1      -2.186   5.051 -34.044  1.00  0.00     0.029 C 
HETATM   32  C   UNL     1      -2.717   4.032 -33.055  1.00  0.00     0.235 C 
ENDBRANCH  26  27
ENDBRANCH  25  26
ENDBRANCH   7  25
TORSDOF 6
ENDMDL
MODEL 4
REMARK VINA RESULT:      -8.5      1.221      1.436
REMARK  6 active torsions:
REMARK  status: ('A' for Active; 'I' for Inactive)
REMARK    1  A    between atoms: N_7  and  C_8 
REMARK    2  A    between atoms: C_8  and  C_9 
REMARK    3  A    between atoms: C_9  and  N_10 
REMARK    4  A    between atoms: C_17  and  C_18 
REMARK    5  A    between atoms: C_18  and  N_19 
REMARK       I    between atoms: N_19  and  C_20 
REMARK    6  A    between atoms: C_20  and  C_21 
ROOT
HETATM    1  C   UNL     1      -4.235  -2.617 -33.824  1.00  0.00     0.001 A 
HETATM    2  C   UNL     1      -4.176  -1.386 -33.166  1.00  0.00     0.014 A 
HETATM    3  C   UNL     1      -5.160  -0.420 -33.404  1.00  0.00     0.008 A 
HETATM    4  C   UNL     1      -6.199  -0.698 -34.291  1.00  0.00     0.046 A 
HETATM    5  C   UNL     1      -7.251   0.310 -34.523  1.00  0.00     0.274 A 
HETATM    6  O   UNL     1      -8.210   0.056 -35.246  1.00  0.00    -0.266 OA
HETATM    7  N   UNL     1      -7.092   1.533 -33.877  1.00  0.00    -0.232 N 
HETATM    8  N   UNL     1      -6.085   1.805 -33.000  1.00  0.00    -0.172 NA
HETATM    9  C   UNL     1      -5.173   0.912 -32.757  1.00  0.00     0.084 A 
HETATM   10  C   UNL     1      -6.257  -1.934 -34.949  1.00  0.00     0.018 A 
HETATM   11  C   UNL     1      -5.272  -2.891 -34.715  1.00  0.00     0.001 A 
ENDROOT
BRANCH   9  12
HETATM   12  C   UNL     1      -4.100   1.283 -31.735  1.00  0.00     0.185 C 
BRANCH  12  13
HETATM   13  N   UNL     1      -3.319   2.402 -32.223  1.00  0.00    -0.351 N 
HETATM   14  C   UNL     1      -3.567   3.696 -31.822  1.00  0.00     0.253 C 
HETATM   15  O   UNL     1      -4.375   3.971 -30.939  1.00  0.00    -0.268 OA
HETATM   16  H   UNL     1      -2.675   2.240 -32.989  1.00  0.00     0.163 HD
BRANCH  14  17
HETATM   17  C   UNL     1      -2.770   4.787 -32.461  1.00  0.00     0.055 A 
HETATM   18  C   UNL     1      -3.043   5.375 -33.707  1.00  0.00     0.049 A 
HETATM   19 CL   UNL     1      -4.391   4.945 -34.702  1.00  0.00    -0.083 Cl
HETATM   20  C   UNL     1      -2.216   6.396 -34.199  1.00  0.00     0.026 A 
HETATM   21  C   UNL     1      -1.121   6.843 -33.457  1.00  0.00     0.021 A 
HETATM   22  C   UNL     1      -0.856   6.272 -32.218  1.00  0.00     0.012 A 
HETATM   23 BR   UNL     1       0.618   6.876 -31.202  1.00  0.00    -0.051 Br
HETATM   24  C   UNL     1      -1.669   5.256 -31.718  1.00  0.00     0.038 A 
ENDBRANCH  14  17
ENDBRANCH  12  13
ENDBRANCH   9  12
BRANCH   7  25
HETATM   25  C   UNL     1      -8.174   2.507 -33.940  1.00  0.00     0.182 C 
BRANCH  25  26
HETATM   26  C   UNL     1      -7.729   3.933 -33.594  1.00  0.00     0.256 C 
BRANCH  26  27
HETATM   27  N   UNL     1      -8.532   4.511 -32.441  1.00  0.00    -0.070 N 
HETATM   28  H   UNL     1      -8.518   5.536 -32.529  1.00  0.00     0.279 HD
HETATM   29  C   UNL     1      -7.937   4.167 -31.085  1.00  0.00     0.235 C 
HETATM   30  C   UNL     1      -8.951   3.242 -30.446  1.00  0.00     0.029 C 
HETATM   31  C   UNL     1     -10.272   3.777 -30.959  1.00  0.00     0.029 C 
HETATM   32  C   UNL     1      -9.981   4.049 -32.422  1.00  0.00     0.235 C 
ENDBRANCH  26  27
ENDBRANCH  25  26
ENDBRANCH   7  25
TORSDOF 6
ENDMDL
MODEL 5
REMARK VINA RESULT:      -8.3      3.341      6.664
REMARK  6 active torsions:
REMARK  status: ('A' for Active; 'I' for Inactive)
REMARK    1  A    between atoms: N_7  and  C_8 
REMARK    2  A    between atoms: C_8  and  C_9 
REMARK    3  A    between atoms: C_9  and  N_10 
REMARK    4  A    between atoms: C_17  and  C_18 
REMARK    5  A    between atoms: C_18  and  N_19 
REMARK       I    between atoms: N_19  and  C_20 
REMARK    6  A    between atoms: C_20  and  C_21 
ROOT
HETATM    1  C   UNL     1      -5.589  -3.315 -34.993  1.00  0.00     0.001 A 
HETATM    2  C   UNL     1      -6.050  -2.004 -34.848  1.00  0.00     0.014 A 
HETATM    3  C   UNL     1      -5.418  -1.137 -33.949  1.00  0.00     0.008 A 
HETATM    4  C   UNL     1      -4.324  -1.588 -33.211  1.00  0.00     0.046 A 
HETATM    5  C   UNL     1      -3.640  -0.668 -32.283  1.00  0.00     0.274 A 
HETATM    6  O   UNL     1      -2.634  -1.025 -31.677  1.00  0.00    -0.266 OA
HETATM    7  N   UNL     1      -4.194   0.603 -32.149  1.00  0.00    -0.232 N 
HETATM    8  N   UNL     1      -5.255   1.052 -32.876  1.00  0.00    -0.172 NA
HETATM    9  C   UNL     1      -5.843   0.263 -33.726  1.00  0.00     0.084 A 
HETATM   10  C   UNL     1      -3.862  -2.902 -33.360  1.00  0.00     0.018 A 
HETATM   11  C   UNL     1      -4.499  -3.765 -34.250  1.00  0.00     0.001 A 
ENDROOT
BRANCH   9  12
HETATM   12  C   UNL     1      -7.001   0.854 -34.528  1.00  0.00     0.185 C 
BRANCH  12  13
HETATM   13  N   UNL     1      -7.770   1.754 -33.692  1.00  0.00    -0.351 N 
HETATM   14  C   UNL     1      -8.900   1.341 -33.021  1.00  0.00     0.253 C 
HETATM   15  O   UNL     1      -9.258   0.167 -32.988  1.00  0.00    -0.268 OA
HETATM   16  H   UNL     1      -7.552   2.743 -33.723  1.00  0.00     0.163 HD
BRANCH  14  17
HETATM   17  C   UNL     1      -9.677   2.371 -32.267  1.00  0.00     0.055 A 
HETATM   18  C   UNL     1      -9.262   3.001 -31.081  1.00  0.00     0.049 A 
HETATM   19 CL   UNL     1      -7.743   2.703 -30.312  1.00  0.00    -0.083 Cl
HETATM   20  C   UNL     1     -10.086   3.957 -30.467  1.00  0.00     0.026 A 
HETATM   21  C   UNL     1     -11.319   4.297 -31.028  1.00  0.00     0.021 A 
HETATM   22  C   UNL     1     -11.726   3.685 -32.207  1.00  0.00     0.012 A 
HETATM   23 BR   UNL     1     -13.389   4.145 -32.979  1.00  0.00    -0.051 Br
HETATM   24  C   UNL     1     -10.917   2.733 -32.827  1.00  0.00     0.038 A 
ENDBRANCH  14  17
ENDBRANCH  12  13
ENDBRANCH   9  12
BRANCH   7  25
HETATM   25  C   UNL     1      -3.475   1.604 -31.371  1.00  0.00     0.182 C 
BRANCH  25  26
HETATM   26  C   UNL     1      -3.979   3.033 -31.606  1.00  0.00     0.256 C 
BRANCH  26  27
HETATM   27  N   UNL     1      -3.536   3.574 -32.956  1.00  0.00    -0.070 N 
HETATM   28  H   UNL     1      -3.401   2.774 -33.587  1.00  0.00     0.279 HD
HETATM   29  C   UNL     1      -2.211   4.317 -32.880  1.00  0.00     0.235 C 
HETATM   30  C   UNL     1      -2.566   5.760 -33.171  1.00  0.00     0.029 C 
HETATM   31  C   UNL     1      -3.699   5.639 -34.169  1.00  0.00     0.029 C 
HETATM   32  C   UNL     1      -4.544   4.523 -33.587  1.00  0.00     0.235 C 
ENDBRANCH  26  27
ENDBRANCH  25  26
ENDBRANCH   7  25
TORSDOF 6
ENDMDL
MODEL 6
REMARK VINA RESULT:      -8.1      3.812      7.747
REMARK  6 active torsions:
REMARK  status: ('A' for Active; 'I' for Inactive)
REMARK    1  A    between atoms: N_7  and  C_8 
REMARK    2  A    between atoms: C_8  and  C_9 
REMARK    3  A    between atoms: C_9  and  N_10 
REMARK    4  A    between atoms: C_17  and  C_18 
REMARK    5  A    between atoms: C_18  and  N_19 
REMARK       I    between atoms: N_19  and  C_20 
REMARK    6  A    between atoms: C_20  and  C_21 
ROOT
HETATM    1  C   UNL     1      -6.924  -1.361 -34.953  1.00  0.00     0.001 A 
HETATM    2  C   UNL     1      -7.440  -0.079 -34.746  1.00  0.00     0.014 A 
HETATM    3  C   UNL     1      -6.913   0.731 -33.734  1.00  0.00     0.008 A 
HETATM    4  C   UNL     1      -5.868   0.254 -32.944  1.00  0.00     0.046 A 
HETATM    5  C   UNL     1      -5.294   1.115 -31.893  1.00  0.00     0.274 A 
HETATM    6  O   UNL     1      -4.328   0.740 -31.235  1.00  0.00    -0.266 OA
HETATM    7  N   UNL     1      -5.900   2.356 -31.709  1.00  0.00    -0.232 N 
HETATM    8  N   UNL     1      -6.913   2.831 -32.486  1.00  0.00    -0.172 NA
HETATM    9  C   UNL     1      -7.403   2.097 -33.440  1.00  0.00     0.084 A 
HETATM   10  C   UNL     1      -5.351  -1.031 -33.154  1.00  0.00     0.018 A 
HETATM   11  C   UNL     1      -5.883  -1.838 -34.158  1.00  0.00     0.001 A 
ENDROOT
BRANCH   9  12
HETATM   12  C   UNL     1      -8.511   2.717 -34.288  1.00  0.00     0.185 C 
BRANCH  12  13
HETATM   13  N   UNL     1      -9.781   2.605 -33.598  1.00  0.00    -0.351 N 
HETATM   14  C   UNL     1     -10.963   3.013 -34.174  1.00  0.00     0.253 C 
HETATM   15  O   UNL     1     -11.037   3.380 -35.344  1.00  0.00    -0.268 OA
HETATM   16  H   UNL     1      -9.773   2.357 -32.616  1.00  0.00     0.163 HD
BRANCH  14  17
HETATM   17  C   UNL     1     -12.202   2.946 -33.341  1.00  0.00     0.055 A 
HETATM   18  C   UNL     1     -13.235   2.005 -33.485  1.00  0.00     0.049 A 
HETATM   19 CL   UNL     1     -13.219   0.728 -34.651  1.00  0.00    -0.083 Cl
HETATM   20  C   UNL     1     -14.351   2.049 -32.635  1.00  0.00     0.026 A 
HETATM   21  C   UNL     1     -14.444   3.020 -31.636  1.00  0.00     0.021 A 
HETATM   22  C   UNL     1     -13.418   3.944 -31.482  1.00  0.00     0.012 A 
HETATM   23 BR   UNL     1     -13.531   5.256 -30.126  1.00  0.00    -0.051 Br
HETATM   24  C   UNL     1     -12.305   3.912 -32.320  1.00  0.00     0.038 A 
ENDBRANCH  14  17
ENDBRANCH  12  13
ENDBRANCH   9  12
BRANCH   7  25
HETATM   25  C   UNL     1      -5.281   3.312 -30.800  1.00  0.00     0.182 C 
BRANCH  25  26
HETATM   26  C   UNL     1      -4.792   4.586 -31.497  1.00  0.00     0.256 C 
BRANCH  26  27
HETATM   27  N   UNL     1      -4.232   4.294 -32.880  1.00  0.00    -0.070 N 
HETATM   28  H   UNL     1      -4.795   3.541 -33.296  1.00  0.00     0.279 HD
HETATM   29  C   UNL     1      -2.792   3.807 -32.835  1.00  0.00     0.235 C 
HETATM   30  C   UNL     1      -1.992   4.919 -33.480  1.00  0.00     0.029 C 
HETATM   31  C   UNL     1      -2.937   5.449 -34.539  1.00  0.00     0.029 C 
HETATM   32  C   UNL     1      -4.267   5.495 -33.811  1.00  0.00     0.235 C 
ENDBRANCH  26  27
ENDBRANCH  25  26
ENDBRANCH   7  25
TORSDOF 6
ENDMDL
MODEL 7
REMARK VINA RESULT:      -8.0      3.476      6.789
REMARK  6 active torsions:
REMARK  status: ('A' for Active; 'I' for Inactive)
REMARK    1  A    between atoms: N_7  and  C_8 
REMARK    2  A    between atoms: C_8  and  C_9 
REMARK    3  A    between atoms: C_9  and  N_10 
REMARK    4  A    between atoms: C_17  and  C_18 
REMARK    5  A    between atoms: C_18  and  N_19 
REMARK       I    between atoms: N_19  and  C_20 
REMARK    6  A    between atoms: C_20  and  C_21 
ROOT
HETATM    1  C   UNL     1      -5.304  -1.530 -33.464  1.00  0.00     0.001 A 
HETATM    2  C   UNL     1      -6.443  -0.962 -32.887  1.00  0.00     0.014 A 
HETATM    3  C   UNL     1      -6.353   0.273 -32.235  1.00  0.00     0.008 A 
HETATM    4  C   UNL     1      -5.126   0.933 -32.173  1.00  0.00     0.046 A 
HETATM    5  C   UNL     1      -5.035   2.246 -31.509  1.00  0.00     0.274 A 
HETATM    6  O   UNL     1      -3.980   2.873 -31.507  1.00  0.00    -0.266 OA
HETATM    7  N   UNL     1      -6.199   2.719 -30.908  1.00  0.00    -0.232 N 
HETATM    8  N   UNL     1      -7.403   2.084 -30.975  1.00  0.00    -0.172 NA
HETATM    9  C   UNL     1      -7.505   0.944 -31.591  1.00  0.00     0.084 A 
HETATM   10  C   UNL     1      -3.986   0.362 -32.754  1.00  0.00     0.018 A 
HETATM   11  C   UNL     1      -4.077  -0.872 -33.396  1.00  0.00     0.001 A 
ENDROOT
BRANCH   9  12
HETATM   12  C   UNL     1      -8.896   0.317 -31.652  1.00  0.00     0.185 C 
BRANCH  12  13
HETATM   13  N   UNL     1      -9.808   1.206 -32.344  1.00  0.00    -0.351 N 
HETATM   14  C   UNL     1      -9.871   1.262 -33.718  1.00  0.00     0.253 C 
HETATM   15  O   UNL     1      -9.254   0.484 -34.441  1.00  0.00    -0.268 OA
HETATM   16  H   UNL     1     -10.302   1.904 -31.800  1.00  0.00     0.163 HD
BRANCH  14  17
HETATM   17  C   UNL     1     -10.772   2.284 -34.332  1.00  0.00     0.055 A 
HETATM   18  C   UNL     1     -12.114   2.078 -34.694  1.00  0.00     0.049 A 
HETATM   19 CL   UNL     1     -12.961   0.590 -34.449  1.00  0.00    -0.083 Cl
HETATM   20  C   UNL     1     -12.857   3.123 -35.263  1.00  0.00     0.026 A 
HETATM   21  C   UNL     1     -12.278   4.376 -35.470  1.00  0.00     0.021 A 
HETATM   22  C   UNL     1     -10.955   4.587 -35.102  1.00  0.00     0.012 A 
HETATM   23 BR   UNL     1     -10.164   6.283 -35.369  1.00  0.00    -0.051 Br
HETATM   24  C   UNL     1     -10.205   3.557 -34.535  1.00  0.00     0.038 A 
ENDBRANCH  14  17
ENDBRANCH  12  13
ENDBRANCH   9  12
BRANCH   7  25
HETATM   25  C   UNL     1      -6.214   4.076 -30.376  1.00  0.00     0.182 C 
BRANCH  25  26
HETATM   26  C   UNL     1      -7.272   4.973 -31.028  1.00  0.00     0.256 C 
BRANCH  26  27
HETATM   27  N   UNL     1      -6.699   5.775 -32.184  1.00  0.00    -0.070 N 
HETATM   28  H   UNL     1      -7.153   6.698 -32.183  1.00  0.00     0.279 HD
HETATM   29  C   UNL     1      -6.982   5.136 -33.535  1.00  0.00     0.235 C 
HETATM   30  C   UNL     1      -5.624   4.700 -34.043  1.00  0.00     0.029 C 
HETATM   31  C   UNL     1      -4.700   5.776 -33.512  1.00  0.00     0.029 C 
HETATM   32  C   UNL     1      -5.194   5.977 -32.093  1.00  0.00     0.235 C 
ENDBRANCH  26  27
ENDBRANCH  25  26
ENDBRANCH   7  25
TORSDOF 6
ENDMDL
MODEL 8
REMARK VINA RESULT:      -7.9      1.772      4.626
REMARK  6 active torsions:
REMARK  status: ('A' for Active; 'I' for Inactive)
REMARK    1  A    between atoms: N_7  and  C_8 
REMARK    2  A    between atoms: C_8  and  C_9 
REMARK    3  A    between atoms: C_9  and  N_10 
REMARK    4  A    between atoms: C_17  and  C_18 
REMARK    5  A    between atoms: C_18  and  N_19 
REMARK       I    between atoms: N_19  and  C_20 
REMARK    6  A    between atoms: C_20  and  C_21 
ROOT
HETATM    1  C   UNL     1      -9.357   5.115 -30.127  1.00  0.00     0.001 A 
HETATM    2  C   UNL     1      -8.199   4.374 -30.376  1.00  0.00     0.014 A 
HETATM    3  C   UNL     1      -8.174   3.450 -31.427  1.00  0.00     0.008 A 
HETATM    4  C   UNL     1      -9.305   3.282 -32.224  1.00  0.00     0.046 A 
HETATM    5  C   UNL     1      -9.272   2.327 -33.348  1.00  0.00     0.274 A 
HETATM    6  O   UNL     1     -10.233   2.217 -34.103  1.00  0.00    -0.266 OA
HETATM    7  N   UNL     1      -8.104   1.584 -33.496  1.00  0.00    -0.232 N 
HETATM    8  N   UNL     1      -6.992   1.752 -32.726  1.00  0.00    -0.172 NA
HETATM    9  C   UNL     1      -6.995   2.618 -31.757  1.00  0.00     0.084 A 
HETATM   10  C   UNL     1     -10.465   4.027 -31.974  1.00  0.00     0.018 A 
HETATM   11  C   UNL     1     -10.489   4.942 -30.922  1.00  0.00     0.001 A 
ENDROOT
BRANCH   9  12
HETATM   12  C   UNL     1      -5.697   2.772 -30.966  1.00  0.00     0.185 C 
BRANCH  12  13
HETATM   13  N   UNL     1      -4.868   3.794 -31.573  1.00  0.00    -0.351 N 
HETATM   14  C   UNL     1      -3.678   3.493 -32.197  1.00  0.00     0.253 C 
HETATM   15  O   UNL     1      -3.303   2.339 -32.386  1.00  0.00    -0.268 OA
HETATM   16  H   UNL     1      -5.102   4.765 -31.404  1.00  0.00     0.163 HD
BRANCH  14  17
HETATM   17  C   UNL     1      -2.851   4.631 -32.702  1.00  0.00     0.055 A 
HETATM   18  C   UNL     1      -3.060   5.321 -33.908  1.00  0.00     0.049 A 
HETATM   19 CL   UNL     1      -4.355   4.979 -35.002  1.00  0.00    -0.083 Cl
HETATM   20  C   UNL     1      -2.210   6.377 -34.271  1.00  0.00     0.026 A 
HETATM   21  C   UNL     1      -1.155   6.757 -33.439  1.00  0.00     0.021 A 
HETATM   22  C   UNL     1      -0.952   6.085 -32.240  1.00  0.00     0.012 A 
HETATM   23 BR   UNL     1       0.468   6.597 -31.104  1.00  0.00    -0.051 Br
HETATM   24  C   UNL     1      -1.789   5.033 -31.868  1.00  0.00     0.038 A 
ENDBRANCH  14  17
ENDBRANCH  12  13
ENDBRANCH   9  12
BRANCH   7  25
HETATM   25  C   UNL     1      -7.950   0.743 -34.676  1.00  0.00     0.182 C 
BRANCH  25  26
HETATM   26  C   UNL     1      -6.542   0.155 -34.825  1.00  0.00     0.256 C 
BRANCH  26  27
HETATM   27  N   UNL     1      -6.385  -1.140 -34.044  1.00  0.00    -0.070 N 
HETATM   28  H   UNL     1      -6.992  -1.085 -33.216  1.00  0.00     0.279 HD
HETATM   29  C   UNL     1      -4.963  -1.352 -33.548  1.00  0.00     0.235 C 
HETATM   30  C   UNL     1      -4.461  -2.548 -34.330  1.00  0.00     0.029 C 
HETATM   31  C   UNL     1      -5.704  -3.397 -34.491  1.00  0.00     0.029 C 
HETATM   32  C   UNL     1      -6.768  -2.376 -34.842  1.00  0.00     0.235 C 
ENDBRANCH  26  27
ENDBRANCH  25  26
ENDBRANCH   7  25
TORSDOF 6
ENDMDL
MODEL 9
REMARK VINA RESULT:      -7.9      2.100      2.599
REMARK  6 active torsions:
REMARK  status: ('A' for Active; 'I' for Inactive)
REMARK    1  A    between atoms: N_7  and  C_8 
REMARK    2  A    between atoms: C_8  and  C_9 
REMARK    3  A    between atoms: C_9  and  N_10 
REMARK    4  A    between atoms: C_17  and  C_18 
REMARK    5  A    between atoms: C_18  and  N_19 
REMARK       I    between atoms: N_19  and  C_20 
REMARK    6  A    between atoms: C_20  and  C_21 
ROOT
HETATM    1  C   UNL     1      -3.272  -1.320 -31.708  1.00  0.00     0.001 A 
HETATM    2  C   UNL     1      -3.969  -0.209 -31.225  1.00  0.00     0.014 A 
HETATM    3  C   UNL     1      -5.136   0.216 -31.869  1.00  0.00     0.008 A 
HETATM    4  C   UNL     1      -5.601  -0.479 -32.985  1.00  0.00     0.046 A 
HETATM    5  C   UNL     1      -6.845  -0.048 -33.648  1.00  0.00     0.274 A 
HETATM    6  O   UNL     1      -7.307  -0.689 -34.588  1.00  0.00    -0.266 OA
HETATM    7  N   UNL     1      -7.450   1.101 -33.145  1.00  0.00    -0.232 N 
HETATM    8  N   UNL     1      -7.007   1.777 -32.049  1.00  0.00    -0.172 NA
HETATM    9  C   UNL     1      -5.933   1.385 -31.431  1.00  0.00     0.084 A 
HETATM   10  C   UNL     1      -4.902  -1.594 -33.466  1.00  0.00     0.018 A 
HETATM   11  C   UNL     1      -3.735  -2.010 -32.827  1.00  0.00     0.001 A 
ENDROOT
BRANCH   9  12
HETATM   12  C   UNL     1      -5.524   2.175 -30.189  1.00  0.00     0.185 C 
BRANCH  12  13
HETATM   13  N   UNL     1      -4.512   3.151 -30.538  1.00  0.00    -0.351 N 
HETATM   14  C   UNL     1      -4.826   4.465 -30.805  1.00  0.00     0.253 C 
HETATM   15  O   UNL     1      -5.955   4.921 -30.648  1.00  0.00    -0.268 OA
HETATM   16  H   UNL     1      -3.573   2.822 -30.731  1.00  0.00     0.163 HD
BRANCH  14  17
HETATM   17  C   UNL     1      -3.721   5.367 -31.252  1.00  0.00     0.055 A 
HETATM   18  C   UNL     1      -3.207   6.453 -30.523  1.00  0.00     0.049 A 
HETATM   19 CL   UNL     1      -3.758   6.903 -28.947  1.00  0.00    -0.083 Cl
HETATM   20  C   UNL     1      -2.164   7.226 -31.055  1.00  0.00     0.026 A 
HETATM   21  C   UNL     1      -1.622   6.924 -32.306  1.00  0.00     0.021 A 
HETATM   22  C   UNL     1      -2.120   5.843 -33.024  1.00  0.00     0.012 A 
HETATM   23 BR   UNL     1      -1.387   5.420 -34.714  1.00  0.00    -0.051 Br
HETATM   24  C   UNL     1      -3.157   5.067 -32.507  1.00  0.00     0.038 A 
ENDBRANCH  14  17
ENDBRANCH  12  13
ENDBRANCH   9  12
BRANCH   7  25
HETATM   25  C   UNL     1      -8.761   1.486 -33.654  1.00  0.00     0.182 C 
BRANCH  25  26
HETATM   26  C   UNL     1      -9.923   0.903 -32.843  1.00  0.00     0.256 C 
BRANCH  26  27
HETATM   27  N   UNL     1     -11.208   1.686 -33.053  1.00  0.00    -0.070 N 
HETATM   28  H   UNL     1     -11.571   1.951 -32.128  1.00  0.00     0.279 HD
HETATM   29  C   UNL     1     -12.287   0.864 -33.741  1.00  0.00     0.235 C 
HETATM   30  C   UNL     1     -12.458   1.518 -35.097  1.00  0.00     0.029 C 
HETATM   31  C   UNL     1     -12.218   2.984 -34.801  1.00  0.00     0.029 C 
HETATM   32  C   UNL     1     -11.017   2.950 -33.876  1.00  0.00     0.235 C 
ENDBRANCH  26  27
ENDBRANCH  25  26
ENDBRANCH   7  25
TORSDOF 6
ENDMDL
MODEL 10
REMARK VINA RESULT:      -7.9      3.696      6.772
REMARK  6 active torsions:
REMARK  status: ('A' for Active; 'I' for Inactive)
REMARK    1  A    between atoms: N_7  and  C_8 
REMARK    2  A    between atoms: C_8  and  C_9 
REMARK    3  A    between atoms: C_9  and  N_10 
REMARK    4  A    between atoms: C_17  and  C_18 
REMARK    5  A    between atoms: C_18  and  N_19 
REMARK       I    between atoms: N_19  and  C_20 
REMARK    6  A    between atoms: C_20  and  C_21 
ROOT
HETATM    1  C   UNL     1      -6.088  -2.429 -34.776  1.00  0.00     0.001 A 
HETATM    2  C   UNL     1      -7.116  -1.598 -34.321  1.00  0.00     0.014 A 
HETATM    3  C   UNL     1      -6.897  -0.753 -33.227  1.00  0.00     0.008 A 
HETATM    4  C   UNL     1      -5.650  -0.740 -32.604  1.00  0.00     0.046 A 
HETATM    5  C   UNL     1      -5.410   0.170 -31.468  1.00  0.00     0.274 A 
HETATM    6  O   UNL     1      -4.299   0.246 -30.953  1.00  0.00    -0.266 OA
HETATM    7  N   UNL     1      -6.499   0.923 -31.036  1.00  0.00    -0.232 N 
HETATM    8  N   UNL     1      -7.716   0.922 -31.648  1.00  0.00    -0.172 NA
HETATM    9  C   UNL     1      -7.930   0.153 -32.675  1.00  0.00     0.084 A 
HETATM   10  C   UNL     1      -4.620  -1.572 -33.063  1.00  0.00     0.018 A 
HETATM   11  C   UNL     1      -4.844  -2.419 -34.148  1.00  0.00     0.001 A 
ENDROOT
BRANCH   9  12
HETATM   12  C   UNL     1      -9.309   0.239 -33.326  1.00  0.00     0.185 C 
BRANCH  12  13
HETATM   13  N   UNL     1     -10.119   1.223 -32.636  1.00  0.00    -0.351 N 
HETATM   14  C   UNL     1     -10.927   2.108 -33.313  1.00  0.00     0.253 C 
HETATM   15  O   UNL     1     -11.108   2.043 -34.526  1.00  0.00    -0.268 OA
HETATM   16  H   UNL     1      -9.971   1.355 -31.642  1.00  0.00     0.163 HD
BRANCH  14  17
HETATM   17  C   UNL     1     -11.644   3.148 -32.514  1.00  0.00     0.055 A 
HETATM   18  C   UNL     1     -13.032   3.202 -32.302  1.00  0.00     0.049 A 
HETATM   19 CL   UNL     1     -14.148   2.032 -32.916  1.00  0.00    -0.083 Cl
HETATM   20  C   UNL     1     -13.585   4.233 -31.528  1.00  0.00     0.026 A 
HETATM   21  C   UNL     1     -12.767   5.209 -30.956  1.00  0.00     0.021 A 
HETATM   22  C   UNL     1     -11.393   5.151 -31.153  1.00  0.00     0.012 A 
HETATM   23 BR   UNL     1     -10.276   6.462 -30.375  1.00  0.00    -0.051 Br
HETATM   24  C   UNL     1     -10.830   4.132 -31.921  1.00  0.00     0.038 A 
ENDBRANCH  14  17
ENDBRANCH  12  13
ENDBRANCH   9  12
BRANCH   7  25
HETATM   25  C   UNL     1      -6.286   1.951 -30.026  1.00  0.00     0.182 C 
BRANCH  25  26
HETATM   26  C   UNL     1      -5.803   3.285 -30.607  1.00  0.00     0.256 C 
BRANCH  26  27
HETATM   27  N   UNL     1      -6.398   3.551 -31.981  1.00  0.00    -0.070 N 
HETATM   28  H   UNL     1      -7.013   2.761 -32.217  1.00  0.00     0.279 HD
HETATM   29  C   UNL     1      -5.338   3.638 -33.068  1.00  0.00     0.235 C 
HETATM   30  C   UNL     1      -5.368   5.085 -33.515  1.00  0.00     0.029 C 
HETATM   31  C   UNL     1      -6.830   5.454 -33.377  1.00  0.00     0.029 C 
HETATM   32  C   UNL     1      -7.212   4.834 -32.048  1.00  0.00     0.235 C 
ENDBRANCH  26  27
ENDBRANCH  25  26
ENDBRANCH   7  25
TORSDOF 6
ENDMDL
