MODEL 1
REMARK VINA RESULT:      -8.3      0.000      0.000
REMARK  14 active torsions:
REMARK  status: ('A' for Active; 'I' for Inactive)
REMARK    1  A    between atoms: C_2  and  O_3 
REMARK    2  A    between atoms: O_3  and  C_4 
REMARK    3  A    between atoms: C_5  and  O_6 
REMARK    4  A    between atoms: C_9  and  C_10 
REMARK    5  A    between atoms: N_11  and  C_12 
REMARK    6  A    between atoms: C_12  and  C_13 
REMARK    7  A    between atoms: C_13  and  C_14 
REMARK    8  A    between atoms: C_14  and  N_15 
REMARK    9  A    between atoms: C_24  and  O_25 
REMARK   10  A    between atoms: C_26  and  C_27 
REMARK   11  A    between atoms: C_27  and  C_28 
REMARK   12  A    between atoms: C_32  and  O_33 
REMARK   13  A    between atoms: O_33  and  C_34 
REMARK   14  A    between atoms: C_34  and  C_35 
ROOT
HETATM    1  C   UNL     1      -7.308   3.946 -31.517  1.00  0.00     0.161 C 
HETATM    2  N   UNL     1      -8.694   4.042 -31.976  1.00  0.00    -0.333 N 
HETATM    3  C   UNL     1      -9.373   2.864 -31.723  1.00  0.00     0.278 C 
HETATM    4  O   UNL     1     -10.559   2.637 -31.877  1.00  0.00    -0.265 OA
HETATM    5  C   UNL     1      -8.388   1.864 -31.275  1.00  0.00     0.146 C 
HETATM    6  C   UNL     1      -7.207   2.487 -31.197  1.00  0.00     0.059 C 
ENDROOT
BRANCH   6   7
HETATM    7  C   UNL     1      -5.946   1.746 -31.013  1.00  0.00     0.193 C 
HETATM    8  O   UNL     1      -5.258   1.933 -30.014  1.00  0.00    -0.287 OA
BRANCH   7   9
HETATM    9  C   UNL     1      -5.570   0.675 -31.968  1.00  0.00     0.015 A 
HETATM   10  C   UNL     1      -4.651  -0.287 -31.533  1.00  0.00     0.025 A 
HETATM   11  C   UNL     1      -4.241  -1.324 -32.383  1.00  0.00    -0.028 A 
HETATM   12  C   UNL     1      -3.243  -2.338 -31.891  1.00  0.00     0.051 C 
HETATM   13  C   UNL     1      -4.768  -1.403 -33.683  1.00  0.00     0.074 A 
HETATM   14  C   UNL     1      -5.674  -0.431 -34.122  1.00  0.00     0.038 A 
HETATM   15  C   UNL     1      -6.067   0.612 -33.272  1.00  0.00     0.018 A 
BRANCH  13  16
HETATM   16  O   UNL     1      -4.322  -2.459 -34.426  1.00  0.00    -0.350 OA
BRANCH  16  17
HETATM   17  C   UNL     1      -5.146  -2.958 -35.476  1.00  0.00     0.179 C 
BRANCH  17  18
HETATM   18  C   UNL     1      -5.695  -4.339 -35.079  1.00  0.00     0.002 C 
HETATM   19  C   UNL     1      -4.717  -5.079 -34.164  1.00  0.00     0.011 C 
HETATM   20  C   UNL     1      -7.060  -4.226 -34.398  1.00  0.00     0.011 C 
ENDBRANCH  17  18
ENDBRANCH  16  17
ENDBRANCH  13  16
ENDBRANCH   7   9
ENDBRANCH   6   7
BRANCH   1  21
HETATM   21  C   UNL     1      -6.294   4.458 -32.514  1.00  0.00    -0.028 A 
HETATM   22  C   UNL     1      -6.224   3.960 -33.827  1.00  0.00     0.012 A 
HETATM   23  C   UNL     1      -5.248   4.426 -34.707  1.00  0.00     0.040 A 
HETATM   24  C   UNL     1      -4.318   5.360 -34.267  1.00  0.00     0.099 A 
HETATM   25  C   UNL     1      -4.332   5.839 -32.957  1.00  0.00     0.102 A 
HETATM   26  C   UNL     1      -5.341   5.410 -32.094  1.00  0.00     0.049 A 
BRANCH  24  27
HETATM   27  O   UNL     1      -3.363   5.782 -35.148  1.00  0.00    -0.358 OA
HETATM   28  H   UNL     1      -2.509   5.512 -34.758  1.00  0.00     0.218 HD
ENDBRANCH  24  27
BRANCH  25  29
HETATM   29  O   UNL     1      -3.327   6.713 -32.635  1.00  0.00    -0.349 OA
BRANCH  29  30
HETATM   30  C   UNL     1      -2.170   6.140 -32.018  1.00  0.00     0.171 C 
HETATM   31  C   UNL     1      -0.936   6.813 -32.590  1.00  0.00     0.034 C 
ENDBRANCH  29  30
ENDBRANCH  25  29
ENDBRANCH   1  21
BRANCH   5  32
HETATM   32  O   UNL     1      -8.692   0.557 -31.050  1.00  0.00    -0.355 OA
HETATM   33  H   UNL     1      -8.031   0.018 -31.525  1.00  0.00     0.218 HD
ENDBRANCH   5  32
BRANCH   2  34
HETATM   34  C   UNL     1      -9.381   5.304 -32.217  1.00  0.00     0.129 C 
BRANCH  34  35
HETATM   35  C   UNL     1      -9.856   5.505 -33.657  1.00  0.00     0.048 C 
BRANCH  35  36
HETATM   36  C   UNL     1     -11.363   5.420 -33.920  1.00  0.00     0.236 C 
BRANCH  36  37
HETATM   37  N   UNL     1     -11.949   4.038 -34.103  1.00  0.00    -0.067 N 
HETATM   38  H   UNL     1     -11.361   3.441 -33.504  1.00  0.00     0.280 HD
HETATM   39  C   UNL     1     -13.356   3.846 -33.548  1.00  0.00     0.261 C 
HETATM   40  C   UNL     1     -13.733   2.360 -33.613  1.00  0.00     0.195 C 
HETATM   41  O   UNL     1     -13.618   1.853 -34.948  1.00  0.00    -0.388 OA
HETATM   42  C   UNL     1     -12.283   1.970 -35.452  1.00  0.00     0.195 C 
HETATM   43  C   UNL     1     -11.842   3.438 -35.497  1.00  0.00     0.261 C 
ENDBRANCH  36  37
ENDBRANCH  35  36
ENDBRANCH  34  35
ENDBRANCH   2  34
TORSDOF 14
ENDMDL
MODEL 2
REMARK VINA RESULT:      -8.2      3.603      7.893
REMARK  14 active torsions:
REMARK  status: ('A' for Active; 'I' for Inactive)
REMARK    1  A    between atoms: C_2  and  O_3 
REMARK    2  A    between atoms: O_3  and  C_4 
REMARK    3  A    between atoms: C_5  and  O_6 
REMARK    4  A    between atoms: C_9  and  C_10 
REMARK    5  A    between atoms: N_11  and  C_12 
REMARK    6  A    between atoms: C_12  and  C_13 
REMARK    7  A    between atoms: C_13  and  C_14 
REMARK    8  A    between atoms: C_14  and  N_15 
REMARK    9  A    between atoms: C_24  and  O_25 
REMARK   10  A    between atoms: C_26  and  C_27 
REMARK   11  A    between atoms: C_27  and  C_28 
REMARK   12  A    between atoms: C_32  and  O_33 
REMARK   13  A    between atoms: O_33  and  C_34 
REMARK   14  A    between atoms: C_34  and  C_35 
ROOT
HETATM    1  C   UNL     1      -5.681   3.329 -32.408  1.00  0.00     0.161 C 
HETATM    2  N   UNL     1      -5.367   2.004 -31.873  1.00  0.00    -0.333 N 
HETATM    3  C   UNL     1      -5.936   1.837 -30.623  1.00  0.00     0.278 C 
HETATM    4  O   UNL     1      -5.964   0.826 -29.944  1.00  0.00    -0.265 OA
HETATM    5  C   UNL     1      -6.475   3.139 -30.196  1.00  0.00     0.146 C 
HETATM    6  C   UNL     1      -6.290   3.991 -31.211  1.00  0.00     0.059 C 
ENDROOT
BRANCH   6   7
HETATM    7  C   UNL     1      -6.488   5.443 -31.055  1.00  0.00     0.193 C 
HETATM    8  O   UNL     1      -7.557   5.959 -31.367  1.00  0.00    -0.287 OA
BRANCH   7   9
HETATM    9  C   UNL     1      -5.445   6.266 -30.396  1.00  0.00     0.015 A 
HETATM   10  C   UNL     1      -4.559   6.971 -31.221  1.00  0.00     0.025 A 
HETATM   11  C   UNL     1      -3.542   7.762 -30.671  1.00  0.00    -0.028 A 
HETATM   12  C   UNL     1      -2.598   8.499 -31.582  1.00  0.00     0.051 C 
HETATM   13  C   UNL     1      -3.416   7.856 -29.275  1.00  0.00     0.074 A 
HETATM   14  C   UNL     1      -4.291   7.138 -28.452  1.00  0.00     0.038 A 
HETATM   15  C   UNL     1      -5.296   6.336 -29.009  1.00  0.00     0.018 A 
BRANCH  13  16
HETATM   16  O   UNL     1      -2.407   8.667 -28.837  1.00  0.00    -0.350 OA
BRANCH  16  17
HETATM   17  C   UNL     1      -1.724   8.325 -27.634  1.00  0.00     0.179 C 
BRANCH  17  18
HETATM   18  C   UNL     1      -0.533   7.411 -27.967  1.00  0.00     0.002 C 
HETATM   19  C   UNL     1       0.756   8.220 -28.130  1.00  0.00     0.011 C 
HETATM   20  C   UNL     1      -0.337   6.332 -26.900  1.00  0.00     0.011 C 
ENDBRANCH  17  18
ENDBRANCH  16  17
ENDBRANCH  13  16
ENDBRANCH   7   9
ENDBRANCH   6   7
BRANCH   1  21
HETATM   21  C   UNL     1      -4.494   4.048 -33.006  1.00  0.00    -0.028 A 
HETATM   22  C   UNL     1      -4.562   4.681 -34.260  1.00  0.00     0.012 A 
HETATM   23  C   UNL     1      -3.435   5.299 -34.800  1.00  0.00     0.040 A 
HETATM   24  C   UNL     1      -2.231   5.254 -34.108  1.00  0.00     0.099 A 
HETATM   25  C   UNL     1      -2.119   4.594 -32.884  1.00  0.00     0.102 A 
HETATM   26  C   UNL     1      -3.260   4.021 -32.322  1.00  0.00     0.049 A 
BRANCH  24  27
HETATM   27  O   UNL     1      -1.141   5.853 -34.674  1.00  0.00    -0.358 OA
HETATM   28  H   UNL     1      -1.159   5.595 -35.616  1.00  0.00     0.218 HD
ENDBRANCH  24  27
BRANCH  25  29
HETATM   29  O   UNL     1      -0.864   4.575 -32.333  1.00  0.00    -0.349 OA
BRANCH  29  30
HETATM   30  C   UNL     1      -0.708   5.290 -31.104  1.00  0.00     0.171 C 
HETATM   31  C   UNL     1       0.385   6.328 -31.287  1.00  0.00     0.034 C 
ENDBRANCH  29  30
ENDBRANCH  25  29
ENDBRANCH   1  21
BRANCH   5  32
HETATM   32  O   UNL     1      -7.003   3.366 -28.963  1.00  0.00    -0.355 OA
HETATM   33  H   UNL     1      -6.731   4.263 -28.689  1.00  0.00     0.218 HD
ENDBRANCH   5  32
BRANCH   2  34
HETATM   34  C   UNL     1      -4.941   0.880 -32.695  1.00  0.00     0.129 C 
BRANCH  34  35
HETATM   35  C   UNL     1      -6.037  -0.147 -32.989  1.00  0.00     0.048 C 
BRANCH  35  36
HETATM   36  C   UNL     1      -6.140  -0.676 -34.423  1.00  0.00     0.236 C 
BRANCH  36  37
HETATM   37  N   UNL     1      -5.707  -2.105 -34.659  1.00  0.00    -0.067 N 
HETATM   38  H   UNL     1      -5.317  -2.089 -35.611  1.00  0.00     0.280 HD
HETATM   39  C   UNL     1      -4.548  -2.588 -33.793  1.00  0.00     0.261 C 
HETATM   40  C   UNL     1      -4.084  -3.967 -34.284  1.00  0.00     0.195 C 
HETATM   41  O   UNL     1      -5.165  -4.906 -34.292  1.00  0.00    -0.388 OA
HETATM   42  C   UNL     1      -6.229  -4.490 -35.155  1.00  0.00     0.195 C 
HETATM   43  C   UNL     1      -6.814  -3.149 -34.695  1.00  0.00     0.261 C 
ENDBRANCH  36  37
ENDBRANCH  35  36
ENDBRANCH  34  35
ENDBRANCH   2  34
TORSDOF 14
ENDMDL
MODEL 3
REMARK VINA RESULT:      -8.2      2.467      5.644
REMARK  14 active torsions:
REMARK  status: ('A' for Active; 'I' for Inactive)
REMARK    1  A    between atoms: C_2  and  O_3 
REMARK    2  A    between atoms: O_3  and  C_4 
REMARK    3  A    between atoms: C_5  and  O_6 
REMARK    4  A    between atoms: C_9  and  C_10 
REMARK    5  A    between atoms: N_11  and  C_12 
REMARK    6  A    between atoms: C_12  and  C_13 
REMARK    7  A    between atoms: C_13  and  C_14 
REMARK    8  A    between atoms: C_14  and  N_15 
REMARK    9  A    between atoms: C_24  and  O_25 
REMARK   10  A    between atoms: C_26  and  C_27 
REMARK   11  A    between atoms: C_27  and  C_28 
REMARK   12  A    between atoms: C_32  and  O_33 
REMARK   13  A    between atoms: O_33  and  C_34 
REMARK   14  A    between atoms: C_34  and  C_35 
ROOT
HETATM    1  C   UNL     1      -7.666   1.208 -32.029  1.00  0.00     0.161 C 
HETATM    2  N   UNL     1      -7.819   0.424 -33.255  1.00  0.00    -0.333 N 
HETATM    3  C   UNL     1      -6.933  -0.638 -33.266  1.00  0.00     0.278 C 
HETATM    4  O   UNL     1      -6.863  -1.543 -34.078  1.00  0.00    -0.265 OA
HETATM    5  C   UNL     1      -6.009  -0.467 -32.132  1.00  0.00     0.146 C 
HETATM    6  C   UNL     1      -6.418   0.611 -31.454  1.00  0.00     0.059 C 
ENDROOT
BRANCH   6   7
HETATM    7  C   UNL     1      -5.595   1.225 -30.397  1.00  0.00     0.193 C 
HETATM    8  O   UNL     1      -5.524   0.706 -29.288  1.00  0.00    -0.287 OA
BRANCH   7   9
HETATM    9  C   UNL     1      -4.744   2.400 -30.710  1.00  0.00     0.015 A 
HETATM   10  C   UNL     1      -5.168   3.650 -30.242  1.00  0.00     0.025 A 
HETATM   11  C   UNL     1      -4.421   4.805 -30.506  1.00  0.00    -0.028 A 
HETATM   12  C   UNL     1      -4.908   6.137 -30.001  1.00  0.00     0.051 C 
HETATM   13  C   UNL     1      -3.227   4.706 -31.241  1.00  0.00     0.074 A 
HETATM   14  C   UNL     1      -2.813   3.459 -31.721  1.00  0.00     0.038 A 
HETATM   15  C   UNL     1      -3.574   2.309 -31.467  1.00  0.00     0.018 A 
BRANCH  13  16
HETATM   16  O   UNL     1      -2.562   5.885 -31.428  1.00  0.00    -0.350 OA
BRANCH  16  17
HETATM   17  C   UNL     1      -1.341   5.876 -32.162  1.00  0.00     0.179 C 
BRANCH  17  18
HETATM   18  C   UNL     1      -0.199   6.361 -31.255  1.00  0.00     0.002 C 
HETATM   19  C   UNL     1      -0.726   7.265 -30.138  1.00  0.00     0.011 C 
HETATM   20  C   UNL     1       0.575   5.187 -30.650  1.00  0.00     0.011 C 
ENDBRANCH  17  18
ENDBRANCH  16  17
ENDBRANCH  13  16
ENDBRANCH   7   9
ENDBRANCH   6   7
BRANCH   1  21
HETATM   21  C   UNL     1      -7.621   2.702 -32.255  1.00  0.00    -0.028 A 
HETATM   22  C   UNL     1      -8.502   3.580 -31.600  1.00  0.00     0.012 A 
HETATM   23  C   UNL     1      -8.459   4.949 -31.863  1.00  0.00     0.040 A 
HETATM   24  C   UNL     1      -7.564   5.436 -32.807  1.00  0.00     0.099 A 
HETATM   25  C   UNL     1      -6.709   4.586 -33.508  1.00  0.00     0.102 A 
HETATM   26  C   UNL     1      -6.718   3.224 -33.205  1.00  0.00     0.049 A 
BRANCH  24  27
HETATM   27  O   UNL     1      -7.560   6.780 -33.057  1.00  0.00    -0.358 OA
HETATM   28  H   UNL     1      -7.789   7.205 -32.207  1.00  0.00     0.218 HD
ENDBRANCH  24  27
BRANCH  25  29
HETATM   29  O   UNL     1      -5.916   5.186 -34.452  1.00  0.00    -0.349 OA
BRANCH  29  30
HETATM   30  C   UNL     1      -4.741   4.464 -34.835  1.00  0.00     0.171 C 
HETATM   31  C   UNL     1      -3.587   5.444 -34.938  1.00  0.00     0.034 C 
ENDBRANCH  29  30
ENDBRANCH  25  29
ENDBRANCH   1  21
BRANCH   5  32
HETATM   32  O   UNL     1      -4.935  -1.271 -31.910  1.00  0.00    -0.355 OA
HETATM   33  H   UNL     1      -5.012  -1.616 -31.000  1.00  0.00     0.218 HD
ENDBRANCH   5  32
BRANCH   2  34
HETATM   34  C   UNL     1      -9.008   0.460 -34.095  1.00  0.00     0.129 C 
BRANCH  34  35
HETATM   35  C   UNL     1     -10.332   0.412 -33.329  1.00  0.00     0.048 C 
BRANCH  35  36
HETATM   36  C   UNL     1     -11.225   1.655 -33.388  1.00  0.00     0.236 C 
BRANCH  36  37
HETATM   37  N   UNL     1     -12.713   1.438 -33.223  1.00  0.00    -0.067 N 
HETATM   38  H   UNL     1     -12.780   0.803 -32.415  1.00  0.00     0.280 HD
HETATM   39  C   UNL     1     -13.509   2.665 -32.796  1.00  0.00     0.261 C 
HETATM   40  C   UNL     1     -14.950   2.251 -32.466  1.00  0.00     0.195 C 
HETATM   41  O   UNL     1     -15.564   1.581 -33.573  1.00  0.00    -0.388 OA
HETATM   42  C   UNL     1     -14.857   0.390 -33.937  1.00  0.00     0.195 C 
HETATM   43  C   UNL     1     -13.419   0.715 -34.360  1.00  0.00     0.261 C 
ENDBRANCH  36  37
ENDBRANCH  35  36
ENDBRANCH  34  35
ENDBRANCH   2  34
TORSDOF 14
ENDMDL
MODEL 4
REMARK VINA RESULT:      -8.2      2.162      6.533
REMARK  14 active torsions:
REMARK  status: ('A' for Active; 'I' for Inactive)
REMARK    1  A    between atoms: C_2  and  O_3 
REMARK    2  A    between atoms: O_3  and  C_4 
REMARK    3  A    between atoms: C_5  and  O_6 
REMARK    4  A    between atoms: C_9  and  C_10 
REMARK    5  A    between atoms: N_11  and  C_12 
REMARK    6  A    between atoms: C_12  and  C_13 
REMARK    7  A    between atoms: C_13  and  C_14 
REMARK    8  A    between atoms: C_14  and  N_15 
REMARK    9  A    between atoms: C_24  and  O_25 
REMARK   10  A    between atoms: C_26  and  C_27 
REMARK   11  A    between atoms: C_27  and  C_28 
REMARK   12  A    between atoms: C_32  and  O_33 
REMARK   13  A    between atoms: O_33  and  C_34 
REMARK   14  A    between atoms: C_34  and  C_35 
ROOT
HETATM    1  C   UNL     1      -7.500   3.018 -33.188  1.00  0.00     0.161 C 
HETATM    2  N   UNL     1      -8.219   3.033 -31.915  1.00  0.00    -0.333 N 
HETATM    3  C   UNL     1      -7.862   4.142 -31.169  1.00  0.00     0.278 C 
HETATM    4  O   UNL     1      -8.343   4.519 -30.114  1.00  0.00    -0.265 OA
HETATM    5  C   UNL     1      -6.725   4.793 -31.842  1.00  0.00     0.146 C 
HETATM    6  C   UNL     1      -6.506   4.119 -32.976  1.00  0.00     0.059 C 
ENDROOT
BRANCH   6   7
HETATM    7  C   UNL     1      -5.296   4.336 -33.790  1.00  0.00     0.193 C 
HETATM    8  O   UNL     1      -5.385   4.481 -35.005  1.00  0.00    -0.287 OA
BRANCH   7   9
HETATM    9  C   UNL     1      -3.981   4.513 -33.128  1.00  0.00     0.015 A 
HETATM   10  C   UNL     1      -3.169   5.564 -33.571  1.00  0.00     0.025 A 
HETATM   11  C   UNL     1      -1.909   5.788 -33.000  1.00  0.00    -0.028 A 
HETATM   12  C   UNL     1      -1.053   6.919 -33.505  1.00  0.00     0.051 C 
HETATM   13  C   UNL     1      -1.461   4.952 -31.963  1.00  0.00     0.074 A 
HETATM   14  C   UNL     1      -2.265   3.892 -31.533  1.00  0.00     0.038 A 
HETATM   15  C   UNL     1      -3.518   3.664 -32.119  1.00  0.00     0.018 A 
BRANCH  13  16
HETATM   16  O   UNL     1      -0.229   5.264 -31.460  1.00  0.00    -0.350 OA
BRANCH  16  17
HETATM   17  C   UNL     1      -0.118   5.610 -30.082  1.00  0.00     0.179 C 
BRANCH  17  18
HETATM   18  C   UNL     1      -0.008   7.138 -29.949  1.00  0.00     0.002 C 
HETATM   19  C   UNL     1      -1.393   7.785 -29.863  1.00  0.00     0.011 C 
HETATM   20  C   UNL     1       0.828   7.538 -28.732  1.00  0.00     0.011 C 
ENDBRANCH  17  18
ENDBRANCH  16  17
ENDBRANCH  13  16
ENDBRANCH   7   9
ENDBRANCH   6   7
BRANCH   1  21
HETATM   21  C   UNL     1      -6.905   1.674 -33.544  1.00  0.00    -0.028 A 
HETATM   22  C   UNL     1      -7.196   1.031 -34.760  1.00  0.00     0.012 A 
HETATM   23  C   UNL     1      -6.663  -0.227 -35.037  1.00  0.00     0.040 A 
HETATM   24  C   UNL     1      -5.871  -0.860 -34.087  1.00  0.00     0.099 A 
HETATM   25  C   UNL     1      -5.602  -0.269 -32.852  1.00  0.00     0.102 A 
HETATM   26  C   UNL     1      -6.094   1.012 -32.599  1.00  0.00     0.049 A 
BRANCH  24  27
HETATM   27  O   UNL     1      -5.380  -2.101 -34.381  1.00  0.00    -0.358 OA
HETATM   28  H   UNL     1      -5.267  -2.549 -33.520  1.00  0.00     0.218 HD
ENDBRANCH  24  27
BRANCH  25  29
HETATM   29  O   UNL     1      -4.857  -1.022 -31.983  1.00  0.00    -0.349 OA
BRANCH  29  30
HETATM   30  C   UNL     1      -3.436  -0.895 -32.103  1.00  0.00     0.171 C 
HETATM   31  C   UNL     1      -2.958   0.136 -31.097  1.00  0.00     0.034 C 
ENDBRANCH  29  30
ENDBRANCH  25  29
ENDBRANCH   1  21
BRANCH   5  32
HETATM   32  O   UNL     1      -6.046   5.849 -31.320  1.00  0.00    -0.355 OA
HETATM   33  H   UNL     1      -6.661   6.608 -31.296  1.00  0.00     0.218 HD
ENDBRANCH   5  32
BRANCH   2  34
HETATM   34  C   UNL     1      -9.444   2.285 -31.668  1.00  0.00     0.129 C 
BRANCH  34  35
HETATM   35  C   UNL     1     -10.384   2.188 -32.871  1.00  0.00     0.048 C 
BRANCH  35  36
HETATM   36  C   UNL     1     -11.689   2.987 -32.811  1.00  0.00     0.236 C 
BRANCH  36  37
HETATM   37  N   UNL     1     -12.979   2.201 -32.892  1.00  0.00    -0.067 N 
HETATM   38  H   UNL     1     -12.865   1.469 -32.176  1.00  0.00     0.280 HD
HETATM   39  C   UNL     1     -14.231   2.953 -32.456  1.00  0.00     0.261 C 
HETATM   40  C   UNL     1     -15.415   1.978 -32.389  1.00  0.00     0.195 C 
HETATM   41  O   UNL     1     -15.609   1.310 -33.641  1.00  0.00    -0.388 OA
HETATM   42  C   UNL     1     -14.459   0.548 -34.024  1.00  0.00     0.195 C 
HETATM   43  C   UNL     1     -13.234   1.455 -34.193  1.00  0.00     0.261 C 
ENDBRANCH  36  37
ENDBRANCH  35  36
ENDBRANCH  34  35
ENDBRANCH   2  34
TORSDOF 14
ENDMDL
MODEL 5
REMARK VINA RESULT:      -8.1      1.899      3.046
REMARK  14 active torsions:
REMARK  status: ('A' for Active; 'I' for Inactive)
REMARK    1  A    between atoms: C_2  and  O_3 
REMARK    2  A    between atoms: O_3  and  C_4 
REMARK    3  A    between atoms: C_5  and  O_6 
REMARK    4  A    between atoms: C_9  and  C_10 
REMARK    5  A    between atoms: N_11  and  C_12 
REMARK    6  A    between atoms: C_12  and  C_13 
REMARK    7  A    between atoms: C_13  and  C_14 
REMARK    8  A    between atoms: C_14  and  N_15 
REMARK    9  A    between atoms: C_24  and  O_25 
REMARK   10  A    between atoms: C_26  and  C_27 
REMARK   11  A    between atoms: C_27  and  C_28 
REMARK   12  A    between atoms: C_32  and  O_33 
REMARK   13  A    between atoms: O_33  and  C_34 
REMARK   14  A    between atoms: C_34  and  C_35 
ROOT
HETATM    1  C   UNL     1      -8.972   3.504 -32.501  1.00  0.00     0.161 C 
HETATM    2  N   UNL     1      -9.223   4.508 -33.535  1.00  0.00    -0.333 N 
HETATM    3  C   UNL     1     -10.007   3.980 -34.544  1.00  0.00     0.278 C 
HETATM    4  O   UNL     1     -10.489   4.564 -35.499  1.00  0.00    -0.265 OA
HETATM    5  C   UNL     1     -10.127   2.531 -34.311  1.00  0.00     0.146 C 
HETATM    6  C   UNL     1      -9.501   2.267 -33.159  1.00  0.00     0.059 C 
ENDROOT
BRANCH   6   7
HETATM    7  C   UNL     1      -9.210   0.888 -32.728  1.00  0.00     0.193 C 
HETATM    8  O   UNL     1     -10.028   0.262 -32.061  1.00  0.00    -0.287 OA
BRANCH   7   9
HETATM    9  C   UNL     1      -7.985   0.204 -33.210  1.00  0.00     0.015 A 
HETATM   10  C   UNL     1      -6.974  -0.050 -32.275  1.00  0.00     0.025 A 
HETATM   11  C   UNL     1      -5.785  -0.684 -32.659  1.00  0.00    -0.028 A 
HETATM   12  C   UNL     1      -4.711  -0.933 -31.635  1.00  0.00     0.051 C 
HETATM   13  C   UNL     1      -5.610  -1.078 -33.997  1.00  0.00     0.074 A 
HETATM   14  C   UNL     1      -6.614  -0.809 -34.933  1.00  0.00     0.038 A 
HETATM   15  C   UNL     1      -7.795  -0.160 -34.546  1.00  0.00     0.018 A 
BRANCH  13  16
HETATM   16  O   UNL     1      -4.427  -1.705 -34.266  1.00  0.00    -0.350 OA
BRANCH  16  17
HETATM   17  C   UNL     1      -4.437  -2.868 -35.091  1.00  0.00     0.179 C 
BRANCH  17  18
HETATM   18  C   UNL     1      -5.218  -3.986 -34.382  1.00  0.00     0.002 C 
HETATM   19  C   UNL     1      -6.327  -4.539 -35.280  1.00  0.00     0.011 C 
HETATM   20  C   UNL     1      -4.294  -5.123 -33.939  1.00  0.00     0.011 C 
ENDBRANCH  17  18
ENDBRANCH  16  17
ENDBRANCH  13  16
ENDBRANCH   7   9
ENDBRANCH   6   7
BRANCH   1  21
HETATM   21  C   UNL     1      -7.530   3.429 -32.053  1.00  0.00    -0.028 A 
HETATM   22  C   UNL     1      -7.177   3.316 -30.696  1.00  0.00     0.012 A 
HETATM   23  C   UNL     1      -5.836   3.290 -30.316  1.00  0.00     0.040 A 
HETATM   24  C   UNL     1      -4.847   3.416 -31.284  1.00  0.00     0.099 A 
HETATM   25  C   UNL     1      -5.165   3.576 -32.633  1.00  0.00     0.102 A 
HETATM   26  C   UNL     1      -6.506   3.549 -33.016  1.00  0.00     0.049 A 
BRANCH  24  27
HETATM   27  O   UNL     1      -3.543   3.407 -30.876  1.00  0.00    -0.358 OA
HETATM   28  H   UNL     1      -3.553   3.738 -29.957  1.00  0.00     0.218 HD
ENDBRANCH  24  27
BRANCH  25  29
HETATM   29  O   UNL     1      -4.099   3.746 -33.477  1.00  0.00    -0.349 OA
BRANCH  29  30
HETATM   30  C   UNL     1      -3.950   5.051 -34.045  1.00  0.00     0.171 C 
HETATM   31  C   UNL     1      -2.486   5.265 -34.382  1.00  0.00     0.034 C 
ENDBRANCH  29  30
ENDBRANCH  25  29
ENDBRANCH   1  21
BRANCH   5  32
HETATM   32  O   UNL     1     -10.736   1.677 -35.178  1.00  0.00    -0.355 OA
HETATM   33  H   UNL     1     -10.168   1.611 -35.969  1.00  0.00     0.218 HD
ENDBRANCH   5  32
BRANCH   2  34
HETATM   34  C   UNL     1      -9.082   5.941 -33.322  1.00  0.00     0.129 C 
BRANCH  34  35
HETATM   35  C   UNL     1      -9.963   6.510 -32.207  1.00  0.00     0.048 C 
BRANCH  35  36
HETATM   36  C   UNL     1     -11.427   6.802 -32.546  1.00  0.00     0.236 C 
BRANCH  36  37
HETATM   37  N   UNL     1     -12.462   5.849 -31.991  1.00  0.00    -0.067 N 
HETATM   38  H   UNL     1     -13.157   6.470 -31.552  1.00  0.00     0.280 HD
HETATM   39  C   UNL     1     -13.263   5.076 -33.032  1.00  0.00     0.261 C 
HETATM   40  C   UNL     1     -14.405   4.318 -32.340  1.00  0.00     0.195 C 
HETATM   41  O   UNL     1     -13.906   3.456 -31.310  1.00  0.00    -0.388 OA
HETATM   42  C   UNL     1     -13.209   4.186 -30.293  1.00  0.00     0.195 C 
HETATM   43  C   UNL     1     -11.996   4.919 -30.881  1.00  0.00     0.261 C 
ENDBRANCH  36  37
ENDBRANCH  35  36
ENDBRANCH  34  35
ENDBRANCH   2  34
TORSDOF 14
ENDMDL
MODEL 6
REMARK VINA RESULT:      -8.0      2.876      7.012
REMARK  14 active torsions:
REMARK  status: ('A' for Active; 'I' for Inactive)
REMARK    1  A    between atoms: C_2  and  O_3 
REMARK    2  A    between atoms: O_3  and  C_4 
REMARK    3  A    between atoms: C_5  and  O_6 
REMARK    4  A    between atoms: C_9  and  C_10 
REMARK    5  A    between atoms: N_11  and  C_12 
REMARK    6  A    between atoms: C_12  and  C_13 
REMARK    7  A    between atoms: C_13  and  C_14 
REMARK    8  A    between atoms: C_14  and  N_15 
REMARK    9  A    between atoms: C_24  and  O_25 
REMARK   10  A    between atoms: C_26  and  C_27 
REMARK   11  A    between atoms: C_27  and  C_28 
REMARK   12  A    between atoms: C_32  and  O_33 
REMARK   13  A    between atoms: O_33  and  C_34 
REMARK   14  A    between atoms: C_34  and  C_35 
ROOT
HETATM    1  C   UNL     1      -5.816   3.719 -32.465  1.00  0.00     0.161 C 
HETATM    2  N   UNL     1      -5.669   2.336 -32.011  1.00  0.00    -0.333 N 
HETATM    3  C   UNL     1      -6.221   2.176 -30.753  1.00  0.00     0.278 C 
HETATM    4  O   UNL     1      -6.366   1.141 -30.126  1.00  0.00    -0.265 OA
HETATM    5  C   UNL     1      -6.567   3.512 -30.239  1.00  0.00     0.146 C 
HETATM    6  C   UNL     1      -6.297   4.388 -31.214  1.00  0.00     0.059 C 
ENDROOT
BRANCH   6   7
HETATM    7  C   UNL     1      -6.293   5.842 -30.976  1.00  0.00     0.193 C 
HETATM    8  O   UNL     1      -7.303   6.507 -31.186  1.00  0.00    -0.287 OA
BRANCH   7   9
HETATM    9  C   UNL     1      -5.111   6.488 -30.355  1.00  0.00     0.015 A 
HETATM   10  C   UNL     1      -4.269   7.236 -31.187  1.00  0.00     0.025 A 
HETATM   11  C   UNL     1      -3.128   7.867 -30.673  1.00  0.00    -0.028 A 
HETATM   12  C   UNL     1      -2.236   8.655 -31.595  1.00  0.00     0.051 C 
HETATM   13  C   UNL     1      -2.831   7.754 -29.305  1.00  0.00     0.074 A 
HETATM   14  C   UNL     1      -3.663   6.993 -28.477  1.00  0.00     0.038 A 
HETATM   15  C   UNL     1      -4.794   6.351 -29.001  1.00  0.00     0.018 A 
BRANCH  13  16
HETATM   16  O   UNL     1      -1.710   8.421 -28.898  1.00  0.00    -0.350 OA
BRANCH  16  17
HETATM   17  C   UNL     1      -1.414   8.483 -27.506  1.00  0.00     0.179 C 
BRANCH  17  18
HETATM   18  C   UNL     1      -0.049   7.825 -27.246  1.00  0.00     0.002 C 
HETATM   19  C   UNL     1      -0.160   6.298 -27.264  1.00  0.00     0.011 C 
HETATM   20  C   UNL     1       0.998   8.281 -28.264  1.00  0.00     0.011 C 
ENDBRANCH  17  18
ENDBRANCH  16  17
ENDBRANCH  13  16
ENDBRANCH   7   9
ENDBRANCH   6   7
BRANCH   1  21
HETATM   21  C   UNL     1      -4.560   4.306 -33.066  1.00  0.00    -0.028 A 
HETATM   22  C   UNL     1      -4.551   4.894 -34.344  1.00  0.00     0.012 A 
HETATM   23  C   UNL     1      -3.365   5.389 -34.884  1.00  0.00     0.040 A 
HETATM   24  C   UNL     1      -2.182   5.264 -34.168  1.00  0.00     0.099 A 
HETATM   25  C   UNL     1      -2.148   4.644 -32.919  1.00  0.00     0.102 A 
HETATM   26  C   UNL     1      -3.345   4.197 -32.358  1.00  0.00     0.049 A 
BRANCH  24  27
HETATM   27  O   UNL     1      -1.033   5.741 -34.734  1.00  0.00    -0.358 OA
HETATM   28  H   UNL     1      -1.192   5.731 -35.699  1.00  0.00     0.218 HD
ENDBRANCH  24  27
BRANCH  25  29
HETATM   29  O   UNL     1      -0.909   4.534 -32.343  1.00  0.00    -0.349 OA
BRANCH  29  30
HETATM   30  C   UNL     1      -0.757   5.149 -31.060  1.00  0.00     0.171 C 
HETATM   31  C   UNL     1       0.390   6.140 -31.135  1.00  0.00     0.034 C 
ENDBRANCH  29  30
ENDBRANCH  25  29
ENDBRANCH   1  21
BRANCH   5  32
HETATM   32  O   UNL     1      -7.025   3.738 -28.978  1.00  0.00    -0.355 OA
HETATM   33  H   UNL     1      -6.698   4.615 -28.702  1.00  0.00     0.218 HD
ENDBRANCH   5  32
BRANCH   2  34
HETATM   34  C   UNL     1      -5.422   1.213 -32.905  1.00  0.00     0.129 C 
BRANCH  34  35
HETATM   35  C   UNL     1      -6.424   1.079 -34.053  1.00  0.00     0.048 C 
BRANCH  35  36
HETATM   36  C   UNL     1      -7.686   0.250 -33.793  1.00  0.00     0.236 C 
BRANCH  36  37
HETATM   37  N   UNL     1      -9.015   0.939 -34.009  1.00  0.00    -0.067 N 
HETATM   38  H   UNL     1      -9.276   0.671 -34.968  1.00  0.00     0.280 HD
HETATM   39  C   UNL     1     -10.166   0.421 -33.154  1.00  0.00     0.261 C 
HETATM   40  C   UNL     1     -11.480   1.058 -33.626  1.00  0.00     0.195 C 
HETATM   41  O   UNL     1     -11.403   2.488 -33.598  1.00  0.00    -0.388 OA
HETATM   42  C   UNL     1     -10.365   2.985 -34.452  1.00  0.00     0.195 C 
HETATM   43  C   UNL     1      -8.994   2.460 -34.007  1.00  0.00     0.261 C 
ENDBRANCH  36  37
ENDBRANCH  35  36
ENDBRANCH  34  35
ENDBRANCH   2  34
TORSDOF 14
ENDMDL
MODEL 7
REMARK VINA RESULT:      -8.0      3.161      7.595
REMARK  14 active torsions:
REMARK  status: ('A' for Active; 'I' for Inactive)
REMARK    1  A    between atoms: C_2  and  O_3 
REMARK    2  A    between atoms: O_3  and  C_4 
REMARK    3  A    between atoms: C_5  and  O_6 
REMARK    4  A    between atoms: C_9  and  C_10 
REMARK    5  A    between atoms: N_11  and  C_12 
REMARK    6  A    between atoms: C_12  and  C_13 
REMARK    7  A    between atoms: C_13  and  C_14 
REMARK    8  A    between atoms: C_14  and  N_15 
REMARK    9  A    between atoms: C_24  and  O_25 
REMARK   10  A    between atoms: C_26  and  C_27 
REMARK   11  A    between atoms: C_27  and  C_28 
REMARK   12  A    between atoms: C_32  and  O_33 
REMARK   13  A    between atoms: O_33  and  C_34 
REMARK   14  A    between atoms: C_34  and  C_35 
ROOT
HETATM    1  C   UNL     1      -5.631   5.896 -31.466  1.00  0.00     0.161 C 
HETATM    2  N   UNL     1      -4.763   6.241 -30.340  1.00  0.00    -0.333 N 
HETATM    3  C   UNL     1      -3.433   6.179 -30.715  1.00  0.00     0.278 C 
HETATM    4  O   UNL     1      -2.457   6.503 -30.062  1.00  0.00    -0.265 OA
HETATM    5  C   UNL     1      -3.370   5.579 -32.059  1.00  0.00     0.146 C 
HETATM    6  C   UNL     1      -4.632   5.390 -32.461  1.00  0.00     0.059 C 
ENDROOT
BRANCH   6   7
HETATM    7  C   UNL     1      -4.957   4.590 -33.655  1.00  0.00     0.193 C 
HETATM    8  O   UNL     1      -4.803   5.061 -34.777  1.00  0.00    -0.287 OA
BRANCH   7   9
HETATM    9  C   UNL     1      -5.346   3.165 -33.509  1.00  0.00     0.015 A 
HETATM   10  C   UNL     1      -4.508   2.340 -32.749  1.00  0.00     0.025 A 
HETATM   11  C   UNL     1      -4.806   0.982 -32.574  1.00  0.00    -0.028 A 
HETATM   12  C   UNL     1      -3.881   0.116 -31.761  1.00  0.00     0.051 C 
HETATM   13  C   UNL     1      -5.964   0.445 -33.162  1.00  0.00     0.074 A 
HETATM   14  C   UNL     1      -6.791   1.267 -33.935  1.00  0.00     0.038 A 
HETATM   15  C   UNL     1      -6.479   2.621 -34.119  1.00  0.00     0.018 A 
BRANCH  13  16
HETATM   16  O   UNL     1      -6.176  -0.882 -32.918  1.00  0.00    -0.350 OA
BRANCH  16  17
HETATM   17  C   UNL     1      -7.006  -1.622 -33.810  1.00  0.00     0.179 C 
BRANCH  17  18
HETATM   18  C   UNL     1      -6.125  -2.503 -34.711  1.00  0.00     0.002 C 
HETATM   19  C   UNL     1      -4.714  -2.644 -34.136  1.00  0.00     0.011 C 
HETATM   20  C   UNL     1      -6.742  -3.887 -34.919  1.00  0.00     0.011 C 
ENDBRANCH  17  18
ENDBRANCH  16  17
ENDBRANCH  13  16
ENDBRANCH   7   9
ENDBRANCH   6   7
BRANCH   1  21
HETATM   21  C   UNL     1      -6.738   4.928 -31.116  1.00  0.00    -0.028 A 
HETATM   22  C   UNL     1      -6.536   3.857 -30.229  1.00  0.00     0.012 A 
HETATM   23  C   UNL     1      -7.569   2.959 -29.961  1.00  0.00     0.040 A 
HETATM   24  C   UNL     1      -8.790   3.108 -30.606  1.00  0.00     0.099 A 
HETATM   25  C   UNL     1      -9.007   4.133 -31.527  1.00  0.00     0.102 A 
HETATM   26  C   UNL     1      -7.990   5.060 -31.754  1.00  0.00     0.049 A 
BRANCH  24  27
HETATM   27  O   UNL     1      -9.775   2.200 -30.336  1.00  0.00    -0.358 OA
HETATM   28  H   UNL     1     -10.327   2.164 -31.142  1.00  0.00     0.218 HD
ENDBRANCH  24  27
BRANCH  25  29
HETATM   29  O   UNL     1     -10.236   4.134 -32.135  1.00  0.00    -0.349 OA
BRANCH  29  30
HETATM   30  C   UNL     1     -10.233   3.960 -33.555  1.00  0.00     0.171 C 
HETATM   31  C   UNL     1     -10.471   2.492 -33.860  1.00  0.00     0.034 C 
ENDBRANCH  29  30
ENDBRANCH  25  29
ENDBRANCH   1  21
BRANCH   5  32
HETATM   32  O   UNL     1      -2.207   5.262 -32.687  1.00  0.00    -0.355 OA
HETATM   33  H   UNL     1      -1.486   5.728 -32.221  1.00  0.00     0.218 HD
ENDBRANCH   5  32
BRANCH   2  34
HETATM   34  C   UNL     1      -5.212   6.982 -29.170  1.00  0.00     0.129 C 
BRANCH  34  35
HETATM   35  C   UNL     1      -5.174   6.191 -27.861  1.00  0.00     0.048 C 
BRANCH  35  36
HETATM   36  C   UNL     1      -4.364   6.782 -26.703  1.00  0.00     0.236 C 
BRANCH  36  37
HETATM   37  N   UNL     1      -2.872   6.917 -26.910  1.00  0.00    -0.067 N 
HETATM   38  H   UNL     1      -2.710   6.476 -27.826  1.00  0.00     0.280 HD
HETATM   39  C   UNL     1      -2.364   8.343 -27.091  1.00  0.00     0.261 C 
HETATM   40  C   UNL     1      -0.884   8.311 -27.498  1.00  0.00     0.195 C 
HETATM   41  O   UNL     1      -0.099   7.587 -26.543  1.00  0.00    -0.388 OA
HETATM   42  C   UNL     1      -0.530   6.227 -26.416  1.00  0.00     0.195 C 
HETATM   43  C   UNL     1      -1.984   6.157 -25.936  1.00  0.00     0.261 C 
ENDBRANCH  36  37
ENDBRANCH  35  36
ENDBRANCH  34  35
ENDBRANCH   2  34
TORSDOF 14
ENDMDL
MODEL 8
REMARK VINA RESULT:      -8.0      2.410      4.531
REMARK  14 active torsions:
REMARK  status: ('A' for Active; 'I' for Inactive)
REMARK    1  A    between atoms: C_2  and  O_3 
REMARK    2  A    between atoms: O_3  and  C_4 
REMARK    3  A    between atoms: C_5  and  O_6 
REMARK    4  A    between atoms: C_9  and  C_10 
REMARK    5  A    between atoms: N_11  and  C_12 
REMARK    6  A    between atoms: C_12  and  C_13 
REMARK    7  A    between atoms: C_13  and  C_14 
REMARK    8  A    between atoms: C_14  and  N_15 
REMARK    9  A    between atoms: C_24  and  O_25 
REMARK   10  A    between atoms: C_26  and  C_27 
REMARK   11  A    between atoms: C_27  and  C_28 
REMARK   12  A    between atoms: C_32  and  O_33 
REMARK   13  A    between atoms: O_33  and  C_34 
REMARK   14  A    between atoms: C_34  and  C_35 
ROOT
HETATM    1  C   UNL     1     -11.430   3.401 -32.886  1.00  0.00     0.161 C 
HETATM    2  N   UNL     1     -11.801   4.450 -33.836  1.00  0.00    -0.333 N 
HETATM    3  C   UNL     1     -12.242   3.896 -35.024  1.00  0.00     0.278 C 
HETATM    4  O   UNL     1     -12.723   4.472 -35.984  1.00  0.00    -0.265 OA
HETATM    5  C   UNL     1     -11.974   2.449 -34.974  1.00  0.00     0.146 C 
HETATM    6  C   UNL     1     -11.478   2.186 -33.760  1.00  0.00     0.059 C 
ENDROOT
BRANCH   6   7
HETATM    7  C   UNL     1     -10.872   0.883 -33.432  1.00  0.00     0.193 C 
HETATM    8  O   UNL     1     -11.581  -0.103 -33.255  1.00  0.00    -0.287 OA
BRANCH   7   9
HETATM    9  C   UNL     1      -9.397   0.728 -33.445  1.00  0.00     0.015 A 
HETATM   10  C   UNL     1      -8.757   0.505 -32.220  1.00  0.00     0.025 A 
HETATM   11  C   UNL     1      -7.365   0.358 -32.153  1.00  0.00    -0.028 A 
HETATM   12  C   UNL     1      -6.704   0.131 -30.820  1.00  0.00     0.051 C 
HETATM   13  C   UNL     1      -6.604   0.426 -33.332  1.00  0.00     0.074 A 
HETATM   14  C   UNL     1      -7.242   0.665 -34.554  1.00  0.00     0.038 A 
HETATM   15  C   UNL     1      -8.634   0.827 -34.612  1.00  0.00     0.018 A 
BRANCH  13  16
HETATM   16  O   UNL     1      -5.259   0.251 -33.165  1.00  0.00    -0.350 OA
BRANCH  16  17
HETATM   17  C   UNL     1      -4.683  -1.009 -33.499  1.00  0.00     0.179 C 
BRANCH  17  18
HETATM   18  C   UNL     1      -3.360  -1.182 -32.735  1.00  0.00     0.002 C 
HETATM   19  C   UNL     1      -3.164  -0.062 -31.711  1.00  0.00     0.011 C 
HETATM   20  C   UNL     1      -3.289  -2.542 -32.037  1.00  0.00     0.011 C 
ENDBRANCH  17  18
ENDBRANCH  16  17
ENDBRANCH  13  16
ENDBRANCH   7   9
ENDBRANCH   6   7
BRANCH   1  21
HETATM   21  C   UNL     1     -10.111   3.641 -32.188  1.00  0.00    -0.028 A 
HETATM   22  C   UNL     1      -9.956   3.447 -30.804  1.00  0.00     0.012 A 
HETATM   23  C   UNL     1      -8.735   3.717 -30.187  1.00  0.00     0.040 A 
HETATM   24  C   UNL     1      -7.682   4.217 -30.942  1.00  0.00     0.099 A 
HETATM   25  C   UNL     1      -7.818   4.464 -32.308  1.00  0.00     0.102 A 
HETATM   26  C   UNL     1      -9.023   4.144 -32.933  1.00  0.00     0.049 A 
BRANCH  24  27
HETATM   27  O   UNL     1      -6.505   4.490 -30.303  1.00  0.00    -0.358 OA
HETATM   28  H   UNL     1      -6.447   3.843 -29.572  1.00  0.00     0.218 HD
ENDBRANCH  24  27
BRANCH  25  29
HETATM   29  O   UNL     1      -6.722   5.010 -32.924  1.00  0.00    -0.349 OA
BRANCH  29  30
HETATM   30  C   UNL     1      -6.034   4.162 -33.848  1.00  0.00     0.171 C 
HETATM   31  C   UNL     1      -4.741   3.698 -33.203  1.00  0.00     0.034 C 
ENDBRANCH  29  30
ENDBRANCH  25  29
ENDBRANCH   1  21
BRANCH   5  32
HETATM   32  O   UNL     1     -12.177   1.610 -36.025  1.00  0.00    -0.355 OA
HETATM   33  H   UNL     1     -11.303   1.415 -36.415  1.00  0.00     0.218 HD
ENDBRANCH   5  32
BRANCH   2  34
HETATM   34  C   UNL     1     -12.111   5.819 -33.449  1.00  0.00     0.129 C 
BRANCH  34  35
HETATM   35  C   UNL     1     -13.580   6.067 -33.102  1.00  0.00     0.048 C 
BRANCH  35  36
HETATM   36  C   UNL     1     -14.178   5.257 -31.948  1.00  0.00     0.236 C 
BRANCH  36  37
HETATM   37  N   UNL     1     -15.291   4.292 -32.293  1.00  0.00    -0.067 N 
HETATM   38  H   UNL     1     -15.376   4.371 -33.316  1.00  0.00     0.280 HD
HETATM   39  C   UNL     1     -14.974   2.819 -32.061  1.00  0.00     0.261 C 
HETATM   40  C   UNL     1     -16.101   1.956 -32.646  1.00  0.00     0.195 C 
HETATM   41  O   UNL     1     -17.372   2.317 -32.094  1.00  0.00    -0.388 OA
HETATM   42  C   UNL     1     -17.706   3.683 -32.365  1.00  0.00     0.195 C 
HETATM   43  C   UNL     1     -16.670   4.631 -31.748  1.00  0.00     0.261 C 
ENDBRANCH  36  37
ENDBRANCH  35  36
ENDBRANCH  34  35
ENDBRANCH   2  34
TORSDOF 14
ENDMDL
MODEL 9
REMARK VINA RESULT:      -8.0      1.731      6.194
REMARK  14 active torsions:
REMARK  status: ('A' for Active; 'I' for Inactive)
REMARK    1  A    between atoms: C_2  and  O_3 
REMARK    2  A    between atoms: O_3  and  C_4 
REMARK    3  A    between atoms: C_5  and  O_6 
REMARK    4  A    between atoms: C_9  and  C_10 
REMARK    5  A    between atoms: N_11  and  C_12 
REMARK    6  A    between atoms: C_12  and  C_13 
REMARK    7  A    between atoms: C_13  and  C_14 
REMARK    8  A    between atoms: C_14  and  N_15 
REMARK    9  A    between atoms: C_24  and  O_25 
REMARK   10  A    between atoms: C_26  and  C_27 
REMARK   11  A    between atoms: C_27  and  C_28 
REMARK   12  A    between atoms: C_32  and  O_33 
REMARK   13  A    between atoms: O_33  and  C_34 
REMARK   14  A    between atoms: C_34  and  C_35 
ROOT
HETATM    1  C   UNL     1      -8.128   3.805 -32.281  1.00  0.00     0.161 C 
HETATM    2  N   UNL     1      -7.978   4.896 -31.319  1.00  0.00    -0.333 N 
HETATM    3  C   UNL     1      -7.447   4.428 -30.131  1.00  0.00     0.278 C 
HETATM    4  O   UNL     1      -7.096   5.078 -29.162  1.00  0.00    -0.265 OA
HETATM    5  C   UNL     1      -7.424   2.957 -30.196  1.00  0.00     0.146 C 
HETATM    6  C   UNL     1      -7.850   2.613 -31.417  1.00  0.00     0.059 C 
ENDROOT
BRANCH   6   7
HETATM    7  C   UNL     1      -8.186   1.220 -31.761  1.00  0.00     0.193 C 
HETATM    8  O   UNL     1      -9.301   0.772 -31.512  1.00  0.00    -0.287 OA
BRANCH   7   9
HETATM    9  C   UNL     1      -7.223   0.395 -32.531  1.00  0.00     0.015 A 
HETATM   10  C   UNL     1      -6.092  -0.080 -31.855  1.00  0.00     0.025 A 
HETATM   11  C   UNL     1      -5.134  -0.858 -32.519  1.00  0.00    -0.028 A 
HETATM   12  C   UNL     1      -3.923  -1.345 -31.770  1.00  0.00     0.051 C 
HETATM   13  C   UNL     1      -5.317  -1.173 -33.876  1.00  0.00     0.074 A 
HETATM   14  C   UNL     1      -6.439  -0.684 -34.554  1.00  0.00     0.038 A 
HETATM   15  C   UNL     1      -7.385   0.107 -33.889  1.00  0.00     0.018 A 
BRANCH  13  16
HETATM   16  O   UNL     1      -4.339  -1.952 -34.427  1.00  0.00    -0.350 OA
BRANCH  16  17
HETATM   17  C   UNL     1      -4.715  -3.008 -35.307  1.00  0.00     0.179 C 
BRANCH  17  18
HETATM   18  C   UNL     1      -5.492  -4.075 -34.517  1.00  0.00     0.002 C 
HETATM   19  C   UNL     1      -6.662  -4.625 -35.336  1.00  0.00     0.011 C 
HETATM   20  C   UNL     1      -4.580  -5.223 -34.079  1.00  0.00     0.011 C 
ENDBRANCH  17  18
ENDBRANCH  16  17
ENDBRANCH  13  16
ENDBRANCH   7   9
ENDBRANCH   6   7
BRANCH   1  21
HETATM   21  C   UNL     1      -9.464   3.787 -32.990  1.00  0.00    -0.028 A 
HETATM   22  C   UNL     1      -9.569   3.553 -34.372  1.00  0.00     0.012 A 
HETATM   23  C   UNL     1     -10.814   3.586 -35.000  1.00  0.00     0.040 A 
HETATM   24  C   UNL     1     -11.948   3.889 -34.257  1.00  0.00     0.099 A 
HETATM   25  C   UNL     1     -11.871   4.172 -32.893  1.00  0.00     0.102 A 
HETATM   26  C   UNL     1     -10.632   4.087 -32.258  1.00  0.00     0.049 A 
BRANCH  24  27
HETATM   27  O   UNL     1     -13.150   3.932 -34.906  1.00  0.00    -0.358 OA
HETATM   28  H   UNL     1     -13.036   4.582 -35.627  1.00  0.00     0.218 HD
ENDBRANCH  24  27
BRANCH  25  29
HETATM   29  O   UNL     1     -13.054   4.511 -32.290  1.00  0.00    -0.349 OA
BRANCH  29  30
HETATM   30  C   UNL     1     -13.775   3.439 -31.675  1.00  0.00     0.171 C 
HETATM   31  C   UNL     1     -15.259   3.674 -31.887  1.00  0.00     0.034 C 
ENDBRANCH  29  30
ENDBRANCH  25  29
ENDBRANCH   1  21
BRANCH   5  32
HETATM   32  O   UNL     1      -7.069   2.164 -29.150  1.00  0.00    -0.355 OA
HETATM   33  H   UNL     1      -6.159   1.850 -29.317  1.00  0.00     0.218 HD
ENDBRANCH   5  32
BRANCH   2  34
HETATM   34  C   UNL     1      -7.940   6.303 -31.692  1.00  0.00     0.129 C 
BRANCH  34  35
HETATM   35  C   UNL     1      -6.749   6.699 -32.567  1.00  0.00     0.048 C 
BRANCH  35  36
HETATM   36  C   UNL     1      -5.375   6.771 -31.895  1.00  0.00     0.236 C 
BRANCH  36  37
HETATM   37  N   UNL     1      -4.195   6.259 -32.691  1.00  0.00    -0.067 N 
HETATM   38  H   UNL     1      -3.726   7.116 -33.015  1.00  0.00     0.280 HD
HETATM   39  C   UNL     1      -3.125   5.537 -31.880  1.00  0.00     0.261 C 
HETATM   40  C   UNL     1      -1.905   5.263 -32.773  1.00  0.00     0.195 C 
HETATM   41  O   UNL     1      -2.274   4.522 -33.942  1.00  0.00    -0.388 OA
HETATM   42  C   UNL     1      -3.231   5.225 -34.742  1.00  0.00     0.195 C 
HETATM   43  C   UNL     1      -4.522   5.477 -33.954  1.00  0.00     0.261 C 
ENDBRANCH  36  37
ENDBRANCH  35  36
ENDBRANCH  34  35
ENDBRANCH   2  34
TORSDOF 14
ENDMDL
MODEL 10
REMARK VINA RESULT:      -7.9      3.117      6.274
REMARK  14 active torsions:
REMARK  status: ('A' for Active; 'I' for Inactive)
REMARK    1  A    between atoms: C_2  and  O_3 
REMARK    2  A    between atoms: O_3  and  C_4 
REMARK    3  A    between atoms: C_5  and  O_6 
REMARK    4  A    between atoms: C_9  and  C_10 
REMARK    5  A    between atoms: N_11  and  C_12 
REMARK    6  A    between atoms: C_12  and  C_13 
REMARK    7  A    between atoms: C_13  and  C_14 
REMARK    8  A    between atoms: C_14  and  N_15 
REMARK    9  A    between atoms: C_24  and  O_25 
REMARK   10  A    between atoms: C_26  and  C_27 
REMARK   11  A    between atoms: C_27  and  C_28 
REMARK   12  A    between atoms: C_32  and  O_33 
REMARK   13  A    between atoms: O_33  and  C_34 
REMARK   14  A    between atoms: C_34  and  C_35 
ROOT
HETATM    1  C   UNL     1      -7.333   4.428 -31.451  1.00  0.00     0.161 C 
HETATM    2  N   UNL     1      -7.197   4.732 -30.026  1.00  0.00    -0.333 N 
HETATM    3  C   UNL     1      -5.875   4.983 -29.707  1.00  0.00     0.278 C 
HETATM    4  O   UNL     1      -5.424   5.368 -28.643  1.00  0.00    -0.265 OA
HETATM    5  C   UNL     1      -5.054   4.641 -30.881  1.00  0.00     0.146 C 
HETATM    6  C   UNL     1      -5.898   4.292 -31.858  1.00  0.00     0.059 C 
ENDROOT
BRANCH   6   7
HETATM    7  C   UNL     1      -5.428   3.659 -33.104  1.00  0.00     0.193 C 
HETATM    8  O   UNL     1      -4.906   4.337 -33.984  1.00  0.00    -0.287 OA
BRANCH   7   9
HETATM    9  C   UNL     1      -5.462   2.183 -33.243  1.00  0.00     0.015 A 
HETATM   10  C   UNL     1      -6.361   1.640 -34.170  1.00  0.00     0.025 A 
HETATM   11  C   UNL     1      -6.455   0.253 -34.350  1.00  0.00    -0.028 A 
HETATM   12  C   UNL     1      -7.439  -0.302 -35.345  1.00  0.00     0.051 C 
HETATM   13  C   UNL     1      -5.631  -0.601 -33.598  1.00  0.00     0.074 A 
HETATM   14  C   UNL     1      -4.746  -0.058 -32.661  1.00  0.00     0.038 A 
HETATM   15  C   UNL     1      -4.667   1.329 -32.474  1.00  0.00     0.018 A 
BRANCH  13  16
HETATM   16  O   UNL     1      -5.785  -1.933 -33.860  1.00  0.00    -0.350 OA
BRANCH  16  17
HETATM   17  C   UNL     1      -4.703  -2.646 -34.455  1.00  0.00     0.179 C 
BRANCH  17  18
HETATM   18  C   UNL     1      -5.212  -4.001 -34.974  1.00  0.00     0.002 C 
HETATM   19  C   UNL     1      -4.624  -5.158 -34.163  1.00  0.00     0.011 C 
HETATM   20  C   UNL     1      -6.740  -4.074 -34.949  1.00  0.00     0.011 C 
ENDBRANCH  17  18
ENDBRANCH  16  17
ENDBRANCH  13  16
ENDBRANCH   7   9
ENDBRANCH   6   7
BRANCH   1  21
HETATM   21  C   UNL     1      -8.202   3.226 -31.743  1.00  0.00    -0.028 A 
HETATM   22  C   UNL     1      -8.070   2.021 -31.030  1.00  0.00     0.012 A 
HETATM   23  C   UNL     1      -8.860   0.919 -31.355  1.00  0.00     0.040 A 
HETATM   24  C   UNL     1      -9.754   1.006 -32.415  1.00  0.00     0.099 A 
HETATM   25  C   UNL     1      -9.875   2.171 -33.172  1.00  0.00     0.102 A 
HETATM   26  C   UNL     1      -9.120   3.289 -32.812  1.00  0.00     0.049 A 
BRANCH  24  27
HETATM   27  O   UNL     1     -10.500  -0.098 -32.720  1.00  0.00    -0.358 OA
HETATM   28  H   UNL     1     -10.987  -0.319 -31.902  1.00  0.00     0.218 HD
ENDBRANCH  24  27
BRANCH  25  29
HETATM   29  O   UNL     1     -10.750   2.107 -34.225  1.00  0.00    -0.349 OA
BRANCH  29  30
HETATM   30  C   UNL     1     -11.454   3.315 -34.530  1.00  0.00     0.171 C 
HETATM   31  C   UNL     1     -12.366   3.054 -35.715  1.00  0.00     0.034 C 
ENDBRANCH  29  30
ENDBRANCH  25  29
ENDBRANCH   1  21
BRANCH   5  32
HETATM   32  O   UNL     1      -3.694   4.657 -30.878  1.00  0.00    -0.355 OA
HETATM   33  H   UNL     1      -3.394   4.033 -31.567  1.00  0.00     0.218 HD
ENDBRANCH   5  32
BRANCH   2  34
HETATM   34  C   UNL     1      -8.302   5.167 -29.183  1.00  0.00     0.129 C 
BRANCH  34  35
HETATM   35  C   UNL     1      -9.146   6.299 -29.773  1.00  0.00     0.048 C 
BRANCH  35  36
HETATM   36  C   UNL     1      -8.512   7.692 -29.835  1.00  0.00     0.236 C 
BRANCH  36  37
HETATM   37  N   UNL     1      -8.559   8.523 -28.573  1.00  0.00    -0.067 N 
HETATM   38  H   UNL     1      -8.787   9.469 -28.910  1.00  0.00     0.280 HD
HETATM   39  C   UNL     1      -9.695   8.190 -27.613  1.00  0.00     0.261 C 
HETATM   40  C   UNL     1      -9.744   9.240 -26.493  1.00  0.00     0.195 C 
HETATM   41  O   UNL     1      -8.487   9.332 -25.813  1.00  0.00    -0.388 OA
HETATM   42  C   UNL     1      -7.426   9.710 -26.698  1.00  0.00     0.195 C 
HETATM   43  C   UNL     1      -7.249   8.672 -27.813  1.00  0.00     0.261 C 
ENDBRANCH  36  37
ENDBRANCH  35  36
ENDBRANCH  34  35
ENDBRANCH   2  34
TORSDOF 14
ENDMDL
