MODEL 1
REMARK VINA RESULT:      -8.3      0.000      0.000
REMARK  3 active torsions:
REMARK  status: ('A' for Active; 'I' for Inactive)
REMARK    1  A    between atoms: N_2  and  C_5 
REMARK    2  A    between atoms: C_5  and  C_6 
REMARK       I    between atoms: C_6  and  N_7 
REMARK    3  A    between atoms: N_7  and  C_8 
ROOT
HETATM    1  C   UNL     1      -3.614   2.673 -31.667  1.00  0.00     0.036 A 
HETATM    2  C   UNL     1      -3.349   1.311 -31.502  1.00  0.00     0.059 A 
HETATM    3  C   UNL     1      -4.231   0.315 -31.966  1.00  0.00     0.041 A 
HETATM    4  C   UNL     1      -5.409   0.712 -32.606  1.00  0.00    -0.031 A 
HETATM    5  C   UNL     1      -6.382  -0.306 -33.133  1.00  0.00     0.045 C 
HETATM    6  C   UNL     1      -5.750  -1.147 -34.236  1.00  0.00     0.045 C 
HETATM    7  C   UNL     1      -4.861  -2.266 -33.747  1.00  0.00    -0.031 A 
HETATM    8  C   UNL     1      -4.017  -2.175 -32.629  1.00  0.00     0.039 A 
HETATM    9  N   UNL     1      -3.819  -1.022 -31.843  1.00  0.00    -0.355 N 
HETATM   10  C   UNL     1      -4.870  -3.456 -34.507  1.00  0.00     0.009 A 
HETATM   11  C   UNL     1      -4.096  -4.557 -34.149  1.00  0.00     0.001 A 
HETATM   12  C   UNL     1      -3.297  -4.490 -33.020  1.00  0.00     0.002 A 
HETATM   13  C   UNL     1      -3.260  -3.314 -32.273  1.00  0.00     0.030 A 
HETATM   14  C   UNL     1      -5.698   2.080 -32.741  1.00  0.00     0.012 A 
HETATM   15  C   UNL     1      -4.807   3.050 -32.282  1.00  0.00     0.030 A 
HETATM   16  H   UNL     1      -3.135  -1.160 -31.107  1.00  0.00     0.166 HD
ENDROOT
BRANCH   1  17
HETATM   17  N   UNL     1      -2.715   3.701 -31.300  1.00  0.00    -0.326 N 
HETATM   18  C   UNL     1      -2.017   4.523 -32.158  1.00  0.00     0.247 C 
HETATM   19  O   UNL     1      -1.915   4.424 -33.381  1.00  0.00    -0.271 OA
HETATM   20  H   UNL     1      -2.597   3.820 -30.300  1.00  0.00     0.169 HD
BRANCH  18  21
HETATM   21  C   UNL     1      -1.324   5.708 -31.483  1.00  0.00     0.334 C 
BRANCH  21  22
HETATM   22  N   UNL     1      -1.022   5.380 -30.036  1.00  0.00    -0.071 N 
HETATM   23  C   UNL     1       0.422   5.207 -29.723  1.00  0.00     0.267 C 
HETATM   24  H   UNL     1      -1.483   4.470 -29.854  1.00  0.00     0.277 HD
HETATM   25  H   UNL     1      -1.450   6.065 -29.404  1.00  0.00     0.277 HD
ENDBRANCH  21  22
ENDBRANCH  18  21
ENDBRANCH   1  17
TORSDOF 3
ENDMDL
MODEL 2
REMARK VINA RESULT:      -8.1      4.325      6.680
REMARK  3 active torsions:
REMARK  status: ('A' for Active; 'I' for Inactive)
REMARK    1  A    between atoms: N_2  and  C_5 
REMARK    2  A    between atoms: C_5  and  C_6 
REMARK       I    between atoms: C_6  and  N_7 
REMARK    3  A    between atoms: N_7  and  C_8 
ROOT
HETATM    1  C   UNL     1      -8.259   1.187 -34.303  1.00  0.00     0.036 A 
HETATM    2  C   UNL     1      -7.585   0.012 -34.647  1.00  0.00     0.059 A 
HETATM    3  C   UNL     1      -6.258  -0.236 -34.239  1.00  0.00     0.041 A 
HETATM    4  C   UNL     1      -5.603   0.731 -33.472  1.00  0.00    -0.031 A 
HETATM    5  C   UNL     1      -4.192   0.516 -32.999  1.00  0.00     0.045 C 
HETATM    6  C   UNL     1      -4.108  -0.677 -32.053  1.00  0.00     0.045 C 
HETATM    7  C   UNL     1      -4.074  -2.023 -32.735  1.00  0.00    -0.031 A 
HETATM    8  C   UNL     1      -4.800  -2.343 -33.894  1.00  0.00     0.039 A 
HETATM    9  N   UNL     1      -5.711  -1.492 -34.550  1.00  0.00    -0.355 N 
HETATM   10  C   UNL     1      -3.282  -3.020 -32.124  1.00  0.00     0.009 A 
HETATM   11  C   UNL     1      -3.169  -4.298 -32.665  1.00  0.00     0.001 A 
HETATM   12  C   UNL     1      -3.845  -4.604 -33.834  1.00  0.00     0.002 A 
HETATM   13  C   UNL     1      -4.648  -3.638 -34.438  1.00  0.00     0.030 A 
HETATM   14  C   UNL     1      -6.263   1.930 -33.155  1.00  0.00     0.012 A 
HETATM   15  C   UNL     1      -7.579   2.153 -33.561  1.00  0.00     0.030 A 
HETATM   16  H   UNL     1      -6.159  -1.934 -35.346  1.00  0.00     0.166 HD
ENDROOT
BRANCH   1  17
HETATM   17  N   UNL     1      -9.617   1.435 -34.610  1.00  0.00    -0.326 N 
HETATM   18  C   UNL     1     -10.712   0.947 -33.931  1.00  0.00     0.247 C 
HETATM   19  O   UNL     1     -10.732   0.092 -33.046  1.00  0.00    -0.271 OA
HETATM   20  H   UNL     1      -9.763   2.037 -35.413  1.00  0.00     0.169 HD
BRANCH  18  21
HETATM   21  C   UNL     1     -12.043   1.588 -34.327  1.00  0.00     0.334 C 
BRANCH  21  22
HETATM   22  N   UNL     1     -12.989   1.602 -33.144  1.00  0.00    -0.071 N 
HETATM   23  C   UNL     1     -14.397   1.244 -33.465  1.00  0.00     0.267 C 
HETATM   24  H   UNL     1     -12.994   2.580 -32.803  1.00  0.00     0.277 HD
HETATM   25  H   UNL     1     -12.632   1.018 -32.379  1.00  0.00     0.277 HD
ENDBRANCH  21  22
ENDBRANCH  18  21
ENDBRANCH   1  17
TORSDOF 3
ENDMDL
MODEL 3
REMARK VINA RESULT:      -7.7      5.801      8.109
REMARK  3 active torsions:
REMARK  status: ('A' for Active; 'I' for Inactive)
REMARK    1  A    between atoms: N_2  and  C_5 
REMARK    2  A    between atoms: C_5  and  C_6 
REMARK       I    between atoms: C_6  and  N_7 
REMARK    3  A    between atoms: N_7  and  C_8 
ROOT
HETATM    1  C   UNL     1     -10.934   1.714 -33.555  1.00  0.00     0.036 A 
HETATM    2  C   UNL     1     -10.071   0.732 -34.049  1.00  0.00     0.059 A 
HETATM    3  C   UNL     1      -8.681   0.941 -34.153  1.00  0.00     0.041 A 
HETATM    4  C   UNL     1      -8.159   2.174 -33.752  1.00  0.00    -0.031 A 
HETATM    5  C   UNL     1      -6.683   2.449 -33.828  1.00  0.00     0.045 C 
HETATM    6  C   UNL     1      -5.904   1.518 -32.907  1.00  0.00     0.045 C 
HETATM    7  C   UNL     1      -5.664   0.135 -33.463  1.00  0.00    -0.031 A 
HETATM    8  C   UNL     1      -6.591  -0.577 -34.242  1.00  0.00     0.039 A 
HETATM    9  N   UNL     1      -7.893  -0.147 -34.563  1.00  0.00    -0.355 N 
HETATM   10  C   UNL     1      -4.435  -0.475 -33.129  1.00  0.00     0.009 A 
HETATM   11  C   UNL     1      -4.100  -1.746 -33.589  1.00  0.00     0.001 A 
HETATM   12  C   UNL     1      -4.990  -2.434 -34.397  1.00  0.00     0.002 A 
HETATM   13  C   UNL     1      -6.217  -1.855 -34.717  1.00  0.00     0.030 A 
HETATM   14  C   UNL     1      -9.026   3.178 -33.289  1.00  0.00     0.012 A 
HETATM   15  C   UNL     1     -10.399   2.948 -33.186  1.00  0.00     0.030 A 
HETATM   16  H   UNL     1      -8.412  -0.832 -35.102  1.00  0.00     0.166 HD
ENDROOT
BRANCH   1  17
HETATM   17  N   UNL     1     -12.318   1.514 -33.346  1.00  0.00    -0.326 N 
HETATM   18  C   UNL     1     -13.285   1.399 -34.322  1.00  0.00     0.247 C 
HETATM   19  O   UNL     1     -13.165   1.603 -35.530  1.00  0.00    -0.271 OA
HETATM   20  H   UNL     1     -12.592   1.451 -32.372  1.00  0.00     0.169 HD
BRANCH  18  21
HETATM   21  C   UNL     1     -14.649   0.930 -33.814  1.00  0.00     0.334 C 
BRANCH  21  22
HETATM   22  N   UNL     1     -15.468   2.115 -33.346  1.00  0.00    -0.071 N 
HETATM   23  C   UNL     1     -15.516   2.298 -31.871  1.00  0.00     0.267 C 
HETATM   24  H   UNL     1     -16.437   1.925 -33.660  1.00  0.00     0.277 HD
HETATM   25  H   UNL     1     -15.165   2.979 -33.809  1.00  0.00     0.277 HD
ENDBRANCH  21  22
ENDBRANCH  18  21
ENDBRANCH   1  17
TORSDOF 3
ENDMDL
MODEL 4
REMARK VINA RESULT:      -7.5      1.885      2.178
REMARK  3 active torsions:
REMARK  status: ('A' for Active; 'I' for Inactive)
REMARK    1  A    between atoms: N_2  and  C_5 
REMARK    2  A    between atoms: C_5  and  C_6 
REMARK       I    between atoms: C_6  and  N_7 
REMARK    3  A    between atoms: N_7  and  C_8 
ROOT
HETATM    1  C   UNL     1      -4.257   3.541 -32.762  1.00  0.00     0.036 A 
HETATM    2  C   UNL     1      -3.928   2.189 -32.894  1.00  0.00     0.059 A 
HETATM    3  C   UNL     1      -4.887   1.168 -32.740  1.00  0.00     0.041 A 
HETATM    4  C   UNL     1      -6.204   1.527 -32.440  1.00  0.00    -0.031 A 
HETATM    5  C   UNL     1      -7.272   0.481 -32.277  1.00  0.00     0.045 C 
HETATM    6  C   UNL     1      -7.494  -0.282 -33.578  1.00  0.00     0.045 C 
HETATM    7  C   UNL     1      -6.484  -1.371 -33.851  1.00  0.00    -0.031 A 
HETATM    8  C   UNL     1      -5.118  -1.280 -33.540  1.00  0.00     0.039 A 
HETATM    9  N   UNL     1      -4.474  -0.150 -32.998  1.00  0.00    -0.355 N 
HETATM   10  C   UNL     1      -6.966  -2.530 -34.498  1.00  0.00     0.009 A 
HETATM   11  C   UNL     1      -6.129  -3.602 -34.796  1.00  0.00     0.001 A 
HETATM   12  C   UNL     1      -4.790  -3.537 -34.450  1.00  0.00     0.002 A 
HETATM   13  C   UNL     1      -4.295  -2.391 -33.831  1.00  0.00     0.030 A 
HETATM   14  C   UNL     1      -6.532   2.883 -32.270  1.00  0.00     0.012 A 
HETATM   15  C   UNL     1      -5.570   3.880 -32.434  1.00  0.00     0.030 A 
HETATM   16  H   UNL     1      -3.475  -0.281 -32.889  1.00  0.00     0.166 HD
ENDROOT
BRANCH   1  17
HETATM   17  N   UNL     1      -3.350   4.599 -32.999  1.00  0.00    -0.326 N 
HETATM   18  C   UNL     1      -3.340   5.441 -34.090  1.00  0.00     0.247 C 
HETATM   19  O   UNL     1      -3.999   5.341 -35.125  1.00  0.00    -0.271 OA
HETATM   20  H   UNL     1      -2.652   4.725 -32.274  1.00  0.00     0.169 HD
BRANCH  18  21
HETATM   21  C   UNL     1      -2.414   6.650 -33.954  1.00  0.00     0.334 C 
BRANCH  21  22
HETATM   22  N   UNL     1      -2.595   7.297 -32.597  1.00  0.00    -0.071 N 
HETATM   23  C   UNL     1      -1.331   7.579 -31.865  1.00  0.00     0.267 C 
HETATM   24  H   UNL     1      -3.127   6.611 -32.031  1.00  0.00     0.277 HD
HETATM   25  H   UNL     1      -3.171   8.143 -32.665  1.00  0.00     0.277 HD
ENDBRANCH  21  22
ENDBRANCH  18  21
ENDBRANCH   1  17
TORSDOF 3
ENDMDL
MODEL 5
REMARK VINA RESULT:      -7.5      3.631      5.316
REMARK  3 active torsions:
REMARK  status: ('A' for Active; 'I' for Inactive)
REMARK    1  A    between atoms: N_2  and  C_5 
REMARK    2  A    between atoms: C_5  and  C_6 
REMARK       I    between atoms: C_6  and  N_7 
REMARK    3  A    between atoms: N_7  and  C_8 
ROOT
HETATM    1  C   UNL     1      -7.193   1.545 -31.436  1.00  0.00     0.036 A 
HETATM    2  C   UNL     1      -7.362   0.531 -32.381  1.00  0.00     0.059 A 
HETATM    3  C   UNL     1      -6.267  -0.137 -32.967  1.00  0.00     0.041 A 
HETATM    4  C   UNL     1      -4.975   0.238 -32.587  1.00  0.00    -0.031 A 
HETATM    5  C   UNL     1      -3.770  -0.447 -33.169  1.00  0.00     0.045 C 
HETATM    6  C   UNL     1      -3.742  -1.923 -32.787  1.00  0.00     0.045 C 
HETATM    7  C   UNL     1      -4.635  -2.808 -33.623  1.00  0.00    -0.031 A 
HETATM    8  C   UNL     1      -5.900  -2.430 -34.103  1.00  0.00     0.039 A 
HETATM    9  N   UNL     1      -6.550  -1.211 -33.827  1.00  0.00    -0.355 N 
HETATM   10  C   UNL     1      -4.160  -4.110 -33.890  1.00  0.00     0.009 A 
HETATM   11  C   UNL     1      -4.894  -5.014 -34.655  1.00  0.00     0.001 A 
HETATM   12  C   UNL     1      -6.120  -4.630 -35.171  1.00  0.00     0.002 A 
HETATM   13  C   UNL     1      -6.613  -3.356 -34.897  1.00  0.00     0.030 A 
HETATM   14  C   UNL     1      -4.799   1.283 -31.664  1.00  0.00     0.012 A 
HETATM   15  C   UNL     1      -5.896   1.925 -31.090  1.00  0.00     0.030 A 
HETATM   16  H   UNL     1      -7.475  -1.157 -34.238  1.00  0.00     0.166 HD
ENDROOT
BRANCH   1  17
HETATM   17  N   UNL     1      -8.261   2.175 -30.756  1.00  0.00    -0.326 N 
HETATM   18  C   UNL     1      -8.864   3.365 -31.103  1.00  0.00     0.247 C 
HETATM   19  O   UNL     1      -8.498   4.176 -31.953  1.00  0.00    -0.271 OA
HETATM   20  H   UNL     1      -8.594   1.674 -29.939  1.00  0.00     0.169 HD
BRANCH  18  21
HETATM   21  C   UNL     1     -10.156   3.669 -30.342  1.00  0.00     0.334 C 
BRANCH  21  22
HETATM   22  N   UNL     1     -11.357   3.376 -31.216  1.00  0.00    -0.071 N 
HETATM   23  C   UNL     1     -12.114   4.576 -31.662  1.00  0.00     0.267 C 
HETATM   24  H   UNL     1     -11.999   2.814 -30.627  1.00  0.00     0.277 HD
HETATM   25  H   UNL     1     -11.097   2.793 -32.019  1.00  0.00     0.277 HD
ENDBRANCH  21  22
ENDBRANCH  18  21
ENDBRANCH   1  17
TORSDOF 3
ENDMDL
MODEL 6
REMARK VINA RESULT:      -7.2      4.671      7.557
REMARK  3 active torsions:
REMARK  status: ('A' for Active; 'I' for Inactive)
REMARK    1  A    between atoms: N_2  and  C_5 
REMARK    2  A    between atoms: C_5  and  C_6 
REMARK       I    between atoms: C_6  and  N_7 
REMARK    3  A    between atoms: N_7  and  C_8 
ROOT
HETATM    1  C   UNL     1      -6.659  -0.089 -32.994  1.00  0.00     0.036 A 
HETATM    2  C   UNL     1      -8.024  -0.354 -32.856  1.00  0.00     0.059 A 
HETATM    3  C   UNL     1      -8.997   0.660 -32.961  1.00  0.00     0.041 A 
HETATM    4  C   UNL     1      -8.574   1.969 -33.205  1.00  0.00    -0.031 A 
HETATM    5  C   UNL     1      -9.569   3.090 -33.338  1.00  0.00     0.045 C 
HETATM    6  C   UNL     1     -10.477   2.874 -34.543  1.00  0.00     0.045 C 
HETATM    7  C   UNL     1     -11.614   1.908 -34.312  1.00  0.00    -0.031 A 
HETATM    8  C   UNL     1     -11.518   0.744 -33.532  1.00  0.00     0.039 A 
HETATM    9  N   UNL     1     -10.346   0.268 -32.911  1.00  0.00    -0.355 N 
HETATM   10  C   UNL     1     -12.831   2.197 -34.967  1.00  0.00     0.009 A 
HETATM   11  C   UNL     1     -13.950   1.381 -34.824  1.00  0.00     0.001 A 
HETATM   12  C   UNL     1     -13.875   0.257 -34.019  1.00  0.00     0.002 A 
HETATM   13  C   UNL     1     -12.675  -0.054 -33.383  1.00  0.00     0.030 A 
HETATM   14  C   UNL     1      -7.201   2.247 -33.308  1.00  0.00     0.012 A 
HETATM   15  C   UNL     1      -6.254   1.228 -33.209  1.00  0.00     0.030 A 
HETATM   16  H   UNL     1     -10.486  -0.613 -32.429  1.00  0.00     0.166 HD
ENDROOT
BRANCH   1  17
HETATM   17  N   UNL     1      -5.658  -1.088 -32.990  1.00  0.00    -0.326 N 
HETATM   18  C   UNL     1      -5.429  -2.023 -33.976  1.00  0.00     0.247 C 
HETATM   19  O   UNL     1      -6.132  -2.273 -34.956  1.00  0.00    -0.271 OA
HETATM   20  H   UNL     1      -5.066  -1.086 -32.166  1.00  0.00     0.169 HD
BRANCH  18  21
HETATM   21  C   UNL     1      -4.123  -2.804 -33.823  1.00  0.00     0.334 C 
BRANCH  21  22
HETATM   22  N   UNL     1      -3.467  -2.469 -32.500  1.00  0.00    -0.071 N 
HETATM   23  C   UNL     1      -2.962  -3.642 -31.738  1.00  0.00     0.267 C 
HETATM   24  H   UNL     1      -4.208  -2.029 -31.925  1.00  0.00     0.277 HD
HETATM   25  H   UNL     1      -2.726  -1.770 -32.621  1.00  0.00     0.277 HD
ENDBRANCH  21  22
ENDBRANCH  18  21
ENDBRANCH   1  17
TORSDOF 3
ENDMDL
MODEL 7
REMARK VINA RESULT:      -7.1      2.484      4.570
REMARK  3 active torsions:
REMARK  status: ('A' for Active; 'I' for Inactive)
REMARK    1  A    between atoms: N_2  and  C_5 
REMARK    2  A    between atoms: C_5  and  C_6 
REMARK       I    between atoms: C_6  and  N_7 
REMARK    3  A    between atoms: N_7  and  C_8 
ROOT
HETATM    1  C   UNL     1      -3.812   2.823 -31.893  1.00  0.00     0.036 A 
HETATM    2  C   UNL     1      -5.015   3.190 -32.500  1.00  0.00     0.059 A 
HETATM    3  C   UNL     1      -5.869   2.242 -33.100  1.00  0.00     0.041 A 
HETATM    4  C   UNL     1      -5.489   0.897 -33.088  1.00  0.00    -0.031 A 
HETATM    5  C   UNL     1      -6.366  -0.159 -33.701  1.00  0.00     0.045 C 
HETATM    6  C   UNL     1      -7.701  -0.252 -32.973  1.00  0.00     0.045 C 
HETATM    7  C   UNL     1      -8.711   0.799 -33.367  1.00  0.00    -0.031 A 
HETATM    8  C   UNL     1      -8.388   2.132 -33.670  1.00  0.00     0.039 A 
HETATM    9  N   UNL     1      -7.103   2.703 -33.589  1.00  0.00    -0.355 N 
HETATM   10  C   UNL     1     -10.065   0.398 -33.385  1.00  0.00     0.009 A 
HETATM   11  C   UNL     1     -11.083   1.279 -33.738  1.00  0.00     0.001 A 
HETATM   12  C   UNL     1     -10.767   2.582 -34.084  1.00  0.00     0.002 A 
HETATM   13  C   UNL     1      -9.438   2.999 -34.050  1.00  0.00     0.030 A 
HETATM   14  C   UNL     1      -4.262   0.528 -32.511  1.00  0.00     0.012 A 
HETATM   15  C   UNL     1      -3.435   1.481 -31.914  1.00  0.00     0.030 A 
HETATM   16  H   UNL     1      -7.097   3.692 -33.812  1.00  0.00     0.166 HD
ENDROOT
BRANCH   1  17
HETATM   17  N   UNL     1      -2.972   3.726 -31.199  1.00  0.00    -0.326 N 
HETATM   18  C   UNL     1      -2.047   4.579 -31.759  1.00  0.00     0.247 C 
HETATM   19  O   UNL     1      -1.661   4.611 -32.928  1.00  0.00    -0.271 OA
HETATM   20  H   UNL     1      -3.091   3.720 -30.191  1.00  0.00     0.169 HD
BRANCH  18  21
HETATM   21  C   UNL     1      -1.473   5.618 -30.795  1.00  0.00     0.334 C 
BRANCH  21  22
HETATM   22  N   UNL     1      -0.408   4.989 -29.922  1.00  0.00    -0.071 N 
HETATM   23  C   UNL     1       0.963   5.004 -30.499  1.00  0.00     0.267 C 
HETATM   24  H   UNL     1      -0.683   3.995 -29.820  1.00  0.00     0.277 HD
HETATM   25  H   UNL     1      -0.410   5.400 -28.982  1.00  0.00     0.277 HD
ENDBRANCH  21  22
ENDBRANCH  18  21
ENDBRANCH   1  17
TORSDOF 3
ENDMDL
MODEL 8
REMARK VINA RESULT:      -7.0      3.923      7.831
REMARK  3 active torsions:
REMARK  status: ('A' for Active; 'I' for Inactive)
REMARK    1  A    between atoms: N_2  and  C_5 
REMARK    2  A    between atoms: C_5  and  C_6 
REMARK       I    between atoms: C_6  and  N_7 
REMARK    3  A    between atoms: N_7  and  C_8 
ROOT
HETATM    1  C   UNL     1      -5.878   3.263 -32.899  1.00  0.00     0.036 A 
HETATM    2  C   UNL     1      -4.655   3.286 -32.224  1.00  0.00     0.059 A 
HETATM    3  C   UNL     1      -3.540   3.993 -32.719  1.00  0.00     0.041 A 
HETATM    4  C   UNL     1      -3.670   4.684 -33.927  1.00  0.00    -0.031 A 
HETATM    5  C   UNL     1      -2.519   5.465 -34.498  1.00  0.00     0.045 C 
HETATM    6  C   UNL     1      -2.125   6.612 -33.574  1.00  0.00     0.045 C 
HETATM    7  C   UNL     1      -1.259   6.212 -32.404  1.00  0.00    -0.031 A 
HETATM    8  C   UNL     1      -1.397   5.010 -31.691  1.00  0.00     0.039 A 
HETATM    9  N   UNL     1      -2.392   4.037 -31.911  1.00  0.00    -0.355 N 
HETATM   10  C   UNL     1      -0.281   7.145 -31.995  1.00  0.00     0.009 A 
HETATM   11  C   UNL     1       0.578   6.884 -30.931  1.00  0.00     0.001 A 
HETATM   12  C   UNL     1       0.479   5.680 -30.255  1.00  0.00     0.002 A 
HETATM   13  C   UNL     1      -0.496   4.758 -30.632  1.00  0.00     0.030 A 
HETATM   14  C   UNL     1      -4.886   4.634 -34.628  1.00  0.00     0.012 A 
HETATM   15  C   UNL     1      -5.981   3.935 -34.117  1.00  0.00     0.030 A 
HETATM   16  H   UNL     1      -2.337   3.263 -31.258  1.00  0.00     0.166 HD
ENDROOT
BRANCH   1  17
HETATM   17  N   UNL     1      -7.046   2.647 -32.393  1.00  0.00    -0.326 N 
HETATM   18  C   UNL     1      -7.298   1.293 -32.334  1.00  0.00     0.247 C 
HETATM   19  O   UNL     1      -6.645   0.382 -32.844  1.00  0.00    -0.271 OA
HETATM   20  H   UNL     1      -7.745   3.294 -32.044  1.00  0.00     0.169 HD
BRANCH  18  21
HETATM   21  C   UNL     1      -8.523   0.909 -31.504  1.00  0.00     0.334 C 
BRANCH  21  22
HETATM   22  N   UNL     1      -9.532   0.182 -32.367  1.00  0.00    -0.071 N 
HETATM   23  C   UNL     1     -10.220   1.033 -33.375  1.00  0.00     0.267 C 
HETATM   24  H   UNL     1     -10.260  -0.163 -31.715  1.00  0.00     0.277 HD
HETATM   25  H   UNL     1      -9.113  -0.641 -32.813  1.00  0.00     0.277 HD
ENDBRANCH  21  22
ENDBRANCH  18  21
ENDBRANCH   1  17
TORSDOF 3
ENDMDL
MODEL 9
REMARK VINA RESULT:      -6.9      2.952      8.212
REMARK  3 active torsions:
REMARK  status: ('A' for Active; 'I' for Inactive)
REMARK    1  A    between atoms: N_2  and  C_5 
REMARK    2  A    between atoms: C_5  and  C_6 
REMARK       I    between atoms: C_6  and  N_7 
REMARK    3  A    between atoms: N_7  and  C_8 
ROOT
HETATM    1  C   UNL     1      -3.774   3.631 -32.615  1.00  0.00     0.036 A 
HETATM    2  C   UNL     1      -2.788   3.713 -31.629  1.00  0.00     0.059 A 
HETATM    3  C   UNL     1      -1.819   4.737 -31.623  1.00  0.00     0.041 A 
HETATM    4  C   UNL     1      -1.851   5.692 -32.642  1.00  0.00    -0.031 A 
HETATM    5  C   UNL     1      -0.851   6.815 -32.680  1.00  0.00     0.045 C 
HETATM    6  C   UNL     1      -0.996   7.719 -31.462  1.00  0.00     0.045 C 
HETATM    7  C   UNL     1      -0.344   7.195 -30.205  1.00  0.00    -0.031 A 
HETATM    8  C   UNL     1      -0.315   5.841 -29.833  1.00  0.00     0.039 A 
HETATM    9  N   UNL     1      -0.938   4.787 -30.529  1.00  0.00    -0.355 N 
HETATM   10  C   UNL     1       0.230   8.157 -29.345  1.00  0.00     0.009 A 
HETATM   11  C   UNL     1       0.864   7.791 -28.160  1.00  0.00     0.001 A 
HETATM   12  C   UNL     1       0.938   6.453 -27.812  1.00  0.00     0.002 A 
HETATM   13  C   UNL     1       0.356   5.494 -28.639  1.00  0.00     0.030 A 
HETATM   14  C   UNL     1      -2.818   5.593 -33.656  1.00  0.00     0.012 A 
HETATM   15  C   UNL     1      -3.773   4.577 -33.640  1.00  0.00     0.030 A 
HETATM   16  H   UNL     1      -0.829   3.891 -30.067  1.00  0.00     0.166 HD
ENDROOT
BRANCH   1  17
HETATM   17  N   UNL     1      -4.819   2.678 -32.607  1.00  0.00    -0.326 N 
HETATM   18  C   UNL     1      -4.678   1.309 -32.538  1.00  0.00     0.247 C 
HETATM   19  O   UNL     1      -3.641   0.652 -32.631  1.00  0.00    -0.271 OA
HETATM   20  H   UNL     1      -5.751   3.075 -32.655  1.00  0.00     0.169 HD
BRANCH  18  21
HETATM   21  C   UNL     1      -5.980   0.546 -32.285  1.00  0.00     0.334 C 
BRANCH  21  22
HETATM   22  N   UNL     1      -5.902  -0.196 -30.967  1.00  0.00    -0.071 N 
HETATM   23  C   UNL     1      -5.843   0.674 -29.762  1.00  0.00     0.267 C 
HETATM   24  H   UNL     1      -5.015  -0.730 -31.000  1.00  0.00     0.277 HD
HETATM   25  H   UNL     1      -6.662  -0.880 -30.883  1.00  0.00     0.277 HD
ENDBRANCH  21  22
ENDBRANCH  18  21
ENDBRANCH   1  17
TORSDOF 3
ENDMDL
MODEL 10
REMARK VINA RESULT:      -6.8      5.833      9.757
REMARK  3 active torsions:
REMARK  status: ('A' for Active; 'I' for Inactive)
REMARK    1  A    between atoms: N_2  and  C_5 
REMARK    2  A    between atoms: C_5  and  C_6 
REMARK       I    between atoms: C_6  and  N_7 
REMARK    3  A    between atoms: N_7  and  C_8 
ROOT
HETATM    1  C   UNL     1      -1.625   6.548 -31.926  1.00  0.00     0.036 A 
HETATM    2  C   UNL     1      -2.180   6.493 -30.645  1.00  0.00     0.059 A 
HETATM    3  C   UNL     1      -1.413   6.729 -29.486  1.00  0.00     0.041 A 
HETATM    4  C   UNL     1      -0.054   7.021 -29.633  1.00  0.00    -0.031 A 
HETATM    5  C   UNL     1       0.811   7.294 -28.433  1.00  0.00     0.045 C 
HETATM    6  C   UNL     1       0.347   8.545 -27.697  1.00  0.00     0.045 C 
HETATM    7  C   UNL     1      -0.837   8.338 -26.783  1.00  0.00    -0.031 A 
HETATM    8  C   UNL     1      -1.915   7.484 -27.065  1.00  0.00     0.039 A 
HETATM    9  N   UNL     1      -2.091   6.752 -28.256  1.00  0.00    -0.355 N 
HETATM   10  C   UNL     1      -0.853   9.096 -25.592  1.00  0.00     0.009 A 
HETATM   11  C   UNL     1      -1.890   8.985 -24.669  1.00  0.00     0.001 A 
HETATM   12  C   UNL     1      -2.933   8.109 -24.919  1.00  0.00     0.002 A 
HETATM   13  C   UNL     1      -2.942   7.370 -26.101  1.00  0.00     0.030 A 
HETATM   14  C   UNL     1       0.517   7.042 -30.916  1.00  0.00     0.012 A 
HETATM   15  C   UNL     1      -0.262   6.813 -32.051  1.00  0.00     0.030 A 
HETATM   16  H   UNL     1      -2.960   6.229 -28.272  1.00  0.00     0.166 HD
ENDROOT
BRANCH   1  17
HETATM   17  N   UNL     1      -2.376   6.411 -33.116  1.00  0.00    -0.326 N 
HETATM   18  C   UNL     1      -2.671   5.232 -33.767  1.00  0.00     0.247 C 
HETATM   19  O   UNL     1      -2.218   4.111 -33.538  1.00  0.00    -0.271 OA
HETATM   20  H   UNL     1      -2.717   7.285 -33.502  1.00  0.00     0.169 HD
BRANCH  18  21
HETATM   21  C   UNL     1      -3.713   5.363 -34.879  1.00  0.00     0.334 C 
BRANCH  21  22
HETATM   22  N   UNL     1      -4.994   4.662 -34.479  1.00  0.00    -0.071 N 
HETATM   23  C   UNL     1      -5.840   5.411 -33.511  1.00  0.00     0.267 C 
HETATM   24  H   UNL     1      -4.698   3.787 -34.011  1.00  0.00     0.277 HD
HETATM   25  H   UNL     1      -5.541   4.393 -35.304  1.00  0.00     0.277 HD
ENDBRANCH  21  22
ENDBRANCH  18  21
ENDBRANCH   1  17
TORSDOF 3
ENDMDL
