MODEL 1
REMARK VINA RESULT:      -9.3      0.000      0.000
REMARK  8 active torsions:
REMARK  status: ('A' for Active; 'I' for Inactive)
REMARK    1  A    between atoms: C_7  and  C_8 
REMARK    2  A    between atoms: C_8  and  O_9 
REMARK    3  A    between atoms: O_9  and  C_10 
REMARK    4  A    between atoms: C_12  and  C_13 
REMARK       I    between atoms: C_13  and  N_14 
REMARK    5  A    between atoms: N_14  and  C_15 
REMARK    6  A    between atoms: C_15  and  C_16 
REMARK    7  A    between atoms: C_17  and  C_18 
REMARK    8  A    between atoms: C_18  and  N_19 
ROOT
HETATM    1  C   UNL     1      -3.579   0.464 -31.673  1.00  0.00     0.252 C 
HETATM    2  N   UNL     1      -4.105  -0.122 -32.811  1.00  0.00    -0.353 N 
HETATM    3  O   UNL     1      -2.594   0.017 -31.097  1.00  0.00    -0.268 OA
HETATM    4  H   UNL     1      -5.043   0.153 -33.079  1.00  0.00     0.163 HD
ENDROOT
BRANCH   1   5
HETATM    5  C   UNL     1      -4.331   1.622 -31.131  1.00  0.00     0.034 A 
HETATM    6  C   UNL     1      -3.868   2.910 -31.424  1.00  0.00     0.053 A 
HETATM    7  C   UNL     1      -4.504   4.032 -30.885  1.00  0.00     0.070 A 
HETATM    8  C   UNL     1      -5.639   3.858 -30.089  1.00  0.00     0.037 A 
HETATM    9  C   UNL     1      -6.115   2.572 -29.813  1.00  0.00     0.004 A 
HETATM   10  C   UNL     1      -5.460   1.451 -30.325  1.00  0.00     0.017 A 
BRANCH   7  11
HETATM   11  O   UNL     1      -3.921   5.224 -31.207  1.00  0.00    -0.346 OA
BRANCH  11  12
HETATM   12  C   UNL     1      -2.513   5.228 -31.451  1.00  0.00     0.219 C 
BRANCH  12  13
HETATM   13  C   UNL     1      -2.143   6.379 -32.316  1.00  0.00     0.024 A 
HETATM   14  C   UNL     1      -1.906   6.399 -33.717  1.00  0.00     0.069 A 
HETATM   15  C   UNL     1      -1.961   5.274 -34.679  1.00  0.00     0.073 C 
HETATM   16  N   UNL     1      -1.603   7.630 -34.145  1.00  0.00    -0.133 NA
HETATM   17  O   UNL     1      -1.622   8.435 -33.024  1.00  0.00    -0.217 OA
HETATM   18  C   UNL     1      -1.941   7.689 -31.935  1.00  0.00     0.085 A 
HETATM   19  C   UNL     1      -1.997   8.401 -30.645  1.00  0.00     0.079 C 
ENDBRANCH  12  13
ENDBRANCH  11  12
ENDBRANCH   7  11
ENDBRANCH   1   5
BRANCH   2  20
HETATM   20  C   UNL     1      -3.674  -1.457 -33.141  1.00  0.00     0.162 C 
BRANCH  20  21
HETATM   21  C   UNL     1      -4.767  -2.263 -33.797  1.00  0.00    -0.033 A 
HETATM   22  C   UNL     1      -6.141  -1.936 -33.719  1.00  0.00    -0.025 A 
HETATM   23  C   UNL     1      -7.078  -2.791 -34.338  1.00  0.00     0.009 A 
HETATM   24  C   UNL     1      -6.671  -3.930 -35.031  1.00  0.00     0.001 A 
HETATM   25  C   UNL     1      -5.320  -4.239 -35.120  1.00  0.00     0.001 A 
HETATM   26  C   UNL     1      -4.379  -3.416 -34.509  1.00  0.00     0.009 A 
BRANCH  22  27
HETATM   27  C   UNL     1      -6.660  -0.700 -33.022  1.00  0.00     0.274 C 
BRANCH  27  28
HETATM   28  N   UNL     1      -7.584   0.145 -33.876  1.00  0.00    -0.067 N 
HETATM   29  H   UNL     1      -8.195  -0.502 -34.386  1.00  0.00     0.280 HD
HETATM   30  C   UNL     1      -6.849   0.992 -34.884  1.00  0.00     0.235 C 
HETATM   31  C   UNL     1      -6.551   2.268 -34.127  1.00  0.00     0.029 C 
HETATM   32  C   UNL     1      -7.721   2.450 -33.173  1.00  0.00     0.029 C 
HETATM   33  C   UNL     1      -8.457   1.119 -33.126  1.00  0.00     0.235 C 
ENDBRANCH  27  28
ENDBRANCH  22  27
ENDBRANCH  20  21
ENDBRANCH   2  20
TORSDOF 8
ENDMDL
MODEL 2
REMARK VINA RESULT:      -9.1      2.558      8.907
REMARK  8 active torsions:
REMARK  status: ('A' for Active; 'I' for Inactive)
REMARK    1  A    between atoms: C_7  and  C_8 
REMARK    2  A    between atoms: C_8  and  O_9 
REMARK    3  A    between atoms: O_9  and  C_10 
REMARK    4  A    between atoms: C_12  and  C_13 
REMARK       I    between atoms: C_13  and  N_14 
REMARK    5  A    between atoms: N_14  and  C_15 
REMARK    6  A    between atoms: C_15  and  C_16 
REMARK    7  A    between atoms: C_17  and  C_18 
REMARK    8  A    between atoms: C_18  and  N_19 
ROOT
HETATM    1  C   UNL     1      -3.851   1.841 -31.278  1.00  0.00     0.252 C 
HETATM    2  N   UNL     1      -3.698   3.214 -31.195  1.00  0.00    -0.353 N 
HETATM    3  O   UNL     1      -2.911   1.065 -31.151  1.00  0.00    -0.268 OA
HETATM    4  H   UNL     1      -4.457   3.784 -31.550  1.00  0.00     0.163 HD
ENDROOT
BRANCH   1   5
HETATM    5  C   UNL     1      -5.210   1.357 -31.622  1.00  0.00     0.034 A 
HETATM    6  C   UNL     1      -5.331   0.127 -32.277  1.00  0.00     0.053 A 
HETATM    7  C   UNL     1      -6.584  -0.344 -32.678  1.00  0.00     0.070 A 
HETATM    8  C   UNL     1      -7.724   0.404 -32.374  1.00  0.00     0.037 A 
HETATM    9  C   UNL     1      -7.607   1.625 -31.699  1.00  0.00     0.004 A 
HETATM   10  C   UNL     1      -6.352   2.108 -31.328  1.00  0.00     0.017 A 
BRANCH   7  11
HETATM   11  O   UNL     1      -6.556  -1.531 -33.353  1.00  0.00    -0.346 OA
BRANCH  11  12
HETATM   12  C   UNL     1      -5.437  -1.779 -34.207  1.00  0.00     0.219 C 
BRANCH  12  13
HETATM   13  C   UNL     1      -4.973  -3.182 -34.050  1.00  0.00     0.024 A 
HETATM   14  C   UNL     1      -3.956  -3.693 -33.198  1.00  0.00     0.069 A 
HETATM   15  C   UNL     1      -3.092  -2.955 -32.247  1.00  0.00     0.073 C 
HETATM   16  N   UNL     1      -3.827  -5.018 -33.328  1.00  0.00    -0.133 NA
HETATM   17  O   UNL     1      -4.750  -5.395 -34.283  1.00  0.00    -0.217 OA
HETATM   18  C   UNL     1      -5.429  -4.301 -34.714  1.00  0.00     0.085 A 
HETATM   19  C   UNL     1      -6.455  -4.532 -35.748  1.00  0.00     0.079 C 
ENDBRANCH  12  13
ENDBRANCH  11  12
ENDBRANCH   7  11
ENDBRANCH   1   5
BRANCH   2  20
HETATM   20  C   UNL     1      -2.361   3.748 -31.271  1.00  0.00     0.162 C 
BRANCH  20  21
HETATM   21  C   UNL     1      -2.250   4.863 -32.280  1.00  0.00    -0.033 A 
HETATM   22  C   UNL     1      -2.069   6.223 -31.934  1.00  0.00    -0.025 A 
HETATM   23  C   UNL     1      -2.022   7.185 -32.966  1.00  0.00     0.009 A 
HETATM   24  C   UNL     1      -2.133   6.815 -34.305  1.00  0.00     0.001 A 
HETATM   25  C   UNL     1      -2.295   5.478 -34.643  1.00  0.00     0.001 A 
HETATM   26  C   UNL     1      -2.354   4.513 -33.641  1.00  0.00     0.009 A 
BRANCH  22  27
HETATM   27  C   UNL     1      -1.899   6.700 -30.510  1.00  0.00     0.274 C 
BRANCH  27  28
HETATM   28  N   UNL     1      -0.487   7.131 -30.170  1.00  0.00    -0.067 N 
HETATM   29  H   UNL     1      -0.316   8.014 -30.664  1.00  0.00     0.280 HD
HETATM   30  C   UNL     1       0.558   6.136 -30.609  1.00  0.00     0.235 C 
HETATM   31  C   UNL     1       0.672   5.196 -29.429  1.00  0.00     0.029 C 
HETATM   32  C   UNL     1       0.411   6.058 -28.204  1.00  0.00     0.029 C 
HETATM   33  C   UNL     1      -0.208   7.354 -28.706  1.00  0.00     0.235 C 
ENDBRANCH  27  28
ENDBRANCH  22  27
ENDBRANCH  20  21
ENDBRANCH   2  20
TORSDOF 8
ENDMDL
MODEL 3
REMARK VINA RESULT:      -9.0      2.524      8.527
REMARK  8 active torsions:
REMARK  status: ('A' for Active; 'I' for Inactive)
REMARK    1  A    between atoms: C_7  and  C_8 
REMARK    2  A    between atoms: C_8  and  O_9 
REMARK    3  A    between atoms: O_9  and  C_10 
REMARK    4  A    between atoms: C_12  and  C_13 
REMARK       I    between atoms: C_13  and  N_14 
REMARK    5  A    between atoms: N_14  and  C_15 
REMARK    6  A    between atoms: C_15  and  C_16 
REMARK    7  A    between atoms: C_17  and  C_18 
REMARK    8  A    between atoms: C_18  and  N_19 
ROOT
HETATM    1  C   UNL     1      -6.003   2.939 -31.435  1.00  0.00     0.252 C 
HETATM    2  N   UNL     1      -5.838   4.276 -31.756  1.00  0.00    -0.353 N 
HETATM    3  O   UNL     1      -5.254   2.349 -30.665  1.00  0.00    -0.268 OA
HETATM    4  H   UNL     1      -6.335   4.619 -32.570  1.00  0.00     0.163 HD
ENDROOT
BRANCH   1   5
HETATM    5  C   UNL     1      -7.091   2.228 -32.150  1.00  0.00     0.034 A 
HETATM    6  C   UNL     1      -6.890   0.889 -32.500  1.00  0.00     0.053 A 
HETATM    7  C   UNL     1      -7.858   0.193 -33.229  1.00  0.00     0.070 A 
HETATM    8  C   UNL     1      -9.054   0.833 -33.562  1.00  0.00     0.037 A 
HETATM    9  C   UNL     1      -9.266   2.166 -33.193  1.00  0.00     0.004 A 
HETATM   10  C   UNL     1      -8.284   2.869 -32.493  1.00  0.00     0.017 A 
BRANCH   7  11
HETATM   11  O   UNL     1      -7.514  -1.090 -33.551  1.00  0.00    -0.346 OA
BRANCH  11  12
HETATM   12  C   UNL     1      -6.642  -1.280 -34.667  1.00  0.00     0.219 C 
BRANCH  12  13
HETATM   13  C   UNL     1      -5.641  -2.336 -34.363  1.00  0.00     0.024 A 
HETATM   14  C   UNL     1      -4.416  -2.222 -33.652  1.00  0.00     0.069 A 
HETATM   15  C   UNL     1      -3.816  -1.017 -33.034  1.00  0.00     0.073 C 
HETATM   16  N   UNL     1      -3.784  -3.399 -33.573  1.00  0.00    -0.133 NA
HETATM   17  O   UNL     1      -4.582  -4.302 -34.245  1.00  0.00    -0.217 OA
HETATM   18  C   UNL     1      -5.686  -3.668 -34.718  1.00  0.00     0.085 A 
HETATM   19  C   UNL     1      -6.645  -4.496 -35.473  1.00  0.00     0.079 C 
ENDBRANCH  12  13
ENDBRANCH  11  12
ENDBRANCH   7  11
ENDBRANCH   1   5
BRANCH   2  20
HETATM   20  C   UNL     1      -4.583   4.899 -31.419  1.00  0.00     0.162 C 
BRANCH  20  21
HETATM   21  C   UNL     1      -3.657   4.989 -32.606  1.00  0.00    -0.033 A 
HETATM   22  C   UNL     1      -2.246   5.005 -32.504  1.00  0.00    -0.025 A 
HETATM   23  C   UNL     1      -1.482   5.137 -33.683  1.00  0.00     0.009 A 
HETATM   24  C   UNL     1      -2.092   5.233 -34.933  1.00  0.00     0.001 A 
HETATM   25  C   UNL     1      -3.476   5.202 -35.032  1.00  0.00     0.001 A 
HETATM   26  C   UNL     1      -4.250   5.082 -33.881  1.00  0.00     0.009 A 
BRANCH  22  27
HETATM   27  C   UNL     1      -1.509   4.864 -31.193  1.00  0.00     0.274 C 
BRANCH  27  28
HETATM   28  N   UNL     1      -0.117   5.464 -31.202  1.00  0.00    -0.067 N 
HETATM   29  H   UNL     1       0.294   5.253 -32.118  1.00  0.00     0.280 HD
HETATM   30  C   UNL     1       0.783   4.888 -30.138  1.00  0.00     0.235 C 
HETATM   31  C   UNL     1       0.522   5.771 -28.937  1.00  0.00     0.029 C 
HETATM   32  C   UNL     1       0.226   7.149 -29.509  1.00  0.00     0.029 C 
HETATM   33  C   UNL     1      -0.048   6.955 -30.992  1.00  0.00     0.235 C 
ENDBRANCH  27  28
ENDBRANCH  22  27
ENDBRANCH  20  21
ENDBRANCH   2  20
TORSDOF 8
ENDMDL
MODEL 4
REMARK VINA RESULT:      -8.9      1.984      2.743
REMARK  8 active torsions:
REMARK  status: ('A' for Active; 'I' for Inactive)
REMARK    1  A    between atoms: C_7  and  C_8 
REMARK    2  A    between atoms: C_8  and  O_9 
REMARK    3  A    between atoms: O_9  and  C_10 
REMARK    4  A    between atoms: C_12  and  C_13 
REMARK       I    between atoms: C_13  and  N_14 
REMARK    5  A    between atoms: N_14  and  C_15 
REMARK    6  A    between atoms: C_15  and  C_16 
REMARK    7  A    between atoms: C_17  and  C_18 
REMARK    8  A    between atoms: C_18  and  N_19 
ROOT
HETATM    1  C   UNL     1      -4.169   2.068 -31.891  1.00  0.00     0.252 C 
HETATM    2  N   UNL     1      -3.775   0.860 -32.439  1.00  0.00    -0.353 N 
HETATM    3  O   UNL     1      -4.737   2.146 -30.808  1.00  0.00    -0.268 OA
HETATM    4  H   UNL     1      -3.542   0.856 -33.426  1.00  0.00     0.163 HD
ENDROOT
BRANCH   1   5
HETATM    5  C   UNL     1      -3.945   3.268 -32.733  1.00  0.00     0.034 A 
HETATM    6  C   UNL     1      -2.657   3.811 -32.787  1.00  0.00     0.053 A 
HETATM    7  C   UNL     1      -2.408   4.977 -33.516  1.00  0.00     0.070 A 
HETATM    8  C   UNL     1      -3.450   5.571 -34.232  1.00  0.00     0.037 A 
HETATM    9  C   UNL     1      -4.735   5.017 -34.197  1.00  0.00     0.004 A 
HETATM   10  C   UNL     1      -4.988   3.871 -33.442  1.00  0.00     0.017 A 
BRANCH   7  11
HETATM   11  O   UNL     1      -1.121   5.429 -33.443  1.00  0.00    -0.346 OA
BRANCH  11  12
HETATM   12  C   UNL     1      -0.921   6.810 -33.134  1.00  0.00     0.219 C 
BRANCH  12  13
HETATM   13  C   UNL     1      -0.858   7.004 -31.662  1.00  0.00     0.024 A 
HETATM   14  C   UNL     1      -0.083   6.296 -30.704  1.00  0.00     0.069 A 
HETATM   15  C   UNL     1       0.861   5.176 -30.926  1.00  0.00     0.073 C 
HETATM   16  N   UNL     1      -0.287   6.764 -29.467  1.00  0.00    -0.133 NA
HETATM   17  O   UNL     1      -1.213   7.778 -29.595  1.00  0.00    -0.217 OA
HETATM   18  C   UNL     1      -1.555   7.919 -30.901  1.00  0.00     0.085 A 
HETATM   19  C   UNL     1      -2.549   8.964 -31.211  1.00  0.00     0.079 C 
ENDBRANCH  12  13
ENDBRANCH  11  12
ENDBRANCH   7  11
ENDBRANCH   1   5
BRANCH   2  20
HETATM   20  C   UNL     1      -4.321  -0.347 -31.871  1.00  0.00     0.162 C 
BRANCH  20  21
HETATM   21  C   UNL     1      -4.938  -1.241 -32.917  1.00  0.00    -0.033 A 
HETATM   22  C   UNL     1      -6.280  -1.136 -33.351  1.00  0.00    -0.025 A 
HETATM   23  C   UNL     1      -6.759  -2.057 -34.306  1.00  0.00     0.009 A 
HETATM   24  C   UNL     1      -5.932  -3.047 -34.834  1.00  0.00     0.001 A 
HETATM   25  C   UNL     1      -4.610  -3.139 -34.419  1.00  0.00     0.001 A 
HETATM   26  C   UNL     1      -4.119  -2.246 -33.470  1.00  0.00     0.009 A 
BRANCH  22  27
HETATM   27  C   UNL     1      -7.228  -0.066 -32.859  1.00  0.00     0.274 C 
BRANCH  27  28
HETATM   28  N   UNL     1      -8.550  -0.028 -33.598  1.00  0.00    -0.067 N 
HETATM   29  H   UNL     1      -8.642  -0.923 -34.092  1.00  0.00     0.280 HD
HETATM   30  C   UNL     1      -8.627   1.081 -34.616  1.00  0.00     0.235 C 
HETATM   31  C   UNL     1      -9.157   2.256 -33.822  1.00  0.00     0.029 C 
HETATM   32  C   UNL     1     -10.077   1.649 -32.775  1.00  0.00     0.029 C 
HETATM   33  C   UNL     1      -9.774   0.158 -32.738  1.00  0.00     0.235 C 
ENDBRANCH  27  28
ENDBRANCH  22  27
ENDBRANCH  20  21
ENDBRANCH   2  20
TORSDOF 8
ENDMDL
MODEL 5
REMARK VINA RESULT:      -8.9      2.158      3.671
REMARK  8 active torsions:
REMARK  status: ('A' for Active; 'I' for Inactive)
REMARK    1  A    between atoms: C_7  and  C_8 
REMARK    2  A    between atoms: C_8  and  O_9 
REMARK    3  A    between atoms: O_9  and  C_10 
REMARK    4  A    between atoms: C_12  and  C_13 
REMARK       I    between atoms: C_13  and  N_14 
REMARK    5  A    between atoms: N_14  and  C_15 
REMARK    6  A    between atoms: C_15  and  C_16 
REMARK    7  A    between atoms: C_17  and  C_18 
REMARK    8  A    between atoms: C_18  and  N_19 
ROOT
HETATM    1  C   UNL     1      -4.530   3.492 -32.352  1.00  0.00     0.252 C 
HETATM    2  N   UNL     1      -4.438   2.117 -32.483  1.00  0.00    -0.353 N 
HETATM    3  O   UNL     1      -5.509   4.044 -31.864  1.00  0.00    -0.268 OA
HETATM    4  H   UNL     1      -3.723   1.761 -33.107  1.00  0.00     0.163 HD
ENDROOT
BRANCH   1   5
HETATM    5  C   UNL     1      -3.407   4.277 -32.922  1.00  0.00     0.034 A 
HETATM    6  C   UNL     1      -2.238   4.409 -32.164  1.00  0.00     0.053 A 
HETATM    7  C   UNL     1      -1.176   5.190 -32.629  1.00  0.00     0.070 A 
HETATM    8  C   UNL     1      -1.272   5.798 -33.883  1.00  0.00     0.037 A 
HETATM    9  C   UNL     1      -2.432   5.648 -34.651  1.00  0.00     0.004 A 
HETATM   10  C   UNL     1      -3.504   4.895 -34.171  1.00  0.00     0.017 A 
BRANCH   7  11
HETATM   11  O   UNL     1      -0.118   5.278 -31.770  1.00  0.00    -0.346 OA
BRANCH  11  12
HETATM   12  C   UNL     1       0.306   6.585 -31.374  1.00  0.00     0.219 C 
BRANCH  12  13
HETATM   13  C   UNL     1      -0.553   7.092 -30.272  1.00  0.00     0.024 A 
HETATM   14  C   UNL     1      -1.657   7.983 -30.343  1.00  0.00     0.069 A 
HETATM   15  C   UNL     1      -2.236   8.643 -31.537  1.00  0.00     0.073 C 
HETATM   16  N   UNL     1      -2.189   8.202 -29.135  1.00  0.00    -0.133 NA
HETATM   17  O   UNL     1      -1.429   7.466 -28.249  1.00  0.00    -0.217 OA
HETATM   18  C   UNL     1      -0.453   6.808 -28.927  1.00  0.00     0.085 A 
HETATM   19  C   UNL     1       0.458   5.975 -28.120  1.00  0.00     0.079 C 
ENDBRANCH  12  13
ENDBRANCH  11  12
ENDBRANCH   7  11
ENDBRANCH   1   5
BRANCH   2  20
HETATM   20  C   UNL     1      -5.644   1.345 -32.327  1.00  0.00     0.162 C 
BRANCH  20  21
HETATM   21  C   UNL     1      -5.637   0.100 -33.179  1.00  0.00    -0.033 A 
HETATM   22  C   UNL     1      -6.507  -0.111 -34.273  1.00  0.00    -0.025 A 
HETATM   23  C   UNL     1      -6.437  -1.336 -34.970  1.00  0.00     0.009 A 
HETATM   24  C   UNL     1      -5.520  -2.322 -34.609  1.00  0.00     0.001 A 
HETATM   25  C   UNL     1      -4.655  -2.106 -33.545  1.00  0.00     0.001 A 
HETATM   26  C   UNL     1      -4.714  -0.909 -32.836  1.00  0.00     0.009 A 
BRANCH  22  27
HETATM   27  C   UNL     1      -7.500   0.923 -34.753  1.00  0.00     0.274 C 
BRANCH  27  28
HETATM   28  N   UNL     1      -8.928   0.649 -34.327  1.00  0.00    -0.067 N 
HETATM   29  H   UNL     1      -9.358   0.084 -35.067  1.00  0.00     0.280 HD
HETATM   30  C   UNL     1      -9.746   1.904 -34.158  1.00  0.00     0.235 C 
HETATM   31  C   UNL     1      -9.501   2.297 -32.718  1.00  0.00     0.029 C 
HETATM   32  C   UNL     1      -9.321   0.985 -31.970  1.00  0.00     0.029 C 
HETATM   33  C   UNL     1      -9.090  -0.089 -33.023  1.00  0.00     0.235 C 
ENDBRANCH  27  28
ENDBRANCH  22  27
ENDBRANCH  20  21
ENDBRANCH   2  20
TORSDOF 8
ENDMDL
MODEL 6
REMARK VINA RESULT:      -8.8      2.398      3.925
REMARK  8 active torsions:
REMARK  status: ('A' for Active; 'I' for Inactive)
REMARK    1  A    between atoms: C_7  and  C_8 
REMARK    2  A    between atoms: C_8  and  O_9 
REMARK    3  A    between atoms: O_9  and  C_10 
REMARK    4  A    between atoms: C_12  and  C_13 
REMARK       I    between atoms: C_13  and  N_14 
REMARK    5  A    between atoms: N_14  and  C_15 
REMARK    6  A    between atoms: C_15  and  C_16 
REMARK    7  A    between atoms: C_17  and  C_18 
REMARK    8  A    between atoms: C_18  and  N_19 
ROOT
HETATM    1  C   UNL     1      -3.485   2.742 -32.219  1.00  0.00     0.252 C 
HETATM    2  N   UNL     1      -4.671   2.438 -32.865  1.00  0.00    -0.353 N 
HETATM    3  O   UNL     1      -2.998   2.016 -31.361  1.00  0.00    -0.268 OA
HETATM    4  H   UNL     1      -5.126   3.190 -33.370  1.00  0.00     0.163 HD
ENDROOT
BRANCH   1   5
HETATM    5  C   UNL     1      -2.874   4.050 -32.561  1.00  0.00     0.034 A 
HETATM    6  C   UNL     1      -2.886   5.060 -31.593  1.00  0.00     0.053 A 
HETATM    7  C   UNL     1      -2.379   6.329 -31.887  1.00  0.00     0.070 A 
HETATM    8  C   UNL     1      -1.815   6.566 -33.142  1.00  0.00     0.037 A 
HETATM    9  C   UNL     1      -1.782   5.550 -34.104  1.00  0.00     0.004 A 
HETATM   10  C   UNL     1      -2.318   4.293 -33.820  1.00  0.00     0.017 A 
BRANCH   7  11
HETATM   11  O   UNL     1      -2.499   7.237 -30.873  1.00  0.00    -0.346 OA
BRANCH  11  12
HETATM   12  C   UNL     1      -1.305   7.874 -30.411  1.00  0.00     0.219 C 
BRANCH  12  13
HETATM   13  C   UNL     1      -0.646   7.039 -29.373  1.00  0.00     0.024 A 
HETATM   14  C   UNL     1      -0.754   7.128 -27.959  1.00  0.00     0.069 A 
HETATM   15  C   UNL     1      -1.550   8.083 -27.152  1.00  0.00     0.073 C 
HETATM   16  N   UNL     1      -0.014   6.194 -27.351  1.00  0.00    -0.133 NA
HETATM   17  O   UNL     1       0.604   5.486 -28.361  1.00  0.00    -0.217 OA
HETATM   18  C   UNL     1       0.229   5.991 -29.564  1.00  0.00     0.085 A 
HETATM   19  C   UNL     1       0.811   5.346 -30.756  1.00  0.00     0.079 C 
ENDBRANCH  12  13
ENDBRANCH  11  12
ENDBRANCH   7  11
ENDBRANCH   1   5
BRANCH   2  20
HETATM   20  C   UNL     1      -5.503   1.409 -32.295  1.00  0.00     0.162 C 
BRANCH  20  21
HETATM   21  C   UNL     1      -5.521   0.159 -33.139  1.00  0.00    -0.033 A 
HETATM   22  C   UNL     1      -6.406  -0.047 -34.222  1.00  0.00    -0.025 A 
HETATM   23  C   UNL     1      -6.360  -1.277 -34.913  1.00  0.00     0.009 A 
HETATM   24  C   UNL     1      -5.451  -2.272 -34.557  1.00  0.00     0.001 A 
HETATM   25  C   UNL     1      -4.572  -2.061 -33.503  1.00  0.00     0.001 A 
HETATM   26  C   UNL     1      -4.607  -0.859 -32.801  1.00  0.00     0.009 A 
BRANCH  22  27
HETATM   27  C   UNL     1      -7.391   0.996 -34.697  1.00  0.00     0.274 C 
BRANCH  27  28
HETATM   28  N   UNL     1      -8.825   0.720 -34.291  1.00  0.00    -0.067 N 
HETATM   29  H   UNL     1      -9.254   0.183 -35.053  1.00  0.00     0.280 HD
HETATM   30  C   UNL     1      -9.635   1.975 -34.086  1.00  0.00     0.235 C 
HETATM   31  C   UNL     1      -9.398   2.317 -32.631  1.00  0.00     0.029 C 
HETATM   32  C   UNL     1      -9.233   0.980 -31.927  1.00  0.00     0.029 C 
HETATM   33  C   UNL     1      -9.002  -0.060 -33.013  1.00  0.00     0.235 C 
ENDBRANCH  27  28
ENDBRANCH  22  27
ENDBRANCH  20  21
ENDBRANCH   2  20
TORSDOF 8
ENDMDL
MODEL 7
REMARK VINA RESULT:      -8.6      2.361      4.836
REMARK  8 active torsions:
REMARK  status: ('A' for Active; 'I' for Inactive)
REMARK    1  A    between atoms: C_7  and  C_8 
REMARK    2  A    between atoms: C_8  and  O_9 
REMARK    3  A    between atoms: O_9  and  C_10 
REMARK    4  A    between atoms: C_12  and  C_13 
REMARK       I    between atoms: C_13  and  N_14 
REMARK    5  A    between atoms: N_14  and  C_15 
REMARK    6  A    between atoms: C_15  and  C_16 
REMARK    7  A    between atoms: C_17  and  C_18 
REMARK    8  A    between atoms: C_18  and  N_19 
ROOT
HETATM    1  C   UNL     1      -3.430   2.971 -32.265  1.00  0.00     0.252 C 
HETATM    2  N   UNL     1      -4.402   3.323 -31.345  1.00  0.00    -0.353 N 
HETATM    3  O   UNL     1      -3.199   1.806 -32.567  1.00  0.00    -0.268 OA
HETATM    4  H   UNL     1      -4.365   4.265 -30.972  1.00  0.00     0.163 HD
ENDROOT
BRANCH   1   5
HETATM    5  C   UNL     1      -2.613   4.085 -32.806  1.00  0.00     0.034 A 
HETATM    6  C   UNL     1      -1.740   4.750 -31.939  1.00  0.00     0.053 A 
HETATM    7  C   UNL     1      -0.995   5.846 -32.384  1.00  0.00     0.070 A 
HETATM    8  C   UNL     1      -1.093   6.242 -33.720  1.00  0.00     0.037 A 
HETATM    9  C   UNL     1      -1.950   5.563 -34.594  1.00  0.00     0.004 A 
HETATM   10  C   UNL     1      -2.717   4.490 -34.140  1.00  0.00     0.017 A 
BRANCH   7  11
HETATM   11  O   UNL     1      -0.223   6.436 -31.424  1.00  0.00    -0.346 OA
BRANCH  11  12
HETATM   12  C   UNL     1      -0.405   6.006 -30.073  1.00  0.00     0.219 C 
BRANCH  12  13
HETATM   13  C   UNL     1      -0.970   7.109 -29.253  1.00  0.00     0.024 A 
HETATM   14  C   UNL     1      -2.327   7.505 -29.110  1.00  0.00     0.069 A 
HETATM   15  C   UNL     1      -3.532   6.921 -29.746  1.00  0.00     0.073 C 
HETATM   16  N   UNL     1      -2.450   8.543 -28.275  1.00  0.00    -0.133 NA
HETATM   17  O   UNL     1      -1.168   8.853 -27.869  1.00  0.00    -0.217 OA
HETATM   18  C   UNL     1      -0.288   8.001 -28.454  1.00  0.00     0.085 A 
HETATM   19  C   UNL     1       1.136   8.204 -28.128  1.00  0.00     0.079 C 
ENDBRANCH  12  13
ENDBRANCH  11  12
ENDBRANCH   7  11
ENDBRANCH   1   5
BRANCH   2  20
HETATM   20  C   UNL     1      -4.935   2.284 -30.500  1.00  0.00     0.162 C 
BRANCH  20  21
HETATM   21  C   UNL     1      -6.379   1.981 -30.813  1.00  0.00    -0.033 A 
HETATM   22  C   UNL     1      -6.826   0.753 -31.354  1.00  0.00    -0.025 A 
HETATM   23  C   UNL     1      -8.198   0.599 -31.647  1.00  0.00     0.009 A 
HETATM   24  C   UNL     1      -9.110   1.624 -31.396  1.00  0.00     0.001 A 
HETATM   25  C   UNL     1      -8.672   2.822 -30.850  1.00  0.00     0.001 A 
HETATM   26  C   UNL     1      -7.321   2.999 -30.563  1.00  0.00     0.009 A 
BRANCH  22  27
HETATM   27  C   UNL     1      -5.909  -0.420 -31.616  1.00  0.00     0.274 C 
BRANCH  27  28
HETATM   28  N   UNL     1      -5.123  -0.310 -32.907  1.00  0.00    -0.067 N 
HETATM   29  H   UNL     1      -4.485   0.487 -32.801  1.00  0.00     0.280 HD
HETATM   30  C   UNL     1      -5.994  -0.058 -34.112  1.00  0.00     0.235 C 
HETATM   31  C   UNL     1      -6.366  -1.448 -34.578  1.00  0.00     0.029 C 
HETATM   32  C   UNL     1      -5.164  -2.317 -34.245  1.00  0.00     0.029 C 
HETATM   33  C   UNL     1      -4.304  -1.519 -33.277  1.00  0.00     0.235 C 
ENDBRANCH  27  28
ENDBRANCH  22  27
ENDBRANCH  20  21
ENDBRANCH   2  20
TORSDOF 8
ENDMDL
MODEL 8
REMARK VINA RESULT:      -8.6      2.672      7.796
REMARK  8 active torsions:
REMARK  status: ('A' for Active; 'I' for Inactive)
REMARK    1  A    between atoms: C_7  and  C_8 
REMARK    2  A    between atoms: C_8  and  O_9 
REMARK    3  A    between atoms: O_9  and  C_10 
REMARK    4  A    between atoms: C_12  and  C_13 
REMARK       I    between atoms: C_13  and  N_14 
REMARK    5  A    between atoms: N_14  and  C_15 
REMARK    6  A    between atoms: C_15  and  C_16 
REMARK    7  A    between atoms: C_17  and  C_18 
REMARK    8  A    between atoms: C_18  and  N_19 
ROOT
HETATM    1  C   UNL     1      -7.150   3.761 -33.882  1.00  0.00     0.252 C 
HETATM    2  N   UNL     1      -5.772   3.752 -34.016  1.00  0.00    -0.353 N 
HETATM    3  O   UNL     1      -7.840   4.711 -34.233  1.00  0.00    -0.268 OA
HETATM    4  H   UNL     1      -5.262   3.053 -33.488  1.00  0.00     0.163 HD
ENDROOT
BRANCH   1   5
HETATM    5  C   UNL     1      -7.745   2.585 -33.202  1.00  0.00     0.034 A 
HETATM    6  C   UNL     1      -7.541   1.320 -33.763  1.00  0.00     0.053 A 
HETATM    7  C   UNL     1      -8.132   0.188 -33.195  1.00  0.00     0.070 A 
HETATM    8  C   UNL     1      -8.892   0.325 -32.030  1.00  0.00     0.037 A 
HETATM    9  C   UNL     1      -9.078   1.587 -31.455  1.00  0.00     0.004 A 
HETATM   10  C   UNL     1      -8.513   2.721 -32.042  1.00  0.00     0.017 A 
BRANCH   7  11
HETATM   11  O   UNL     1      -7.897  -0.975 -33.870  1.00  0.00    -0.346 OA
BRANCH  11  12
HETATM   12  C   UNL     1      -6.843  -0.978 -34.837  1.00  0.00     0.219 C 
BRANCH  12  13
HETATM   13  C   UNL     1      -5.755  -1.895 -34.409  1.00  0.00     0.024 A 
HETATM   14  C   UNL     1      -5.625  -3.291 -34.644  1.00  0.00     0.069 A 
HETATM   15  C   UNL     1      -6.546  -4.194 -35.373  1.00  0.00     0.073 C 
HETATM   16  N   UNL     1      -4.499  -3.775 -34.108  1.00  0.00    -0.133 NA
HETATM   17  O   UNL     1      -3.879  -2.703 -33.500  1.00  0.00    -0.217 OA
HETATM   18  C   UNL     1      -4.629  -1.585 -33.677  1.00  0.00     0.085 A 
HETATM   19  C   UNL     1      -4.107  -0.343 -33.076  1.00  0.00     0.079 C 
ENDBRANCH  12  13
ENDBRANCH  11  12
ENDBRANCH   7  11
ENDBRANCH   1   5
BRANCH   2  20
HETATM   20  C   UNL     1      -5.114   5.006 -34.286  1.00  0.00     0.162 C 
BRANCH  20  21
HETATM   21  C   UNL     1      -3.670   4.996 -33.851  1.00  0.00    -0.033 A 
HETATM   22  C   UNL     1      -3.232   4.551 -32.582  1.00  0.00    -0.025 A 
HETATM   23  C   UNL     1      -1.858   4.630 -32.272  1.00  0.00     0.009 A 
HETATM   24  C   UNL     1      -0.935   5.118 -33.196  1.00  0.00     0.001 A 
HETATM   25  C   UNL     1      -1.365   5.539 -34.447  1.00  0.00     0.001 A 
HETATM   26  C   UNL     1      -2.718   5.480 -34.771  1.00  0.00     0.009 A 
BRANCH  22  27
HETATM   27  C   UNL     1      -4.163   3.971 -31.542  1.00  0.00     0.274 C 
BRANCH  27  28
HETATM   28  N   UNL     1      -4.469   4.914 -30.396  1.00  0.00    -0.067 N 
HETATM   29  H   UNL     1      -3.802   4.701 -29.646  1.00  0.00     0.280 HD
HETATM   30  C   UNL     1      -5.864   4.746 -29.847  1.00  0.00     0.235 C 
HETATM   31  C   UNL     1      -6.696   5.678 -30.701  1.00  0.00     0.029 C 
HETATM   32  C   UNL     1      -5.774   6.838 -31.042  1.00  0.00     0.029 C 
HETATM   33  C   UNL     1      -4.360   6.384 -30.713  1.00  0.00     0.235 C 
ENDBRANCH  27  28
ENDBRANCH  22  27
ENDBRANCH  20  21
ENDBRANCH   2  20
TORSDOF 8
ENDMDL
MODEL 9
REMARK VINA RESULT:      -8.5      2.477      8.927
REMARK  8 active torsions:
REMARK  status: ('A' for Active; 'I' for Inactive)
REMARK    1  A    between atoms: C_7  and  C_8 
REMARK    2  A    between atoms: C_8  and  O_9 
REMARK    3  A    between atoms: O_9  and  C_10 
REMARK    4  A    between atoms: C_12  and  C_13 
REMARK       I    between atoms: C_13  and  N_14 
REMARK    5  A    between atoms: N_14  and  C_15 
REMARK    6  A    between atoms: C_15  and  C_16 
REMARK    7  A    between atoms: C_17  and  C_18 
REMARK    8  A    between atoms: C_18  and  N_19 
ROOT
HETATM    1  C   UNL     1      -5.444   2.808 -31.419  1.00  0.00     0.252 C 
HETATM    2  N   UNL     1      -4.908   3.981 -31.921  1.00  0.00    -0.353 N 
HETATM    3  O   UNL     1      -5.129   2.355 -30.325  1.00  0.00    -0.268 OA
HETATM    4  H   UNL     1      -5.028   4.154 -32.913  1.00  0.00     0.163 HD
ENDROOT
BRANCH   1   5
HETATM    5  C   UNL     1      -6.362   2.072 -32.323  1.00  0.00     0.034 A 
HETATM    6  C   UNL     1      -6.178   0.694 -32.476  1.00  0.00     0.053 A 
HETATM    7  C   UNL     1      -6.977  -0.034 -33.363  1.00  0.00     0.070 A 
HETATM    8  C   UNL     1      -7.994   0.620 -34.061  1.00  0.00     0.037 A 
HETATM    9  C   UNL     1      -8.193   1.995 -33.892  1.00  0.00     0.004 A 
HETATM   10  C   UNL     1      -7.374   2.726 -33.030  1.00  0.00     0.017 A 
BRANCH   7  11
HETATM   11  O   UNL     1      -6.659  -1.359 -33.457  1.00  0.00    -0.346 OA
BRANCH  11  12
HETATM   12  C   UNL     1      -5.829  -1.765 -34.547  1.00  0.00     0.219 C 
BRANCH  12  13
HETATM   13  C   UNL     1      -5.185  -3.070 -34.245  1.00  0.00     0.024 A 
HETATM   14  C   UNL     1      -5.493  -4.356 -34.766  1.00  0.00     0.069 A 
HETATM   15  C   UNL     1      -6.542  -4.729 -35.744  1.00  0.00     0.073 C 
HETATM   16  N   UNL     1      -4.686  -5.296 -34.262  1.00  0.00    -0.133 NA
HETATM   17  O   UNL     1      -3.843  -4.640 -33.388  1.00  0.00    -0.217 OA
HETATM   18  C   UNL     1      -4.143  -3.315 -33.377  1.00  0.00     0.085 A 
HETATM   19  C   UNL     1      -3.333  -2.467 -32.482  1.00  0.00     0.079 C 
ENDBRANCH  12  13
ENDBRANCH  11  12
ENDBRANCH   7  11
ENDBRANCH   1   5
BRANCH   2  20
HETATM   20  C   UNL     1      -3.732   4.512 -31.281  1.00  0.00     0.162 C 
BRANCH  20  21
HETATM   21  C   UNL     1      -2.802   5.180 -32.263  1.00  0.00    -0.033 A 
HETATM   22  C   UNL     1      -2.176   6.426 -32.031  1.00  0.00    -0.025 A 
HETATM   23  C   UNL     1      -1.359   6.974 -33.043  1.00  0.00     0.009 A 
HETATM   24  C   UNL     1      -1.149   6.302 -34.247  1.00  0.00     0.001 A 
HETATM   25  C   UNL     1      -1.752   5.071 -34.465  1.00  0.00     0.001 A 
HETATM   26  C   UNL     1      -2.570   4.516 -33.485  1.00  0.00     0.009 A 
BRANCH  22  27
HETATM   27  C   UNL     1      -2.319   7.198 -30.739  1.00  0.00     0.274 C 
BRANCH  27  28
HETATM   28  N   UNL     1      -1.631   6.548 -29.556  1.00  0.00    -0.067 N 
HETATM   29  H   UNL     1      -2.150   5.688 -29.344  1.00  0.00     0.280 HD
HETATM   30  C   UNL     1      -1.633   7.414 -28.321  1.00  0.00     0.235 C 
HETATM   31  C   UNL     1      -0.374   8.241 -28.466  1.00  0.00     0.029 C 
HETATM   32  C   UNL     1       0.618   7.338 -29.182  1.00  0.00     0.029 C 
HETATM   33  C   UNL     1      -0.184   6.182 -29.761  1.00  0.00     0.235 C 
ENDBRANCH  27  28
ENDBRANCH  22  27
ENDBRANCH  20  21
ENDBRANCH   2  20
TORSDOF 8
ENDMDL
MODEL 10
REMARK VINA RESULT:      -8.4      3.618      9.075
REMARK  8 active torsions:
REMARK  status: ('A' for Active; 'I' for Inactive)
REMARK    1  A    between atoms: C_7  and  C_8 
REMARK    2  A    between atoms: C_8  and  O_9 
REMARK    3  A    between atoms: O_9  and  C_10 
REMARK    4  A    between atoms: C_12  and  C_13 
REMARK       I    between atoms: C_13  and  N_14 
REMARK    5  A    between atoms: N_14  and  C_15 
REMARK    6  A    between atoms: C_15  and  C_16 
REMARK    7  A    between atoms: C_17  and  C_18 
REMARK    8  A    between atoms: C_18  and  N_19 
ROOT
HETATM    1  C   UNL     1      -6.175   3.816 -33.659  1.00  0.00     0.252 C 
HETATM    2  N   UNL     1      -5.054   3.728 -32.853  1.00  0.00    -0.353 N 
HETATM    3  O   UNL     1      -6.576   4.880 -34.115  1.00  0.00    -0.268 OA
HETATM    4  H   UNL     1      -4.932   2.872 -32.324  1.00  0.00     0.163 HD
ENDROOT
BRANCH   1   5
HETATM    5  C   UNL     1      -6.926   2.554 -33.870  1.00  0.00     0.034 A 
HETATM    6  C   UNL     1      -8.174   2.413 -33.254  1.00  0.00     0.053 A 
HETATM    7  C   UNL     1      -8.892   1.220 -33.371  1.00  0.00     0.070 A 
HETATM    8  C   UNL     1      -8.374   0.183 -34.150  1.00  0.00     0.037 A 
HETATM    9  C   UNL     1      -7.135   0.331 -34.785  1.00  0.00     0.004 A 
HETATM   10  C   UNL     1      -6.404   1.511 -34.640  1.00  0.00     0.017 A 
BRANCH   7  11
HETATM   11  O   UNL     1     -10.070   1.196 -32.679  1.00  0.00    -0.346 OA
BRANCH  11  12
HETATM   12  C   UNL     1     -10.929   2.332 -32.796  1.00  0.00     0.219 C 
BRANCH  12  13
HETATM   13  C   UNL     1     -11.738   2.239 -34.040  1.00  0.00     0.024 A 
HETATM   14  C   UNL     1     -11.721   3.091 -35.177  1.00  0.00     0.069 A 
HETATM   15  C   UNL     1     -10.894   4.297 -35.415  1.00  0.00     0.073 C 
HETATM   16  N   UNL     1     -12.589   2.681 -36.109  1.00  0.00    -0.133 NA
HETATM   17  O   UNL     1     -13.201   1.560 -35.588  1.00  0.00    -0.217 OA
HETATM   18  C   UNL     1     -12.696   1.299 -34.355  1.00  0.00     0.085 A 
HETATM   19  C   UNL     1     -13.253   0.128 -33.652  1.00  0.00     0.079 C 
ENDBRANCH  12  13
ENDBRANCH  11  12
ENDBRANCH   7  11
ENDBRANCH   1   5
BRANCH   2  20
HETATM   20  C   UNL     1      -4.533   4.948 -32.289  1.00  0.00     0.162 C 
BRANCH  20  21
HETATM   21  C   UNL     1      -3.264   5.394 -32.972  1.00  0.00    -0.033 A 
HETATM   22  C   UNL     1      -2.409   6.400 -32.466  1.00  0.00    -0.025 A 
HETATM   23  C   UNL     1      -1.271   6.764 -33.216  1.00  0.00     0.009 A 
HETATM   24  C   UNL     1      -0.972   6.141 -34.427  1.00  0.00     0.001 A 
HETATM   25  C   UNL     1      -1.805   5.143 -34.914  1.00  0.00     0.001 A 
HETATM   26  C   UNL     1      -2.939   4.774 -34.196  1.00  0.00     0.009 A 
BRANCH  22  27
HETATM   27  C   UNL     1      -2.639   7.094 -31.143  1.00  0.00     0.274 C 
BRANCH  27  28
HETATM   28  N   UNL     1      -2.046   6.365 -29.954  1.00  0.00    -0.067 N 
HETATM   29  H   UNL     1      -2.725   5.649 -29.673  1.00  0.00     0.280 HD
HETATM   30  C   UNL     1      -1.796   7.266 -28.771  1.00  0.00     0.235 C 
HETATM   31  C   UNL     1      -0.398   7.791 -29.015  1.00  0.00     0.029 C 
HETATM   32  C   UNL     1       0.337   6.663 -29.720  1.00  0.00     0.029 C 
HETATM   33  C   UNL     1      -0.724   5.683 -30.199  1.00  0.00     0.235 C 
ENDBRANCH  27  28
ENDBRANCH  22  27
ENDBRANCH  20  21
ENDBRANCH   2  20
TORSDOF 8
ENDMDL
