MODEL 1
REMARK VINA RESULT:      -8.7      0.000      0.000
REMARK  6 active torsions:
REMARK  status: ('A' for Active; 'I' for Inactive)
REMARK    1  A    between atoms: C_2  and  C_4 
REMARK    2  A    between atoms: C_2  and  C_11 
REMARK    3  A    between atoms: C_2  and  O_3 
REMARK    4  A    between atoms: C_11  and  N_12 
REMARK       I    between atoms: N_12  and  C_13 
REMARK    5  A    between atoms: C_13  and  C_14 
REMARK    6  A    between atoms: C_15  and  C_16 
ROOT
HETATM    1  N   UNL     1      -6.520   1.778 -31.693  1.00  0.00    -0.354 N 
HETATM    2  C   UNL     1      -5.512   1.506 -32.591  1.00  0.00     0.255 C 
HETATM    3  O   UNL     1      -5.521   1.965 -33.730  1.00  0.00    -0.268 OA
HETATM    4  H   UNL     1      -6.583   1.196 -30.868  1.00  0.00     0.162 HD
ENDROOT
BRANCH   2   5
HETATM    5  C   UNL     1      -4.481   0.617 -32.090  1.00  0.00     0.080 A 
HETATM    6  C   UNL     1      -4.212  -0.747 -32.435  1.00  0.00     0.104 A 
HETATM    7  N   UNL     1      -3.115  -1.189 -31.790  1.00  0.00    -0.174 NA
HETATM    8  N   UNL     1      -2.709  -0.154 -31.050  1.00  0.00    -0.288 N 
HETATM    9  H   UNL     1      -1.876  -0.271 -30.483  1.00  0.00     0.188 HD
HETATM   10  C   UNL     1      -3.496   0.947 -31.176  1.00  0.00     0.128 A 
BRANCH   6  11
HETATM   11  C   UNL     1      -4.954  -1.658 -33.312  1.00  0.00    -0.004 A 
HETATM   12  C   UNL     1      -4.306  -2.773 -33.874  1.00  0.00     0.017 A 
HETATM   13  C   UNL     1      -5.004  -3.670 -34.687  1.00  0.00     0.043 A 
HETATM   14  C   UNL     1      -6.352  -3.457 -34.938  1.00  0.00     0.116 A 
HETATM   15  F   UNL     1      -7.024  -4.319 -35.714  1.00  0.00    -0.206 F 
HETATM   16  C   UNL     1      -7.018  -2.368 -34.388  1.00  0.00     0.043 A 
HETATM   17  C   UNL     1      -6.322  -1.474 -33.571  1.00  0.00     0.017 A 
ENDBRANCH   6  11
ENDBRANCH   2   5
BRANCH   1  18
HETATM   18  C   UNL     1      -7.690   2.560 -32.072  1.00  0.00     0.165 C 
BRANCH  18  19
HETATM   19  C   UNL     1      -9.052   1.823 -31.868  1.00  0.00     0.097 C 
HETATM   20  C   UNL     1      -8.793   0.315 -31.733  1.00  0.00     0.053 C 
BRANCH  19  21
HETATM   21  C   UNL     1     -10.027   2.085 -33.022  1.00  0.00    -0.023 A 
HETATM   22  C   UNL     1      -9.961   3.278 -33.771  1.00  0.00     0.013 A 
HETATM   23  C   UNL     1     -10.852   3.517 -34.820  1.00  0.00     0.043 A 
HETATM   24  C   UNL     1     -11.814   2.568 -35.134  1.00  0.00     0.116 A 
HETATM   25  F   UNL     1     -12.666   2.799 -36.142  1.00  0.00    -0.206 F 
HETATM   26  C   UNL     1     -11.903   1.382 -34.420  1.00  0.00     0.043 A 
HETATM   27  C   UNL     1     -11.011   1.143 -33.371  1.00  0.00     0.013 A 
ENDBRANCH  19  21
BRANCH  19  28
HETATM   28  O   UNL     1      -9.662   2.214 -30.628  1.00  0.00    -0.384 OA
HETATM   29  H   UNL     1     -10.205   3.015 -30.781  1.00  0.00     0.211 HD
ENDBRANCH  19  28
ENDBRANCH  18  19
ENDBRANCH   1  18
TORSDOF 6
ENDMDL
MODEL 2
REMARK VINA RESULT:      -8.6      4.923      7.362
REMARK  6 active torsions:
REMARK  status: ('A' for Active; 'I' for Inactive)
REMARK    1  A    between atoms: C_2  and  C_4 
REMARK    2  A    between atoms: C_2  and  C_11 
REMARK    3  A    between atoms: C_2  and  O_3 
REMARK    4  A    between atoms: C_11  and  N_12 
REMARK       I    between atoms: N_12  and  C_13 
REMARK    5  A    between atoms: C_13  and  C_14 
REMARK    6  A    between atoms: C_15  and  C_16 
ROOT
HETATM    1  N   UNL     1      -3.827   3.285 -32.450  1.00  0.00    -0.354 N 
HETATM    2  C   UNL     1      -3.913   2.241 -31.557  1.00  0.00     0.255 C 
HETATM    3  O   UNL     1      -2.914   1.644 -31.164  1.00  0.00    -0.268 OA
HETATM    4  H   UNL     1      -4.678   3.579 -32.913  1.00  0.00     0.162 HD
ENDROOT
BRANCH   2   5
HETATM    5  C   UNL     1      -5.264   1.895 -31.161  1.00  0.00     0.080 A 
HETATM    6  C   UNL     1      -6.088   0.807 -31.596  1.00  0.00     0.104 A 
HETATM    7  N   UNL     1      -7.257   0.804 -30.927  1.00  0.00    -0.174 NA
HETATM    8  N   UNL     1      -7.190   1.857 -30.109  1.00  0.00    -0.288 N 
HETATM    9  H   UNL     1      -7.979   2.036 -29.496  1.00  0.00     0.188 HD
HETATM   10  C   UNL     1      -6.030   2.557 -30.217  1.00  0.00     0.128 A 
BRANCH   6  11
HETATM   11  C   UNL     1      -5.840  -0.204 -32.629  1.00  0.00    -0.004 A 
HETATM   12  C   UNL     1      -4.753  -1.085 -32.500  1.00  0.00     0.017 A 
HETATM   13  C   UNL     1      -4.518  -2.075 -33.458  1.00  0.00     0.043 A 
HETATM   14  C   UNL     1      -5.372  -2.189 -34.546  1.00  0.00     0.116 A 
HETATM   15  F   UNL     1      -5.151  -3.141 -35.463  1.00  0.00    -0.206 F 
HETATM   16  C   UNL     1      -6.458  -1.336 -34.693  1.00  0.00     0.043 A 
HETATM   17  C   UNL     1      -6.696  -0.348 -33.732  1.00  0.00     0.017 A 
ENDBRANCH   6  11
ENDBRANCH   2   5
BRANCH   1  18
HETATM   18  C   UNL     1      -2.555   3.686 -33.037  1.00  0.00     0.165 C 
BRANCH  18  19
HETATM   19  C   UNL     1      -2.398   5.225 -33.250  1.00  0.00     0.097 C 
HETATM   20  C   UNL     1      -1.808   5.483 -34.645  1.00  0.00     0.053 C 
BRANCH  19  21
HETATM   21  C   UNL     1      -1.508   5.866 -32.179  1.00  0.00    -0.023 A 
HETATM   22  C   UNL     1      -1.868   7.087 -31.572  1.00  0.00     0.013 A 
HETATM   23  C   UNL     1      -1.054   7.672 -30.598  1.00  0.00     0.043 A 
HETATM   24  C   UNL     1       0.124   7.044 -30.219  1.00  0.00     0.116 A 
HETATM   25  F   UNL     1       0.901   7.607 -29.284  1.00  0.00    -0.206 F 
HETATM   26  C   UNL     1       0.505   5.840 -30.794  1.00  0.00     0.043 A 
HETATM   27  C   UNL     1      -0.309   5.254 -31.766  1.00  0.00     0.013 A 
ENDBRANCH  19  21
BRANCH  19  28
HETATM   28  O   UNL     1      -3.680   5.872 -33.257  1.00  0.00    -0.384 OA
HETATM   29  H   UNL     1      -4.139   5.655 -34.096  1.00  0.00     0.211 HD
ENDBRANCH  19  28
ENDBRANCH  18  19
ENDBRANCH   1  18
TORSDOF 6
ENDMDL
MODEL 3
REMARK VINA RESULT:      -8.5      5.380      8.209
REMARK  6 active torsions:
REMARK  status: ('A' for Active; 'I' for Inactive)
REMARK    1  A    between atoms: C_2  and  C_4 
REMARK    2  A    between atoms: C_2  and  C_11 
REMARK    3  A    between atoms: C_2  and  O_3 
REMARK    4  A    between atoms: C_11  and  N_12 
REMARK       I    between atoms: N_12  and  C_13 
REMARK    5  A    between atoms: C_13  and  C_14 
REMARK    6  A    between atoms: C_15  and  C_16 
ROOT
HETATM    1  N   UNL     1      -3.244   2.862 -32.717  1.00  0.00    -0.354 N 
HETATM    2  C   UNL     1      -3.249   4.121 -32.158  1.00  0.00     0.255 C 
HETATM    3  O   UNL     1      -3.766   4.340 -31.066  1.00  0.00    -0.268 OA
HETATM    4  H   UNL     1      -3.021   2.785 -33.701  1.00  0.00     0.162 HD
ENDROOT
BRANCH   2   5
HETATM    5  C   UNL     1      -2.635   5.146 -32.978  1.00  0.00     0.080 A 
HETATM    6  C   UNL     1      -1.543   6.022 -32.671  1.00  0.00     0.104 A 
HETATM    7  N   UNL     1      -1.234   6.782 -33.739  1.00  0.00    -0.174 NA
HETATM    8  N   UNL     1      -2.102   6.419 -34.686  1.00  0.00    -0.288 N 
HETATM    9  H   UNL     1      -2.037   6.870 -35.593  1.00  0.00     0.188 HD
HETATM   10  C   UNL     1      -2.975   5.457 -34.284  1.00  0.00     0.128 A 
BRANCH   6  11
HETATM   11  C   UNL     1      -0.806   6.199 -31.416  1.00  0.00    -0.004 A 
HETATM   12  C   UNL     1      -0.968   7.379 -30.668  1.00  0.00     0.017 A 
HETATM   13  C   UNL     1      -0.298   7.553 -29.454  1.00  0.00     0.043 A 
HETATM   14  C   UNL     1       0.534   6.547 -28.983  1.00  0.00     0.116 A 
HETATM   15  F   UNL     1       1.174   6.710 -27.817  1.00  0.00    -0.206 F 
HETATM   16  C   UNL     1       0.706   5.368 -29.699  1.00  0.00     0.043 A 
HETATM   17  C   UNL     1       0.032   5.192 -30.911  1.00  0.00     0.017 A 
ENDBRANCH   6  11
ENDBRANCH   2   5
BRANCH   1  18
HETATM   18  C   UNL     1      -3.920   1.740 -32.078  1.00  0.00     0.165 C 
BRANCH  18  19
HETATM   19  C   UNL     1      -5.348   1.445 -32.635  1.00  0.00     0.097 C 
HETATM   20  C   UNL     1      -6.360   1.504 -31.480  1.00  0.00     0.053 C 
BRANCH  19  21
HETATM   21  C   UNL     1      -5.425   0.080 -33.329  1.00  0.00    -0.023 A 
HETATM   22  C   UNL     1      -6.561  -0.290 -34.078  1.00  0.00     0.013 A 
HETATM   23  C   UNL     1      -6.631  -1.535 -34.707  1.00  0.00     0.043 A 
HETATM   24  C   UNL     1      -5.569  -2.422 -34.597  1.00  0.00     0.116 A 
HETATM   25  F   UNL     1      -5.639  -3.614 -35.204  1.00  0.00    -0.206 F 
HETATM   26  C   UNL     1      -4.436  -2.087 -33.871  1.00  0.00     0.043 A 
HETATM   27  C   UNL     1      -4.365  -0.841 -33.243  1.00  0.00     0.013 A 
ENDBRANCH  19  21
BRANCH  19  28
HETATM   28  O   UNL     1      -5.761   2.472 -33.550  1.00  0.00    -0.384 OA
HETATM   29  H   UNL     1      -6.737   2.552 -33.516  1.00  0.00     0.211 HD
ENDBRANCH  19  28
ENDBRANCH  18  19
ENDBRANCH   1  18
TORSDOF 6
ENDMDL
MODEL 4
REMARK VINA RESULT:      -8.5      3.224      5.402
REMARK  6 active torsions:
REMARK  status: ('A' for Active; 'I' for Inactive)
REMARK    1  A    between atoms: C_2  and  C_4 
REMARK    2  A    between atoms: C_2  and  C_11 
REMARK    3  A    between atoms: C_2  and  O_3 
REMARK    4  A    between atoms: C_11  and  N_12 
REMARK       I    between atoms: N_12  and  C_13 
REMARK    5  A    between atoms: C_13  and  C_14 
REMARK    6  A    between atoms: C_15  and  C_16 
ROOT
HETATM    1  N   UNL     1      -4.694  -0.385 -31.618  1.00  0.00    -0.354 N 
HETATM    2  C   UNL     1      -4.032  -0.740 -32.773  1.00  0.00     0.255 C 
HETATM    3  O   UNL     1      -2.982  -0.198 -33.106  1.00  0.00    -0.268 OA
HETATM    4  H   UNL     1      -5.654  -0.688 -31.516  1.00  0.00     0.162 HD
ENDROOT
BRANCH   2   5
HETATM    5  C   UNL     1      -4.694  -1.763 -33.558  1.00  0.00     0.080 A 
HETATM    6  C   UNL     1      -5.970  -1.725 -34.209  1.00  0.00     0.104 A 
HETATM    7  N   UNL     1      -6.183  -2.863 -34.896  1.00  0.00    -0.174 NA
HETATM    8  N   UNL     1      -5.094  -3.606 -34.681  1.00  0.00    -0.288 N 
HETATM    9  H   UNL     1      -5.043  -4.518 -35.124  1.00  0.00     0.188 HD
HETATM   10  C   UNL     1      -4.178  -3.008 -33.875  1.00  0.00     0.128 A 
BRANCH   6  11
HETATM   11  C   UNL     1      -7.005  -0.686 -34.185  1.00  0.00    -0.004 A 
HETATM   12  C   UNL     1      -8.162  -0.868 -33.406  1.00  0.00     0.017 A 
HETATM   13  C   UNL     1      -9.145   0.123 -33.346  1.00  0.00     0.043 A 
HETATM   14  C   UNL     1      -8.974   1.300 -34.062  1.00  0.00     0.116 A 
HETATM   15  F   UNL     1      -9.914   2.253 -34.003  1.00  0.00    -0.206 F 
HETATM   16  C   UNL     1      -7.837   1.507 -34.834  1.00  0.00     0.043 A 
HETATM   17  C   UNL     1      -6.851   0.518 -34.890  1.00  0.00     0.017 A 
ENDBRANCH   6  11
ENDBRANCH   2   5
BRANCH   1  18
HETATM   18  C   UNL     1      -4.226   0.706 -30.773  1.00  0.00     0.165 C 
BRANCH  18  19
HETATM   19  C   UNL     1      -5.085   2.006 -30.863  1.00  0.00     0.097 C 
HETATM   20  C   UNL     1      -6.549   1.624 -31.132  1.00  0.00     0.053 C 
BRANCH  19  21
HETATM   21  C   UNL     1      -4.583   2.954 -31.959  1.00  0.00    -0.023 A 
HETATM   22  C   UNL     1      -3.210   3.241 -32.095  1.00  0.00     0.013 A 
HETATM   23  C   UNL     1      -2.752   4.108 -33.092  1.00  0.00     0.043 A 
HETATM   24  C   UNL     1      -3.661   4.692 -33.963  1.00  0.00     0.116 A 
HETATM   25  F   UNL     1      -3.220   5.521 -34.919  1.00  0.00    -0.206 F 
HETATM   26  C   UNL     1      -5.018   4.427 -33.859  1.00  0.00     0.043 A 
HETATM   27  C   UNL     1      -5.475   3.560 -32.863  1.00  0.00     0.013 A 
ENDBRANCH  19  21
BRANCH  19  28
HETATM   28  O   UNL     1      -5.101   2.696 -29.604  1.00  0.00    -0.384 OA
HETATM   29  H   UNL     1      -6.021   2.970 -29.405  1.00  0.00     0.211 HD
ENDBRANCH  19  28
ENDBRANCH  18  19
ENDBRANCH   1  18
TORSDOF 6
ENDMDL
MODEL 5
REMARK VINA RESULT:      -8.5      3.671      7.029
REMARK  6 active torsions:
REMARK  status: ('A' for Active; 'I' for Inactive)
REMARK    1  A    between atoms: C_2  and  C_4 
REMARK    2  A    between atoms: C_2  and  C_11 
REMARK    3  A    between atoms: C_2  and  O_3 
REMARK    4  A    between atoms: C_11  and  N_12 
REMARK       I    between atoms: N_12  and  C_13 
REMARK    5  A    between atoms: C_13  and  C_14 
REMARK    6  A    between atoms: C_15  and  C_16 
ROOT
HETATM    1  N   UNL     1      -6.276   1.702 -32.242  1.00  0.00    -0.354 N 
HETATM    2  C   UNL     1      -5.494   2.396 -31.346  1.00  0.00     0.255 C 
HETATM    3  O   UNL     1      -4.624   1.840 -30.683  1.00  0.00    -0.268 OA
HETATM    4  H   UNL     1      -7.118   2.152 -32.578  1.00  0.00     0.162 HD
ENDROOT
BRANCH   2   5
HETATM    5  C   UNL     1      -5.812   3.807 -31.235  1.00  0.00     0.080 A 
HETATM    6  C   UNL     1      -5.226   4.926 -31.910  1.00  0.00     0.104 A 
HETATM    7  N   UNL     1      -5.862   6.065 -31.574  1.00  0.00    -0.174 NA
HETATM    8  N   UNL     1      -6.806   5.691 -30.708  1.00  0.00    -0.288 N 
HETATM    9  H   UNL     1      -7.419   6.407 -30.331  1.00  0.00     0.188 HD
HETATM   10  C   UNL     1      -6.814   4.356 -30.453  1.00  0.00     0.128 A 
BRANCH   6  11
HETATM   11  C   UNL     1      -4.080   4.977 -32.824  1.00  0.00    -0.004 A 
HETATM   12  C   UNL     1      -4.283   5.260 -34.186  1.00  0.00     0.017 A 
HETATM   13  C   UNL     1      -3.202   5.343 -35.067  1.00  0.00     0.043 A 
HETATM   14  C   UNL     1      -1.914   5.147 -34.588  1.00  0.00     0.116 A 
HETATM   15  F   UNL     1      -0.875   5.230 -35.431  1.00  0.00    -0.206 F 
HETATM   16  C   UNL     1      -1.685   4.874 -33.245  1.00  0.00     0.043 A 
HETATM   17  C   UNL     1      -2.766   4.795 -32.363  1.00  0.00     0.017 A 
ENDBRANCH   6  11
ENDBRANCH   2   5
BRANCH   1  18
HETATM   18  C   UNL     1      -6.166   0.257 -32.392  1.00  0.00     0.165 C 
BRANCH  18  19
HETATM   19  C   UNL     1      -6.764  -0.302 -33.722  1.00  0.00     0.097 C 
HETATM   20  C   UNL     1      -8.296  -0.328 -33.613  1.00  0.00     0.053 C 
BRANCH  19  21
HETATM   21  C   UNL     1      -6.238  -1.705 -34.045  1.00  0.00    -0.023 A 
HETATM   22  C   UNL     1      -4.881  -2.034 -33.854  1.00  0.00     0.013 A 
HETATM   23  C   UNL     1      -4.403  -3.313 -34.152  1.00  0.00     0.043 A 
HETATM   24  C   UNL     1      -5.274  -4.275 -34.640  1.00  0.00     0.116 A 
HETATM   25  F   UNL     1      -4.813  -5.501 -34.923  1.00  0.00    -0.206 F 
HETATM   26  C   UNL     1      -6.617  -3.986 -34.836  1.00  0.00     0.043 A 
HETATM   27  C   UNL     1      -7.095  -2.708 -34.537  1.00  0.00     0.013 A 
ENDBRANCH  19  21
BRANCH  19  28
HETATM   28  O   UNL     1      -6.479   0.581 -34.819  1.00  0.00    -0.384 OA
HETATM   29  H   UNL     1      -7.012   1.397 -34.715  1.00  0.00     0.211 HD
ENDBRANCH  19  28
ENDBRANCH  18  19
ENDBRANCH   1  18
TORSDOF 6
ENDMDL
MODEL 6
REMARK VINA RESULT:      -8.3      4.498      6.936
REMARK  6 active torsions:
REMARK  status: ('A' for Active; 'I' for Inactive)
REMARK    1  A    between atoms: C_2  and  C_4 
REMARK    2  A    between atoms: C_2  and  C_11 
REMARK    3  A    between atoms: C_2  and  O_3 
REMARK    4  A    between atoms: C_11  and  N_12 
REMARK       I    between atoms: N_12  and  C_13 
REMARK    5  A    between atoms: C_13  and  C_14 
REMARK    6  A    between atoms: C_15  and  C_16 
ROOT
HETATM    1  N   UNL     1      -5.460   3.037 -32.038  1.00  0.00    -0.354 N 
HETATM    2  C   UNL     1      -6.597   2.939 -32.808  1.00  0.00     0.255 C 
HETATM    3  O   UNL     1      -6.719   3.559 -33.861  1.00  0.00    -0.268 OA
HETATM    4  H   UNL     1      -5.508   2.700 -31.085  1.00  0.00     0.162 HD
ENDROOT
BRANCH   2   5
HETATM    5  C   UNL     1      -7.629   2.084 -32.254  1.00  0.00     0.080 A 
HETATM    6  C   UNL     1      -7.728   0.655 -32.267  1.00  0.00     0.104 A 
HETATM    7  N   UNL     1      -8.812   0.251 -31.576  1.00  0.00    -0.174 NA
HETATM    8  N   UNL     1      -9.391   1.377 -31.152  1.00  0.00    -0.288 N 
HETATM    9  H   UNL     1     -10.234   1.299 -30.592  1.00  0.00     0.188 HD
HETATM   10  C   UNL     1      -8.739   2.504 -31.541  1.00  0.00     0.128 A 
BRANCH   6  11
HETATM   11  C   UNL     1      -6.874  -0.340 -32.924  1.00  0.00    -0.004 A 
HETATM   12  C   UNL     1      -7.337  -1.015 -34.067  1.00  0.00     0.017 A 
HETATM   13  C   UNL     1      -6.527  -1.943 -34.726  1.00  0.00     0.043 A 
HETATM   14  C   UNL     1      -5.250  -2.197 -34.246  1.00  0.00     0.116 A 
HETATM   15  F   UNL     1      -4.469  -3.084 -34.878  1.00  0.00    -0.206 F 
HETATM   16  C   UNL     1      -4.765  -1.538 -33.122  1.00  0.00     0.043 A 
HETATM   17  C   UNL     1      -5.574  -0.605 -32.466  1.00  0.00     0.017 A 
ENDBRANCH   6  11
ENDBRANCH   2   5
BRANCH   1  18
HETATM   18  C   UNL     1      -4.374   3.942 -32.391  1.00  0.00     0.165 C 
BRANCH  18  19
HETATM   19  C   UNL     1      -4.184   5.138 -31.405  1.00  0.00     0.097 C 
HETATM   20  C   UNL     1      -5.158   6.264 -31.787  1.00  0.00     0.053 C 
BRANCH  19  21
HETATM   21  C   UNL     1      -2.745   5.667 -31.412  1.00  0.00    -0.023 A 
HETATM   22  C   UNL     1      -2.460   7.001 -31.056  1.00  0.00     0.013 A 
HETATM   23  C   UNL     1      -1.149   7.483 -31.065  1.00  0.00     0.043 A 
HETATM   24  C   UNL     1      -0.109   6.638 -31.428  1.00  0.00     0.116 A 
HETATM   25  F   UNL     1       1.147   7.102 -31.435  1.00  0.00    -0.206 F 
HETATM   26  C   UNL     1      -0.355   5.319 -31.780  1.00  0.00     0.043 A 
HETATM   27  C   UNL     1      -1.666   4.837 -31.769  1.00  0.00     0.013 A 
ENDBRANCH  19  21
BRANCH  19  28
HETATM   28  O   UNL     1      -4.549   4.761 -30.069  1.00  0.00    -0.384 OA
HETATM   29  H   UNL     1      -4.868   5.556 -29.592  1.00  0.00     0.211 HD
ENDBRANCH  19  28
ENDBRANCH  18  19
ENDBRANCH   1  18
TORSDOF 6
ENDMDL
MODEL 7
REMARK VINA RESULT:      -8.3      3.877      6.090
REMARK  6 active torsions:
REMARK  status: ('A' for Active; 'I' for Inactive)
REMARK    1  A    between atoms: C_2  and  C_4 
REMARK    2  A    between atoms: C_2  and  C_11 
REMARK    3  A    between atoms: C_2  and  O_3 
REMARK    4  A    between atoms: C_11  and  N_12 
REMARK       I    between atoms: N_12  and  C_13 
REMARK    5  A    between atoms: C_13  and  C_14 
REMARK    6  A    between atoms: C_15  and  C_16 
ROOT
HETATM    1  N   UNL     1      -6.015   2.746 -31.365  1.00  0.00    -0.354 N 
HETATM    2  C   UNL     1      -6.638   1.637 -30.837  1.00  0.00     0.255 C 
HETATM    3  O   UNL     1      -6.213   1.076 -29.831  1.00  0.00    -0.268 OA
HETATM    4  H   UNL     1      -6.261   3.019 -32.307  1.00  0.00     0.162 HD
ENDROOT
BRANCH   2   5
HETATM    5  C   UNL     1      -7.794   1.183 -31.584  1.00  0.00     0.080 A 
HETATM    6  C   UNL     1      -7.895   0.128 -32.549  1.00  0.00     0.104 A 
HETATM    7  N   UNL     1      -9.171  -0.017 -32.957  1.00  0.00    -0.174 NA
HETATM    8  N   UNL     1      -9.855   0.918 -32.293  1.00  0.00    -0.288 N 
HETATM    9  H   UNL     1     -10.856   0.977 -32.448  1.00  0.00     0.188 HD
HETATM   10  C   UNL     1      -9.083   1.676 -31.470  1.00  0.00     0.128 A 
BRANCH   6  11
HETATM   11  C   UNL     1      -6.848  -0.721 -33.125  1.00  0.00    -0.004 A 
HETATM   12  C   UNL     1      -5.561  -0.727 -32.558  1.00  0.00     0.017 A 
HETATM   13  C   UNL     1      -4.558  -1.553 -33.072  1.00  0.00     0.043 A 
HETATM   14  C   UNL     1      -4.839  -2.377 -34.153  1.00  0.00     0.116 A 
HETATM   15  F   UNL     1      -3.879  -3.173 -34.645  1.00  0.00    -0.206 F 
HETATM   16  C   UNL     1      -6.105  -2.396 -34.726  1.00  0.00     0.043 A 
HETATM   17  C   UNL     1      -7.110  -1.574 -34.209  1.00  0.00     0.017 A 
ENDBRANCH   6  11
ENDBRANCH   2   5
BRANCH   1  18
HETATM   18  C   UNL     1      -4.774   3.265 -30.804  1.00  0.00     0.165 C 
BRANCH  18  19
HETATM   19  C   UNL     1      -4.495   4.766 -31.131  1.00  0.00     0.097 C 
HETATM   20  C   UNL     1      -5.820   5.459 -31.482  1.00  0.00     0.053 C 
BRANCH  19  21
HETATM   21  C   UNL     1      -3.498   4.928 -32.285  1.00  0.00    -0.023 A 
HETATM   22  C   UNL     1      -2.108   4.908 -32.052  1.00  0.00     0.013 A 
HETATM   23  C   UNL     1      -1.201   5.059 -33.104  1.00  0.00     0.043 A 
HETATM   24  C   UNL     1      -1.672   5.228 -34.398  1.00  0.00     0.116 A 
HETATM   25  F   UNL     1      -0.800   5.371 -35.405  1.00  0.00    -0.206 F 
HETATM   26  C   UNL     1      -3.034   5.248 -34.663  1.00  0.00     0.043 A 
HETATM   27  C   UNL     1      -3.941   5.096 -33.611  1.00  0.00     0.013 A 
ENDBRANCH  19  21
BRANCH  19  28
HETATM   28  O   UNL     1      -4.003   5.458 -29.973  1.00  0.00    -0.384 OA
HETATM   29  H   UNL     1      -3.372   4.875 -29.501  1.00  0.00     0.211 HD
ENDBRANCH  19  28
ENDBRANCH  18  19
ENDBRANCH   1  18
TORSDOF 6
ENDMDL
MODEL 8
REMARK VINA RESULT:      -8.2      4.288      6.551
REMARK  6 active torsions:
REMARK  status: ('A' for Active; 'I' for Inactive)
REMARK    1  A    between atoms: C_2  and  C_4 
REMARK    2  A    between atoms: C_2  and  C_11 
REMARK    3  A    between atoms: C_2  and  O_3 
REMARK    4  A    between atoms: C_11  and  N_12 
REMARK       I    between atoms: N_12  and  C_13 
REMARK    5  A    between atoms: C_13  and  C_14 
REMARK    6  A    between atoms: C_15  and  C_16 
ROOT
HETATM    1  N   UNL     1      -5.218   2.241 -32.696  1.00  0.00    -0.354 N 
HETATM    2  C   UNL     1      -6.074   1.190 -32.453  1.00  0.00     0.255 C 
HETATM    3  O   UNL     1      -6.056   0.574 -31.391  1.00  0.00    -0.268 OA
HETATM    4  H   UNL     1      -5.115   2.551 -33.653  1.00  0.00     0.162 HD
ENDROOT
BRANCH   2   5
HETATM    5  C   UNL     1      -6.954   0.862 -33.558  1.00  0.00     0.080 A 
HETATM    6  C   UNL     1      -7.035  -0.345 -34.327  1.00  0.00     0.104 A 
HETATM    7  N   UNL     1      -8.041  -0.268 -35.220  1.00  0.00    -0.174 NA
HETATM    8  N   UNL     1      -8.570   0.945 -35.041  1.00  0.00    -0.288 N 
HETATM    9  H   UNL     1      -9.363   1.209 -35.617  1.00  0.00     0.188 HD
HETATM   10  C   UNL     1      -7.952   1.671 -34.073  1.00  0.00     0.128 A 
BRANCH   6  11
HETATM   11  C   UNL     1      -6.194  -1.545 -34.283  1.00  0.00    -0.004 A 
HETATM   12  C   UNL     1      -6.698  -2.771 -34.753  1.00  0.00     0.017 A 
HETATM   13  C   UNL     1      -5.902  -3.919 -34.748  1.00  0.00     0.043 A 
HETATM   14  C   UNL     1      -4.599  -3.845 -34.276  1.00  0.00     0.116 A 
HETATM   15  F   UNL     1      -3.832  -4.944 -34.274  1.00  0.00    -0.206 F 
HETATM   16  C   UNL     1      -4.074  -2.644 -33.813  1.00  0.00     0.043 A 
HETATM   17  C   UNL     1      -4.869  -1.494 -33.823  1.00  0.00     0.017 A 
ENDBRANCH   6  11
ENDBRANCH   2   5
BRANCH   1  18
HETATM   18  C   UNL     1      -4.192   2.627 -31.736  1.00  0.00     0.165 C 
BRANCH  18  19
HETATM   19  C   UNL     1      -4.346   4.076 -31.175  1.00  0.00     0.097 C 
HETATM   20  C   UNL     1      -5.511   4.773 -31.894  1.00  0.00     0.053 C 
BRANCH  19  21
HETATM   21  C   UNL     1      -3.062   4.898 -31.341  1.00  0.00    -0.023 A 
HETATM   22  C   UNL     1      -2.882   6.111 -30.646  1.00  0.00     0.013 A 
HETATM   23  C   UNL     1      -1.713   6.860 -30.801  1.00  0.00     0.043 A 
HETATM   24  C   UNL     1      -0.713   6.405 -31.648  1.00  0.00     0.116 A 
HETATM   25  F   UNL     1       0.408   7.125 -31.793  1.00  0.00    -0.206 F 
HETATM   26  C   UNL     1      -0.857   5.214 -32.344  1.00  0.00     0.043 A 
HETATM   27  C   UNL     1      -2.025   4.464 -32.188  1.00  0.00     0.013 A 
ENDBRANCH  19  21
BRANCH  19  28
HETATM   28  O   UNL     1      -4.722   4.050 -29.789  1.00  0.00    -0.384 OA
HETATM   29  H   UNL     1      -4.495   4.913 -29.383  1.00  0.00     0.211 HD
ENDBRANCH  19  28
ENDBRANCH  18  19
ENDBRANCH   1  18
TORSDOF 6
ENDMDL
MODEL 9
REMARK VINA RESULT:      -8.1      2.770      4.444
REMARK  6 active torsions:
REMARK  status: ('A' for Active; 'I' for Inactive)
REMARK    1  A    between atoms: C_2  and  C_4 
REMARK    2  A    between atoms: C_2  and  C_11 
REMARK    3  A    between atoms: C_2  and  O_3 
REMARK    4  A    between atoms: C_11  and  N_12 
REMARK       I    between atoms: N_12  and  C_13 
REMARK    5  A    between atoms: C_13  and  C_14 
REMARK    6  A    between atoms: C_15  and  C_16 
ROOT
HETATM    1  N   UNL     1      -3.482   1.288 -32.004  1.00  0.00    -0.354 N 
HETATM    2  C   UNL     1      -4.167   0.253 -31.406  1.00  0.00     0.255 C 
HETATM    3  O   UNL     1      -4.661   0.366 -30.288  1.00  0.00    -0.268 OA
HETATM    4  H   UNL     1      -2.904   1.068 -32.805  1.00  0.00     0.162 HD
ENDROOT
BRANCH   2   5
HETATM    5  C   UNL     1      -4.216  -0.968 -32.187  1.00  0.00     0.080 A 
HETATM    6  C   UNL     1      -5.176  -1.381 -33.167  1.00  0.00     0.104 A 
HETATM    7  N   UNL     1      -4.816  -2.558 -33.713  1.00  0.00    -0.174 NA
HETATM    8  N   UNL     1      -3.680  -2.893 -33.096  1.00  0.00    -0.288 N 
HETATM    9  H   UNL     1      -3.224  -3.757 -33.370  1.00  0.00     0.188 HD
HETATM   10  C   UNL     1      -3.281  -1.989 -32.163  1.00  0.00     0.128 A 
BRANCH   6  11
HETATM   11  C   UNL     1      -6.426  -0.739 -33.586  1.00  0.00    -0.004 A 
HETATM   12  C   UNL     1      -7.437  -0.491 -32.641  1.00  0.00     0.017 A 
HETATM   13  C   UNL     1      -8.622   0.148 -33.014  1.00  0.00     0.043 A 
HETATM   14  C   UNL     1      -8.799   0.543 -34.333  1.00  0.00     0.116 A 
HETATM   15  F   UNL     1      -9.934   1.160 -34.691  1.00  0.00    -0.206 F 
HETATM   16  C   UNL     1      -7.813   0.316 -35.285  1.00  0.00     0.043 A 
HETATM   17  C   UNL     1      -6.625  -0.318 -34.911  1.00  0.00     0.017 A 
ENDBRANCH   6  11
ENDBRANCH   2   5
BRANCH   1  18
HETATM   18  C   UNL     1      -3.240   2.545 -31.309  1.00  0.00     0.165 C 
BRANCH  18  19
HETATM   19  C   UNL     1      -3.759   3.810 -32.064  1.00  0.00     0.097 C 
HETATM   20  C   UNL     1      -3.405   5.063 -31.248  1.00  0.00     0.053 C 
BRANCH  19  21
HETATM   21  C   UNL     1      -5.272   3.755 -32.308  1.00  0.00    -0.023 A 
HETATM   22  C   UNL     1      -5.800   3.850 -33.611  1.00  0.00     0.013 A 
HETATM   23  C   UNL     1      -7.179   3.803 -33.833  1.00  0.00     0.043 A 
HETATM   24  C   UNL     1      -8.042   3.657 -32.757  1.00  0.00     0.116 A 
HETATM   25  F   UNL     1      -9.364   3.610 -32.972  1.00  0.00    -0.206 F 
HETATM   26  C   UNL     1      -7.555   3.556 -31.462  1.00  0.00     0.043 A 
HETATM   27  C   UNL     1      -6.176   3.602 -31.241  1.00  0.00     0.013 A 
ENDBRANCH  19  21
BRANCH  19  28
HETATM   28  O   UNL     1      -3.077   3.972 -33.317  1.00  0.00    -0.384 OA
HETATM   29  H   UNL     1      -2.123   3.786 -33.184  1.00  0.00     0.211 HD
ENDBRANCH  19  28
ENDBRANCH  18  19
ENDBRANCH   1  18
TORSDOF 6
ENDMDL
MODEL 10
REMARK VINA RESULT:      -8.1      1.300      1.790
REMARK  6 active torsions:
REMARK  status: ('A' for Active; 'I' for Inactive)
REMARK    1  A    between atoms: C_2  and  C_4 
REMARK    2  A    between atoms: C_2  and  C_11 
REMARK    3  A    between atoms: C_2  and  O_3 
REMARK    4  A    between atoms: C_11  and  N_12 
REMARK       I    between atoms: N_12  and  C_13 
REMARK    5  A    between atoms: C_13  and  C_14 
REMARK    6  A    between atoms: C_15  and  C_16 
ROOT
HETATM    1  N   UNL     1      -5.284   2.440 -31.951  1.00  0.00    -0.354 N 
HETATM    2  C   UNL     1      -5.123   1.323 -32.741  1.00  0.00     0.255 C 
HETATM    3  O   UNL     1      -5.766   1.166 -33.775  1.00  0.00    -0.268 OA
HETATM    4  H   UNL     1      -4.914   2.407 -31.010  1.00  0.00     0.162 HD
ENDROOT
BRANCH   2   5
HETATM    5  C   UNL     1      -4.173   0.354 -32.229  1.00  0.00     0.080 A 
HETATM    6  C   UNL     1      -4.035  -1.037 -32.543  1.00  0.00     0.104 A 
HETATM    7  N   UNL     1      -2.976  -1.563 -31.899  1.00  0.00    -0.174 NA
HETATM    8  N   UNL     1      -2.466  -0.553 -31.189  1.00  0.00    -0.288 N 
HETATM    9  H   UNL     1      -1.640  -0.733 -30.627  1.00  0.00     0.188 HD
HETATM   10  C   UNL     1      -3.150   0.613 -31.333  1.00  0.00     0.128 A 
BRANCH   6  11
HETATM   11  C   UNL     1      -4.869  -1.895 -33.390  1.00  0.00    -0.004 A 
HETATM   12  C   UNL     1      -4.293  -2.989 -34.061  1.00  0.00     0.017 A 
HETATM   13  C   UNL     1      -5.077  -3.837 -34.848  1.00  0.00     0.043 A 
HETATM   14  C   UNL     1      -6.439  -3.596 -34.964  1.00  0.00     0.116 A 
HETATM   15  F   UNL     1      -7.193  -4.411 -35.715  1.00  0.00    -0.206 F 
HETATM   16  C   UNL     1      -7.034  -2.527 -34.305  1.00  0.00     0.043 A 
HETATM   17  C   UNL     1      -6.251  -1.681 -33.514  1.00  0.00     0.017 A 
ENDBRANCH   6  11
ENDBRANCH   2   5
BRANCH   1  18
HETATM   18  C   UNL     1      -6.282   3.456 -32.260  1.00  0.00     0.165 C 
BRANCH  18  19
HETATM   19  C   UNL     1      -7.573   3.379 -31.385  1.00  0.00     0.097 C 
HETATM   20  C   UNL     1      -7.203   2.864 -29.986  1.00  0.00     0.053 C 
BRANCH  19  21
HETATM   21  C   UNL     1      -8.640   2.472 -32.011  1.00  0.00    -0.023 A 
HETATM   22  C   UNL     1      -9.669   3.009 -32.810  1.00  0.00     0.013 A 
HETATM   23  C   UNL     1     -10.643   2.182 -33.378  1.00  0.00     0.043 A 
HETATM   24  C   UNL     1     -10.596   0.813 -33.155  1.00  0.00     0.116 A 
HETATM   25  F   UNL     1     -11.529   0.022 -33.702  1.00  0.00    -0.206 F 
HETATM   26  C   UNL     1      -9.593   0.253 -32.377  1.00  0.00     0.043 A 
HETATM   27  C   UNL     1      -8.619   1.079 -31.811  1.00  0.00     0.013 A 
ENDBRANCH  19  21
BRANCH  19  28
HETATM   28  O   UNL     1      -8.123   4.688 -31.171  1.00  0.00    -0.384 OA
HETATM   29  H   UNL     1      -8.453   5.036 -32.026  1.00  0.00     0.211 HD
ENDBRANCH  19  28
ENDBRANCH  18  19
ENDBRANCH   1  18
TORSDOF 6
ENDMDL
