MODEL 1
REMARK VINA RESULT:      -9.8      0.000      0.000
REMARK  8 active torsions:
REMARK  status: ('A' for Active; 'I' for Inactive)
REMARK       I    between atoms: N_2  and  C_3 
REMARK    1  A    between atoms: N_2  and  C_29 
REMARK    2  A    between atoms: C_3  and  C_4 
REMARK    3  A    between atoms: C_7  and  C_8 
REMARK       I    between atoms: C_8  and  N_9 
REMARK    4  A    between atoms: N_9  and  C_10 
REMARK    5  A    between atoms: N_20  and  C_21 
REMARK    6  A    between atoms: C_21  and  C_22 
REMARK    7  A    between atoms: C_29  and  C_30 
REMARK    8  A    between atoms: C_30  and  C_31 
ROOT
HETATM    1  C   UNL     1      -5.023   2.090 -31.865  1.00  0.00     0.098 C 
HETATM    2  C   UNL     1      -6.430   2.113 -31.398  1.00  0.00     0.206 C 
HETATM    3  O   UNL     1      -6.807   1.425 -30.452  1.00  0.00    -0.286 OA
HETATM    4  C   UNL     1      -7.382   3.009 -32.122  1.00  0.00     0.098 C 
HETATM    5  C   UNL     1      -6.838   3.943 -32.922  1.00  0.00     0.111 C 
HETATM    6  N   UNL     1      -5.473   4.091 -33.150  1.00  0.00    -0.362 N 
HETATM    7  C   UNL     1      -4.629   3.108 -32.647  1.00  0.00     0.111 C 
ENDROOT
BRANCH   1   8
HETATM    8  C   UNL     1      -3.992   1.096 -31.488  1.00  0.00     0.258 C 
HETATM    9  N   UNL     1      -4.170  -0.239 -31.839  1.00  0.00    -0.352 N 
HETATM   10  C   UNL     1      -3.065  -1.159 -31.609  1.00  0.00     0.152 C 
HETATM   11  O   UNL     1      -2.944   1.510 -30.984  1.00  0.00    -0.267 OA
BRANCH   9  12
HETATM   12  C   UNL     1      -5.391  -0.852 -32.389  1.00  0.00     0.131 C 
BRANCH  12  13
HETATM   13  C   UNL     1      -5.372  -1.022 -33.910  1.00  0.00     0.079 C 
BRANCH  13  14
HETATM   14  C   UNL     1      -5.474  -2.481 -34.283  1.00  0.00     0.035 A 
HETATM   15  N   UNL     1      -4.368  -3.241 -34.093  1.00  0.00    -0.266 NA
HETATM   16  C   UNL     1      -4.448  -4.553 -34.412  1.00  0.00     0.117 A 
HETATM   17  C   UNL     1      -5.582  -5.151 -34.928  1.00  0.00     0.019 A 
HETATM   18  C   UNL     1      -6.703  -4.357 -35.134  1.00  0.00     0.003 A 
HETATM   19  C   UNL     1      -6.653  -3.003 -34.808  1.00  0.00     0.027 A 
ENDBRANCH  13  14
ENDBRANCH  12  13
ENDBRANCH   9  12
ENDBRANCH   1   8
BRANCH   4  20
HETATM   20  C   UNL     1      -8.867   2.911 -32.013  1.00  0.00     0.257 C 
HETATM   21  N   UNL     1      -9.504   2.574 -33.181  1.00  0.00    -0.352 N 
HETATM   22  H   UNL     1      -8.924   2.328 -33.983  1.00  0.00     0.163 HD
HETATM   23  O   UNL     1      -9.452   3.159 -30.965  1.00  0.00    -0.267 OA
BRANCH  21  24
HETATM   24  C   UNL     1     -10.954   2.521 -33.383  1.00  0.00     0.084 C 
HETATM   25  C   UNL     1     -11.556   3.930 -33.400  1.00  0.00     0.025 C 
HETATM   26  C   UNL     1     -13.081   4.040 -33.335  1.00  0.00     0.002 C 
HETATM   27  C   UNL     1     -13.764   3.119 -32.320  1.00  0.00     0.000 C 
HETATM   28  C   UNL     1     -14.425   1.879 -32.925  1.00  0.00     0.000 C 
HETATM   29  C   UNL     1     -13.501   0.813 -33.519  1.00  0.00     0.000 C 
HETATM   30  C   UNL     1     -12.763   1.244 -34.786  1.00  0.00     0.002 C 
HETATM   31  C   UNL     1     -11.298   1.636 -34.588  1.00  0.00     0.025 C 
ENDBRANCH  21  24
ENDBRANCH   4  20
BRANCH   6  32
HETATM   32  C   UNL     1      -4.938   5.263 -33.882  1.00  0.00     0.159 C 
BRANCH  32  33
HETATM   33  C   UNL     1      -3.435   5.500 -33.689  1.00  0.00     0.139 C 
HETATM   34  O   UNL     1      -3.144   6.833 -33.226  1.00  0.00    -0.384 OA
HETATM   35  C   UNL     1      -1.871   7.223 -33.765  1.00  0.00     0.168 C 
HETATM   36  C   UNL     1      -1.298   6.014 -34.480  1.00  0.00     0.029 C 
HETATM   37  C   UNL     1      -2.545   5.277 -34.899  1.00  0.00     0.035 C 
ENDBRANCH  32  33
ENDBRANCH   6  32
TORSDOF 8
ENDMDL
MODEL 2
REMARK VINA RESULT:      -9.3      1.881      6.323
REMARK  8 active torsions:
REMARK  status: ('A' for Active; 'I' for Inactive)
REMARK       I    between atoms: N_2  and  C_3 
REMARK    1  A    between atoms: N_2  and  C_29 
REMARK    2  A    between atoms: C_3  and  C_4 
REMARK    3  A    between atoms: C_7  and  C_8 
REMARK       I    between atoms: C_8  and  N_9 
REMARK    4  A    between atoms: N_9  and  C_10 
REMARK    5  A    between atoms: N_20  and  C_21 
REMARK    6  A    between atoms: C_21  and  C_22 
REMARK    7  A    between atoms: C_29  and  C_30 
REMARK    8  A    between atoms: C_30  and  C_31 
ROOT
HETATM    1  C   UNL     1      -6.268   2.444 -31.547  1.00  0.00     0.098 C 
HETATM    2  C   UNL     1      -7.695   2.495 -31.945  1.00  0.00     0.206 C 
HETATM    3  O   UNL     1      -8.394   3.480 -31.714  1.00  0.00    -0.286 OA
HETATM    4  C   UNL     1      -8.259   1.301 -32.643  1.00  0.00     0.098 C 
HETATM    5  C   UNL     1      -7.373   0.414 -33.130  1.00  0.00     0.111 C 
HETATM    6  N   UNL     1      -5.992   0.515 -32.982  1.00  0.00    -0.362 N 
HETATM    7  C   UNL     1      -5.508   1.507 -32.138  1.00  0.00     0.111 C 
ENDROOT
BRANCH   1   8
HETATM    8  C   UNL     1      -5.583   3.375 -30.620  1.00  0.00     0.258 C 
HETATM    9  N   UNL     1      -5.308   4.673 -31.038  1.00  0.00    -0.352 N 
HETATM   10  C   UNL     1      -4.793   5.613 -30.052  1.00  0.00     0.152 C 
HETATM   11  O   UNL     1      -5.395   3.003 -29.458  1.00  0.00    -0.267 OA
BRANCH   9  12
HETATM   12  C   UNL     1      -5.438   5.208 -32.404  1.00  0.00     0.131 C 
BRANCH  12  13
HETATM   13  C   UNL     1      -4.672   6.511 -32.639  1.00  0.00     0.079 C 
BRANCH  13  14
HETATM   14  C   UNL     1      -3.375   6.242 -33.362  1.00  0.00     0.035 A 
HETATM   15  N   UNL     1      -2.329   7.053 -33.068  1.00  0.00    -0.266 NA
HETATM   16  C   UNL     1      -1.157   6.817 -33.699  1.00  0.00     0.117 A 
HETATM   17  C   UNL     1      -0.974   5.811 -34.630  1.00  0.00     0.019 A 
HETATM   18  C   UNL     1      -2.058   4.998 -34.935  1.00  0.00     0.003 A 
HETATM   19  C   UNL     1      -3.278   5.213 -34.295  1.00  0.00     0.027 A 
ENDBRANCH  13  14
ENDBRANCH  12  13
ENDBRANCH   9  12
ENDBRANCH   1   8
BRANCH   4  20
HETATM   20  C   UNL     1      -9.720   1.045 -32.810  1.00  0.00     0.257 C 
HETATM   21  N   UNL     1     -10.459   2.152 -33.147  1.00  0.00    -0.352 N 
HETATM   22  H   UNL     1      -9.952   3.016 -33.349  1.00  0.00     0.163 HD
HETATM   23  O   UNL     1     -10.206  -0.063 -32.613  1.00  0.00    -0.267 OA
BRANCH  21  24
HETATM   24  C   UNL     1     -11.918   2.208 -33.262  1.00  0.00     0.084 C 
HETATM   25  C   UNL     1     -12.435   3.620 -32.963  1.00  0.00     0.025 C 
HETATM   26  C   UNL     1     -13.945   3.787 -32.778  1.00  0.00     0.002 C 
HETATM   27  C   UNL     1     -14.625   2.715 -31.923  1.00  0.00     0.000 C 
HETATM   28  C   UNL     1     -15.391   1.653 -32.716  1.00  0.00     0.000 C 
HETATM   29  C   UNL     1     -14.565   0.684 -33.566  1.00  0.00     0.000 C 
HETATM   30  C   UNL     1     -13.872   1.324 -34.769  1.00  0.00     0.002 C 
HETATM   31  C   UNL     1     -12.377   1.599 -34.592  1.00  0.00     0.025 C 
ENDBRANCH  21  24
ENDBRANCH   4  20
BRANCH   6  32
HETATM   32  C   UNL     1      -5.074  -0.389 -33.713  1.00  0.00     0.159 C 
BRANCH  32  33
HETATM   33  C   UNL     1      -5.519  -1.857 -33.743  1.00  0.00     0.139 C 
HETATM   34  O   UNL     1      -4.404  -2.770 -33.718  1.00  0.00    -0.384 OA
HETATM   35  C   UNL     1      -4.770  -3.939 -34.467  1.00  0.00     0.168 C 
HETATM   36  C   UNL     1      -6.229  -3.786 -34.852  1.00  0.00     0.029 C 
HETATM   37  C   UNL     1      -6.382  -2.287 -34.917  1.00  0.00     0.035 C 
ENDBRANCH  32  33
ENDBRANCH   6  32
TORSDOF 8
ENDMDL
MODEL 3
REMARK VINA RESULT:      -9.2      1.418      2.121
REMARK  8 active torsions:
REMARK  status: ('A' for Active; 'I' for Inactive)
REMARK       I    between atoms: N_2  and  C_3 
REMARK    1  A    between atoms: N_2  and  C_29 
REMARK    2  A    between atoms: C_3  and  C_4 
REMARK    3  A    between atoms: C_7  and  C_8 
REMARK       I    between atoms: C_8  and  N_9 
REMARK    4  A    between atoms: N_9  and  C_10 
REMARK    5  A    between atoms: N_20  and  C_21 
REMARK    6  A    between atoms: C_21  and  C_22 
REMARK    7  A    between atoms: C_29  and  C_30 
REMARK    8  A    between atoms: C_30  and  C_31 
ROOT
HETATM    1  C   UNL     1      -4.151   2.033 -32.140  1.00  0.00     0.098 C 
HETATM    2  C   UNL     1      -5.604   2.325 -32.154  1.00  0.00     0.206 C 
HETATM    3  O   UNL     1      -6.400   1.670 -31.483  1.00  0.00    -0.286 OA
HETATM    4  C   UNL     1      -6.074   3.450 -33.016  1.00  0.00     0.098 C 
HETATM    5  C   UNL     1      -5.131   4.300 -33.462  1.00  0.00     0.111 C 
HETATM    6  N   UNL     1      -3.767   4.167 -33.215  1.00  0.00    -0.362 N 
HETATM    7  C   UNL     1      -3.337   2.994 -32.606  1.00  0.00     0.111 C 
ENDROOT
BRANCH   1   8
HETATM    8  C   UNL     1      -3.507   0.817 -31.590  1.00  0.00     0.258 C 
HETATM    9  N   UNL     1      -3.416  -0.323 -32.381  1.00  0.00    -0.352 N 
HETATM   10  C   UNL     1      -2.629  -1.441 -31.880  1.00  0.00     0.152 C 
HETATM   11  O   UNL     1      -2.956   0.901 -30.489  1.00  0.00    -0.267 OA
BRANCH   9  12
HETATM   12  C   UNL     1      -4.076  -0.554 -33.677  1.00  0.00     0.131 C 
BRANCH  12  13
HETATM   13  C   UNL     1      -5.513  -1.066 -33.563  1.00  0.00     0.079 C 
BRANCH  13  14
HETATM   14  C   UNL     1      -5.621  -2.474 -34.095  1.00  0.00     0.035 A 
HETATM   15  N   UNL     1      -4.498  -3.231 -34.057  1.00  0.00    -0.266 NA
HETATM   16  C   UNL     1      -4.582  -4.499 -34.520  1.00  0.00     0.117 A 
HETATM   17  C   UNL     1      -5.738  -5.054 -35.036  1.00  0.00     0.019 A 
HETATM   18  C   UNL     1      -6.878  -4.261 -35.086  1.00  0.00     0.003 A 
HETATM   19  C   UNL     1      -6.824  -2.953 -34.609  1.00  0.00     0.027 A 
ENDBRANCH  13  14
ENDBRANCH  12  13
ENDBRANCH   9  12
ENDBRANCH   1   8
BRANCH   4  20
HETATM   20  C   UNL     1      -7.498   3.665 -33.406  1.00  0.00     0.257 C 
HETATM   21  N   UNL     1      -8.372   2.725 -32.918  1.00  0.00    -0.352 N 
HETATM   22  H   UNL     1      -8.005   2.032 -32.265  1.00  0.00     0.163 HD
HETATM   23  O   UNL     1      -7.831   4.587 -34.142  1.00  0.00    -0.267 OA
BRANCH  21  24
HETATM   24  C   UNL     1      -9.798   2.632 -33.237  1.00  0.00     0.084 C 
HETATM   25  C   UNL     1     -10.285   1.182 -33.142  1.00  0.00     0.025 C 
HETATM   26  C   UNL     1     -11.677   0.873 -33.699  1.00  0.00     0.002 C 
HETATM   27  C   UNL     1     -12.002   1.518 -35.049  1.00  0.00     0.000 C 
HETATM   28  C   UNL     1     -12.905   2.751 -34.969  1.00  0.00     0.000 C 
HETATM   29  C   UNL     1     -12.317   4.008 -34.324  1.00  0.00     0.000 C 
HETATM   30  C   UNL     1     -12.058   3.892 -32.822  1.00  0.00     0.002 C 
HETATM   31  C   UNL     1     -10.600   3.658 -32.426  1.00  0.00     0.025 C 
ENDBRANCH  21  24
ENDBRANCH   4  20
BRANCH   6  32
HETATM   32  C   UNL     1      -2.814   5.245 -33.568  1.00  0.00     0.159 C 
BRANCH  32  33
HETATM   33  C   UNL     1      -1.867   5.651 -32.431  1.00  0.00     0.139 C 
HETATM   34  O   UNL     1      -2.575   6.058 -31.244  1.00  0.00    -0.384 OA
HETATM   35  C   UNL     1      -1.793   7.064 -30.583  1.00  0.00     0.168 C 
HETATM   36  C   UNL     1      -0.480   7.177 -31.333  1.00  0.00     0.029 C 
HETATM   37  C   UNL     1      -0.880   6.766 -32.729  1.00  0.00     0.035 C 
ENDBRANCH  32  33
ENDBRANCH   6  32
TORSDOF 8
ENDMDL
MODEL 4
REMARK VINA RESULT:      -9.1      2.668      8.684
REMARK  8 active torsions:
REMARK  status: ('A' for Active; 'I' for Inactive)
REMARK       I    between atoms: N_2  and  C_3 
REMARK    1  A    between atoms: N_2  and  C_29 
REMARK    2  A    between atoms: C_3  and  C_4 
REMARK    3  A    between atoms: C_7  and  C_8 
REMARK       I    between atoms: C_8  and  N_9 
REMARK    4  A    between atoms: N_9  and  C_10 
REMARK    5  A    between atoms: N_20  and  C_21 
REMARK    6  A    between atoms: C_21  and  C_22 
REMARK    7  A    between atoms: C_29  and  C_30 
REMARK    8  A    between atoms: C_30  and  C_31 
ROOT
HETATM    1  C   UNL     1      -9.275   3.258 -34.187  1.00  0.00     0.098 C 
HETATM    2  C   UNL     1      -8.130   4.136 -33.850  1.00  0.00     0.206 C 
HETATM    3  O   UNL     1      -8.285   5.328 -33.593  1.00  0.00    -0.286 OA
HETATM    4  C   UNL     1      -6.769   3.519 -33.832  1.00  0.00     0.098 C 
HETATM    5  C   UNL     1      -6.719   2.175 -33.813  1.00  0.00     0.111 C 
HETATM    6  N   UNL     1      -7.833   1.342 -33.858  1.00  0.00    -0.362 N 
HETATM    7  C   UNL     1      -9.067   1.933 -34.103  1.00  0.00     0.111 C 
ENDROOT
BRANCH   1   8
HETATM    8  C   UNL     1     -10.647   3.700 -34.529  1.00  0.00     0.258 C 
HETATM    9  N   UNL     1     -11.597   3.819 -33.519  1.00  0.00    -0.352 N 
HETATM   10  C   UNL     1     -12.881   4.418 -33.856  1.00  0.00     0.152 C 
HETATM   11  O   UNL     1     -10.865   4.072 -35.686  1.00  0.00    -0.267 OA
BRANCH   9  12
HETATM   12  C   UNL     1     -11.467   3.359 -32.126  1.00  0.00     0.131 C 
BRANCH  12  13
HETATM   13  C   UNL     1     -11.147   4.474 -31.129  1.00  0.00     0.079 C 
BRANCH  13  14
HETATM   14  C   UNL     1      -9.732   4.345 -30.622  1.00  0.00     0.035 A 
HETATM   15  N   UNL     1      -9.186   3.104 -30.636  1.00  0.00    -0.266 NA
HETATM   16  C   UNL     1      -7.914   2.974 -30.196  1.00  0.00     0.117 A 
HETATM   17  C   UNL     1      -7.152   4.027 -29.726  1.00  0.00     0.019 A 
HETATM   18  C   UNL     1      -7.729   5.291 -29.701  1.00  0.00     0.003 A 
HETATM   19  C   UNL     1      -9.036   5.457 -30.154  1.00  0.00     0.027 A 
ENDBRANCH  13  14
ENDBRANCH  12  13
ENDBRANCH   9  12
ENDBRANCH   1   8
BRANCH   4  20
HETATM   20  C   UNL     1      -5.498   4.300 -33.847  1.00  0.00     0.257 C 
HETATM   21  N   UNL     1      -4.883   4.414 -32.625  1.00  0.00    -0.352 N 
HETATM   22  H   UNL     1      -5.279   3.887 -31.846  1.00  0.00     0.163 HD
HETATM   23  O   UNL     1      -5.080   4.828 -34.872  1.00  0.00    -0.267 OA
BRANCH  21  24
HETATM   24  C   UNL     1      -3.692   5.216 -32.335  1.00  0.00     0.084 C 
HETATM   25  C   UNL     1      -3.743   5.772 -30.908  1.00  0.00     0.025 C 
HETATM   26  C   UNL     1      -2.712   6.841 -30.537  1.00  0.00     0.002 C 
HETATM   27  C   UNL     1      -2.489   7.931 -31.588  1.00  0.00     0.000 C 
HETATM   28  C   UNL     1      -1.214   7.769 -32.419  1.00  0.00     0.000 C 
HETATM   29  C   UNL     1      -1.158   6.589 -33.392  1.00  0.00     0.000 C 
HETATM   30  C   UNL     1      -1.100   5.215 -32.724  1.00  0.00     0.002 C 
HETATM   31  C   UNL     1      -2.419   4.442 -32.703  1.00  0.00     0.025 C 
ENDBRANCH  21  24
ENDBRANCH   4  20
BRANCH   6  32
HETATM   32  C   UNL     1      -7.711  -0.117 -33.633  1.00  0.00     0.159 C 
BRANCH  32  33
HETATM   33  C   UNL     1      -6.389  -0.726 -34.119  1.00  0.00     0.139 C 
HETATM   34  O   UNL     1      -6.591  -1.878 -34.960  1.00  0.00    -0.384 OA
HETATM   35  C   UNL     1      -5.490  -2.777 -34.754  1.00  0.00     0.168 C 
HETATM   36  C   UNL     1      -4.502  -2.075 -33.843  1.00  0.00     0.029 C 
HETATM   37  C   UNL     1      -5.401  -1.159 -33.050  1.00  0.00     0.035 C 
ENDBRANCH  32  33
ENDBRANCH   6  32
TORSDOF 8
ENDMDL
MODEL 5
REMARK VINA RESULT:      -9.1      2.285      8.574
REMARK  8 active torsions:
REMARK  status: ('A' for Active; 'I' for Inactive)
REMARK       I    between atoms: N_2  and  C_3 
REMARK    1  A    between atoms: N_2  and  C_29 
REMARK    2  A    between atoms: C_3  and  C_4 
REMARK    3  A    between atoms: C_7  and  C_8 
REMARK       I    between atoms: C_8  and  N_9 
REMARK    4  A    between atoms: N_9  and  C_10 
REMARK    5  A    between atoms: N_20  and  C_21 
REMARK    6  A    between atoms: C_21  and  C_22 
REMARK    7  A    between atoms: C_29  and  C_30 
REMARK    8  A    between atoms: C_30  and  C_31 
ROOT
HETATM    1  C   UNL     1      -8.551   0.414 -33.064  1.00  0.00     0.098 C 
HETATM    2  C   UNL     1      -7.732   1.215 -32.124  1.00  0.00     0.206 C 
HETATM    3  O   UNL     1      -8.213   1.702 -31.103  1.00  0.00    -0.286 OA
HETATM    4  C   UNL     1      -6.290   1.413 -32.462  1.00  0.00     0.098 C 
HETATM    5  C   UNL     1      -5.778   0.605 -33.408  1.00  0.00     0.111 C 
HETATM    6  N   UNL     1      -6.507  -0.350 -34.111  1.00  0.00    -0.362 N 
HETATM    7  C   UNL     1      -7.886  -0.358 -33.940  1.00  0.00     0.111 C 
ENDROOT
BRANCH   1   8
HETATM    8  C   UNL     1     -10.030   0.321 -33.078  1.00  0.00     0.258 C 
HETATM    9  N   UNL     1     -10.765   1.270 -33.782  1.00  0.00    -0.352 N 
HETATM   10  C   UNL     1     -12.199   1.056 -33.921  1.00  0.00     0.152 C 
HETATM   11  O   UNL     1     -10.553  -0.674 -32.568  1.00  0.00    -0.267 OA
BRANCH   9  12
HETATM   12  C   UNL     1     -10.258   2.517 -34.378  1.00  0.00     0.131 C 
BRANCH  12  13
HETATM   13  C   UNL     1     -10.868   3.787 -33.782  1.00  0.00     0.079 C 
BRANCH  13  14
HETATM   14  C   UNL     1     -10.038   4.282 -32.623  1.00  0.00     0.035 A 
HETATM   15  N   UNL     1     -10.625   4.274 -31.401  1.00  0.00    -0.266 NA
HETATM   16  C   UNL     1      -9.889   4.704 -30.351  1.00  0.00     0.117 A 
HETATM   17  C   UNL     1      -8.589   5.159 -30.457  1.00  0.00     0.019 A 
HETATM   18  C   UNL     1      -8.005   5.178 -31.719  1.00  0.00     0.003 A 
HETATM   19  C   UNL     1      -8.736   4.734 -32.819  1.00  0.00     0.027 A 
ENDBRANCH  13  14
ENDBRANCH  12  13
ENDBRANCH   9  12
ENDBRANCH   1   8
BRANCH   4  20
HETATM   20  C   UNL     1      -5.419   2.444 -31.827  1.00  0.00     0.257 C 
HETATM   21  N   UNL     1      -4.837   3.322 -32.709  1.00  0.00    -0.352 N 
HETATM   22  H   UNL     1      -5.118   3.264 -33.688  1.00  0.00     0.163 HD
HETATM   23  O   UNL     1      -5.216   2.459 -30.618  1.00  0.00    -0.267 OA
BRANCH  21  24
HETATM   24  C   UNL     1      -3.855   4.354 -32.370  1.00  0.00     0.084 C 
HETATM   25  C   UNL     1      -2.568   4.171 -33.182  1.00  0.00     0.025 C 
HETATM   26  C   UNL     1      -1.351   4.998 -32.761  1.00  0.00     0.002 C 
HETATM   27  C   UNL     1      -1.093   5.066 -31.254  1.00  0.00     0.000 C 
HETATM   28  C   UNL     1      -1.528   6.374 -30.588  1.00  0.00     0.000 C 
HETATM   29  C   UNL     1      -3.031   6.653 -30.509  1.00  0.00     0.000 C 
HETATM   30  C   UNL     1      -3.701   6.920 -31.857  1.00  0.00     0.002 C 
HETATM   31  C   UNL     1      -4.493   5.748 -32.438  1.00  0.00     0.025 C 
ENDBRANCH  21  24
ENDBRANCH   4  20
BRANCH   6  32
HETATM   32  C   UNL     1      -5.835  -1.335 -34.990  1.00  0.00     0.159 C 
BRANCH  32  33
HETATM   33  C   UNL     1      -5.581  -2.700 -34.336  1.00  0.00     0.139 C 
HETATM   34  O   UNL     1      -4.211  -2.862 -33.918  1.00  0.00    -0.384 OA
HETATM   35  C   UNL     1      -3.870  -4.252 -34.041  1.00  0.00     0.168 C 
HETATM   36  C   UNL     1      -5.137  -4.991 -34.425  1.00  0.00     0.029 C 
HETATM   37  C   UNL     1      -5.910  -3.928 -35.166  1.00  0.00     0.035 C 
ENDBRANCH  32  33
ENDBRANCH   6  32
TORSDOF 8
ENDMDL
MODEL 6
REMARK VINA RESULT:      -9.0      2.272      7.208
REMARK  8 active torsions:
REMARK  status: ('A' for Active; 'I' for Inactive)
REMARK       I    between atoms: N_2  and  C_3 
REMARK    1  A    between atoms: N_2  and  C_29 
REMARK    2  A    between atoms: C_3  and  C_4 
REMARK    3  A    between atoms: C_7  and  C_8 
REMARK       I    between atoms: C_8  and  N_9 
REMARK    4  A    between atoms: N_9  and  C_10 
REMARK    5  A    between atoms: N_20  and  C_21 
REMARK    6  A    between atoms: C_21  and  C_22 
REMARK    7  A    between atoms: C_29  and  C_30 
REMARK    8  A    between atoms: C_30  and  C_31 
ROOT
HETATM    1  C   UNL     1      -8.148   4.196 -33.912  1.00  0.00     0.098 C 
HETATM    2  C   UNL     1      -7.822   2.752 -33.977  1.00  0.00     0.206 C 
HETATM    3  O   UNL     1      -8.551   1.951 -34.559  1.00  0.00    -0.286 OA
HETATM    4  C   UNL     1      -6.566   2.297 -33.307  1.00  0.00     0.098 C 
HETATM    5  C   UNL     1      -5.682   3.255 -32.974  1.00  0.00     0.111 C 
HETATM    6  N   UNL     1      -5.885   4.619 -33.166  1.00  0.00    -0.362 N 
HETATM    7  C   UNL     1      -7.147   5.027 -33.578  1.00  0.00     0.111 C 
ENDROOT
BRANCH   1   8
HETATM    8  C   UNL     1      -9.449   4.816 -34.256  1.00  0.00     0.258 C 
HETATM    9  N   UNL     1     -10.524   4.671 -33.385  1.00  0.00    -0.352 N 
HETATM   10  C   UNL     1     -11.735   5.432 -33.662  1.00  0.00     0.152 C 
HETATM   11  O   UNL     1      -9.497   5.553 -35.245  1.00  0.00    -0.267 OA
BRANCH   9  12
HETATM   12  C   UNL     1     -10.599   3.782 -32.214  1.00  0.00     0.131 C 
BRANCH  12  13
HETATM   13  C   UNL     1     -10.475   4.507 -30.872  1.00  0.00     0.079 C 
BRANCH  13  14
HETATM   14  C   UNL     1      -9.040   4.519 -30.405  1.00  0.00     0.035 A 
HETATM   15  N   UNL     1      -8.464   5.732 -30.224  1.00  0.00    -0.266 NA
HETATM   16  C   UNL     1      -7.182   5.759 -29.794  1.00  0.00     0.117 A 
HETATM   17  C   UNL     1      -6.431   4.626 -29.544  1.00  0.00     0.019 A 
HETATM   18  C   UNL     1      -7.028   3.388 -29.750  1.00  0.00     0.003 A 
HETATM   19  C   UNL     1      -8.350   3.329 -30.186  1.00  0.00     0.027 A 
ENDBRANCH  13  14
ENDBRANCH  12  13
ENDBRANCH   9  12
ENDBRANCH   1   8
BRANCH   4  20
HETATM   20  C   UNL     1      -6.259   0.872 -32.988  1.00  0.00     0.257 C 
HETATM   21  N   UNL     1      -5.946   0.098 -34.077  1.00  0.00    -0.352 N 
HETATM   22  H   UNL     1      -5.853   0.565 -34.980  1.00  0.00     0.163 HD
HETATM   23  O   UNL     1      -6.332   0.440 -31.843  1.00  0.00    -0.267 OA
BRANCH  21  24
HETATM   24  C   UNL     1      -5.716  -1.349 -34.064  1.00  0.00     0.084 C 
HETATM   25  C   UNL     1      -4.644  -1.722 -33.034  1.00  0.00     0.025 C 
HETATM   26  C   UNL     1      -4.097  -3.151 -33.079  1.00  0.00     0.002 C 
HETATM   27  C   UNL     1      -3.786  -3.691 -34.477  1.00  0.00     0.000 C 
HETATM   28  C   UNL     1      -4.833  -4.656 -35.039  1.00  0.00     0.000 C 
HETATM   29  C   UNL     1      -6.205  -4.074 -35.389  1.00  0.00     0.000 C 
HETATM   30  C   UNL     1      -7.028  -3.615 -34.187  1.00  0.00     0.002 C 
HETATM   31  C   UNL     1      -7.045  -2.105 -33.944  1.00  0.00     0.025 C 
ENDBRANCH  21  24
ENDBRANCH   4  20
BRANCH   6  32
HETATM   32  C   UNL     1      -4.790   5.594 -32.958  1.00  0.00     0.159 C 
BRANCH  32  33
HETATM   33  C   UNL     1      -3.416   5.119 -33.447  1.00  0.00     0.139 C 
HETATM   34  O   UNL     1      -2.331   5.818 -32.805  1.00  0.00    -0.384 OA
HETATM   35  C   UNL     1      -1.248   5.914 -33.742  1.00  0.00     0.168 C 
HETATM   36  C   UNL     1      -1.643   5.115 -34.969  1.00  0.00     0.029 C 
HETATM   37  C   UNL     1      -3.148   5.218 -34.939  1.00  0.00     0.035 C 
ENDBRANCH  32  33
ENDBRANCH   6  32
TORSDOF 8
ENDMDL
MODEL 7
REMARK VINA RESULT:      -9.0      4.178      8.616
REMARK  8 active torsions:
REMARK  status: ('A' for Active; 'I' for Inactive)
REMARK       I    between atoms: N_2  and  C_3 
REMARK    1  A    between atoms: N_2  and  C_29 
REMARK    2  A    between atoms: C_3  and  C_4 
REMARK    3  A    between atoms: C_7  and  C_8 
REMARK       I    between atoms: C_8  and  N_9 
REMARK    4  A    between atoms: N_9  and  C_10 
REMARK    5  A    between atoms: N_20  and  C_21 
REMARK    6  A    between atoms: C_21  and  C_22 
REMARK    7  A    between atoms: C_29  and  C_30 
REMARK    8  A    between atoms: C_30  and  C_31 
ROOT
HETATM    1  C   UNL     1      -3.664   5.158 -31.753  1.00  0.00     0.098 C 
HETATM    2  C   UNL     1      -3.584   3.678 -31.781  1.00  0.00     0.206 C 
HETATM    3  O   UNL     1      -2.681   3.093 -32.376  1.00  0.00    -0.286 OA
HETATM    4  C   UNL     1      -4.645   2.916 -31.057  1.00  0.00     0.098 C 
HETATM    5  C   UNL     1      -5.399   3.612 -30.188  1.00  0.00     0.111 C 
HETATM    6  N   UNL     1      -5.285   4.981 -29.964  1.00  0.00    -0.362 N 
HETATM    7  C   UNL     1      -4.451   5.703 -30.810  1.00  0.00     0.111 C 
ENDROOT
BRANCH   1   8
HETATM    8  C   UNL     1      -2.901   6.094 -32.611  1.00  0.00     0.258 C 
HETATM    9  N   UNL     1      -1.591   6.417 -32.269  1.00  0.00    -0.352 N 
HETATM   10  C   UNL     1      -0.811   7.199 -33.219  1.00  0.00     0.152 C 
HETATM   11  O   UNL     1      -3.413   6.456 -33.673  1.00  0.00    -0.267 OA
BRANCH   9  12
HETATM   12  C   UNL     1      -0.900   6.090 -31.011  1.00  0.00     0.131 C 
BRANCH  12  13
HETATM   13  C   UNL     1       0.215   7.070 -30.639  1.00  0.00     0.079 C 
BRANCH  13  14
HETATM   14  C   UNL     1       0.383   7.141 -29.141  1.00  0.00     0.035 A 
HETATM   15  N   UNL     1      -0.202   6.161 -28.411  1.00  0.00    -0.266 NA
HETATM   16  C   UNL     1      -0.050   6.204 -27.068  1.00  0.00     0.117 A 
HETATM   17  C   UNL     1       0.652   7.194 -26.406  1.00  0.00     0.019 A 
HETATM   18  C   UNL     1       1.232   8.203 -27.165  1.00  0.00     0.003 A 
HETATM   19  C   UNL     1       1.098   8.181 -28.552  1.00  0.00     0.027 A 
ENDBRANCH  13  14
ENDBRANCH  12  13
ENDBRANCH   9  12
ENDBRANCH   1   8
BRANCH   4  20
HETATM   20  C   UNL     1      -4.910   1.461 -31.256  1.00  0.00     0.257 C 
HETATM   21  N   UNL     1      -4.836   1.040 -32.560  1.00  0.00    -0.352 N 
HETATM   22  H   UNL     1      -4.518   1.714 -33.258  1.00  0.00     0.163 HD
HETATM   23  O   UNL     1      -5.211   0.728 -30.320  1.00  0.00    -0.267 OA
BRANCH  21  24
HETATM   24  C   UNL     1      -5.160  -0.303 -33.049  1.00  0.00     0.084 C 
HETATM   25  C   UNL     1      -4.244  -1.352 -32.410  1.00  0.00     0.025 C 
HETATM   26  C   UNL     1      -4.271  -2.761 -33.006  1.00  0.00     0.002 C 
HETATM   27  C   UNL     1      -4.269  -2.827 -34.536  1.00  0.00     0.000 C 
HETATM   28  C   UNL     1      -5.631  -3.124 -35.167  1.00  0.00     0.000 C 
HETATM   29  C   UNL     1      -6.706  -2.041 -35.051  1.00  0.00     0.000 C 
HETATM   30  C   UNL     1      -7.226  -1.807 -33.633  1.00  0.00     0.002 C 
HETATM   31  C   UNL     1      -6.666  -0.571 -32.927  1.00  0.00     0.025 C 
ENDBRANCH  21  24
ENDBRANCH   4  20
BRANCH   6  32
HETATM   32  C   UNL     1      -6.009   5.641 -28.852  1.00  0.00     0.159 C 
BRANCH  32  33
HETATM   33  C   UNL     1      -5.102   6.195 -27.745  1.00  0.00     0.139 C 
HETATM   34  O   UNL     1      -5.788   7.131 -26.890  1.00  0.00    -0.384 OA
HETATM   35  C   UNL     1      -4.832   8.105 -26.442  1.00  0.00     0.168 C 
HETATM   36  C   UNL     1      -3.471   7.660 -26.941  1.00  0.00     0.029 C 
HETATM   37  C   UNL     1      -3.829   6.892 -28.189  1.00  0.00     0.035 C 
ENDBRANCH  32  33
ENDBRANCH   6  32
TORSDOF 8
ENDMDL
MODEL 8
REMARK VINA RESULT:      -9.0      2.193      6.303
REMARK  8 active torsions:
REMARK  status: ('A' for Active; 'I' for Inactive)
REMARK       I    between atoms: N_2  and  C_3 
REMARK    1  A    between atoms: N_2  and  C_29 
REMARK    2  A    between atoms: C_3  and  C_4 
REMARK    3  A    between atoms: C_7  and  C_8 
REMARK       I    between atoms: C_8  and  N_9 
REMARK    4  A    between atoms: N_9  and  C_10 
REMARK    5  A    between atoms: N_20  and  C_21 
REMARK    6  A    between atoms: C_21  and  C_22 
REMARK    7  A    between atoms: C_29  and  C_30 
REMARK    8  A    between atoms: C_30  and  C_31 
ROOT
HETATM    1  C   UNL     1      -5.683   2.645 -33.047  1.00  0.00     0.098 C 
HETATM    2  C   UNL     1      -7.148   2.611 -33.265  1.00  0.00     0.206 C 
HETATM    3  O   UNL     1      -7.801   3.641 -33.424  1.00  0.00    -0.286 OA
HETATM    4  C   UNL     1      -7.812   1.273 -33.285  1.00  0.00     0.098 C 
HETATM    5  C   UNL     1      -7.006   0.204 -33.417  1.00  0.00     0.111 C 
HETATM    6  N   UNL     1      -5.617   0.265 -33.485  1.00  0.00    -0.362 N 
HETATM    7  C   UNL     1      -5.017   1.494 -33.236  1.00  0.00     0.111 C 
ENDROOT
BRANCH   1   8
HETATM    8  C   UNL     1      -4.873   3.841 -32.719  1.00  0.00     0.258 C 
HETATM    9  N   UNL     1      -4.660   4.175 -31.385  1.00  0.00    -0.352 N 
HETATM   10  C   UNL     1      -3.722   5.250 -31.092  1.00  0.00     0.152 C 
HETATM   11  O   UNL     1      -4.306   4.430 -33.645  1.00  0.00    -0.267 OA
BRANCH   9  12
HETATM   12  C   UNL     1      -5.321   3.584 -30.210  1.00  0.00     0.131 C 
BRANCH  12  13
HETATM   13  C   UNL     1      -6.154   4.577 -29.397  1.00  0.00     0.079 C 
BRANCH  13  14
HETATM   14  C   UNL     1      -7.607   4.506 -29.797  1.00  0.00     0.035 A 
HETATM   15  N   UNL     1      -8.257   5.684 -29.958  1.00  0.00    -0.266 NA
HETATM   16  C   UNL     1      -9.557   5.637 -30.328  1.00  0.00     0.117 A 
HETATM   17  C   UNL     1     -10.255   4.462 -30.535  1.00  0.00     0.019 A 
HETATM   18  C   UNL     1      -9.582   3.261 -30.350  1.00  0.00     0.003 A 
HETATM   19  C   UNL     1      -8.239   3.278 -29.976  1.00  0.00     0.027 A 
ENDBRANCH  13  14
ENDBRANCH  12  13
ENDBRANCH   9  12
ENDBRANCH   1   8
BRANCH   4  20
HETATM   20  C   UNL     1      -9.285   1.069 -33.157  1.00  0.00     0.257 C 
HETATM   21  N   UNL     1     -10.050   2.036 -33.761  1.00  0.00    -0.352 N 
HETATM   22  H   UNL     1      -9.567   2.742 -34.318  1.00  0.00     0.163 HD
HETATM   23  O   UNL     1      -9.751   0.132 -32.520  1.00  0.00    -0.267 OA
BRANCH  21  24
HETATM   24  C   UNL     1     -11.509   2.143 -33.693  1.00  0.00     0.084 C 
HETATM   25  C   UNL     1     -11.944   3.607 -33.567  1.00  0.00     0.025 C 
HETATM   26  C   UNL     1     -13.411   3.874 -33.219  1.00  0.00     0.002 C 
HETATM   27  C   UNL     1     -13.996   2.987 -32.117  1.00  0.00     0.000 C 
HETATM   28  C   UNL     1     -14.889   1.849 -32.617  1.00  0.00     0.000 C 
HETATM   29  C   UNL     1     -14.211   0.718 -33.395  1.00  0.00     0.000 C 
HETATM   30  C   UNL     1     -13.671   1.122 -34.766  1.00  0.00     0.002 C 
HETATM   31  C   UNL     1     -12.160   1.350 -34.833  1.00  0.00     0.025 C 
ENDBRANCH  21  24
ENDBRANCH   4  20
BRANCH   6  32
HETATM   32  C   UNL     1      -4.811  -0.929 -33.830  1.00  0.00     0.159 C 
BRANCH  32  33
HETATM   33  C   UNL     1      -5.599  -2.246 -33.836  1.00  0.00     0.139 C 
HETATM   34  O   UNL     1      -4.738  -3.401 -33.824  1.00  0.00    -0.384 OA
HETATM   35  C   UNL     1      -5.393  -4.451 -34.553  1.00  0.00     0.168 C 
HETATM   36  C   UNL     1      -6.780  -3.951 -34.910  1.00  0.00     0.029 C 
HETATM   37  C   UNL     1      -6.566  -2.460 -34.987  1.00  0.00     0.035 C 
ENDBRANCH  32  33
ENDBRANCH   6  32
TORSDOF 8
ENDMDL
MODEL 9
REMARK VINA RESULT:      -8.8      2.245      8.227
REMARK  8 active torsions:
REMARK  status: ('A' for Active; 'I' for Inactive)
REMARK       I    between atoms: N_2  and  C_3 
REMARK    1  A    between atoms: N_2  and  C_29 
REMARK    2  A    between atoms: C_3  and  C_4 
REMARK    3  A    between atoms: C_7  and  C_8 
REMARK       I    between atoms: C_8  and  N_9 
REMARK    4  A    between atoms: N_9  and  C_10 
REMARK    5  A    between atoms: N_20  and  C_21 
REMARK    6  A    between atoms: C_21  and  C_22 
REMARK    7  A    between atoms: C_29  and  C_30 
REMARK    8  A    between atoms: C_30  and  C_31 
ROOT
HETATM    1  C   UNL     1      -7.220   3.297 -31.052  1.00  0.00     0.098 C 
HETATM    2  C   UNL     1      -6.713   2.028 -31.627  1.00  0.00     0.206 C 
HETATM    3  O   UNL     1      -5.724   1.462 -31.166  1.00  0.00    -0.286 OA
HETATM    4  C   UNL     1      -7.451   1.455 -32.793  1.00  0.00     0.098 C 
HETATM    5  C   UNL     1      -8.677   1.953 -33.031  1.00  0.00     0.111 C 
HETATM    6  N   UNL     1      -9.268   2.982 -32.304  1.00  0.00    -0.362 N 
HETATM    7  C   UNL     1      -8.476   3.648 -31.376  1.00  0.00     0.111 C 
ENDROOT
BRANCH   1   8
HETATM    8  C   UNL     1      -6.505   4.173 -30.095  1.00  0.00     0.258 C 
HETATM    9  N   UNL     1      -5.412   4.914 -30.535  1.00  0.00    -0.352 N 
HETATM   10  C   UNL     1      -4.838   5.892 -29.622  1.00  0.00     0.152 C 
HETATM   11  O   UNL     1      -6.986   4.314 -28.967  1.00  0.00    -0.267 OA
BRANCH   9  12
HETATM   12  C   UNL     1      -4.724   4.789 -31.831  1.00  0.00     0.131 C 
BRANCH  12  13
HETATM   13  C   UNL     1      -3.424   3.985 -31.772  1.00  0.00     0.079 C 
BRANCH  13  14
HETATM   14  C   UNL     1      -2.229   4.905 -31.770  1.00  0.00     0.035 A 
HETATM   15  N   UNL     1      -1.120   4.469 -31.123  1.00  0.00    -0.266 NA
HETATM   16  C   UNL     1      -0.036   5.278 -31.123  1.00  0.00     0.117 A 
HETATM   17  C   UNL     1      -0.003   6.519 -31.730  1.00  0.00     0.019 A 
HETATM   18  C   UNL     1      -1.152   6.962 -32.375  1.00  0.00     0.003 A 
HETATM   19  C   UNL     1      -2.282   6.147 -32.398  1.00  0.00     0.027 A 
ENDBRANCH  13  14
ENDBRANCH  12  13
ENDBRANCH   9  12
ENDBRANCH   1   8
BRANCH   4  20
HETATM   20  C   UNL     1      -6.902   0.395 -33.688  1.00  0.00     0.257 C 
HETATM   21  N   UNL     1      -6.623  -0.794 -33.061  1.00  0.00    -0.352 N 
HETATM   22  H   UNL     1      -6.898  -0.889 -32.083  1.00  0.00     0.163 HD
HETATM   23  O   UNL     1      -6.683   0.607 -34.876  1.00  0.00    -0.267 OA
BRANCH  21  24
HETATM   24  C   UNL     1      -5.976  -1.956 -33.674  1.00  0.00     0.084 C 
HETATM   25  C   UNL     1      -6.741  -2.412 -34.922  1.00  0.00     0.025 C 
HETATM   26  C   UNL     1      -6.353  -3.765 -35.524  1.00  0.00     0.002 C 
HETATM   27  C   UNL     1      -6.139  -4.897 -34.515  1.00  0.00     0.000 C 
HETATM   28  C   UNL     1      -4.674  -5.223 -34.220  1.00  0.00     0.000 C 
HETATM   29  C   UNL     1      -3.862  -4.171 -33.460  1.00  0.00     0.000 C 
HETATM   30  C   UNL     1      -3.592  -2.887 -34.244  1.00  0.00     0.002 C 
HETATM   31  C   UNL     1      -4.477  -1.696 -33.871  1.00  0.00     0.025 C 
ENDBRANCH  21  24
ENDBRANCH   4  20
BRANCH   6  32
HETATM   32  C   UNL     1     -10.693   3.340 -32.496  1.00  0.00     0.159 C 
BRANCH  32  33
HETATM   33  C   UNL     1     -11.423   2.493 -33.547  1.00  0.00     0.139 C 
HETATM   34  O   UNL     1     -11.475   3.139 -34.834  1.00  0.00    -0.384 OA
HETATM   35  C   UNL     1     -12.697   2.746 -35.479  1.00  0.00     0.168 C 
HETATM   36  C   UNL     1     -13.354   1.703 -34.597  1.00  0.00     0.029 C 
HETATM   37  C   UNL     1     -12.851   2.087 -33.227  1.00  0.00     0.035 C 
ENDBRANCH  32  33
ENDBRANCH   6  32
TORSDOF 8
ENDMDL
MODEL 10
REMARK VINA RESULT:      -8.7      3.182      9.575
REMARK  8 active torsions:
REMARK  status: ('A' for Active; 'I' for Inactive)
REMARK       I    between atoms: N_2  and  C_3 
REMARK    1  A    between atoms: N_2  and  C_29 
REMARK    2  A    between atoms: C_3  and  C_4 
REMARK    3  A    between atoms: C_7  and  C_8 
REMARK       I    between atoms: C_8  and  N_9 
REMARK    4  A    between atoms: N_9  and  C_10 
REMARK    5  A    between atoms: N_20  and  C_21 
REMARK    6  A    between atoms: C_21  and  C_22 
REMARK    7  A    between atoms: C_29  and  C_30 
REMARK    8  A    between atoms: C_30  and  C_31 
ROOT
HETATM    1  C   UNL     1      -9.217   2.959 -33.647  1.00  0.00     0.098 C 
HETATM    2  C   UNL     1      -8.067   3.837 -33.325  1.00  0.00     0.206 C 
HETATM    3  O   UNL     1      -8.208   4.875 -32.680  1.00  0.00    -0.286 OA
HETATM    4  C   UNL     1      -6.719   3.416 -33.813  1.00  0.00     0.098 C 
HETATM    5  C   UNL     1      -6.602   2.141 -34.227  1.00  0.00     0.111 C 
HETATM    6  N   UNL     1      -7.649   1.225 -34.274  1.00  0.00    -0.362 N 
HETATM    7  C   UNL     1      -8.931   1.704 -34.031  1.00  0.00     0.111 C 
ENDROOT
BRANCH   1   8
HETATM    8  C   UNL     1     -10.650   3.308 -33.510  1.00  0.00     0.258 C 
HETATM    9  N   UNL     1     -11.218   4.217 -34.396  1.00  0.00    -0.352 N 
HETATM   10  C   UNL     1     -12.662   4.409 -34.347  1.00  0.00     0.152 C 
HETATM   11  O   UNL     1     -11.324   2.678 -32.689  1.00  0.00    -0.267 OA
BRANCH   9  12
HETATM   12  C   UNL     1     -10.509   5.061 -35.372  1.00  0.00     0.131 C 
BRANCH  12  13
HETATM   13  C   UNL     1     -10.425   6.536 -34.976  1.00  0.00     0.079 C 
BRANCH  13  14
HETATM   14  C   UNL     1     -11.003   7.412 -36.060  1.00  0.00     0.035 A 
HETATM   15  N   UNL     1     -12.354   7.450 -36.162  1.00  0.00    -0.266 NA
HETATM   16  C   UNL     1     -12.888   8.240 -37.121  1.00  0.00     0.117 A 
HETATM   17  C   UNL     1     -12.136   8.994 -38.003  1.00  0.00     0.019 A 
HETATM   18  C   UNL     1     -10.752   8.933 -37.899  1.00  0.00     0.003 A 
HETATM   19  C   UNL     1     -10.173   8.133 -36.915  1.00  0.00     0.027 A 
ENDBRANCH  13  14
ENDBRANCH  12  13
ENDBRANCH   9  12
ENDBRANCH   1   8
BRANCH   4  20
HETATM   20  C   UNL     1      -5.534   4.319 -33.874  1.00  0.00     0.257 C 
HETATM   21  N   UNL     1      -4.455   3.897 -33.138  1.00  0.00    -0.352 N 
HETATM   22  H   UNL     1      -4.512   2.976 -32.701  1.00  0.00     0.163 HD
HETATM   23  O   UNL     1      -5.560   5.373 -34.501  1.00  0.00    -0.267 OA
BRANCH  21  24
HETATM   24  C   UNL     1      -3.212   4.643 -32.931  1.00  0.00     0.084 C 
HETATM   25  C   UNL     1      -2.448   4.105 -31.717  1.00  0.00     0.025 C 
HETATM   26  C   UNL     1      -1.269   4.938 -31.206  1.00  0.00     0.002 C 
HETATM   27  C   UNL     1      -1.517   6.447 -31.128  1.00  0.00     0.000 C 
HETATM   28  C   UNL     1      -0.892   7.259 -32.265  1.00  0.00     0.000 C 
HETATM   29  C   UNL     1      -1.480   7.069 -33.666  1.00  0.00     0.000 C 
HETATM   30  C   UNL     1      -1.226   5.693 -34.282  1.00  0.00     0.002 C 
HETATM   31  C   UNL     1      -2.411   4.728 -34.237  1.00  0.00     0.025 C 
ENDBRANCH  21  24
ENDBRANCH   4  20
BRANCH   6  32
HETATM   32  C   UNL     1      -7.403  -0.209 -34.549  1.00  0.00     0.159 C 
BRANCH  32  33
HETATM   33  C   UNL     1      -5.964  -0.669 -34.281  1.00  0.00     0.139 C 
HETATM   34  O   UNL     1      -5.633  -1.881 -34.987  1.00  0.00    -0.384 OA
HETATM   35  C   UNL     1      -4.697  -2.620 -34.187  1.00  0.00     0.168 C 
HETATM   36  C   UNL     1      -4.338  -1.750 -32.999  1.00  0.00     0.029 C 
HETATM   37  C   UNL     1      -5.584  -0.916 -32.831  1.00  0.00     0.035 C 
ENDBRANCH  32  33
ENDBRANCH   6  32
TORSDOF 8
ENDMDL
