MODEL 1
REMARK VINA RESULT:      -9.5      0.000      0.000
REMARK  3 active torsions:
REMARK  status: ('A' for Active; 'I' for Inactive)
REMARK    1  A    between atoms: C_8  and  C_9 
REMARK    2  A    between atoms: C_14  and  C_15 
REMARK    3  A    between atoms: C_17  and  O_18 
ROOT
HETATM    1  C   UNL     1      -3.283   3.934 -32.250  1.00  0.00     0.143 A 
HETATM    2  N   UNL     1      -4.323   4.283 -31.521  1.00  0.00    -0.223 NA
HETATM    3  C   UNL     1      -4.858   3.119 -31.008  1.00  0.00     0.149 A 
HETATM    4  C   UNL     1      -4.121   2.035 -31.454  1.00  0.00     0.046 A 
HETATM    5  C   UNL     1      -4.228   0.593 -31.106  1.00  0.00     0.070 C 
HETATM    6  C   UNL     1      -5.641  -0.010 -31.276  1.00  0.00     0.042 C 
HETATM    7  C   UNL     1      -6.816   0.988 -31.204  1.00  0.00     0.132 C 
HETATM    8  N   UNL     1      -6.755   1.912 -30.086  1.00  0.00    -0.355 N 
HETATM    9  C   UNL     1      -6.009   3.076 -30.104  1.00  0.00     0.272 C 
HETATM   10  O   UNL     1      -6.339   4.006 -29.370  1.00  0.00    -0.266 OA
HETATM   11  N   UNL     1      -3.134   2.571 -32.243  1.00  0.00    -0.341 N 
HETATM   12  H   UNL     1      -2.393   2.062 -32.701  1.00  0.00     0.167 HD
HETATM   13  H   UNL     1      -7.582   2.018 -29.511  1.00  0.00     0.162 HD
ENDROOT
BRANCH   1  14
HETATM   14  C   UNL     1      -2.405   4.907 -32.953  1.00  0.00     0.059 A 
HETATM   15  C   UNL     1      -1.215   5.457 -32.513  1.00  0.00     0.040 A 
HETATM   16  C   UNL     1      -0.410   5.315 -31.280  1.00  0.00     0.071 C 
HETATM   17  N   UNL     1      -0.815   6.292 -33.525  1.00  0.00    -0.281 N 
HETATM   18  H   UNL     1       0.014   6.875 -33.564  1.00  0.00     0.189 HD
HETATM   19  N   UNL     1      -1.642   6.318 -34.576  1.00  0.00    -0.179 NA
HETATM   20  C   UNL     1      -2.628   5.476 -34.234  1.00  0.00     0.067 A 
HETATM   21  C   UNL     1      -3.768   5.249 -35.160  1.00  0.00     0.073 C 
ENDBRANCH   1  14
BRANCH   6  22
HETATM   22  C   UNL     1      -5.756  -0.851 -32.544  1.00  0.00    -0.049 A 
HETATM   23  C   UNL     1      -4.749  -1.761 -32.918  1.00  0.00     0.044 A 
HETATM   24  C   UNL     1      -4.866  -2.513 -34.089  1.00  0.00     0.068 A 
HETATM   25  C   UNL     1      -5.994  -2.354 -34.895  1.00  0.00     0.037 A 
HETATM   26  C   UNL     1      -6.997  -1.452 -34.542  1.00  0.00     0.003 A 
HETATM   27  C   UNL     1      -6.878  -0.704 -33.372  1.00  0.00     0.007 A 
BRANCH  24  28
HETATM   28  O   UNL     1      -3.961  -3.427 -34.554  1.00  0.00    -0.356 OA
HETATM   29  C   UNL     1      -3.636  -4.512 -33.692  1.00  0.00     0.210 C 
ENDBRANCH  24  28
ENDBRANCH   6  22
TORSDOF 3
ENDMDL
MODEL 2
REMARK VINA RESULT:      -8.9      1.195      2.482
REMARK  3 active torsions:
REMARK  status: ('A' for Active; 'I' for Inactive)
REMARK    1  A    between atoms: C_8  and  C_9 
REMARK    2  A    between atoms: C_14  and  C_15 
REMARK    3  A    between atoms: C_17  and  O_18 
ROOT
HETATM    1  C   UNL     1      -3.301   4.546 -32.185  1.00  0.00     0.143 A 
HETATM    2  N   UNL     1      -4.290   4.755 -31.341  1.00  0.00    -0.223 NA
HETATM    3  C   UNL     1      -4.571   3.540 -30.749  1.00  0.00     0.149 A 
HETATM    4  C   UNL     1      -3.729   2.569 -31.263  1.00  0.00     0.046 A 
HETATM    5  C   UNL     1      -3.566   1.140 -30.883  1.00  0.00     0.070 C 
HETATM    6  C   UNL     1      -4.876   0.321 -30.870  1.00  0.00     0.042 C 
HETATM    7  C   UNL     1      -6.177   1.126 -30.672  1.00  0.00     0.132 C 
HETATM    8  N   UNL     1      -6.131   2.086 -29.584  1.00  0.00    -0.355 N 
HETATM    9  C   UNL     1      -5.587   3.351 -29.711  1.00  0.00     0.272 C 
HETATM   10  O   UNL     1      -5.970   4.243 -28.957  1.00  0.00    -0.266 OA
HETATM   11  N   UNL     1      -2.939   3.223 -32.175  1.00  0.00    -0.341 N 
HETATM   12  H   UNL     1      -2.187   2.820 -32.712  1.00  0.00     0.167 HD
HETATM   13  H   UNL     1      -6.891   2.083 -28.915  1.00  0.00     0.162 HD
ENDROOT
BRANCH   1  14
HETATM   14  C   UNL     1      -2.676   5.618 -33.005  1.00  0.00     0.059 A 
HETATM   15  C   UNL     1      -2.872   5.893 -34.346  1.00  0.00     0.040 A 
HETATM   16  C   UNL     1      -3.702   5.285 -35.409  1.00  0.00     0.071 C 
HETATM   17  N   UNL     1      -2.062   6.967 -34.610  1.00  0.00    -0.281 N 
HETATM   18  H   UNL     1      -1.932   7.451 -35.492  1.00  0.00     0.189 HD
HETATM   19  N   UNL     1      -1.371   7.408 -33.552  1.00  0.00    -0.179 NA
HETATM   20  C   UNL     1      -1.734   6.583 -32.560  1.00  0.00     0.067 A 
HETATM   21  C   UNL     1      -1.151   6.748 -31.204  1.00  0.00     0.073 C 
ENDBRANCH   1  14
BRANCH   6  22
HETATM   22  C   UNL     1      -5.004  -0.572 -32.102  1.00  0.00    -0.049 A 
HETATM   23  C   UNL     1      -6.073  -0.429 -33.007  1.00  0.00     0.044 A 
HETATM   24  C   UNL     1      -6.180  -1.264 -34.122  1.00  0.00     0.068 A 
HETATM   25  C   UNL     1      -5.216  -2.250 -34.334  1.00  0.00     0.037 A 
HETATM   26  C   UNL     1      -4.155  -2.408 -33.443  1.00  0.00     0.003 A 
HETATM   27  C   UNL     1      -4.050  -1.573 -32.332  1.00  0.00     0.007 A 
BRANCH  24  28
HETATM   28  O   UNL     1      -7.165  -1.220 -35.070  1.00  0.00    -0.356 OA
HETATM   29  C   UNL     1      -7.812   0.031 -35.274  1.00  0.00     0.210 C 
ENDBRANCH  24  28
ENDBRANCH   6  22
TORSDOF 3
ENDMDL
MODEL 3
REMARK VINA RESULT:      -8.8      3.075      8.541
REMARK  3 active torsions:
REMARK  status: ('A' for Active; 'I' for Inactive)
REMARK    1  A    between atoms: C_8  and  C_9 
REMARK    2  A    between atoms: C_14  and  C_15 
REMARK    3  A    between atoms: C_17  and  O_18 
ROOT
HETATM    1  C   UNL     1      -4.199   3.290 -31.808  1.00  0.00     0.143 A 
HETATM    2  N   UNL     1      -4.450   3.930 -32.931  1.00  0.00    -0.223 NA
HETATM    3  C   UNL     1      -3.356   4.731 -33.186  1.00  0.00     0.149 A 
HETATM    4  C   UNL     1      -2.423   4.574 -32.175  1.00  0.00     0.046 A 
HETATM    5  C   UNL     1      -1.051   5.133 -32.041  1.00  0.00     0.070 C 
HETATM    6  C   UNL     1      -0.959   6.667 -32.198  1.00  0.00     0.042 C 
HETATM    7  C   UNL     1      -2.088   7.334 -33.010  1.00  0.00     0.132 C 
HETATM    8  N   UNL     1      -2.392   6.681 -34.270  1.00  0.00    -0.355 N 
HETATM    9  C   UNL     1      -3.220   5.578 -34.373  1.00  0.00     0.272 C 
HETATM   10  O   UNL     1      -3.793   5.361 -35.438  1.00  0.00    -0.266 OA
HETATM   11  N   UNL     1      -2.977   3.665 -31.311  1.00  0.00    -0.341 N 
HETATM   12  H   UNL     1      -2.547   3.293 -30.478  1.00  0.00     0.167 HD
HETATM   13  H   UNL     1      -2.445   7.255 -35.102  1.00  0.00     0.162 HD
ENDROOT
BRANCH   1  14
HETATM   14  C   UNL     1      -5.123   2.294 -31.202  1.00  0.00     0.059 A 
HETATM   15  C   UNL     1      -6.212   2.527 -30.383  1.00  0.00     0.040 A 
HETATM   16  C   UNL     1      -6.839   3.748 -29.828  1.00  0.00     0.071 C 
HETATM   17  N   UNL     1      -6.714   1.284 -30.097  1.00  0.00    -0.281 N 
HETATM   18  H   UNL     1      -7.513   1.050 -29.518  1.00  0.00     0.189 HD
HETATM   19  N   UNL     1      -6.044   0.276 -30.668  1.00  0.00    -0.179 NA
HETATM   20  C   UNL     1      -5.059   0.883 -31.344  1.00  0.00     0.067 A 
HETATM   21  C   UNL     1      -4.074   0.077 -32.109  1.00  0.00     0.073 C 
ENDBRANCH   1  14
BRANCH   6  22
HETATM   22  C   UNL     1      -0.805   7.372 -30.853  1.00  0.00    -0.049 A 
HETATM   23  C   UNL     1       0.282   7.102 -29.999  1.00  0.00     0.044 A 
HETATM   24  C   UNL     1       0.398   7.747 -28.766  1.00  0.00     0.068 A 
HETATM   25  C   UNL     1      -0.578   8.668 -28.380  1.00  0.00     0.037 A 
HETATM   26  C   UNL     1      -1.663   8.941 -29.212  1.00  0.00     0.003 A 
HETATM   27  C   UNL     1      -1.776   8.297 -30.441  1.00  0.00     0.007 A 
BRANCH  24  28
HETATM   28  O   UNL     1       1.405   7.573 -27.857  1.00  0.00    -0.356 OA
HETATM   29  C   UNL     1       1.031   7.467 -26.489  1.00  0.00     0.210 C 
ENDBRANCH  24  28
ENDBRANCH   6  22
TORSDOF 3
ENDMDL
MODEL 4
REMARK VINA RESULT:      -8.7      2.310      2.760
REMARK  3 active torsions:
REMARK  status: ('A' for Active; 'I' for Inactive)
REMARK    1  A    between atoms: C_8  and  C_9 
REMARK    2  A    between atoms: C_14  and  C_15 
REMARK    3  A    between atoms: C_17  and  O_18 
ROOT
HETATM    1  C   UNL     1      -4.236   5.287 -33.073  1.00  0.00     0.143 A 
HETATM    2  N   UNL     1      -5.361   5.476 -33.730  1.00  0.00    -0.223 NA
HETATM    3  C   UNL     1      -6.205   4.441 -33.381  1.00  0.00     0.149 A 
HETATM    4  C   UNL     1      -5.559   3.598 -32.493  1.00  0.00     0.046 A 
HETATM    5  C   UNL     1      -6.067   2.413 -31.752  1.00  0.00     0.070 C 
HETATM    6  C   UNL     1      -6.741   1.338 -32.635  1.00  0.00     0.042 C 
HETATM    7  C   UNL     1      -7.315   1.829 -33.980  1.00  0.00     0.132 C 
HETATM    8  N   UNL     1      -8.120   3.034 -33.888  1.00  0.00    -0.355 N 
HETATM    9  C   UNL     1      -7.581   4.307 -33.865  1.00  0.00     0.272 C 
HETATM   10  O   UNL     1      -8.269   5.253 -34.242  1.00  0.00    -0.266 OA
HETATM   11  N   UNL     1      -4.313   4.146 -32.317  1.00  0.00    -0.341 N 
HETATM   12  H   UNL     1      -3.591   3.804 -31.702  1.00  0.00     0.167 HD
HETATM   13  H   UNL     1      -9.030   3.032 -34.332  1.00  0.00     0.162 HD
ENDROOT
BRANCH   1  14
HETATM   14  C   UNL     1      -3.072   6.210 -33.150  1.00  0.00     0.059 A 
HETATM   15  C   UNL     1      -2.844   7.361 -32.419  1.00  0.00     0.040 A 
HETATM   16  C   UNL     1      -3.597   8.075 -31.365  1.00  0.00     0.071 C 
HETATM   17  N   UNL     1      -1.642   7.838 -32.874  1.00  0.00    -0.281 N 
HETATM   18  H   UNL     1      -1.147   8.672 -32.577  1.00  0.00     0.189 HD
HETATM   19  N   UNL     1      -1.078   7.088 -33.828  1.00  0.00    -0.179 NA
HETATM   20  C   UNL     1      -1.950   6.087 -34.013  1.00  0.00     0.067 A 
HETATM   21  C   UNL     1      -1.676   5.037 -35.027  1.00  0.00     0.073 C 
ENDBRANCH   1  14
BRANCH   6  22
HETATM   22  C   UNL     1      -5.829   0.137 -32.871  1.00  0.00    -0.049 A 
HETATM   23  C   UNL     1      -6.093  -0.801 -33.887  1.00  0.00     0.044 A 
HETATM   24  C   UNL     1      -5.253  -1.901 -34.079  1.00  0.00     0.068 A 
HETATM   25  C   UNL     1      -4.143  -2.067 -33.250  1.00  0.00     0.037 A 
HETATM   26  C   UNL     1      -3.871  -1.149 -32.235  1.00  0.00     0.003 A 
HETATM   27  C   UNL     1      -4.709  -0.053 -32.047  1.00  0.00     0.007 A 
BRANCH  24  28
HETATM   28  O   UNL     1      -5.403  -2.873 -35.029  1.00  0.00    -0.356 OA
HETATM   29  C   UNL     1      -6.531  -3.730 -34.906  1.00  0.00     0.210 C 
ENDBRANCH  24  28
ENDBRANCH   6  22
TORSDOF 3
ENDMDL
MODEL 5
REMARK VINA RESULT:      -8.4     15.845     18.100
REMARK  3 active torsions:
REMARK  status: ('A' for Active; 'I' for Inactive)
REMARK    1  A    between atoms: C_8  and  C_9 
REMARK    2  A    between atoms: C_14  and  C_15 
REMARK    3  A    between atoms: C_17  and  O_18 
ROOT
HETATM    1  C   UNL     1      -8.574 -13.462 -39.085  1.00  0.00     0.143 A 
HETATM    2  N   UNL     1      -8.418 -13.758 -37.812  1.00  0.00    -0.223 NA
HETATM    3  C   UNL     1      -7.167 -13.304 -37.448  1.00  0.00     0.149 A 
HETATM    4  C   UNL     1      -6.547 -12.727 -38.543  1.00  0.00     0.046 A 
HETATM    5  C   UNL     1      -5.248 -12.009 -38.644  1.00  0.00     0.070 C 
HETATM    6  C   UNL     1      -4.036 -12.785 -38.081  1.00  0.00     0.042 C 
HETATM    7  C   UNL     1      -4.352 -13.857 -37.017  1.00  0.00     0.132 C 
HETATM    8  N   UNL     1      -5.246 -13.414 -35.963  1.00  0.00    -0.355 N 
HETATM    9  C   UNL     1      -6.623 -13.401 -36.091  1.00  0.00     0.272 C 
HETATM   10  O   UNL     1      -7.316 -13.468 -35.079  1.00  0.00    -0.266 OA
HETATM   11  N   UNL     1      -7.450 -12.843 -39.570  1.00  0.00    -0.341 N 
HETATM   12  H   UNL     1      -7.336 -12.493 -40.509  1.00  0.00     0.167 HD
HETATM   13  H   UNL     1      -4.972 -13.588 -35.004  1.00  0.00     0.162 HD
ENDROOT
BRANCH   1  14
HETATM   14  C   UNL     1      -9.813 -13.755 -39.854  1.00  0.00     0.059 A 
HETATM   15  C   UNL     1     -10.720 -12.859 -40.388  1.00  0.00     0.040 A 
HETATM   16  C   UNL     1     -10.817 -11.383 -40.407  1.00  0.00     0.071 C 
HETATM   17  N   UNL     1     -11.677 -13.637 -40.988  1.00  0.00    -0.281 N 
HETATM   18  H   UNL     1     -12.508 -13.334 -41.484  1.00  0.00     0.189 HD
HETATM   19  N   UNL     1     -11.456 -14.953 -40.889  1.00  0.00    -0.179 NA
HETATM   20  C   UNL     1     -10.317 -15.040 -40.188  1.00  0.00     0.067 A 
HETATM   21  C   UNL     1      -9.748 -16.371 -39.854  1.00  0.00     0.073 C 
ENDBRANCH   1  14
BRANCH   6  22
HETATM   22  C   UNL     1      -3.181 -13.393 -39.189  1.00  0.00    -0.049 A 
HETATM   23  C   UNL     1      -3.706 -13.642 -40.472  1.00  0.00     0.044 A 
HETATM   24  C   UNL     1      -2.911 -14.212 -41.469  1.00  0.00     0.068 A 
HETATM   25  C   UNL     1      -1.584 -14.538 -41.185  1.00  0.00     0.037 A 
HETATM   26  C   UNL     1      -1.052 -14.303 -39.918  1.00  0.00     0.003 A 
HETATM   27  C   UNL     1      -1.846 -13.734 -38.925  1.00  0.00     0.007 A 
BRANCH  24  28
HETATM   28  O   UNL     1      -3.304 -14.497 -42.748  1.00  0.00    -0.356 OA
HETATM   29  C   UNL     1      -4.694 -14.408 -43.033  1.00  0.00     0.210 C 
ENDBRANCH  24  28
ENDBRANCH   6  22
TORSDOF 3
ENDMDL
MODEL 6
REMARK VINA RESULT:      -8.4      1.462      1.720
REMARK  3 active torsions:
REMARK  status: ('A' for Active; 'I' for Inactive)
REMARK    1  A    between atoms: C_8  and  C_9 
REMARK    2  A    between atoms: C_14  and  C_15 
REMARK    3  A    between atoms: C_17  and  O_18 
ROOT
HETATM    1  C   UNL     1      -3.953   4.534 -30.947  1.00  0.00     0.143 A 
HETATM    2  N   UNL     1      -5.135   4.977 -30.572  1.00  0.00    -0.223 NA
HETATM    3  C   UNL     1      -5.897   3.868 -30.265  1.00  0.00     0.149 A 
HETATM    4  C   UNL     1      -5.150   2.721 -30.473  1.00  0.00     0.046 A 
HETATM    5  C   UNL     1      -5.477   1.298 -30.193  1.00  0.00     0.070 C 
HETATM    6  C   UNL     1      -6.813   0.810 -30.800  1.00  0.00     0.042 C 
HETATM    7  C   UNL     1      -7.866   1.901 -31.084  1.00  0.00     0.132 C 
HETATM    8  N   UNL     1      -8.079   2.832 -29.990  1.00  0.00    -0.355 N 
HETATM    9  C   UNL     1      -7.271   3.932 -29.762  1.00  0.00     0.272 C 
HETATM   10  O   UNL     1      -7.734   4.896 -29.156  1.00  0.00    -0.266 OA
HETATM   11  N   UNL     1      -3.927   3.163 -30.911  1.00  0.00    -0.341 N 
HETATM   12  H   UNL     1      -3.125   2.590 -31.123  1.00  0.00     0.167 HD
HETATM   13  H   UNL     1      -9.031   3.014 -29.699  1.00  0.00     0.162 HD
ENDROOT
BRANCH   1  14
HETATM   14  C   UNL     1      -2.824   5.422 -31.331  1.00  0.00     0.059 A 
HETATM   15  C   UNL     1      -2.265   6.457 -30.604  1.00  0.00     0.040 A 
HETATM   16  C   UNL     1      -2.541   7.046 -29.275  1.00  0.00     0.071 C 
HETATM   17  N   UNL     1      -1.268   6.954 -31.403  1.00  0.00    -0.281 N 
HETATM   18  H   UNL     1      -0.637   7.724 -31.211  1.00  0.00     0.189 HD
HETATM   19  N   UNL     1      -1.136   6.322 -32.576  1.00  0.00    -0.179 NA
HETATM   20  C   UNL     1      -2.092   5.382 -32.547  1.00  0.00     0.067 A 
HETATM   21  C   UNL     1      -2.275   4.471 -33.705  1.00  0.00     0.073 C 
ENDBRANCH   1  14
BRANCH   6  22
HETATM   22  C   UNL     1      -6.597  -0.036 -32.051  1.00  0.00    -0.049 A 
HETATM   23  C   UNL     1      -5.417  -0.779 -32.244  1.00  0.00     0.044 A 
HETATM   24  C   UNL     1      -5.233  -1.538 -33.403  1.00  0.00     0.068 A 
HETATM   25  C   UNL     1      -6.232  -1.554 -34.377  1.00  0.00     0.037 A 
HETATM   26  C   UNL     1      -7.404  -0.819 -34.203  1.00  0.00     0.003 A 
HETATM   27  C   UNL     1      -7.585  -0.064 -33.047  1.00  0.00     0.007 A 
BRANCH  24  28
HETATM   28  O   UNL     1      -4.138  -2.301 -33.700  1.00  0.00    -0.356 OA
HETATM   29  C   UNL     1      -4.346  -3.438 -34.529  1.00  0.00     0.210 C 
ENDBRANCH  24  28
ENDBRANCH   6  22
TORSDOF 3
ENDMDL
MODEL 7
REMARK VINA RESULT:      -8.4      3.127      8.837
REMARK  3 active torsions:
REMARK  status: ('A' for Active; 'I' for Inactive)
REMARK    1  A    between atoms: C_8  and  C_9 
REMARK    2  A    between atoms: C_14  and  C_15 
REMARK    3  A    between atoms: C_17  and  O_18 
ROOT
HETATM    1  C   UNL     1      -3.609   3.402 -31.792  1.00  0.00     0.143 A 
HETATM    2  N   UNL     1      -3.553   3.963 -32.982  1.00  0.00    -0.223 NA
HETATM    3  C   UNL     1      -2.395   4.714 -33.014  1.00  0.00     0.149 A 
HETATM    4  C   UNL     1      -1.742   4.608 -31.798  1.00  0.00     0.046 A 
HETATM    5  C   UNL     1      -0.420   5.137 -31.369  1.00  0.00     0.070 C 
HETATM    6  C   UNL     1      -0.225   6.653 -31.598  1.00  0.00     0.042 C 
HETATM    7  C   UNL     1      -1.094   7.288 -32.703  1.00  0.00     0.132 C 
HETATM    8  N   UNL     1      -1.112   6.551 -33.954  1.00  0.00    -0.355 N 
HETATM    9  C   UNL     1      -1.939   5.467 -34.184  1.00  0.00     0.272 C 
HETATM   10  O   UNL     1      -2.246   5.186 -35.341  1.00  0.00    -0.266 OA
HETATM   11  N   UNL     1      -2.529   3.780 -31.037  1.00  0.00    -0.341 N 
HETATM   12  H   UNL     1      -2.330   3.459 -30.102  1.00  0.00     0.167 HD
HETATM   13  H   UNL     1      -0.937   7.063 -34.810  1.00  0.00     0.162 HD
ENDROOT
BRANCH   1  14
HETATM   14  C   UNL     1      -4.695   2.479 -31.367  1.00  0.00     0.059 A 
HETATM   15  C   UNL     1      -4.915   1.175 -31.768  1.00  0.00     0.040 A 
HETATM   16  C   UNL     1      -4.223   0.255 -32.698  1.00  0.00     0.071 C 
HETATM   17  N   UNL     1      -6.041   0.780 -31.092  1.00  0.00    -0.281 N 
HETATM   18  H   UNL     1      -6.512  -0.117 -31.133  1.00  0.00     0.189 HD
HETATM   19  N   UNL     1      -6.556   1.717 -30.288  1.00  0.00    -0.179 NA
HETATM   20  C   UNL     1      -5.743   2.770 -30.453  1.00  0.00     0.067 A 
HETATM   21  C   UNL     1      -6.006   4.036 -29.723  1.00  0.00     0.073 C 
ENDBRANCH   1  14
BRANCH   6  22
HETATM   22  C   UNL     1      -0.370   7.451 -30.305  1.00  0.00    -0.049 A 
HETATM   23  C   UNL     1      -1.526   8.207 -30.032  1.00  0.00     0.044 A 
HETATM   24  C   UNL     1      -1.635   8.941 -28.848  1.00  0.00     0.068 A 
HETATM   25  C   UNL     1      -0.583   8.923 -27.932  1.00  0.00     0.037 A 
HETATM   26  C   UNL     1       0.571   8.184 -28.191  1.00  0.00     0.003 A 
HETATM   27  C   UNL     1       0.677   7.452 -29.372  1.00  0.00     0.007 A 
BRANCH  24  28
HETATM   28  O   UNL     1      -2.704   9.706 -28.470  1.00  0.00    -0.356 OA
HETATM   29  C   UNL     1      -3.333   9.375 -27.238  1.00  0.00     0.210 C 
ENDBRANCH  24  28
ENDBRANCH   6  22
TORSDOF 3
ENDMDL
MODEL 8
REMARK VINA RESULT:      -8.3      1.846      2.669
REMARK  3 active torsions:
REMARK  status: ('A' for Active; 'I' for Inactive)
REMARK    1  A    between atoms: C_8  and  C_9 
REMARK    2  A    between atoms: C_14  and  C_15 
REMARK    3  A    between atoms: C_17  and  O_18 
ROOT
HETATM    1  C   UNL     1      -3.344   4.832 -31.861  1.00  0.00     0.143 A 
HETATM    2  N   UNL     1      -4.212   5.291 -30.984  1.00  0.00    -0.223 NA
HETATM    3  C   UNL     1      -4.851   4.193 -30.444  1.00  0.00     0.149 A 
HETATM    4  C   UNL     1      -4.356   3.038 -31.025  1.00  0.00     0.046 A 
HETATM    5  C   UNL     1      -4.640   1.611 -30.717  1.00  0.00     0.070 C 
HETATM    6  C   UNL     1      -6.140   1.237 -30.712  1.00  0.00     0.042 C 
HETATM    7  C   UNL     1      -7.125   2.393 -30.443  1.00  0.00     0.132 C 
HETATM    8  N   UNL     1      -6.775   3.233 -29.312  1.00  0.00    -0.355 N 
HETATM    9  C   UNL     1      -5.866   4.272 -29.391  1.00  0.00     0.272 C 
HETATM   10  O   UNL     1      -5.948   5.198 -28.587  1.00  0.00    -0.266 OA
HETATM   11  N   UNL     1      -3.410   3.463 -31.923  1.00  0.00    -0.341 N 
HETATM   12  H   UNL     1      -2.824   2.877 -32.497  1.00  0.00     0.167 HD
HETATM   13  H   UNL     1      -7.493   3.429 -28.626  1.00  0.00     0.162 HD
ENDROOT
BRANCH   1  14
HETATM   14  C   UNL     1      -2.424   5.701 -32.643  1.00  0.00     0.059 A 
HETATM   15  C   UNL     1      -1.367   6.461 -32.181  1.00  0.00     0.040 A 
HETATM   16  C   UNL     1      -0.778   6.698 -30.844  1.00  0.00     0.071 C 
HETATM   17  N   UNL     1      -0.855   7.074 -33.296  1.00  0.00    -0.281 N 
HETATM   18  H   UNL     1      -0.072   7.715 -33.353  1.00  0.00     0.189 HD
HETATM   19  N   UNL     1      -1.490   6.765 -34.433  1.00  0.00    -0.179 NA
HETATM   20  C   UNL     1      -2.462   5.927 -34.045  1.00  0.00     0.067 A 
HETATM   21  C   UNL     1      -3.408   5.370 -35.045  1.00  0.00     0.073 C 
ENDBRANCH   1  14
BRANCH   6  22
HETATM   22  C   UNL     1      -6.549   0.495 -31.981  1.00  0.00    -0.049 A 
HETATM   23  C   UNL     1      -7.642   0.917 -32.762  1.00  0.00     0.044 A 
HETATM   24  C   UNL     1      -8.009   0.217 -33.914  1.00  0.00     0.068 A 
HETATM   25  C   UNL     1      -7.281  -0.914 -34.288  1.00  0.00     0.037 A 
HETATM   26  C   UNL     1      -6.200  -1.348 -33.522  1.00  0.00     0.003 A 
HETATM   27  C   UNL     1      -5.836  -0.648 -32.374  1.00  0.00     0.007 A 
BRANCH  24  28
HETATM   28  O   UNL     1      -9.043   0.529 -34.752  1.00  0.00    -0.356 OA
HETATM   29  C   UNL     1     -10.088   1.333 -34.218  1.00  0.00     0.210 C 
ENDBRANCH  24  28
ENDBRANCH   6  22
TORSDOF 3
ENDMDL
MODEL 9
REMARK VINA RESULT:      -8.3     15.830     18.005
REMARK  3 active torsions:
REMARK  status: ('A' for Active; 'I' for Inactive)
REMARK    1  A    between atoms: C_8  and  C_9 
REMARK    2  A    between atoms: C_14  and  C_15 
REMARK    3  A    between atoms: C_17  and  O_18 
ROOT
HETATM    1  C   UNL     1      -8.499 -13.475 -39.054  1.00  0.00     0.143 A 
HETATM    2  N   UNL     1      -8.350 -13.740 -37.773  1.00  0.00    -0.223 NA
HETATM    3  C   UNL     1      -7.098 -13.283 -37.415  1.00  0.00     0.149 A 
HETATM    4  C   UNL     1      -6.471 -12.736 -38.522  1.00  0.00     0.046 A 
HETATM    5  C   UNL     1      -5.169 -12.026 -38.635  1.00  0.00     0.070 C 
HETATM    6  C   UNL     1      -3.962 -12.793 -38.048  1.00  0.00     0.042 C 
HETATM    7  C   UNL     1      -4.287 -13.837 -36.960  1.00  0.00     0.132 C 
HETATM    8  N   UNL     1      -5.183 -13.365 -35.920  1.00  0.00    -0.355 N 
HETATM    9  C   UNL     1      -6.559 -13.350 -36.055  1.00  0.00     0.272 C 
HETATM   10  O   UNL     1      -7.257 -13.388 -35.044  1.00  0.00    -0.266 OA
HETATM   11  N   UNL     1      -7.370 -12.873 -39.549  1.00  0.00    -0.341 N 
HETATM   12  H   UNL     1      -7.251 -12.546 -40.496  1.00  0.00     0.167 HD
HETATM   13  H   UNL     1      -4.914 -13.516 -34.956  1.00  0.00     0.162 HD
ENDROOT
BRANCH   1  14
HETATM   14  C   UNL     1      -9.736 -13.782 -39.821  1.00  0.00     0.059 A 
HETATM   15  C   UNL     1     -10.645 -12.896 -40.368  1.00  0.00     0.040 A 
HETATM   16  C   UNL     1     -10.746 -11.420 -40.406  1.00  0.00     0.071 C 
HETATM   17  N   UNL     1     -11.599 -13.684 -40.958  1.00  0.00    -0.281 N 
HETATM   18  H   UNL     1     -12.430 -13.390 -41.459  1.00  0.00     0.189 HD
HETATM   19  N   UNL     1     -11.375 -14.998 -40.842  1.00  0.00    -0.179 NA
HETATM   20  C   UNL     1     -10.236 -15.073 -40.139  1.00  0.00     0.067 A 
HETATM   21  C   UNL     1      -9.664 -16.397 -39.787  1.00  0.00     0.073 C 
ENDBRANCH   1  14
BRANCH   6  22
HETATM   22  C   UNL     1      -3.106 -13.432 -39.138  1.00  0.00    -0.049 A 
HETATM   23  C   UNL     1      -1.707 -13.536 -39.010  1.00  0.00     0.044 A 
HETATM   24  C   UNL     1      -0.939 -14.113 -40.025  1.00  0.00     0.068 A 
HETATM   25  C   UNL     1      -1.570 -14.588 -41.176  1.00  0.00     0.037 A 
HETATM   26  C   UNL     1      -2.954 -14.486 -41.320  1.00  0.00     0.003 A 
HETATM   27  C   UNL     1      -3.717 -13.911 -40.306  1.00  0.00     0.007 A 
BRANCH  24  28
HETATM   28  O   UNL     1       0.419 -14.273 -40.015  1.00  0.00    -0.356 OA
HETATM   29  C   UNL     1       1.025 -14.578 -38.765  1.00  0.00     0.210 C 
ENDBRANCH  24  28
ENDBRANCH   6  22
TORSDOF 3
ENDMDL
MODEL 10
REMARK VINA RESULT:      -8.1      3.362      5.300
REMARK  3 active torsions:
REMARK  status: ('A' for Active; 'I' for Inactive)
REMARK    1  A    between atoms: C_8  and  C_9 
REMARK    2  A    between atoms: C_14  and  C_15 
REMARK    3  A    between atoms: C_17  and  O_18 
ROOT
HETATM    1  C   UNL     1      -1.403   6.625 -30.212  1.00  0.00     0.143 A 
HETATM    2  N   UNL     1      -1.120   7.064 -31.421  1.00  0.00    -0.223 NA
HETATM    3  C   UNL     1      -2.167   6.686 -32.237  1.00  0.00     0.149 A 
HETATM    4  C   UNL     1      -3.104   5.989 -31.494  1.00  0.00     0.046 A 
HETATM    5  C   UNL     1      -4.441   5.465 -31.882  1.00  0.00     0.070 C 
HETATM    6  C   UNL     1      -4.445   4.575 -33.145  1.00  0.00     0.042 C 
HETATM    7  C   UNL     1      -3.282   4.797 -34.134  1.00  0.00     0.132 C 
HETATM    8  N   UNL     1      -3.023   6.188 -34.456  1.00  0.00    -0.355 N 
HETATM    9  C   UNL     1      -2.259   7.022 -33.660  1.00  0.00     0.272 C 
HETATM   10  O   UNL     1      -1.704   7.992 -34.172  1.00  0.00    -0.266 OA
HETATM   11  N   UNL     1      -2.599   5.954 -30.219  1.00  0.00    -0.341 N 
HETATM   12  H   UNL     1      -3.046   5.552 -29.409  1.00  0.00     0.167 HD
HETATM   13  H   UNL     1      -2.939   6.443 -35.433  1.00  0.00     0.162 HD
ENDROOT
BRANCH   1  14
HETATM   14  C   UNL     1      -0.535   6.858 -29.027  1.00  0.00     0.059 A 
HETATM   15  C   UNL     1       0.506   6.075 -28.563  1.00  0.00     0.040 A 
HETATM   16  C   UNL     1       1.119   4.806 -29.016  1.00  0.00     0.071 C 
HETATM   17  N   UNL     1       0.968   6.723 -27.447  1.00  0.00    -0.281 N 
HETATM   18  H   UNL     1       1.726   6.447 -26.832  1.00  0.00     0.189 HD
HETATM   19  N   UNL     1       0.316   7.856 -27.160  1.00  0.00    -0.179 NA
HETATM   20  C   UNL     1      -0.615   7.947 -28.120  1.00  0.00     0.067 A 
HETATM   21  C   UNL     1      -1.565   9.089 -28.130  1.00  0.00     0.073 C 
ENDBRANCH   1  14
BRANCH   6  22
HETATM   22  C   UNL     1      -4.552   3.092 -32.799  1.00  0.00    -0.049 A 
HETATM   23  C   UNL     1      -3.495   2.402 -32.177  1.00  0.00     0.044 A 
HETATM   24  C   UNL     1      -3.607   1.042 -31.880  1.00  0.00     0.068 A 
HETATM   25  C   UNL     1      -4.783   0.364 -32.209  1.00  0.00     0.037 A 
HETATM   26  C   UNL     1      -5.836   1.032 -32.831  1.00  0.00     0.003 A 
HETATM   27  C   UNL     1      -5.722   2.389 -33.125  1.00  0.00     0.007 A 
BRANCH  24  28
HETATM   28  O   UNL     1      -2.656   0.268 -31.276  1.00  0.00    -0.356 OA
HETATM   29  C   UNL     1      -2.518  -1.070 -31.741  1.00  0.00     0.210 C 
ENDBRANCH  24  28
ENDBRANCH   6  22
TORSDOF 3
ENDMDL
