MODEL 1
REMARK VINA RESULT:      -8.3      0.000      0.000
REMARK  7 active torsions:
REMARK  status: ('A' for Active; 'I' for Inactive)
REMARK    1  A    between atoms: C_2  and  C_3 
REMARK    2  A    between atoms: C_3  and  C_4 
REMARK    3  A    between atoms: C_5  and  O_6 
REMARK    4  A    between atoms: O_6  and  C_7 
REMARK    5  A    between atoms: C_7  and  C_8 
REMARK       I    between atoms: C_8  and  N_9 
REMARK    6  A    between atoms: N_9  and  C_10 
REMARK    7  A    between atoms: C_17  and  C_18 
REMARK       I    between atoms: C_18  and  N_19 
ROOT
HETATM    1  C   UNL     1      -2.681  -0.604 -31.580  1.00  0.00     0.246 C 
HETATM    2  N   UNL     1      -3.129   0.683 -31.443  1.00  0.00    -0.325 N 
HETATM    3  O   UNL     1      -1.479  -0.806 -31.381  1.00  0.00    -0.271 OA
HETATM    4  H   UNL     1      -2.357   1.341 -31.416  1.00  0.00     0.169 HD
ENDROOT
BRANCH   2   5
HETATM    5  C   UNL     1      -4.416   1.214 -31.282  1.00  0.00     0.035 A 
HETATM    6  C   UNL     1      -4.935   2.224 -32.101  1.00  0.00     0.046 A 
HETATM    7  C   UNL     1      -6.259   2.669 -31.898  1.00  0.00     0.030 A 
HETATM    8  C   UNL     1      -7.018   2.086 -30.892  1.00  0.00     0.063 A 
HETATM    9  C   UNL     1      -7.125   3.623 -32.510  1.00  0.00     0.156 A 
HETATM   10  N   UNL     1      -8.227   2.722 -30.937  1.00  0.00    -0.277 N 
HETATM   11  C   UNL     1      -6.541   1.059 -30.076  1.00  0.00     0.034 A 
HETATM   12  H   UNL     1      -9.030   2.559 -30.339  1.00  0.00     0.189 HD
HETATM   13  N   UNL     1      -8.334   3.647 -31.906  1.00  0.00    -0.168 NA
HETATM   14  C   UNL     1      -5.230   0.622 -30.307  1.00  0.00     0.032 A 
BRANCH   9  15
HETATM   15  C   UNL     1      -6.820   4.492 -33.655  1.00  0.00     0.270 C 
HETATM   16  N   UNL     1      -7.596   5.616 -33.727  1.00  0.00    -0.365 N 
HETATM   17  H   UNL     1      -8.304   5.764 -33.017  1.00  0.00     0.159 HD
HETATM   18  H   UNL     1      -7.470   6.266 -34.487  1.00  0.00     0.159 HD
HETATM   19  O   UNL     1      -5.955   4.254 -34.492  1.00  0.00    -0.266 OA
ENDBRANCH   9  15
ENDBRANCH   2   5
BRANCH   1  20
HETATM   20  C   UNL     1      -3.614  -1.708 -32.098  1.00  0.00     0.278 C 
BRANCH  20  21
HETATM   21  O   UNL     1      -4.067  -1.494 -33.434  1.00  0.00    -0.342 OA
BRANCH  21  22
HETATM   22  C   UNL     1      -4.880  -2.438 -34.004  1.00  0.00     0.076 A 
HETATM   23  C   UNL     1      -6.228  -2.066 -34.227  1.00  0.00    -0.021 A 
HETATM   24  C   UNL     1      -7.097  -3.036 -34.757  1.00  0.00     0.010 A 
HETATM   25  C   UNL     1      -6.652  -4.327 -35.050  1.00  0.00     0.001 A 
HETATM   26  C   UNL     1      -5.329  -4.678 -34.814  1.00  0.00     0.003 A 
HETATM   27  C   UNL     1      -4.446  -3.739 -34.285  1.00  0.00     0.037 A 
BRANCH  23  28
HETATM   28  C   UNL     1      -6.697  -0.644 -33.907  1.00  0.00     0.017 C 
HETATM   29  C   UNL     1      -6.743   0.216 -35.178  1.00  0.00     0.015 C 
BRANCH  28  30
HETATM   30  C   UNL     1      -8.003  -0.515 -33.083  1.00  0.00     0.004 C 
HETATM   31  C   UNL     1      -9.080   0.398 -33.662  1.00  0.00     0.006 C 
ENDBRANCH  28  30
ENDBRANCH  23  28
ENDBRANCH  21  22
ENDBRANCH  20  21
ENDBRANCH   1  20
TORSDOF 7
ENDMDL
MODEL 2
REMARK VINA RESULT:      -8.1      2.926      3.961
REMARK  7 active torsions:
REMARK  status: ('A' for Active; 'I' for Inactive)
REMARK    1  A    between atoms: C_2  and  C_3 
REMARK    2  A    between atoms: C_3  and  C_4 
REMARK    3  A    between atoms: C_5  and  O_6 
REMARK    4  A    between atoms: O_6  and  C_7 
REMARK    5  A    between atoms: C_7  and  C_8 
REMARK       I    between atoms: C_8  and  N_9 
REMARK    6  A    between atoms: N_9  and  C_10 
REMARK    7  A    between atoms: C_17  and  C_18 
REMARK       I    between atoms: C_18  and  N_19 
ROOT
HETATM    1  C   UNL     1      -5.145   0.307 -31.175  1.00  0.00     0.246 C 
HETATM    2  N   UNL     1      -5.116   1.658 -30.956  1.00  0.00    -0.325 N 
HETATM    3  O   UNL     1      -6.005  -0.343 -30.572  1.00  0.00    -0.271 OA
HETATM    4  H   UNL     1      -5.668   1.912 -30.143  1.00  0.00     0.169 HD
ENDROOT
BRANCH   2   5
HETATM    5  C   UNL     1      -4.523   2.709 -31.669  1.00  0.00     0.035 A 
HETATM    6  C   UNL     1      -3.319   3.312 -31.285  1.00  0.00     0.046 A 
HETATM    7  C   UNL     1      -2.769   4.334 -32.087  1.00  0.00     0.030 A 
HETATM    8  C   UNL     1      -3.435   4.713 -33.246  1.00  0.00     0.063 A 
HETATM    9  C   UNL     1      -1.598   5.148 -32.051  1.00  0.00     0.156 A 
HETATM   10  N   UNL     1      -2.676   5.710 -33.790  1.00  0.00    -0.277 N 
HETATM   11  C   UNL     1      -4.622   4.115 -33.671  1.00  0.00     0.034 A 
HETATM   12  H   UNL     1      -2.862   6.230 -34.641  1.00  0.00     0.189 HD
HETATM   13  N   UNL     1      -1.555   5.993 -33.105  1.00  0.00    -0.168 NA
HETATM   14  C   UNL     1      -5.140   3.090 -32.867  1.00  0.00     0.032 A 
BRANCH   9  15
HETATM   15  C   UNL     1      -0.530   5.122 -31.041  1.00  0.00     0.270 C 
HETATM   16  N   UNL     1      -0.894   5.639 -29.829  1.00  0.00    -0.365 N 
HETATM   17  H   UNL     1      -1.835   5.996 -29.715  1.00  0.00     0.159 HD
HETATM   18  H   UNL     1      -0.223   5.678 -29.078  1.00  0.00     0.159 HD
HETATM   19  O   UNL     1       0.599   4.686 -31.241  1.00  0.00    -0.266 OA
ENDBRANCH   9  15
ENDBRANCH   2   5
BRANCH   1  20
HETATM   20  C   UNL     1      -4.061  -0.374 -32.023  1.00  0.00     0.278 C 
BRANCH  20  21
HETATM   21  O   UNL     1      -4.378  -0.440 -33.413  1.00  0.00    -0.342 OA
BRANCH  21  22
HETATM   22  C   UNL     1      -4.956  -1.585 -33.895  1.00  0.00     0.076 A 
HETATM   23  C   UNL     1      -6.339  -1.525 -34.189  1.00  0.00    -0.021 A 
HETATM   24  C   UNL     1      -6.968  -2.703 -34.630  1.00  0.00     0.010 A 
HETATM   25  C   UNL     1      -6.257  -3.897 -34.768  1.00  0.00     0.001 A 
HETATM   26  C   UNL     1      -4.903  -3.941 -34.463  1.00  0.00     0.003 A 
HETATM   27  C   UNL     1      -4.254  -2.790 -34.019  1.00  0.00     0.037 A 
BRANCH  23  28
HETATM   28  C   UNL     1      -7.101  -0.205 -34.039  1.00  0.00     0.017 C 
HETATM   29  C   UNL     1      -7.215   0.517 -35.389  1.00  0.00     0.015 C 
BRANCH  28  30
HETATM   30  C   UNL     1      -8.468  -0.275 -33.311  1.00  0.00     0.004 C 
HETATM   31  C   UNL     1      -8.782   0.870 -32.352  1.00  0.00     0.006 C 
ENDBRANCH  28  30
ENDBRANCH  23  28
ENDBRANCH  21  22
ENDBRANCH  20  21
ENDBRANCH   1  20
TORSDOF 7
ENDMDL
MODEL 3
REMARK VINA RESULT:      -7.8      2.631      4.594
REMARK  7 active torsions:
REMARK  status: ('A' for Active; 'I' for Inactive)
REMARK    1  A    between atoms: C_2  and  C_3 
REMARK    2  A    between atoms: C_3  and  C_4 
REMARK    3  A    between atoms: C_5  and  O_6 
REMARK    4  A    between atoms: O_6  and  C_7 
REMARK    5  A    between atoms: C_7  and  C_8 
REMARK       I    between atoms: C_8  and  N_9 
REMARK    6  A    between atoms: N_9  and  C_10 
REMARK    7  A    between atoms: C_17  and  C_18 
REMARK       I    between atoms: C_18  and  N_19 
ROOT
HETATM    1  C   UNL     1      -8.360   2.065 -32.691  1.00  0.00     0.246 C 
HETATM    2  N   UNL     1      -7.623   3.210 -32.830  1.00  0.00    -0.325 N 
HETATM    3  O   UNL     1      -9.337   1.929 -33.435  1.00  0.00    -0.271 OA
HETATM    4  H   UNL     1      -8.120   3.904 -33.379  1.00  0.00     0.169 HD
ENDROOT
BRANCH   2   5
HETATM    5  C   UNL     1      -6.330   3.548 -32.409  1.00  0.00     0.035 A 
HETATM    6  C   UNL     1      -5.324   3.968 -33.288  1.00  0.00     0.046 A 
HETATM    7  C   UNL     1      -4.062   4.335 -32.773  1.00  0.00     0.030 A 
HETATM    8  C   UNL     1      -3.852   4.275 -31.400  1.00  0.00     0.063 A 
HETATM    9  C   UNL     1      -2.834   4.817 -33.314  1.00  0.00     0.156 A 
HETATM   10  N   UNL     1      -2.557   4.673 -31.215  1.00  0.00    -0.277 N 
HETATM   11  C   UNL     1      -4.841   3.885 -30.496  1.00  0.00     0.034 A 
HETATM   12  H   UNL     1      -2.056   4.744 -30.337  1.00  0.00     0.189 HD
HETATM   13  N   UNL     1      -1.915   5.019 -32.344  1.00  0.00    -0.168 NA
HETATM   14  C   UNL     1      -6.090   3.544 -31.029  1.00  0.00     0.032 A 
BRANCH   9  15
HETATM   15  C   UNL     1      -2.535   5.093 -34.727  1.00  0.00     0.270 C 
HETATM   16  N   UNL     1      -3.628   5.437 -35.473  1.00  0.00    -0.365 N 
HETATM   17  H   UNL     1      -4.534   5.471 -35.021  1.00  0.00     0.159 HD
HETATM   18  H   UNL     1      -3.524   5.629 -36.457  1.00  0.00     0.159 HD
HETATM   19  O   UNL     1      -1.415   5.023 -35.222  1.00  0.00    -0.266 OA
ENDBRANCH   9  15
ENDBRANCH   2   5
BRANCH   1  20
HETATM   20  C   UNL     1      -8.058   1.070 -31.560  1.00  0.00     0.278 C 
BRANCH  20  21
HETATM   21  O   UNL     1      -7.512  -0.167 -32.017  1.00  0.00    -0.342 OA
BRANCH  21  22
HETATM   22  C   UNL     1      -6.150  -0.311 -32.031  1.00  0.00     0.076 A 
HETATM   23  C   UNL     1      -5.599  -1.039 -33.113  1.00  0.00    -0.021 A 
HETATM   24  C   UNL     1      -4.209  -1.251 -33.121  1.00  0.00     0.010 A 
HETATM   25  C   UNL     1      -3.395  -0.766 -32.095  1.00  0.00     0.001 A 
HETATM   26  C   UNL     1      -3.955  -0.064 -31.035  1.00  0.00     0.003 A 
HETATM   27  C   UNL     1      -5.330   0.156 -30.998  1.00  0.00     0.037 A 
BRANCH  23  28
HETATM   28  C   UNL     1      -6.505  -1.557 -34.234  1.00  0.00     0.017 C 
HETATM   29  C   UNL     1      -6.930  -0.413 -35.166  1.00  0.00     0.015 C 
BRANCH  28  30
HETATM   30  C   UNL     1      -5.988  -2.781 -35.032  1.00  0.00     0.004 C 
HETATM   31  C   UNL     1      -6.774  -4.078 -34.864  1.00  0.00     0.006 C 
ENDBRANCH  28  30
ENDBRANCH  23  28
ENDBRANCH  21  22
ENDBRANCH  20  21
ENDBRANCH   1  20
TORSDOF 7
ENDMDL
MODEL 4
REMARK VINA RESULT:      -7.7      2.933      4.939
REMARK  7 active torsions:
REMARK  status: ('A' for Active; 'I' for Inactive)
REMARK    1  A    between atoms: C_2  and  C_3 
REMARK    2  A    between atoms: C_3  and  C_4 
REMARK    3  A    between atoms: C_5  and  O_6 
REMARK    4  A    between atoms: O_6  and  C_7 
REMARK    5  A    between atoms: C_7  and  C_8 
REMARK       I    between atoms: C_8  and  N_9 
REMARK    6  A    between atoms: N_9  and  C_10 
REMARK    7  A    between atoms: C_17  and  C_18 
REMARK       I    between atoms: C_18  and  N_19 
ROOT
HETATM    1  C   UNL     1      -6.831   2.843 -31.231  1.00  0.00     0.246 C 
HETATM    2  N   UNL     1      -8.118   2.460 -30.968  1.00  0.00    -0.325 N 
HETATM    3  O   UNL     1      -6.063   2.940 -30.268  1.00  0.00    -0.271 OA
HETATM    4  H   UNL     1      -8.329   2.528 -29.978  1.00  0.00     0.169 HD
ENDROOT
BRANCH   2   5
HETATM    5  C   UNL     1      -9.133   1.958 -31.795  1.00  0.00     0.035 A 
HETATM    6  C   UNL     1      -9.971   2.777 -32.562  1.00  0.00     0.046 A 
HETATM    7  C   UNL     1     -10.937   2.185 -33.403  1.00  0.00     0.030 A 
HETATM    8  C   UNL     1     -11.028   0.799 -33.453  1.00  0.00     0.063 A 
HETATM    9  C   UNL     1     -11.924   2.653 -34.320  1.00  0.00     0.156 A 
HETATM   10  N   UNL     1     -12.041   0.535 -34.331  1.00  0.00    -0.277 N 
HETATM   11  C   UNL     1     -10.191  -0.045 -32.722  1.00  0.00     0.034 A 
HETATM   12  H   UNL     1     -12.392  -0.375 -34.609  1.00  0.00     0.189 HD
HETATM   13  N   UNL     1     -12.599   1.626 -34.883  1.00  0.00    -0.168 NA
HETATM   14  C   UNL     1      -9.228   0.565 -31.908  1.00  0.00     0.032 A 
BRANCH   9  15
HETATM   15  C   UNL     1     -12.219   4.051 -34.667  1.00  0.00     0.270 C 
HETATM   16  N   UNL     1     -13.491   4.447 -34.358  1.00  0.00    -0.365 N 
HETATM   17  H   UNL     1     -14.119   3.776 -33.931  1.00  0.00     0.159 HD
HETATM   18  H   UNL     1     -13.791   5.385 -34.573  1.00  0.00     0.159 HD
HETATM   19  O   UNL     1     -11.419   4.815 -35.195  1.00  0.00    -0.266 OA
ENDBRANCH   9  15
ENDBRANCH   2   5
BRANCH   1  20
HETATM   20  C   UNL     1      -6.412   3.268 -32.646  1.00  0.00     0.278 C 
BRANCH  20  21
HETATM   21  O   UNL     1      -5.560   2.327 -33.299  1.00  0.00    -0.342 OA
BRANCH  21  22
HETATM   22  C   UNL     1      -6.123   1.189 -33.814  1.00  0.00     0.076 A 
HETATM   23  C   UNL     1      -5.610  -0.043 -33.344  1.00  0.00    -0.021 A 
HETATM   24  C   UNL     1      -6.130  -1.225 -33.900  1.00  0.00     0.010 A 
HETATM   25  C   UNL     1      -7.116  -1.190 -34.888  1.00  0.00     0.001 A 
HETATM   26  C   UNL     1      -7.599   0.029 -35.346  1.00  0.00     0.003 A 
HETATM   27  C   UNL     1      -7.099   1.217 -34.817  1.00  0.00     0.037 A 
BRANCH  23  28
HETATM   28  C   UNL     1      -4.534  -0.064 -32.254  1.00  0.00     0.017 C 
HETATM   29  C   UNL     1      -5.145  -0.404 -30.888  1.00  0.00     0.015 C 
BRANCH  28  30
HETATM   30  C   UNL     1      -3.272  -0.917 -32.543  1.00  0.00     0.004 C 
HETATM   31  C   UNL     1      -3.268  -2.332 -31.971  1.00  0.00     0.006 C 
ENDBRANCH  28  30
ENDBRANCH  23  28
ENDBRANCH  21  22
ENDBRANCH  20  21
ENDBRANCH   1  20
TORSDOF 7
ENDMDL
MODEL 5
REMARK VINA RESULT:      -7.7      4.283      7.965
REMARK  7 active torsions:
REMARK  status: ('A' for Active; 'I' for Inactive)
REMARK    1  A    between atoms: C_2  and  C_3 
REMARK    2  A    between atoms: C_3  and  C_4 
REMARK    3  A    between atoms: C_5  and  O_6 
REMARK    4  A    between atoms: O_6  and  C_7 
REMARK    5  A    between atoms: C_7  and  C_8 
REMARK       I    between atoms: C_8  and  N_9 
REMARK    6  A    between atoms: N_9  and  C_10 
REMARK    7  A    between atoms: C_17  and  C_18 
REMARK       I    between atoms: C_18  and  N_19 
ROOT
HETATM    1  C   UNL     1      -4.685   2.551 -31.383  1.00  0.00     0.246 C 
HETATM    2  N   UNL     1      -5.731   1.904 -31.983  1.00  0.00    -0.325 N 
HETATM    3  O   UNL     1      -4.950   3.277 -30.418  1.00  0.00    -0.271 OA
HETATM    4  H   UNL     1      -6.622   2.290 -31.690  1.00  0.00     0.169 HD
ENDROOT
BRANCH   2   5
HETATM    5  C   UNL     1      -5.777   0.805 -32.852  1.00  0.00     0.035 A 
HETATM    6  C   UNL     1      -4.998  -0.345 -32.674  1.00  0.00     0.046 A 
HETATM    7  C   UNL     1      -5.141  -1.425 -33.572  1.00  0.00     0.030 A 
HETATM    8  C   UNL     1      -6.060  -1.321 -34.609  1.00  0.00     0.063 A 
HETATM    9  C   UNL     1      -4.570  -2.724 -33.712  1.00  0.00     0.156 A 
HETATM   10  N   UNL     1      -5.962  -2.498 -35.297  1.00  0.00    -0.277 N 
HETATM   11  C   UNL     1      -6.870  -0.200 -34.798  1.00  0.00     0.034 A 
HETATM   12  H   UNL     1      -6.482  -2.771 -36.124  1.00  0.00     0.189 HD
HETATM   13  N   UNL     1      -5.083  -3.373 -34.781  1.00  0.00    -0.168 NA
HETATM   14  C   UNL     1      -6.722   0.851 -33.884  1.00  0.00     0.032 A 
BRANCH   9  15
HETATM   15  C   UNL     1      -3.561  -3.348 -32.844  1.00  0.00     0.270 C 
HETATM   16  N   UNL     1      -3.278  -4.648 -33.160  1.00  0.00    -0.365 N 
HETATM   17  H   UNL     1      -3.768  -5.077 -33.937  1.00  0.00     0.159 HD
HETATM   18  H   UNL     1      -2.610  -5.165 -32.611  1.00  0.00     0.159 HD
HETATM   19  O   UNL     1      -3.009  -2.780 -31.907  1.00  0.00    -0.266 OA
ENDBRANCH   9  15
ENDBRANCH   2   5
BRANCH   1  20
HETATM   20  C   UNL     1      -3.272   2.483 -31.981  1.00  0.00     0.278 C 
BRANCH  20  21
HETATM   21  O   UNL     1      -2.400   3.509 -31.509  1.00  0.00    -0.342 OA
BRANCH  21  22
HETATM   22  C   UNL     1      -2.011   4.486 -32.386  1.00  0.00     0.076 A 
HETATM   23  C   UNL     1      -1.101   5.455 -31.898  1.00  0.00    -0.021 A 
HETATM   24  C   UNL     1      -0.731   6.501 -32.760  1.00  0.00     0.010 A 
HETATM   25  C   UNL     1      -1.245   6.590 -34.055  1.00  0.00     0.001 A 
HETATM   26  C   UNL     1      -2.146   5.638 -34.514  1.00  0.00     0.003 A 
HETATM   27  C   UNL     1      -2.535   4.592 -33.680  1.00  0.00     0.037 A 
BRANCH  23  28
HETATM   28  C   UNL     1      -0.541   5.337 -30.477  1.00  0.00     0.017 C 
HETATM   29  C   UNL     1       0.941   4.940 -30.505  1.00  0.00     0.015 C 
BRANCH  28  30
HETATM   30  C   UNL     1      -0.793   6.540 -29.532  1.00  0.00     0.004 C 
HETATM   31  C   UNL     1       0.413   7.423 -29.227  1.00  0.00     0.006 C 
ENDBRANCH  28  30
ENDBRANCH  23  28
ENDBRANCH  21  22
ENDBRANCH  20  21
ENDBRANCH   1  20
TORSDOF 7
ENDMDL
MODEL 6
REMARK VINA RESULT:      -7.7      2.043      2.241
REMARK  7 active torsions:
REMARK  status: ('A' for Active; 'I' for Inactive)
REMARK    1  A    between atoms: C_2  and  C_3 
REMARK    2  A    between atoms: C_3  and  C_4 
REMARK    3  A    between atoms: C_5  and  O_6 
REMARK    4  A    between atoms: O_6  and  C_7 
REMARK    5  A    between atoms: C_7  and  C_8 
REMARK       I    between atoms: C_8  and  N_9 
REMARK    6  A    between atoms: N_9  and  C_10 
REMARK    7  A    between atoms: C_17  and  C_18 
REMARK       I    between atoms: C_18  and  N_19 
ROOT
HETATM    1  C   UNL     1      -3.098  -1.392 -31.938  1.00  0.00     0.246 C 
HETATM    2  N   UNL     1      -3.347  -0.461 -30.966  1.00  0.00    -0.325 N 
HETATM    3  O   UNL     1      -2.743  -2.515 -31.567  1.00  0.00    -0.271 OA
HETATM    4  H   UNL     1      -2.983  -0.760 -30.067  1.00  0.00     0.169 HD
ENDROOT
BRANCH   2   5
HETATM    5  C   UNL     1      -4.041   0.756 -30.991  1.00  0.00     0.035 A 
HETATM    6  C   UNL     1      -3.416   1.989 -31.214  1.00  0.00     0.046 A 
HETATM    7  C   UNL     1      -4.197   3.163 -31.269  1.00  0.00     0.030 A 
HETATM    8  C   UNL     1      -5.574   3.063 -31.106  1.00  0.00     0.063 A 
HETATM    9  C   UNL     1      -3.950   4.550 -31.489  1.00  0.00     0.156 A 
HETATM   10  N   UNL     1      -6.042   4.344 -31.199  1.00  0.00    -0.277 N 
HETATM   11  C   UNL     1      -6.230   1.848 -30.909  1.00  0.00     0.034 A 
HETATM   12  H   UNL     1      -7.005   4.653 -31.121  1.00  0.00     0.189 HD
HETATM   13  N   UNL     1      -5.095   5.267 -31.441  1.00  0.00    -0.168 NA
HETATM   14  C   UNL     1      -5.435   0.695 -30.875  1.00  0.00     0.032 A 
BRANCH   9  15
HETATM   15  C   UNL     1      -2.653   5.190 -31.751  1.00  0.00     0.270 C 
HETATM   16  N   UNL     1      -2.554   6.468 -31.276  1.00  0.00    -0.365 N 
HETATM   17  H   UNL     1      -3.351   6.873 -30.800  1.00  0.00     0.159 HD
HETATM   18  H   UNL     1      -1.706   6.994 -31.421  1.00  0.00     0.159 HD
HETATM   19  O   UNL     1      -1.725   4.652 -32.346  1.00  0.00    -0.266 OA
ENDBRANCH   9  15
ENDBRANCH   2   5
BRANCH   1  20
HETATM   20  C   UNL     1      -3.123  -1.000 -33.424  1.00  0.00     0.278 C 
BRANCH  20  21
HETATM   21  O   UNL     1      -4.439  -0.842 -33.952  1.00  0.00    -0.342 OA
BRANCH  21  22
HETATM   22  C   UNL     1      -5.150  -1.967 -34.274  1.00  0.00     0.076 A 
HETATM   23  C   UNL     1      -6.561  -1.851 -34.272  1.00  0.00    -0.021 A 
HETATM   24  C   UNL     1      -7.315  -3.006 -34.543  1.00  0.00     0.010 A 
HETATM   25  C   UNL     1      -6.697  -4.232 -34.800  1.00  0.00     0.001 A 
HETATM   26  C   UNL     1      -5.312  -4.331 -34.786  1.00  0.00     0.003 A 
HETATM   27  C   UNL     1      -4.539  -3.203 -34.516  1.00  0.00     0.037 A 
BRANCH  23  28
HETATM   28  C   UNL     1      -7.221  -0.497 -33.995  1.00  0.00     0.017 C 
HETATM   29  C   UNL     1      -7.483   0.262 -35.304  1.00  0.00     0.015 C 
BRANCH  28  30
HETATM   30  C   UNL     1      -8.475  -0.512 -33.084  1.00  0.00     0.004 C 
HETATM   31  C   UNL     1      -9.308   0.766 -33.060  1.00  0.00     0.006 C 
ENDBRANCH  28  30
ENDBRANCH  23  28
ENDBRANCH  21  22
ENDBRANCH  20  21
ENDBRANCH   1  20
TORSDOF 7
ENDMDL
MODEL 7
REMARK VINA RESULT:      -7.6      2.254      4.120
REMARK  7 active torsions:
REMARK  status: ('A' for Active; 'I' for Inactive)
REMARK    1  A    between atoms: C_2  and  C_3 
REMARK    2  A    between atoms: C_3  and  C_4 
REMARK    3  A    between atoms: C_5  and  O_6 
REMARK    4  A    between atoms: O_6  and  C_7 
REMARK    5  A    between atoms: C_7  and  C_8 
REMARK       I    between atoms: C_8  and  N_9 
REMARK    6  A    between atoms: N_9  and  C_10 
REMARK    7  A    between atoms: C_17  and  C_18 
REMARK       I    between atoms: C_18  and  N_19 
ROOT
HETATM    1  C   UNL     1      -9.311   1.291 -33.997  1.00  0.00     0.246 C 
HETATM    2  N   UNL     1      -9.153   2.090 -32.897  1.00  0.00    -0.325 N 
HETATM    3  O   UNL     1     -10.431   1.260 -34.516  1.00  0.00    -0.271 OA
HETATM    4  H   UNL     1     -10.049   2.379 -32.519  1.00  0.00     0.169 HD
ENDROOT
BRANCH   2   5
HETATM    5  C   UNL     1      -8.009   2.603 -32.269  1.00  0.00     0.035 A 
HETATM    6  C   UNL     1      -7.019   3.322 -32.949  1.00  0.00     0.046 A 
HETATM    7  C   UNL     1      -5.922   3.842 -32.230  1.00  0.00     0.030 A 
HETATM    8  C   UNL     1      -5.857   3.632 -30.858  1.00  0.00     0.063 A 
HETATM    9  C   UNL     1      -4.766   4.616 -32.541  1.00  0.00     0.156 A 
HETATM   10  N   UNL     1      -4.698   4.236 -30.454  1.00  0.00    -0.277 N 
HETATM   11  C   UNL     1      -6.839   2.943 -30.146  1.00  0.00     0.034 A 
HETATM   12  H   UNL     1      -4.322   4.277 -29.514  1.00  0.00     0.189 HD
HETATM   13  N   UNL     1      -4.019   4.849 -31.439  1.00  0.00    -0.168 NA
HETATM   14  C   UNL     1      -7.927   2.451 -30.879  1.00  0.00     0.032 A 
BRANCH   9  15
HETATM   15  C   UNL     1      -4.375   5.137 -33.859  1.00  0.00     0.270 C 
HETATM   16  N   UNL     1      -3.328   6.016 -33.825  1.00  0.00    -0.365 N 
HETATM   17  H   UNL     1      -2.912   6.243 -32.930  1.00  0.00     0.159 HD
HETATM   18  H   UNL     1      -2.999   6.438 -34.679  1.00  0.00     0.159 HD
HETATM   19  O   UNL     1      -4.926   4.835 -34.912  1.00  0.00    -0.266 OA
ENDBRANCH   9  15
ENDBRANCH   2   5
BRANCH   1  20
HETATM   20  C   UNL     1      -8.175   0.369 -34.466  1.00  0.00     0.278 C 
BRANCH  20  21
HETATM   21  O   UNL     1      -7.812  -0.625 -33.508  1.00  0.00    -0.342 OA
BRANCH  21  22
HETATM   22  C   UNL     1      -6.801  -1.494 -33.824  1.00  0.00     0.076 A 
HETATM   23  C   UNL     1      -5.516  -1.185 -33.319  1.00  0.00    -0.021 A 
HETATM   24  C   UNL     1      -4.450  -2.029 -33.676  1.00  0.00     0.010 A 
HETATM   25  C   UNL     1      -4.647  -3.134 -34.507  1.00  0.00     0.001 A 
HETATM   26  C   UNL     1      -5.912  -3.415 -35.004  1.00  0.00     0.003 A 
HETATM   27  C   UNL     1      -6.987  -2.593 -34.671  1.00  0.00     0.037 A 
BRANCH  23  28
HETATM   28  C   UNL     1      -5.319   0.026 -32.402  1.00  0.00     0.017 C 
HETATM   29  C   UNL     1      -5.656  -0.329 -30.947  1.00  0.00     0.015 C 
BRANCH  28  30
HETATM   30  C   UNL     1      -3.960   0.762 -32.510  1.00  0.00     0.004 C 
HETATM   31  C   UNL     1      -3.218   1.007 -31.199  1.00  0.00     0.006 C 
ENDBRANCH  28  30
ENDBRANCH  23  28
ENDBRANCH  21  22
ENDBRANCH  20  21
ENDBRANCH   1  20
TORSDOF 7
ENDMDL
MODEL 8
REMARK VINA RESULT:      -7.6      3.911      6.019
REMARK  7 active torsions:
REMARK  status: ('A' for Active; 'I' for Inactive)
REMARK    1  A    between atoms: C_2  and  C_3 
REMARK    2  A    between atoms: C_3  and  C_4 
REMARK    3  A    between atoms: C_5  and  O_6 
REMARK    4  A    between atoms: O_6  and  C_7 
REMARK    5  A    between atoms: C_7  and  C_8 
REMARK       I    between atoms: C_8  and  N_9 
REMARK    6  A    between atoms: N_9  and  C_10 
REMARK    7  A    between atoms: C_17  and  C_18 
REMARK       I    between atoms: C_18  and  N_19 
ROOT
HETATM    1  C   UNL     1      -7.879   2.405 -33.318  1.00  0.00     0.246 C 
HETATM    2  N   UNL     1      -9.008   2.847 -33.953  1.00  0.00    -0.325 N 
HETATM    3  O   UNL     1      -6.795   2.665 -33.850  1.00  0.00    -0.271 OA
HETATM    4  H   UNL     1      -8.808   3.137 -34.904  1.00  0.00     0.169 HD
ENDROOT
BRANCH   2   5
HETATM    5  C   UNL     1     -10.328   3.013 -33.509  1.00  0.00     0.035 A 
HETATM    6  C   UNL     1     -11.323   2.045 -33.689  1.00  0.00     0.046 A 
HETATM    7  C   UNL     1     -12.615   2.275 -33.169  1.00  0.00     0.030 A 
HETATM    8  C   UNL     1     -12.865   3.457 -32.484  1.00  0.00     0.063 A 
HETATM    9  C   UNL     1     -13.846   1.555 -33.125  1.00  0.00     0.156 A 
HETATM   10  N   UNL     1     -14.180   3.393 -32.118  1.00  0.00    -0.277 N 
HETATM   11  C   UNL     1     -11.888   4.430 -32.264  1.00  0.00     0.034 A 
HETATM   12  H   UNL     1     -14.711   4.089 -31.607  1.00  0.00     0.189 HD
HETATM   13  N   UNL     1     -14.802   2.257 -32.477  1.00  0.00    -0.168 NA
HETATM   14  C   UNL     1     -10.609   4.172 -32.774  1.00  0.00     0.032 A 
BRANCH   9  15
HETATM   15  C   UNL     1     -14.113   0.220 -33.679  1.00  0.00     0.270 C 
HETATM   16  N   UNL     1     -15.152   0.180 -34.566  1.00  0.00    -0.365 N 
HETATM   17  H   UNL     1     -15.651   1.038 -34.770  1.00  0.00     0.159 HD
HETATM   18  H   UNL     1     -15.420  -0.696 -34.987  1.00  0.00     0.159 HD
HETATM   19  O   UNL     1     -13.481  -0.789 -33.384  1.00  0.00    -0.266 OA
ENDBRANCH   9  15
ENDBRANCH   2   5
BRANCH   1  20
HETATM   20  C   UNL     1      -7.978   1.505 -32.077  1.00  0.00     0.278 C 
BRANCH  20  21
HETATM   21  O   UNL     1      -7.549   0.163 -32.308  1.00  0.00    -0.342 OA
BRANCH  21  22
HETATM   22  C   UNL     1      -6.224  -0.136 -32.130  1.00  0.00     0.076 A 
HETATM   23  C   UNL     1      -5.660  -1.082 -33.020  1.00  0.00    -0.021 A 
HETATM   24  C   UNL     1      -4.318  -1.450 -32.822  1.00  0.00     0.010 A 
HETATM   25  C   UNL     1      -3.563  -0.907 -31.780  1.00  0.00     0.001 A 
HETATM   26  C   UNL     1      -4.136   0.011 -30.909  1.00  0.00     0.003 A 
HETATM   27  C   UNL     1      -5.466   0.390 -31.078  1.00  0.00     0.037 A 
BRANCH  23  28
HETATM   28  C   UNL     1      -6.501  -1.661 -34.162  1.00  0.00     0.017 C 
HETATM   29  C   UNL     1      -6.872  -0.571 -35.176  1.00  0.00     0.015 C 
BRANCH  28  30
HETATM   30  C   UNL     1      -5.939  -2.925 -34.862  1.00  0.00     0.004 C 
HETATM   31  C   UNL     1      -6.818  -4.171 -34.814  1.00  0.00     0.006 C 
ENDBRANCH  28  30
ENDBRANCH  23  28
ENDBRANCH  21  22
ENDBRANCH  20  21
ENDBRANCH   1  20
TORSDOF 7
ENDMDL
MODEL 9
REMARK VINA RESULT:      -7.6      2.773      4.965
REMARK  7 active torsions:
REMARK  status: ('A' for Active; 'I' for Inactive)
REMARK    1  A    between atoms: C_2  and  C_3 
REMARK    2  A    between atoms: C_3  and  C_4 
REMARK    3  A    between atoms: C_5  and  O_6 
REMARK    4  A    between atoms: O_6  and  C_7 
REMARK    5  A    between atoms: C_7  and  C_8 
REMARK       I    between atoms: C_8  and  N_9 
REMARK    6  A    between atoms: N_9  and  C_10 
REMARK    7  A    between atoms: C_17  and  C_18 
REMARK       I    between atoms: C_18  and  N_19 
ROOT
HETATM    1  C   UNL     1      -9.449   1.618 -32.962  1.00  0.00     0.246 C 
HETATM    2  N   UNL     1      -8.852   2.807 -33.283  1.00  0.00    -0.325 N 
HETATM    3  O   UNL     1     -10.403   1.259 -33.660  1.00  0.00    -0.271 OA
HETATM    4  H   UNL     1      -9.426   3.348 -33.922  1.00  0.00     0.169 HD
ENDROOT
BRANCH   2   5
HETATM    5  C   UNL     1      -7.608   3.353 -32.939  1.00  0.00     0.035 A 
HETATM    6  C   UNL     1      -7.352   3.953 -31.700  1.00  0.00     0.046 A 
HETATM    7  C   UNL     1      -6.056   4.437 -31.418  1.00  0.00     0.030 A 
HETATM    8  C   UNL     1      -5.062   4.297 -32.379  1.00  0.00     0.063 A 
HETATM    9  C   UNL     1      -5.414   5.065 -30.311  1.00  0.00     0.156 A 
HETATM   10  N   UNL     1      -3.945   4.859 -31.827  1.00  0.00    -0.277 N 
HETATM   11  C   UNL     1      -5.277   3.681 -33.613  1.00  0.00     0.034 A 
HETATM   12  H   UNL     1      -3.027   4.943 -32.249  1.00  0.00     0.189 HD
HETATM   13  N   UNL     1      -4.115   5.322 -30.577  1.00  0.00    -0.168 NA
HETATM   14  C   UNL     1      -6.567   3.194 -33.862  1.00  0.00     0.032 A 
BRANCH   9  15
HETATM   15  C   UNL     1      -6.017   5.410 -29.015  1.00  0.00     0.270 C 
HETATM   16  N   UNL     1      -5.276   5.024 -27.933  1.00  0.00    -0.365 N 
HETATM   17  H   UNL     1      -4.399   4.541 -28.091  1.00  0.00     0.159 HD
HETATM   18  H   UNL     1      -5.616   5.204 -27.001  1.00  0.00     0.159 HD
HETATM   19  O   UNL     1      -7.092   5.987 -28.885  1.00  0.00    -0.266 OA
ENDBRANCH   9  15
ENDBRANCH   2   5
BRANCH   1  20
HETATM   20  C   UNL     1      -9.033   0.847 -31.699  1.00  0.00     0.278 C 
BRANCH  20  21
HETATM   21  O   UNL     1      -8.130  -0.227 -31.956  1.00  0.00    -0.342 OA
BRANCH  21  22
HETATM   22  C   UNL     1      -6.785   0.032 -31.922  1.00  0.00     0.076 A 
HETATM   23  C   UNL     1      -6.017  -0.443 -33.012  1.00  0.00    -0.021 A 
HETATM   24  C   UNL     1      -4.626  -0.241 -32.972  1.00  0.00     0.010 A 
HETATM   25  C   UNL     1      -4.017   0.401 -31.893  1.00  0.00     0.001 A 
HETATM   26  C   UNL     1      -4.784   0.850 -30.826  1.00  0.00     0.003 A 
HETATM   27  C   UNL     1      -6.164   0.659 -30.835  1.00  0.00     0.037 A 
BRANCH  23  28
HETATM   28  C   UNL     1      -6.703  -1.138 -34.192  1.00  0.00     0.017 C 
HETATM   29  C   UNL     1      -7.099  -0.122 -35.271  1.00  0.00     0.015 C 
BRANCH  28  30
HETATM   30  C   UNL     1      -5.965  -2.359 -34.799  1.00  0.00     0.004 C 
HETATM   31  C   UNL     1      -6.749  -3.668 -34.844  1.00  0.00     0.006 C 
ENDBRANCH  28  30
ENDBRANCH  23  28
ENDBRANCH  21  22
ENDBRANCH  20  21
ENDBRANCH   1  20
TORSDOF 7
ENDMDL
MODEL 10
REMARK VINA RESULT:      -7.6      3.897      6.816
REMARK  7 active torsions:
REMARK  status: ('A' for Active; 'I' for Inactive)
REMARK    1  A    between atoms: C_2  and  C_3 
REMARK    2  A    between atoms: C_3  and  C_4 
REMARK    3  A    between atoms: C_5  and  O_6 
REMARK    4  A    between atoms: O_6  and  C_7 
REMARK    5  A    between atoms: C_7  and  C_8 
REMARK       I    between atoms: C_8  and  N_9 
REMARK    6  A    between atoms: N_9  and  C_10 
REMARK    7  A    between atoms: C_17  and  C_18 
REMARK       I    between atoms: C_18  and  N_19 
ROOT
HETATM    1  C   UNL     1      -3.455   1.083 -31.403  1.00  0.00     0.246 C 
HETATM    2  N   UNL     1      -4.475   0.223 -31.707  1.00  0.00    -0.325 N 
HETATM    3  O   UNL     1      -2.422   0.591 -30.938  1.00  0.00    -0.271 OA
HETATM    4  H   UNL     1      -4.324  -0.691 -31.293  1.00  0.00     0.169 HD
ENDROOT
BRANCH   2   5
HETATM    5  C   UNL     1      -5.616   0.369 -32.508  1.00  0.00     0.035 A 
HETATM    6  C   UNL     1      -6.741   1.102 -32.111  1.00  0.00     0.046 A 
HETATM    7  C   UNL     1      -7.830   1.237 -33.000  1.00  0.00     0.030 A 
HETATM    8  C   UNL     1      -7.753   0.643 -34.253  1.00  0.00     0.063 A 
HETATM    9  C   UNL     1      -9.095   1.895 -32.979  1.00  0.00     0.156 A 
HETATM   10  N   UNL     1      -8.939   0.937 -34.866  1.00  0.00    -0.277 N 
HETATM   11  C   UNL     1      -6.636  -0.072 -34.689  1.00  0.00     0.034 A 
HETATM   12  H   UNL     1      -9.237   0.658 -35.794  1.00  0.00     0.189 HD
HETATM   13  N   UNL     1      -9.769   1.700 -34.134  1.00  0.00    -0.168 NA
HETATM   14  C   UNL     1      -5.562  -0.178 -33.796  1.00  0.00     0.032 A 
BRANCH   9  15
HETATM   15  C   UNL     1      -9.656   2.705 -31.888  1.00  0.00     0.270 C 
HETATM   16  N   UNL     1      -9.743   2.048 -30.692  1.00  0.00    -0.365 N 
HETATM   17  H   UNL     1      -9.432   1.085 -30.642  1.00  0.00     0.159 HD
HETATM   18  H   UNL     1     -10.130   2.517 -29.888  1.00  0.00     0.159 HD
HETATM   19  O   UNL     1     -10.028   3.867 -32.011  1.00  0.00    -0.266 OA
ENDBRANCH   9  15
ENDBRANCH   2   5
BRANCH   1  20
HETATM   20  C   UNL     1      -3.654   2.603 -31.505  1.00  0.00     0.278 C 
BRANCH  20  21
HETATM   21  O   UNL     1      -2.442   3.348 -31.387  1.00  0.00    -0.342 OA
BRANCH  21  22
HETATM   22  C   UNL     1      -2.144   4.262 -32.363  1.00  0.00     0.076 A 
HETATM   23  C   UNL     1      -1.230   5.286 -32.017  1.00  0.00    -0.021 A 
HETATM   24  C   UNL     1      -0.952   6.271 -32.981  1.00  0.00     0.010 A 
HETATM   25  C   UNL     1      -1.559   6.247 -34.238  1.00  0.00     0.001 A 
HETATM   26  C   UNL     1      -2.462   5.241 -34.557  1.00  0.00     0.003 A 
HETATM   27  C   UNL     1      -2.761   4.255 -33.619  1.00  0.00     0.037 A 
BRANCH  23  28
HETATM   28  C   UNL     1      -0.568   5.293 -30.636  1.00  0.00     0.017 C 
HETATM   29  C   UNL     1       0.935   5.003 -30.748  1.00  0.00     0.015 C 
BRANCH  28  30
HETATM   30  C   UNL     1      -0.846   6.528 -29.741  1.00  0.00     0.004 C 
HETATM   31  C   UNL     1       0.374   7.335 -29.306  1.00  0.00     0.006 C 
ENDBRANCH  28  30
ENDBRANCH  23  28
ENDBRANCH  21  22
ENDBRANCH  20  21
ENDBRANCH   1  20
TORSDOF 7
ENDMDL
