MODEL 1
REMARK VINA RESULT:     -10.2      0.000      0.000
REMARK  5 active torsions:
REMARK  status: ('A' for Active; 'I' for Inactive)
REMARK    1  A    between atoms: C_5  and  C_6 
REMARK    2  A    between atoms: C_14  and  C_15 
REMARK       I    between atoms: C_15  and  N_16 
REMARK    3  A    between atoms: N_16  and  C_17 
REMARK    4  A    between atoms: C_20  and  C_21 
REMARK    5  A    between atoms: C_23  and  N_24 
ROOT
HETATM    1  C   UNL     1      -2.305   4.281 -32.099  1.00  0.00     0.262 C 
HETATM    2  N   UNL     1      -3.276   3.480 -32.656  1.00  0.00    -0.301 N 
HETATM    3  O   UNL     1      -1.584   3.944 -31.166  1.00  0.00    -0.267 OA
HETATM    4  H   UNL     1      -3.614   3.662 -33.587  1.00  0.00     0.171 HD
ENDROOT
BRANCH   1   5
HETATM    5  C   UNL     1      -2.117   5.581 -32.733  1.00  0.00     0.095 A 
HETATM    6  C   UNL     1      -2.416   6.001 -34.018  1.00  0.00     0.093 A 
HETATM    7  C   UNL     1      -3.020   5.396 -35.222  1.00  0.00     0.080 C 
HETATM    8  O   UNL     1      -2.076   7.310 -34.154  1.00  0.00    -0.217 OA
HETATM    9  N   UNL     1      -1.578   7.793 -32.968  1.00  0.00    -0.127 NA
HETATM   10  C   UNL     1      -1.613   6.768 -32.105  1.00  0.00     0.117 A 
BRANCH  10  11
HETATM   11  C   UNL     1      -1.178   6.948 -30.728  1.00  0.00     0.056 A 
HETATM   12  C   UNL     1      -2.082   7.072 -29.665  1.00  0.00     0.049 A 
HETATM   13 CL   UNL     1      -3.797   7.016 -29.895  1.00  0.00    -0.083 Cl
HETATM   14  C   UNL     1      -1.613   7.279 -28.360  1.00  0.00     0.025 A 
HETATM   15  C   UNL     1      -0.244   7.373 -28.108  1.00  0.00     0.005 A 
HETATM   16  C   UNL     1       0.661   7.251 -29.158  1.00  0.00     0.043 A 
HETATM   17  C   UNL     1       0.191   7.032 -30.452  1.00  0.00     0.130 A 
HETATM   18  F   UNL     1       1.090   6.917 -31.443  1.00  0.00    -0.205 F 
ENDBRANCH  10  11
ENDBRANCH   1   5
BRANCH   2  19
HETATM   19  C   UNL     1      -3.735   2.296 -32.132  1.00  0.00     0.173 A 
HETATM   20  S   UNL     1      -4.795   2.237 -30.797  1.00  0.00    -0.061 SA
HETATM   21  C   UNL     1      -4.843   0.533 -30.915  1.00  0.00     0.085 A 
HETATM   22  C   UNL     1      -4.070   0.117 -31.981  1.00  0.00     0.076 A 
HETATM   23  N   UNL     1      -3.449   1.141 -32.686  1.00  0.00    -0.223 NA
BRANCH  22  24
HETATM   24  C   UNL     1      -3.871  -1.284 -32.337  1.00  0.00    -0.004 A 
HETATM   25  C   UNL     1      -4.579  -1.882 -33.389  1.00  0.00     0.050 A 
HETATM   26  C   UNL     1      -4.386  -3.242 -33.676  1.00  0.00     0.103 A 
HETATM   27  C   UNL     1      -3.491  -4.014 -32.926  1.00  0.00     0.036 A 
HETATM   28  C   UNL     1      -2.777  -3.416 -31.889  1.00  0.00     0.003 A 
HETATM   29  C   UNL     1      -2.964  -2.061 -31.601  1.00  0.00     0.014 A 
BRANCH  26  30
HETATM   30  N   UNL     1      -5.140  -3.864 -34.773  1.00  0.00    -0.116 N 
HETATM   31  O   UNL     1      -5.287  -5.094 -34.746  1.00  0.00    -0.532 OA
HETATM   32  O   UNL     1      -5.579  -3.122 -35.663  1.00  0.00    -0.532 OA
ENDBRANCH  26  30
ENDBRANCH  22  24
ENDBRANCH   2  19
TORSDOF 5
ENDMDL
MODEL 2
REMARK VINA RESULT:      -9.7      1.968      2.583
REMARK  5 active torsions:
REMARK  status: ('A' for Active; 'I' for Inactive)
REMARK    1  A    between atoms: C_5  and  C_6 
REMARK    2  A    between atoms: C_14  and  C_15 
REMARK       I    between atoms: C_15  and  N_16 
REMARK    3  A    between atoms: N_16  and  C_17 
REMARK    4  A    between atoms: C_20  and  C_21 
REMARK    5  A    between atoms: C_23  and  N_24 
ROOT
HETATM    1  C   UNL     1      -2.302   4.667 -31.978  1.00  0.00     0.262 C 
HETATM    2  N   UNL     1      -3.432   4.120 -32.542  1.00  0.00    -0.301 N 
HETATM    3  O   UNL     1      -1.569   4.080 -31.190  1.00  0.00    -0.267 OA
HETATM    4  H   UNL     1      -3.814   4.500 -33.392  1.00  0.00     0.171 HD
ENDROOT
BRANCH   1   5
HETATM    5  C   UNL     1      -1.962   6.013 -32.425  1.00  0.00     0.095 A 
HETATM    6  C   UNL     1      -1.466   6.453 -33.641  1.00  0.00     0.093 A 
HETATM    7  C   UNL     1      -1.104   5.831 -34.930  1.00  0.00     0.080 C 
HETATM    8  O   UNL     1      -1.315   7.803 -33.604  1.00  0.00    -0.217 OA
HETATM    9  N   UNL     1      -1.730   8.290 -32.388  1.00  0.00    -0.127 NA
HETATM   10  C   UNL     1      -2.134   7.227 -31.680  1.00  0.00     0.117 A 
BRANCH  10  11
HETATM   11  C   UNL     1      -2.671   7.395 -30.338  1.00  0.00     0.056 A 
HETATM   12  C   UNL     1      -1.849   7.527 -29.211  1.00  0.00     0.049 A 
HETATM   13 CL   UNL     1      -0.121   7.509 -29.316  1.00  0.00    -0.083 Cl
HETATM   14  C   UNL     1      -2.415   7.651 -27.934  1.00  0.00     0.025 A 
HETATM   15  C   UNL     1      -3.802   7.634 -27.772  1.00  0.00     0.005 A 
HETATM   16  C   UNL     1      -4.625   7.504 -28.886  1.00  0.00     0.043 A 
HETATM   17  C   UNL     1      -4.058   7.393 -30.155  1.00  0.00     0.130 A 
HETATM   18  F   UNL     1      -4.881   7.270 -31.209  1.00  0.00    -0.205 F 
ENDBRANCH  10  11
ENDBRANCH   1   5
BRANCH   2  19
HETATM   19  C   UNL     1      -4.030   2.945 -32.155  1.00  0.00     0.173 A 
HETATM   20  S   UNL     1      -4.877   2.791 -30.683  1.00  0.00    -0.061 SA
HETATM   21  C   UNL     1      -5.269   1.176 -31.082  1.00  0.00     0.085 A 
HETATM   22  C   UNL     1      -4.753   0.863 -32.323  1.00  0.00     0.076 A 
HETATM   23  N   UNL     1      -4.054   1.894 -32.941  1.00  0.00    -0.223 NA
BRANCH  22  24
HETATM   24  C   UNL     1      -4.880  -0.452 -32.943  1.00  0.00    -0.004 A 
HETATM   25  C   UNL     1      -4.073  -1.529 -32.552  1.00  0.00     0.050 A 
HETATM   26  C   UNL     1      -4.201  -2.768 -33.199  1.00  0.00     0.103 A 
HETATM   27  C   UNL     1      -5.129  -2.947 -34.231  1.00  0.00     0.036 A 
HETATM   28  C   UNL     1      -5.941  -1.879 -34.610  1.00  0.00     0.003 A 
HETATM   29  C   UNL     1      -5.819  -0.643 -33.968  1.00  0.00     0.014 A 
BRANCH  26  30
HETATM   30  N   UNL     1      -3.344  -3.889 -32.790  1.00  0.00    -0.116 N 
HETATM   31  O   UNL     1      -3.226  -4.841 -33.576  1.00  0.00    -0.532 OA
HETATM   32  O   UNL     1      -2.794  -3.820 -31.682  1.00  0.00    -0.532 OA
ENDBRANCH  26  30
ENDBRANCH  22  24
ENDBRANCH   2  19
TORSDOF 5
ENDMDL
MODEL 3
REMARK VINA RESULT:      -9.6      1.728      2.344
REMARK  5 active torsions:
REMARK  status: ('A' for Active; 'I' for Inactive)
REMARK    1  A    between atoms: C_5  and  C_6 
REMARK    2  A    between atoms: C_14  and  C_15 
REMARK       I    between atoms: C_15  and  N_16 
REMARK    3  A    between atoms: N_16  and  C_17 
REMARK    4  A    between atoms: C_20  and  C_21 
REMARK    5  A    between atoms: C_23  and  N_24 
ROOT
HETATM    1  C   UNL     1      -2.488   4.623 -32.089  1.00  0.00     0.262 C 
HETATM    2  N   UNL     1      -3.578   4.059 -32.710  1.00  0.00    -0.301 N 
HETATM    3  O   UNL     1      -1.809   4.059 -31.238  1.00  0.00    -0.267 OA
HETATM    4  H   UNL     1      -3.902   4.415 -33.595  1.00  0.00     0.171 HD
ENDROOT
BRANCH   1   5
HETATM    5  C   UNL     1      -2.116   5.956 -32.550  1.00  0.00     0.095 A 
HETATM    6  C   UNL     1      -1.503   6.357 -33.725  1.00  0.00     0.093 A 
HETATM    7  C   UNL     1      -1.003   5.693 -34.945  1.00  0.00     0.080 C 
HETATM    8  O   UNL     1      -1.371   7.710 -33.725  1.00  0.00    -0.217 OA
HETATM    9  N   UNL     1      -1.913   8.236 -32.577  1.00  0.00    -0.127 NA
HETATM   10  C   UNL     1      -2.377   7.194 -31.874  1.00  0.00     0.117 A 
BRANCH  10  11
HETATM   11  C   UNL     1      -3.051   7.404 -30.601  1.00  0.00     0.056 A 
HETATM   12  C   UNL     1      -4.446   7.393 -30.478  1.00  0.00     0.049 A 
HETATM   13 CL   UNL     1      -5.493   7.121 -31.829  1.00  0.00    -0.083 Cl
HETATM   14  C   UNL     1      -5.048   7.636 -29.235  1.00  0.00     0.025 A 
HETATM   15  C   UNL     1      -4.264   7.901 -28.111  1.00  0.00     0.005 A 
HETATM   16  C   UNL     1      -2.877   7.913 -28.224  1.00  0.00     0.043 A 
HETATM   17  C   UNL     1      -2.283   7.659 -29.459  1.00  0.00     0.130 A 
HETATM   18  F   UNL     1      -0.942   7.677 -29.534  1.00  0.00    -0.205 F 
ENDBRANCH  10  11
ENDBRANCH   1   5
BRANCH   2  19
HETATM   19  C   UNL     1      -4.202   2.895 -32.331  1.00  0.00     0.173 A 
HETATM   20  S   UNL     1      -5.082   2.761 -30.876  1.00  0.00    -0.061 SA
HETATM   21  C   UNL     1      -5.490   1.150 -31.276  1.00  0.00     0.085 A 
HETATM   22  C   UNL     1      -4.952   0.824 -32.505  1.00  0.00     0.076 A 
HETATM   23  N   UNL     1      -4.226   1.841 -33.113  1.00  0.00    -0.223 NA
BRANCH  22  24
HETATM   24  C   UNL     1      -5.087  -0.492 -33.122  1.00  0.00    -0.004 A 
HETATM   25  C   UNL     1      -4.230  -1.550 -32.787  1.00  0.00     0.050 A 
HETATM   26  C   UNL     1      -4.368  -2.790 -33.430  1.00  0.00     0.103 A 
HETATM   27  C   UNL     1      -5.355  -2.988 -34.403  1.00  0.00     0.036 A 
HETATM   28  C   UNL     1      -6.216  -1.940 -34.725  1.00  0.00     0.003 A 
HETATM   29  C   UNL     1      -6.083  -0.703 -34.086  1.00  0.00     0.014 A 
BRANCH  26  30
HETATM   30  N   UNL     1      -3.460  -3.891 -33.082  1.00  0.00    -0.116 N 
HETATM   31  O   UNL     1      -3.257  -4.764 -33.939  1.00  0.00    -0.532 OA
HETATM   32  O   UNL     1      -2.954  -3.884 -31.951  1.00  0.00    -0.532 OA
ENDBRANCH  26  30
ENDBRANCH  22  24
ENDBRANCH   2  19
TORSDOF 5
ENDMDL
MODEL 4
REMARK VINA RESULT:      -9.5      7.295      9.162
REMARK  5 active torsions:
REMARK  status: ('A' for Active; 'I' for Inactive)
REMARK    1  A    between atoms: C_5  and  C_6 
REMARK    2  A    between atoms: C_14  and  C_15 
REMARK       I    between atoms: C_15  and  N_16 
REMARK    3  A    between atoms: N_16  and  C_17 
REMARK    4  A    between atoms: C_20  and  C_21 
REMARK    5  A    between atoms: C_23  and  N_24 
ROOT
HETATM    1  C   UNL     1     -11.283   1.649 -33.584  1.00  0.00     0.262 C 
HETATM    2  N   UNL     1     -10.598   0.864 -32.684  1.00  0.00    -0.301 N 
HETATM    3  O   UNL     1     -10.770   2.199 -34.552  1.00  0.00    -0.267 OA
HETATM    4  H   UNL     1     -11.091   0.198 -32.111  1.00  0.00     0.171 HD
ENDROOT
BRANCH   1   5
HETATM    5  C   UNL     1     -12.721   1.755 -33.364  1.00  0.00     0.095 A 
HETATM    6  C   UNL     1     -13.709   0.787 -33.429  1.00  0.00     0.093 A 
HETATM    7  C   UNL     1     -13.762  -0.662 -33.705  1.00  0.00     0.080 C 
HETATM    8  O   UNL     1     -14.910   1.349 -33.132  1.00  0.00    -0.217 OA
HETATM    9  N   UNL     1     -14.747   2.681 -32.837  1.00  0.00    -0.127 NA
HETATM   10  C   UNL     1     -13.436   2.931 -32.959  1.00  0.00     0.117 A 
BRANCH  10  11
HETATM   11  C   UNL     1     -12.909   4.259 -32.682  1.00  0.00     0.056 A 
HETATM   12  C   UNL     1     -12.629   5.183 -33.697  1.00  0.00     0.049 A 
HETATM   13 CL   UNL     1     -12.892   4.829 -35.371  1.00  0.00    -0.083 Cl
HETATM   14  C   UNL     1     -12.089   6.438 -33.381  1.00  0.00     0.025 A 
HETATM   15  C   UNL     1     -11.816   6.775 -32.055  1.00  0.00     0.005 A 
HETATM   16  C   UNL     1     -12.091   5.863 -31.040  1.00  0.00     0.043 A 
HETATM   17  C   UNL     1     -12.640   4.622 -31.357  1.00  0.00     0.130 A 
HETATM   18  F   UNL     1     -12.895   3.765 -30.355  1.00  0.00    -0.205 F 
ENDBRANCH  10  11
ENDBRANCH   1   5
BRANCH   2  19
HETATM   19  C   UNL     1      -9.232   0.753 -32.598  1.00  0.00     0.173 A 
HETATM   20  S   UNL     1      -8.282   1.837 -31.685  1.00  0.00    -0.061 SA
HETATM   21  C   UNL     1      -6.882   0.944 -32.090  1.00  0.00     0.085 A 
HETATM   22  C   UNL     1      -7.229  -0.139 -32.873  1.00  0.00     0.076 A 
HETATM   23  N   UNL     1      -8.587  -0.250 -33.146  1.00  0.00    -0.223 NA
BRANCH  22  24
HETATM   24  C   UNL     1      -6.261  -1.086 -33.418  1.00  0.00    -0.004 A 
HETATM   25  C   UNL     1      -6.666  -2.280 -34.030  1.00  0.00     0.050 A 
HETATM   26  C   UNL     1      -5.703  -3.182 -34.509  1.00  0.00     0.103 A 
HETATM   27  C   UNL     1      -4.337  -2.903 -34.387  1.00  0.00     0.036 A 
HETATM   28  C   UNL     1      -3.934  -1.709 -33.791  1.00  0.00     0.003 A 
HETATM   29  C   UNL     1      -4.890  -0.807 -33.314  1.00  0.00     0.014 A 
BRANCH  26  30
HETATM   30  N   UNL     1      -6.137  -4.436 -35.139  1.00  0.00    -0.116 N 
HETATM   31  O   UNL     1      -5.425  -5.438 -34.977  1.00  0.00    -0.532 OA
HETATM   32  O   UNL     1      -7.185  -4.417 -35.798  1.00  0.00    -0.532 OA
ENDBRANCH  26  30
ENDBRANCH  22  24
ENDBRANCH   2  19
TORSDOF 5
ENDMDL
MODEL 5
REMARK VINA RESULT:      -9.0      4.282      9.321
REMARK  5 active torsions:
REMARK  status: ('A' for Active; 'I' for Inactive)
REMARK    1  A    between atoms: C_5  and  C_6 
REMARK    2  A    between atoms: C_14  and  C_15 
REMARK       I    between atoms: C_15  and  N_16 
REMARK    3  A    between atoms: N_16  and  C_17 
REMARK    4  A    between atoms: C_20  and  C_21 
REMARK    5  A    between atoms: C_23  and  N_24 
ROOT
HETATM    1  C   UNL     1      -6.862   2.896 -33.126  1.00  0.00     0.262 C 
HETATM    2  N   UNL     1      -6.474   3.598 -32.007  1.00  0.00    -0.301 N 
HETATM    3  O   UNL     1      -6.321   2.989 -34.222  1.00  0.00    -0.267 OA
HETATM    4  H   UNL     1      -6.724   3.272 -31.088  1.00  0.00     0.171 HD
ENDROOT
BRANCH   1   5
HETATM    5  C   UNL     1      -7.952   1.947 -32.929  1.00  0.00     0.095 A 
HETATM    6  C   UNL     1      -9.317   2.158 -32.843  1.00  0.00     0.093 A 
HETATM    7  C   UNL     1     -10.221   3.324 -32.918  1.00  0.00     0.080 C 
HETATM    8  O   UNL     1      -9.948   0.967 -32.672  1.00  0.00    -0.217 OA
HETATM    9  N   UNL     1      -9.030  -0.056 -32.670  1.00  0.00    -0.127 NA
HETATM   10  C   UNL     1      -7.832   0.520 -32.840  1.00  0.00     0.117 A 
BRANCH  10  11
HETATM   11  C   UNL     1      -6.627  -0.292 -32.917  1.00  0.00     0.056 A 
HETATM   12  C   UNL     1      -5.741  -0.427 -31.841  1.00  0.00     0.049 A 
HETATM   13 CL   UNL     1      -6.005   0.355 -30.319  1.00  0.00    -0.083 Cl
HETATM   14  C   UNL     1      -4.575  -1.194 -31.977  1.00  0.00     0.025 A 
HETATM   15  C   UNL     1      -4.280  -1.821 -33.189  1.00  0.00     0.005 A 
HETATM   16  C   UNL     1      -5.155  -1.692 -34.263  1.00  0.00     0.043 A 
HETATM   17  C   UNL     1      -6.319  -0.940 -34.119  1.00  0.00     0.130 A 
HETATM   18  F   UNL     1      -7.143  -0.837 -35.175  1.00  0.00    -0.205 F 
ENDBRANCH  10  11
ENDBRANCH   1   5
BRANCH   2  19
HETATM   19  C   UNL     1      -5.591   4.650 -31.989  1.00  0.00     0.173 A 
HETATM   20  S   UNL     1      -6.029   6.220 -32.491  1.00  0.00    -0.061 SA
HETATM   21  C   UNL     1      -4.466   6.781 -32.086  1.00  0.00     0.085 A 
HETATM   22  C   UNL     1      -3.716   5.743 -31.570  1.00  0.00     0.076 A 
HETATM   23  N   UNL     1      -4.378   4.523 -31.502  1.00  0.00    -0.223 NA
BRANCH  22  24
HETATM   24  C   UNL     1      -2.323   5.879 -31.158  1.00  0.00    -0.004 A 
HETATM   25  C   UNL     1      -1.928   6.832 -30.208  1.00  0.00     0.050 A 
HETATM   26  C   UNL     1      -0.573   6.957 -29.866  1.00  0.00     0.103 A 
HETATM   27  C   UNL     1       0.395   6.137 -30.457  1.00  0.00     0.036 A 
HETATM   28  C   UNL     1       0.000   5.179 -31.390  1.00  0.00     0.003 A 
HETATM   29  C   UNL     1      -1.349   5.050 -31.733  1.00  0.00     0.014 A 
BRANCH  26  30
HETATM   30  N   UNL     1      -0.166   7.966 -28.878  1.00  0.00    -0.116 N 
HETATM   31  O   UNL     1      -1.058   8.647 -28.351  1.00  0.00    -0.532 OA
HETATM   32  O   UNL     1       1.043   8.080 -28.635  1.00  0.00    -0.532 OA
ENDBRANCH  26  30
ENDBRANCH  22  24
ENDBRANCH   2  19
TORSDOF 5
ENDMDL
MODEL 6
REMARK VINA RESULT:      -9.0      2.957      4.226
REMARK  5 active torsions:
REMARK  status: ('A' for Active; 'I' for Inactive)
REMARK    1  A    between atoms: C_5  and  C_6 
REMARK    2  A    between atoms: C_14  and  C_15 
REMARK       I    between atoms: C_15  and  N_16 
REMARK    3  A    between atoms: N_16  and  C_17 
REMARK    4  A    between atoms: C_20  and  C_21 
REMARK    5  A    between atoms: C_23  and  N_24 
ROOT
HETATM    1  C   UNL     1      -5.563   5.183 -30.696  1.00  0.00     0.262 C 
HETATM    2  N   UNL     1      -5.765   3.895 -30.254  1.00  0.00    -0.301 N 
HETATM    3  O   UNL     1      -6.190   5.706 -31.611  1.00  0.00    -0.267 OA
HETATM    4  H   UNL     1      -5.468   3.620 -29.332  1.00  0.00     0.171 HD
ENDROOT
BRANCH   1   5
HETATM    5  C   UNL     1      -4.573   5.957 -29.957  1.00  0.00     0.095 A 
HETATM    6  C   UNL     1      -4.571   6.381 -28.639  1.00  0.00     0.093 A 
HETATM    7  C   UNL     1      -5.472   6.248 -27.477  1.00  0.00     0.080 C 
HETATM    8  O   UNL     1      -3.424   7.065 -28.387  1.00  0.00    -0.217 OA
HETATM    9  N   UNL     1      -2.632   7.086 -29.509  1.00  0.00    -0.127 NA
HETATM   10  C   UNL     1      -3.304   6.411 -30.451  1.00  0.00     0.117 A 
BRANCH  10  11
HETATM   11  C   UNL     1      -2.727   6.213 -31.773  1.00  0.00     0.056 A 
HETATM   12  C   UNL     1      -2.374   4.948 -32.258  1.00  0.00     0.049 A 
HETATM   13 CL   UNL     1      -2.601   3.504 -31.330  1.00  0.00    -0.083 Cl
HETATM   14  C   UNL     1      -1.788   4.814 -33.525  1.00  0.00     0.025 A 
HETATM   15  C   UNL     1      -1.542   5.941 -34.310  1.00  0.00     0.005 A 
HETATM   16  C   UNL     1      -1.889   7.202 -33.836  1.00  0.00     0.043 A 
HETATM   17  C   UNL     1      -2.483   7.329 -32.582  1.00  0.00     0.130 A 
HETATM   18  F   UNL     1      -2.808   8.560 -32.154  1.00  0.00    -0.205 F 
ENDBRANCH  10  11
ENDBRANCH   1   5
BRANCH   2  19
HETATM   19  C   UNL     1      -6.520   2.940 -30.891  1.00  0.00     0.173 A 
HETATM   20  S   UNL     1      -8.225   2.946 -30.851  1.00  0.00    -0.061 SA
HETATM   21  C   UNL     1      -8.249   1.571 -31.866  1.00  0.00     0.085 A 
HETATM   22  C   UNL     1      -6.957   1.209 -32.193  1.00  0.00     0.076 A 
HETATM   23  N   UNL     1      -5.968   2.014 -31.640  1.00  0.00    -0.223 NA
BRANCH  22  24
HETATM   24  C   UNL     1      -6.627   0.053 -33.020  1.00  0.00    -0.004 A 
HETATM   25  C   UNL     1      -5.520  -0.759 -32.737  1.00  0.00     0.050 A 
HETATM   26  C   UNL     1      -5.213  -1.841 -33.577  1.00  0.00     0.103 A 
HETATM   27  C   UNL     1      -6.003  -2.124 -34.698  1.00  0.00     0.036 A 
HETATM   28  C   UNL     1      -7.112  -1.325 -34.971  1.00  0.00     0.003 A 
HETATM   29  C   UNL     1      -7.422  -0.248 -34.135  1.00  0.00     0.014 A 
BRANCH  26  30
HETATM   30  N   UNL     1      -4.045  -2.680 -33.280  1.00  0.00    -0.116 N 
HETATM   31  O   UNL     1      -3.843  -3.664 -34.006  1.00  0.00    -0.532 OA
HETATM   32  O   UNL     1      -3.334  -2.358 -32.318  1.00  0.00    -0.532 OA
ENDBRANCH  26  30
ENDBRANCH  22  24
ENDBRANCH   2  19
TORSDOF 5
ENDMDL
MODEL 7
REMARK VINA RESULT:      -8.9      2.891      3.696
REMARK  5 active torsions:
REMARK  status: ('A' for Active; 'I' for Inactive)
REMARK    1  A    between atoms: C_5  and  C_6 
REMARK    2  A    between atoms: C_14  and  C_15 
REMARK       I    between atoms: C_15  and  N_16 
REMARK    3  A    between atoms: N_16  and  C_17 
REMARK    4  A    between atoms: C_20  and  C_21 
REMARK    5  A    between atoms: C_23  and  N_24 
ROOT
HETATM    1  C   UNL     1      -4.603   6.583 -30.713  1.00  0.00     0.262 C 
HETATM    2  N   UNL     1      -4.820   5.856 -31.862  1.00  0.00    -0.301 N 
HETATM    3  O   UNL     1      -4.822   6.167 -29.581  1.00  0.00    -0.267 OA
HETATM    4  H   UNL     1      -4.348   6.102 -32.717  1.00  0.00     0.171 HD
ENDROOT
BRANCH   1   5
HETATM    5  C   UNL     1      -4.016   7.905 -30.903  1.00  0.00     0.095 A 
HETATM    6  C   UNL     1      -4.624   9.137 -31.075  1.00  0.00     0.093 A 
HETATM    7  C   UNL     1      -6.011   9.642 -31.124  1.00  0.00     0.080 C 
HETATM    8  O   UNL     1      -3.670  10.096 -31.199  1.00  0.00    -0.217 OA
HETATM    9  N   UNL     1      -2.420   9.536 -31.085  1.00  0.00    -0.127 NA
HETATM   10  C   UNL     1      -2.618   8.225 -30.891  1.00  0.00     0.117 A 
BRANCH  10  11
HETATM   11  C   UNL     1      -1.487   7.329 -30.697  1.00  0.00     0.056 A 
HETATM   12  C   UNL     1      -0.744   6.814 -31.766  1.00  0.00     0.049 A 
HETATM   13 CL   UNL     1      -1.099   7.204 -33.415  1.00  0.00    -0.083 Cl
HETATM   14  C   UNL     1       0.316   5.926 -31.528  1.00  0.00     0.025 A 
HETATM   15  C   UNL     1       0.633   5.539 -30.225  1.00  0.00     0.005 A 
HETATM   16  C   UNL     1      -0.101   6.046 -29.157  1.00  0.00     0.043 A 
HETATM   17  C   UNL     1      -1.145   6.938 -29.397  1.00  0.00     0.130 A 
HETATM   18  F   UNL     1      -1.832   7.410 -28.344  1.00  0.00    -0.205 F 
ENDBRANCH  10  11
ENDBRANCH   1   5
BRANCH   2  19
HETATM   19  C   UNL     1      -5.505   4.668 -31.940  1.00  0.00     0.173 A 
HETATM   20  S   UNL     1      -7.172   4.550 -31.598  1.00  0.00    -0.061 SA
HETATM   21  C   UNL     1      -7.130   2.887 -31.991  1.00  0.00     0.085 A 
HETATM   22  C   UNL     1      -5.855   2.532 -32.383  1.00  0.00     0.076 A 
HETATM   23  N   UNL     1      -4.930   3.569 -32.367  1.00  0.00    -0.223 NA
BRANCH  22  24
HETATM   24  C   UNL     1      -5.472   1.173 -32.752  1.00  0.00    -0.004 A 
HETATM   25  C   UNL     1      -4.383   0.528 -32.150  1.00  0.00     0.050 A 
HETATM   26  C   UNL     1      -4.024  -0.766 -32.559  1.00  0.00     0.103 A 
HETATM   27  C   UNL     1      -4.743  -1.427 -33.562  1.00  0.00     0.036 A 
HETATM   28  C   UNL     1      -5.835  -0.790 -34.151  1.00  0.00     0.003 A 
HETATM   29  C   UNL     1      -6.198   0.497 -33.745  1.00  0.00     0.014 A 
BRANCH  26  30
HETATM   30  N   UNL     1      -2.875  -1.430 -31.930  1.00  0.00    -0.116 N 
HETATM   31  O   UNL     1      -2.938  -2.658 -31.767  1.00  0.00    -0.532 OA
HETATM   32  O   UNL     1      -1.913  -0.725 -31.596  1.00  0.00    -0.532 OA
ENDBRANCH  26  30
ENDBRANCH  22  24
ENDBRANCH   2  19
TORSDOF 5
ENDMDL
MODEL 8
REMARK VINA RESULT:      -8.6      7.242      9.070
REMARK  5 active torsions:
REMARK  status: ('A' for Active; 'I' for Inactive)
REMARK    1  A    between atoms: C_5  and  C_6 
REMARK    2  A    between atoms: C_14  and  C_15 
REMARK       I    between atoms: C_15  and  N_16 
REMARK    3  A    between atoms: N_16  and  C_17 
REMARK    4  A    between atoms: C_20  and  C_21 
REMARK    5  A    between atoms: C_23  and  N_24 
ROOT
HETATM    1  C   UNL     1     -10.474   4.192 -31.734  1.00  0.00     0.262 C 
HETATM    2  N   UNL     1      -9.249   3.990 -32.328  1.00  0.00    -0.301 N 
HETATM    3  O   UNL     1     -10.802   3.726 -30.649  1.00  0.00    -0.267 OA
HETATM    4  H   UNL     1      -8.915   4.623 -33.035  1.00  0.00     0.171 HD
ENDROOT
BRANCH   1   5
HETATM    5  C   UNL     1     -11.386   5.077 -32.451  1.00  0.00     0.095 A 
HETATM    6  C   UNL     1     -11.429   6.460 -32.508  1.00  0.00     0.093 A 
HETATM    7  C   UNL     1     -10.643   7.574 -31.942  1.00  0.00     0.080 C 
HETATM    8  O   UNL     1     -12.450   6.845 -33.319  1.00  0.00    -0.217 OA
HETATM    9  N   UNL     1     -13.082   5.741 -33.838  1.00  0.00    -0.127 NA
HETATM   10  C   UNL     1     -12.442   4.676 -33.335  1.00  0.00     0.117 A 
BRANCH  10  11
HETATM   11  C   UNL     1     -12.843   3.328 -33.711  1.00  0.00     0.056 A 
HETATM   12  C   UNL     1     -13.723   2.562 -32.937  1.00  0.00     0.049 A 
HETATM   13 CL   UNL     1     -14.418   3.154 -31.466  1.00  0.00    -0.083 Cl
HETATM   14  C   UNL     1     -14.051   1.255 -33.324  1.00  0.00     0.025 A 
HETATM   15  C   UNL     1     -13.497   0.701 -34.479  1.00  0.00     0.005 A 
HETATM   16  C   UNL     1     -12.622   1.456 -35.255  1.00  0.00     0.043 A 
HETATM   17  C   UNL     1     -12.308   2.759 -34.873  1.00  0.00     0.130 A 
HETATM   18  F   UNL     1     -11.462   3.461 -35.644  1.00  0.00    -0.205 F 
ENDBRANCH  10  11
ENDBRANCH   1   5
BRANCH   2  19
HETATM   19  C   UNL     1      -8.305   3.078 -31.923  1.00  0.00     0.173 A 
HETATM   20  S   UNL     1      -7.612   3.111 -30.365  1.00  0.00    -0.061 SA
HETATM   21  C   UNL     1      -6.709   1.709 -30.742  1.00  0.00     0.085 A 
HETATM   22  C   UNL     1      -7.012   1.288 -32.021  1.00  0.00     0.076 A 
HETATM   23  N   UNL     1      -7.945   2.074 -32.688  1.00  0.00    -0.223 NA
BRANCH  22  24
HETATM   24  C   UNL     1      -6.386   0.137 -32.663  1.00  0.00    -0.004 A 
HETATM   25  C   UNL     1      -5.207  -0.432 -32.161  1.00  0.00     0.050 A 
HETATM   26  C   UNL     1      -4.616  -1.516 -32.829  1.00  0.00     0.103 A 
HETATM   27  C   UNL     1      -5.191  -2.043 -33.991  1.00  0.00     0.036 A 
HETATM   28  C   UNL     1      -6.371  -1.486 -34.481  1.00  0.00     0.003 A 
HETATM   29  C   UNL     1      -6.965  -0.408 -33.819  1.00  0.00     0.014 A 
BRANCH  26  30
HETATM   30  N   UNL     1      -3.374  -2.099 -32.302  1.00  0.00    -0.116 N 
HETATM   31  O   UNL     1      -3.242  -3.330 -32.371  1.00  0.00    -0.532 OA
HETATM   32  O   UNL     1      -2.536  -1.327 -31.817  1.00  0.00    -0.532 OA
ENDBRANCH  26  30
ENDBRANCH  22  24
ENDBRANCH   2  19
TORSDOF 5
ENDMDL
MODEL 9
REMARK VINA RESULT:      -8.6      6.337      8.468
REMARK  5 active torsions:
REMARK  status: ('A' for Active; 'I' for Inactive)
REMARK    1  A    between atoms: C_5  and  C_6 
REMARK    2  A    between atoms: C_14  and  C_15 
REMARK       I    between atoms: C_15  and  N_16 
REMARK    3  A    between atoms: N_16  and  C_17 
REMARK    4  A    between atoms: C_20  and  C_21 
REMARK    5  A    between atoms: C_23  and  N_24 
ROOT
HETATM    1  C   UNL     1      -6.497   3.666 -31.019  1.00  0.00     0.262 C 
HETATM    2  N   UNL     1      -7.439   4.175 -31.885  1.00  0.00    -0.301 N 
HETATM    3  O   UNL     1      -6.753   3.216 -29.907  1.00  0.00    -0.267 OA
HETATM    4  H   UNL     1      -7.244   4.236 -32.871  1.00  0.00     0.171 HD
ENDROOT
BRANCH   1   5
HETATM    5  C   UNL     1      -5.130   3.624 -31.525  1.00  0.00     0.095 A 
HETATM    6  C   UNL     1      -4.078   4.503 -31.335  1.00  0.00     0.093 A 
HETATM    7  C   UNL     1      -3.863   5.761 -30.592  1.00  0.00     0.080 C 
HETATM    8  O   UNL     1      -2.982   4.043 -31.993  1.00  0.00    -0.217 OA
HETATM    9  N   UNL     1      -3.267   2.846 -32.604  1.00  0.00    -0.127 NA
HETATM   10  C   UNL     1      -4.548   2.578 -32.316  1.00  0.00     0.117 A 
BRANCH  10  11
HETATM   11  C   UNL     1      -5.170   1.350 -32.790  1.00  0.00     0.056 A 
HETATM   12  C   UNL     1      -4.925   0.106 -32.195  1.00  0.00     0.049 A 
HETATM   13 CL   UNL     1      -3.866  -0.080 -30.838  1.00  0.00    -0.083 Cl
HETATM   14  C   UNL     1      -5.521  -1.054 -32.710  1.00  0.00     0.025 A 
HETATM   15  C   UNL     1      -6.356  -0.982 -33.826  1.00  0.00     0.005 A 
HETATM   16  C   UNL     1      -6.605   0.250 -34.423  1.00  0.00     0.043 A 
HETATM   17  C   UNL     1      -6.020   1.402 -33.900  1.00  0.00     0.130 A 
HETATM   18  F   UNL     1      -6.282   2.575 -34.499  1.00  0.00    -0.205 F 
ENDBRANCH  10  11
ENDBRANCH   1   5
BRANCH   2  19
HETATM   19  C   UNL     1      -8.745   4.460 -31.569  1.00  0.00     0.173 A 
HETATM   20  S   UNL     1      -9.179   5.784 -30.585  1.00  0.00    -0.061 SA
HETATM   21  C   UNL     1     -10.830   5.396 -30.799  1.00  0.00     0.085 A 
HETATM   22  C   UNL     1     -10.948   4.297 -31.628  1.00  0.00     0.076 A 
HETATM   23  N   UNL     1      -9.741   3.776 -32.080  1.00  0.00    -0.223 NA
BRANCH  22  24
HETATM   24  C   UNL     1     -12.225   3.688 -31.985  1.00  0.00    -0.004 A 
HETATM   25  C   UNL     1     -12.362   2.888 -33.128  1.00  0.00     0.050 A 
HETATM   26  C   UNL     1     -13.616   2.350 -33.457  1.00  0.00     0.103 A 
HETATM   27  C   UNL     1     -14.736   2.597 -32.655  1.00  0.00     0.036 A 
HETATM   28  C   UNL     1     -14.596   3.380 -31.511  1.00  0.00     0.003 A 
HETATM   29  C   UNL     1     -13.348   3.917 -31.177  1.00  0.00     0.014 A 
BRANCH  26  30
HETATM   30  N   UNL     1     -13.753   1.522 -34.663  1.00  0.00    -0.116 N 
HETATM   31  O   UNL     1     -12.864   1.605 -35.523  1.00  0.00    -0.532 OA
HETATM   32  O   UNL     1     -14.752   0.794 -34.752  1.00  0.00    -0.532 OA
ENDBRANCH  26  30
ENDBRANCH  22  24
ENDBRANCH   2  19
TORSDOF 5
ENDMDL
MODEL 10
REMARK VINA RESULT:      -8.6      2.631      3.199
REMARK  5 active torsions:
REMARK  status: ('A' for Active; 'I' for Inactive)
REMARK    1  A    between atoms: C_5  and  C_6 
REMARK    2  A    between atoms: C_14  and  C_15 
REMARK       I    between atoms: C_15  and  N_16 
REMARK    3  A    between atoms: N_16  and  C_17 
REMARK    4  A    between atoms: C_20  and  C_21 
REMARK    5  A    between atoms: C_23  and  N_24 
ROOT
HETATM    1  C   UNL     1      -4.727   5.729 -32.476  1.00  0.00     0.262 C 
HETATM    2  N   UNL     1      -4.843   4.669 -31.606  1.00  0.00    -0.301 N 
HETATM    3  O   UNL     1      -4.563   5.615 -33.686  1.00  0.00    -0.267 OA
HETATM    4  H   UNL     1      -5.279   4.792 -30.707  1.00  0.00     0.171 HD
ENDROOT
BRANCH   1   5
HETATM    5  C   UNL     1      -4.878   7.053 -31.883  1.00  0.00     0.095 A 
HETATM    6  C   UNL     1      -6.006   7.841 -31.731  1.00  0.00     0.093 A 
HETATM    7  C   UNL     1      -7.442   7.717 -32.051  1.00  0.00     0.080 C 
HETATM    8  O   UNL     1      -5.666   8.998 -31.104  1.00  0.00    -0.217 OA
HETATM    9  N   UNL     1      -4.326   8.993 -30.801  1.00  0.00    -0.127 NA
HETATM   10  C   UNL     1      -3.847   7.824 -31.250  1.00  0.00     0.117 A 
BRANCH  10  11
HETATM   11  C   UNL     1      -2.447   7.478 -31.059  1.00  0.00     0.056 A 
HETATM   12  C   UNL     1      -1.908   7.191 -29.799  1.00  0.00     0.049 A 
HETATM   13 CL   UNL     1      -2.863   7.216 -28.355  1.00  0.00    -0.083 Cl
HETATM   14  C   UNL     1      -0.544   6.896 -29.663  1.00  0.00     0.025 A 
HETATM   15  C   UNL     1       0.292   6.896 -30.781  1.00  0.00     0.005 A 
HETATM   16  C   UNL     1      -0.235   7.180 -32.037  1.00  0.00     0.043 A 
HETATM   17  C   UNL     1      -1.594   7.460 -32.169  1.00  0.00     0.130 A 
HETATM   18  F   UNL     1      -2.071   7.728 -33.395  1.00  0.00    -0.205 F 
ENDBRANCH  10  11
ENDBRANCH   1   5
BRANCH   2  19
HETATM   19  C   UNL     1      -4.577   3.354 -31.906  1.00  0.00     0.173 A 
HETATM   20  S   UNL     1      -3.159   2.565 -31.383  1.00  0.00    -0.061 SA
HETATM   21  C   UNL     1      -3.703   1.116 -32.107  1.00  0.00     0.085 A 
HETATM   22  C   UNL     1      -4.943   1.317 -32.680  1.00  0.00     0.076 A 
HETATM   23  N   UNL     1      -5.446   2.606 -32.545  1.00  0.00    -0.223 NA
BRANCH  22  24
HETATM   24  C   UNL     1      -5.672   0.286 -33.411  1.00  0.00    -0.004 A 
HETATM   25  C   UNL     1      -5.112  -0.976 -33.656  1.00  0.00     0.050 A 
HETATM   26  C   UNL     1      -5.830  -1.928 -34.395  1.00  0.00     0.103 A 
HETATM   27  C   UNL     1      -7.107  -1.637 -34.891  1.00  0.00     0.036 A 
HETATM   28  C   UNL     1      -7.670  -0.388 -34.635  1.00  0.00     0.003 A 
HETATM   29  C   UNL     1      -6.958   0.563 -33.897  1.00  0.00     0.014 A 
BRANCH  26  30
HETATM   30  N   UNL     1      -5.231  -3.243 -34.656  1.00  0.00    -0.116 N 
HETATM   31  O   UNL     1      -5.806  -3.988 -35.464  1.00  0.00    -0.532 OA
HETATM   32  O   UNL     1      -4.190  -3.532 -34.051  1.00  0.00    -0.532 OA
ENDBRANCH  26  30
ENDBRANCH  22  24
ENDBRANCH   2  19
TORSDOF 5
ENDMDL
