MODEL 1
REMARK VINA RESULT:      -8.5      0.000      0.000
REMARK  9 active torsions:
REMARK  status: ('A' for Active; 'I' for Inactive)
REMARK    1  A    between atoms: N_2  and  C_4 
REMARK    2  A    between atoms: C_4  and  C_5 
REMARK    3  A    between atoms: C_6  and  O_7 
REMARK    4  A    between atoms: O_7  and  C_8 
REMARK    5  A    between atoms: C_8  and  C_9 
REMARK       I    between atoms: C_9  and  N_10 
REMARK    6  A    between atoms: N_10  and  C_11 
REMARK    7  A    between atoms: C_11  and  C_12 
REMARK    8  A    between atoms: C_12  and  C_13 
REMARK    9  A    between atoms: C_27  and  C_28 
ROOT
HETATM    1  C   UNL     1      -3.535   3.294 -32.343  1.00  0.00     0.002 A 
HETATM    2  C   UNL     1      -4.495   3.763 -31.433  1.00  0.00     0.077 A 
HETATM    3  C   UNL     1      -5.420   2.867 -30.892  1.00  0.00     0.038 A 
HETATM    4  C   UNL     1      -5.385   1.509 -31.235  1.00  0.00     0.017 A 
HETATM    5  C   UNL     1      -4.426   1.013 -32.125  1.00  0.00     0.000 A 
HETATM    6  C   UNL     1      -3.508   1.926 -32.674  1.00  0.00     0.026 A 
ENDROOT
BRANCH   2   7
HETATM    7  O   UNL     1      -4.469   5.112 -31.171  1.00  0.00    -0.342 OA
BRANCH   7   8
HETATM    8  C   UNL     1      -4.937   5.495 -29.874  1.00  0.00     0.278 C 
BRANCH   8   9
HETATM    9  C   UNL     1      -6.256   6.267 -29.913  1.00  0.00     0.241 C 
HETATM   10  N   UNL     1      -7.396   5.495 -29.898  1.00  0.00    -0.359 N 
HETATM   11  H   UNL     1      -7.318   4.532 -30.191  1.00  0.00     0.162 HD
HETATM   12  O   UNL     1      -6.280   7.495 -29.919  1.00  0.00    -0.271 OA
BRANCH  10  13
HETATM   13  C   UNL     1      -8.714   6.107 -29.958  1.00  0.00     0.130 C 
BRANCH  13  14
HETATM   14  C   UNL     1      -9.836   5.075 -30.070  1.00  0.00     0.098 C 
BRANCH  14  15
HETATM   15  C   UNL     1      -9.509   3.966 -31.021  1.00  0.00     0.106 A 
HETATM   16  N   UNL     1      -9.077   4.051 -32.268  1.00  0.00    -0.233 NA
HETATM   17  C   UNL     1      -8.832   2.751 -32.657  1.00  0.00     0.087 A 
HETATM   18  C   UNL     1      -9.166   1.857 -31.647  1.00  0.00     0.062 A 
HETATM   19  C   UNL     1      -8.313   2.253 -33.861  1.00  0.00     0.057 A 
HETATM   20  N   UNL     1      -9.614   2.652 -30.627  1.00  0.00    -0.343 N 
HETATM   21  C   UNL     1      -9.019   0.472 -31.759  1.00  0.00     0.034 A 
HETATM   22  H   UNL     1      -9.927   2.330 -29.720  1.00  0.00     0.167 HD
HETATM   23  C   UNL     1      -8.499  -0.007 -32.966  1.00  0.00     0.026 A 
HETATM   24  C   UNL     1      -8.154   0.870 -33.994  1.00  0.00     0.036 A 
HETATM   25 CL   UNL     1      -7.511   0.246 -35.465  1.00  0.00    -0.084 Cl
ENDBRANCH  14  15
ENDBRANCH  13  14
ENDBRANCH  10  13
ENDBRANCH   8   9
ENDBRANCH   7   8
ENDBRANCH   2   7
BRANCH   1  26
HETATM   26  C   UNL     1      -2.560   4.236 -32.998  1.00  0.00     0.275 C 
BRANCH  26  27
HETATM   27  N   UNL     1      -3.246   5.408 -33.667  1.00  0.00    -0.075 N 
HETATM   28  C   UNL     1      -4.195   4.995 -34.754  1.00  0.00     0.269 C 
HETATM   29  H   UNL     1      -3.804   5.855 -32.927  1.00  0.00     0.279 HD
HETATM   30  C   UNL     1      -2.259   6.428 -34.142  1.00  0.00     0.269 C 
ENDBRANCH  26  27
ENDBRANCH   1  26
BRANCH   5  31
HETATM   31  C   UNL     1      -4.351  -0.400 -32.541  1.00  0.00     0.109 A 
HETATM   32  S   UNL     1      -3.212  -1.490 -31.855  1.00  0.00    -0.068 SA
HETATM   33  C   UNL     1      -3.785  -2.751 -32.872  1.00  0.00     0.035 A 
HETATM   34  C   UNL     1      -4.812  -2.254 -33.674  1.00  0.00     0.075 A 
HETATM   35  C   UNL     1      -3.357  -4.086 -32.956  1.00  0.00     0.021 A 
HETATM   36  N   UNL     1      -5.119  -0.915 -33.481  1.00  0.00    -0.240 NA
HETATM   37  C   UNL     1      -5.436  -3.122 -34.592  1.00  0.00     0.033 A 
HETATM   38  C   UNL     1      -5.018  -4.453 -34.684  1.00  0.00     0.002 A 
HETATM   39  C   UNL     1      -3.990  -4.927 -33.876  1.00  0.00     0.002 A 
ENDBRANCH   5  31
TORSDOF 9
ENDMDL
MODEL 2
REMARK VINA RESULT:      -8.3      1.876      2.102
REMARK  9 active torsions:
REMARK  status: ('A' for Active; 'I' for Inactive)
REMARK    1  A    between atoms: N_2  and  C_4 
REMARK    2  A    between atoms: C_4  and  C_5 
REMARK    3  A    between atoms: C_6  and  O_7 
REMARK    4  A    between atoms: O_7  and  C_8 
REMARK    5  A    between atoms: C_8  and  C_9 
REMARK       I    between atoms: C_9  and  N_10 
REMARK    6  A    between atoms: N_10  and  C_11 
REMARK    7  A    between atoms: C_11  and  C_12 
REMARK    8  A    between atoms: C_12  and  C_13 
REMARK    9  A    between atoms: C_27  and  C_28 
ROOT
HETATM    1  C   UNL     1      -3.748   3.338 -31.826  1.00  0.00     0.002 A 
HETATM    2  C   UNL     1      -4.659   3.767 -30.849  1.00  0.00     0.077 A 
HETATM    3  C   UNL     1      -5.713   2.928 -30.481  1.00  0.00     0.038 A 
HETATM    4  C   UNL     1      -5.856   1.661 -31.063  1.00  0.00     0.017 A 
HETATM    5  C   UNL     1      -4.949   1.202 -32.025  1.00  0.00     0.000 A 
HETATM    6  C   UNL     1      -3.900   2.060 -32.398  1.00  0.00     0.026 A 
ENDROOT
BRANCH   2   7
HETATM    7  O   UNL     1      -4.456   5.031 -30.349  1.00  0.00    -0.342 OA
BRANCH   7   8
HETATM    8  C   UNL     1      -5.639   5.807 -30.140  1.00  0.00     0.278 C 
BRANCH   8   9
HETATM    9  C   UNL     1      -6.299   6.262 -31.441  1.00  0.00     0.241 C 
HETATM   10  N   UNL     1      -7.595   5.836 -31.631  1.00  0.00    -0.359 N 
HETATM   11  H   UNL     1      -7.905   5.025 -31.115  1.00  0.00     0.162 HD
HETATM   12  O   UNL     1      -5.712   6.991 -32.238  1.00  0.00    -0.271 OA
BRANCH  10  13
HETATM   13  C   UNL     1      -8.326   6.179 -32.840  1.00  0.00     0.130 C 
BRANCH  13  14
HETATM   14  C   UNL     1      -8.173   5.126 -33.938  1.00  0.00     0.098 C 
BRANCH  14  15
HETATM   15  C   UNL     1      -9.040   3.926 -33.711  1.00  0.00     0.106 A 
HETATM   16  N   UNL     1     -10.321   3.769 -33.998  1.00  0.00    -0.233 NA
HETATM   17  C   UNL     1     -10.605   2.455 -33.687  1.00  0.00     0.087 A 
HETATM   18  C   UNL     1      -9.490   1.817 -33.157  1.00  0.00     0.062 A 
HETATM   19  C   UNL     1     -11.795   1.731 -33.839  1.00  0.00     0.057 A 
HETATM   20  N   UNL     1      -8.516   2.778 -33.162  1.00  0.00    -0.343 N 
HETATM   21  C   UNL     1      -9.482   0.478 -32.756  1.00  0.00     0.034 A 
HETATM   22  H   UNL     1      -7.560   2.652 -32.856  1.00  0.00     0.167 HD
HETATM   23  C   UNL     1     -10.678  -0.230 -32.915  1.00  0.00     0.026 A 
HETATM   24  C   UNL     1     -11.810   0.388 -33.447  1.00  0.00     0.036 A 
HETATM   25 CL   UNL     1     -13.265  -0.515 -33.633  1.00  0.00    -0.084 Cl
ENDBRANCH  14  15
ENDBRANCH  13  14
ENDBRANCH  10  13
ENDBRANCH   8   9
ENDBRANCH   7   8
ENDBRANCH   2   7
BRANCH   1  26
HETATM   26  C   UNL     1      -2.635   4.235 -32.299  1.00  0.00     0.275 C 
BRANCH  26  27
HETATM   27  N   UNL     1      -3.148   5.495 -32.962  1.00  0.00    -0.075 N 
HETATM   28  C   UNL     1      -3.406   5.326 -34.431  1.00  0.00     0.269 C 
HETATM   29  H   UNL     1      -4.053   5.689 -32.513  1.00  0.00     0.279 HD
HETATM   30  C   UNL     1      -2.263   6.668 -32.679  1.00  0.00     0.269 C 
ENDBRANCH  26  27
ENDBRANCH   1  26
BRANCH   5  31
HETATM   31  C   UNL     1      -5.058  -0.112 -32.688  1.00  0.00     0.109 A 
HETATM   32  S   UNL     1      -3.691  -1.127 -32.922  1.00  0.00    -0.068 SA
HETATM   33  C   UNL     1      -4.673  -2.289 -33.720  1.00  0.00     0.035 A 
HETATM   34  C   UNL     1      -5.987  -1.822 -33.757  1.00  0.00     0.075 A 
HETATM   35  C   UNL     1      -4.309  -3.527 -34.274  1.00  0.00     0.021 A 
HETATM   36  N   UNL     1      -6.191  -0.580 -33.173  1.00  0.00    -0.240 NA
HETATM   37  C   UNL     1      -6.973  -2.621 -34.369  1.00  0.00     0.033 A 
HETATM   38  C   UNL     1      -6.622  -3.855 -34.925  1.00  0.00     0.002 A 
HETATM   39  C   UNL     1      -5.305  -4.301 -34.878  1.00  0.00     0.002 A 
ENDBRANCH   5  31
TORSDOF 9
ENDMDL
MODEL 3
REMARK VINA RESULT:      -8.3      1.745      2.275
REMARK  9 active torsions:
REMARK  status: ('A' for Active; 'I' for Inactive)
REMARK    1  A    between atoms: N_2  and  C_4 
REMARK    2  A    between atoms: C_4  and  C_5 
REMARK    3  A    between atoms: C_6  and  O_7 
REMARK    4  A    between atoms: O_7  and  C_8 
REMARK    5  A    between atoms: C_8  and  C_9 
REMARK       I    between atoms: C_9  and  N_10 
REMARK    6  A    between atoms: N_10  and  C_11 
REMARK    7  A    between atoms: C_11  and  C_12 
REMARK    8  A    between atoms: C_12  and  C_13 
REMARK    9  A    between atoms: C_27  and  C_28 
ROOT
HETATM    1  C   UNL     1      -4.387   3.227 -32.437  1.00  0.00     0.002 A 
HETATM    2  C   UNL     1      -5.381   4.034 -33.012  1.00  0.00     0.077 A 
HETATM    3  C   UNL     1      -6.350   3.447 -33.830  1.00  0.00     0.038 A 
HETATM    4  C   UNL     1      -6.347   2.066 -34.066  1.00  0.00     0.017 A 
HETATM    5  C   UNL     1      -5.378   1.237 -33.488  1.00  0.00     0.000 A 
HETATM    6  C   UNL     1      -4.400   1.839 -32.678  1.00  0.00     0.026 A 
ENDROOT
BRANCH   2   7
HETATM    7  O   UNL     1      -5.294   5.379 -32.746  1.00  0.00    -0.342 OA
BRANCH   7   8
HETATM    8  C   UNL     1      -6.431   6.157 -33.131  1.00  0.00     0.278 C 
BRANCH   8   9
HETATM    9  C   UNL     1      -7.135   6.823 -31.949  1.00  0.00     0.241 C 
HETATM   10  N   UNL     1      -6.526   6.654 -30.725  1.00  0.00    -0.359 N 
HETATM   11  H   UNL     1      -5.893   5.875 -30.615  1.00  0.00     0.162 HD
HETATM   12  O   UNL     1      -8.153   7.493 -32.102  1.00  0.00    -0.271 OA
BRANCH  10  13
HETATM   13  C   UNL     1      -7.109   7.216 -29.517  1.00  0.00     0.130 C 
BRANCH  13  14
HETATM   14  C   UNL     1      -7.571   6.142 -28.532  1.00  0.00     0.098 C 
BRANCH  14  15
HETATM   15  C   UNL     1      -7.812   4.820 -29.192  1.00  0.00     0.106 A 
HETATM   16  N   UNL     1      -8.804   4.467 -29.992  1.00  0.00    -0.233 NA
HETATM   17  C   UNL     1      -8.501   3.185 -30.403  1.00  0.00     0.087 A 
HETATM   18  C   UNL     1      -7.330   2.734 -29.806  1.00  0.00     0.062 A 
HETATM   19  C   UNL     1      -9.176   2.343 -31.297  1.00  0.00     0.057 A 
HETATM   20  N   UNL     1      -6.924   3.782 -29.024  1.00  0.00    -0.343 N 
HETATM   21  C   UNL     1      -6.777   1.473 -30.041  1.00  0.00     0.034 A 
HETATM   22  H   UNL     1      -6.088   3.805 -28.455  1.00  0.00     0.167 HD
HETATM   23  C   UNL     1      -7.464   0.646 -30.936  1.00  0.00     0.026 A 
HETATM   24  C   UNL     1      -8.640   1.076 -31.550  1.00  0.00     0.036 A 
HETATM   25 CL   UNL     1      -9.456   0.033 -32.652  1.00  0.00    -0.084 Cl
ENDBRANCH  14  15
ENDBRANCH  13  14
ENDBRANCH  10  13
ENDBRANCH   8   9
ENDBRANCH   7   8
ENDBRANCH   2   7
BRANCH   1  26
HETATM   26  C   UNL     1      -3.287   3.826 -31.602  1.00  0.00     0.275 C 
BRANCH  26  27
HETATM   27  N   UNL     1      -2.577   4.962 -32.305  1.00  0.00    -0.075 N 
HETATM   28  C   UNL     1      -1.921   4.545 -33.588  1.00  0.00     0.269 C 
HETATM   29  H   UNL     1      -3.315   5.637 -32.544  1.00  0.00     0.279 HD
HETATM   30  C   UNL     1      -1.624   5.667 -31.391  1.00  0.00     0.269 C 
ENDBRANCH  26  27
ENDBRANCH   1  26
BRANCH   5  31
HETATM   31  C   UNL     1      -5.310  -0.219 -33.715  1.00  0.00     0.109 A 
HETATM   32  S   UNL     1      -3.892  -1.127 -33.367  1.00  0.00    -0.068 SA
HETATM   33  C   UNL     1      -4.657  -2.561 -33.926  1.00  0.00     0.035 A 
HETATM   34  C   UNL     1      -5.950  -2.250 -34.345  1.00  0.00     0.075 A 
HETATM   35  C   UNL     1      -4.150  -3.869 -33.989  1.00  0.00     0.021 A 
HETATM   36  N   UNL     1      -6.306  -0.914 -34.227  1.00  0.00    -0.240 NA
HETATM   37  C   UNL     1      -6.768  -3.283 -34.845  1.00  0.00     0.033 A 
HETATM   38  C   UNL     1      -6.274  -4.589 -34.913  1.00  0.00     0.002 A 
HETATM   39  C   UNL     1      -4.980  -4.877 -34.490  1.00  0.00     0.002 A 
ENDBRANCH   5  31
TORSDOF 9
ENDMDL
MODEL 4
REMARK VINA RESULT:      -8.2      2.582      4.872
REMARK  9 active torsions:
REMARK  status: ('A' for Active; 'I' for Inactive)
REMARK    1  A    between atoms: N_2  and  C_4 
REMARK    2  A    between atoms: C_4  and  C_5 
REMARK    3  A    between atoms: C_6  and  O_7 
REMARK    4  A    between atoms: O_7  and  C_8 
REMARK    5  A    between atoms: C_8  and  C_9 
REMARK       I    between atoms: C_9  and  N_10 
REMARK    6  A    between atoms: N_10  and  C_11 
REMARK    7  A    between atoms: C_11  and  C_12 
REMARK    8  A    between atoms: C_12  and  C_13 
REMARK    9  A    between atoms: C_27  and  C_28 
ROOT
HETATM    1  C   UNL     1      -9.421   1.785 -33.511  1.00  0.00     0.002 A 
HETATM    2  C   UNL     1      -8.761   3.014 -33.665  1.00  0.00     0.077 A 
HETATM    3  C   UNL     1      -7.388   3.026 -33.926  1.00  0.00     0.038 A 
HETATM    4  C   UNL     1      -6.674   1.827 -34.054  1.00  0.00     0.017 A 
HETATM    5  C   UNL     1      -7.313   0.588 -33.924  1.00  0.00     0.000 A 
HETATM    6  C   UNL     1      -8.691   0.588 -33.648  1.00  0.00     0.026 A 
ENDROOT
BRANCH   2   7
HETATM    7  O   UNL     1      -9.534   4.138 -33.502  1.00  0.00    -0.342 OA
BRANCH   7   8
HETATM    8  C   UNL     1      -9.064   5.310 -34.175  1.00  0.00     0.278 C 
BRANCH   8   9
HETATM    9  C   UNL     1      -8.940   6.524 -33.254  1.00  0.00     0.241 C 
HETATM   10  N   UNL     1      -7.673   6.782 -32.780  1.00  0.00    -0.359 N 
HETATM   11  H   UNL     1      -7.006   6.024 -32.777  1.00  0.00     0.162 HD
HETATM   12  O   UNL     1      -9.908   7.234 -32.994  1.00  0.00    -0.271 OA
BRANCH  10  13
HETATM   13  C   UNL     1      -7.425   7.893 -31.875  1.00  0.00     0.130 C 
BRANCH  13  14
HETATM   14  C   UNL     1      -6.540   7.501 -30.692  1.00  0.00     0.098 C 
BRANCH  14  15
HETATM   15  C   UNL     1      -6.336   6.021 -30.588  1.00  0.00     0.106 A 
HETATM   16  N   UNL     1      -7.218   5.088 -30.274  1.00  0.00    -0.233 NA
HETATM   17  C   UNL     1      -6.550   3.891 -30.424  1.00  0.00     0.087 A 
HETATM   18  C   UNL     1      -5.225   4.102 -30.789  1.00  0.00     0.062 A 
HETATM   19  C   UNL     1      -7.013   2.576 -30.275  1.00  0.00     0.057 A 
HETATM   20  N   UNL     1      -5.109   5.463 -30.865  1.00  0.00    -0.343 N 
HETATM   21  C   UNL     1      -4.311   3.070 -31.016  1.00  0.00     0.034 A 
HETATM   22  H   UNL     1      -4.273   5.971 -31.125  1.00  0.00     0.167 HD
HETATM   23  C   UNL     1      -4.790   1.764 -30.863  1.00  0.00     0.026 A 
HETATM   24  C   UNL     1      -6.116   1.526 -30.500  1.00  0.00     0.036 A 
HETATM   25 CL   UNL     1      -6.673  -0.094 -30.326  1.00  0.00    -0.084 Cl
ENDBRANCH  14  15
ENDBRANCH  13  14
ENDBRANCH  10  13
ENDBRANCH   8   9
ENDBRANCH   7   8
ENDBRANCH   2   7
BRANCH   1  26
HETATM   26  C   UNL     1     -10.885   1.727 -33.165  1.00  0.00     0.275 C 
BRANCH  26  27
HETATM   27  N   UNL     1     -11.741   2.519 -34.129  1.00  0.00    -0.075 N 
HETATM   28  C   UNL     1     -12.875   3.238 -33.458  1.00  0.00     0.269 C 
HETATM   29  H   UNL     1     -11.115   3.236 -34.523  1.00  0.00     0.279 HD
HETATM   30  C   UNL     1     -12.209   1.677 -35.274  1.00  0.00     0.269 C 
ENDBRANCH  26  27
ENDBRANCH   1  26
BRANCH   5  31
HETATM   31  C   UNL     1      -6.612  -0.706 -34.027  1.00  0.00     0.109 A 
HETATM   32  S   UNL     1      -4.971  -0.890 -33.549  1.00  0.00    -0.068 SA
HETATM   33  C   UNL     1      -5.006  -2.543 -34.017  1.00  0.00     0.035 A 
HETATM   34  C   UNL     1      -6.274  -2.847 -34.512  1.00  0.00     0.075 A 
HETATM   35  C   UNL     1      -3.985  -3.505 -33.952  1.00  0.00     0.021 A 
HETATM   36  N   UNL     1      -7.176  -1.792 -34.518  1.00  0.00    -0.240 NA
HETATM   37  C   UNL     1      -6.533  -4.159 -34.956  1.00  0.00     0.033 A 
HETATM   38  C   UNL     1      -5.524  -5.125 -34.896  1.00  0.00     0.002 A 
HETATM   39  C   UNL     1      -4.265  -4.799 -34.400  1.00  0.00     0.002 A 
ENDBRANCH   5  31
TORSDOF 9
ENDMDL
MODEL 5
REMARK VINA RESULT:      -8.2      6.127     10.053
REMARK  9 active torsions:
REMARK  status: ('A' for Active; 'I' for Inactive)
REMARK    1  A    between atoms: N_2  and  C_4 
REMARK    2  A    between atoms: C_4  and  C_5 
REMARK    3  A    between atoms: C_6  and  O_7 
REMARK    4  A    between atoms: O_7  and  C_8 
REMARK    5  A    between atoms: C_8  and  C_9 
REMARK       I    between atoms: C_9  and  N_10 
REMARK    6  A    between atoms: N_10  and  C_11 
REMARK    7  A    between atoms: C_11  and  C_12 
REMARK    8  A    between atoms: C_12  and  C_13 
REMARK    9  A    between atoms: C_27  and  C_28 
ROOT
HETATM    1  C   UNL     1      -1.801   7.645 -28.686  1.00  0.00     0.002 A 
HETATM    2  C   UNL     1      -1.076   6.998 -29.698  1.00  0.00     0.077 A 
HETATM    3  C   UNL     1       0.320   6.986 -29.639  1.00  0.00     0.038 A 
HETATM    4  C   UNL     1       0.996   7.596 -28.574  1.00  0.00     0.017 A 
HETATM    5  C   UNL     1       0.294   8.232 -27.543  1.00  0.00     0.000 A 
HETATM    6  C   UNL     1      -1.109   8.249 -27.619  1.00  0.00     0.026 A 
ENDROOT
BRANCH   2   7
HETATM    7  O   UNL     1      -1.819   6.445 -30.713  1.00  0.00    -0.342 OA
BRANCH   7   8
HETATM    8  C   UNL     1      -1.188   5.377 -31.426  1.00  0.00     0.278 C 
BRANCH   8   9
HETATM    9  C   UNL     1      -2.183   4.417 -32.078  1.00  0.00     0.241 C 
HETATM   10  N   UNL     1      -2.829   3.557 -31.217  1.00  0.00    -0.359 N 
HETATM   11  H   UNL     1      -2.400   3.374 -30.321  1.00  0.00     0.162 HD
HETATM   12  O   UNL     1      -2.409   4.448 -33.285  1.00  0.00    -0.271 OA
BRANCH  10  13
HETATM   13  C   UNL     1      -3.781   2.577 -31.714  1.00  0.00     0.130 C 
BRANCH  13  14
HETATM   14  C   UNL     1      -3.328   1.139 -31.464  1.00  0.00     0.098 C 
BRANCH  14  15
HETATM   15  C   UNL     1      -4.050   0.148 -32.325  1.00  0.00     0.106 A 
HETATM   16  N   UNL     1      -3.563  -0.912 -32.947  1.00  0.00    -0.233 NA
HETATM   17  C   UNL     1      -4.656  -1.536 -33.511  1.00  0.00     0.087 A 
HETATM   18  C   UNL     1      -5.821  -0.818 -33.268  1.00  0.00     0.062 A 
HETATM   19  C   UNL     1      -4.734  -2.731 -34.240  1.00  0.00     0.057 A 
HETATM   20  N   UNL     1      -5.406   0.259 -32.532  1.00  0.00    -0.343 N 
HETATM   21  C   UNL     1      -7.083  -1.215 -33.715  1.00  0.00     0.034 A 
HETATM   22  H   UNL     1      -6.003   0.989 -32.164  1.00  0.00     0.167 HD
HETATM   23  C   UNL     1      -7.143  -2.410 -34.441  1.00  0.00     0.026 A 
HETATM   24  C   UNL     1      -5.988  -3.151 -34.696  1.00  0.00     0.036 A 
HETATM   25 CL   UNL     1      -6.099  -4.620 -35.588  1.00  0.00    -0.084 Cl
ENDBRANCH  14  15
ENDBRANCH  13  14
ENDBRANCH  10  13
ENDBRANCH   8   9
ENDBRANCH   7   8
ENDBRANCH   2   7
BRANCH   1  26
HETATM   26  C   UNL     1      -3.303   7.737 -28.744  1.00  0.00     0.275 C 
BRANCH  26  27
HETATM   27  N   UNL     1      -3.979   6.435 -28.378  1.00  0.00    -0.075 N 
HETATM   28  C   UNL     1      -4.978   5.980 -29.402  1.00  0.00     0.269 C 
HETATM   29  H   UNL     1      -3.226   5.734 -28.355  1.00  0.00     0.279 HD
HETATM   30  C   UNL     1      -4.568   6.484 -27.003  1.00  0.00     0.269 C 
ENDBRANCH  26  27
ENDBRANCH   1  26
BRANCH   5  31
HETATM   31  C   UNL     1       0.949   8.910 -26.408  1.00  0.00     0.109 A 
HETATM   32  S   UNL     1       0.749  10.592 -26.117  1.00  0.00    -0.068 SA
HETATM   33  C   UNL     1       1.800  10.497 -24.760  1.00  0.00     0.035 A 
HETATM   34  C   UNL     1       2.238   9.180 -24.619  1.00  0.00     0.075 A 
HETATM   35  C   UNL     1       2.208  11.514 -23.882  1.00  0.00     0.021 A 
HETATM   36  N   UNL     1       1.753   8.290 -25.566  1.00  0.00    -0.240 NA
HETATM   37  C   UNL     1       3.115   8.867 -23.562  1.00  0.00     0.033 A 
HETATM   38  C   UNL     1       3.528   9.871 -22.681  1.00  0.00     0.002 A 
HETATM   39  C   UNL     1       3.080  11.178 -22.841  1.00  0.00     0.002 A 
ENDBRANCH   5  31
TORSDOF 9
ENDMDL
MODEL 6
REMARK VINA RESULT:      -8.1      4.051      7.112
REMARK  9 active torsions:
REMARK  status: ('A' for Active; 'I' for Inactive)
REMARK    1  A    between atoms: N_2  and  C_4 
REMARK    2  A    between atoms: C_4  and  C_5 
REMARK    3  A    between atoms: C_6  and  O_7 
REMARK    4  A    between atoms: O_7  and  C_8 
REMARK    5  A    between atoms: C_8  and  C_9 
REMARK       I    between atoms: C_9  and  N_10 
REMARK    6  A    between atoms: N_10  and  C_11 
REMARK    7  A    between atoms: C_11  and  C_12 
REMARK    8  A    between atoms: C_12  and  C_13 
REMARK    9  A    between atoms: C_27  and  C_28 
ROOT
HETATM    1  C   UNL     1      -6.531   3.081 -32.657  1.00  0.00     0.002 A 
HETATM    2  C   UNL     1      -5.392   3.773 -32.215  1.00  0.00     0.077 A 
HETATM    3  C   UNL     1      -4.172   3.097 -32.130  1.00  0.00     0.038 A 
HETATM    4  C   UNL     1      -4.074   1.748 -32.496  1.00  0.00     0.017 A 
HETATM    5  C   UNL     1      -5.191   1.042 -32.958  1.00  0.00     0.000 A 
HETATM    6  C   UNL     1      -6.416   1.727 -33.027  1.00  0.00     0.026 A 
ENDROOT
BRANCH   2   7
HETATM    7  O   UNL     1      -5.585   5.085 -31.857  1.00  0.00    -0.342 OA
BRANCH   7   8
HETATM    8  C   UNL     1      -5.080   6.055 -32.779  1.00  0.00     0.278 C 
BRANCH   8   9
HETATM    9  C   UNL     1      -3.697   6.584 -32.400  1.00  0.00     0.241 C 
HETATM   10  N   UNL     1      -2.668   6.206 -33.234  1.00  0.00    -0.359 N 
HETATM   11  H   UNL     1      -2.801   5.385 -33.807  1.00  0.00     0.162 HD
HETATM   12  O   UNL     1      -3.536   7.326 -31.435  1.00  0.00    -0.271 OA
BRANCH  10  13
HETATM   13  C   UNL     1      -1.300   6.622 -32.970  1.00  0.00     0.130 C 
BRANCH  13  14
HETATM   14  C   UNL     1      -0.562   5.658 -32.041  1.00  0.00     0.098 C 
BRANCH  14  15
HETATM   15  C   UNL     1      -0.296   6.247 -30.690  1.00  0.00     0.106 A 
HETATM   16  N   UNL     1       0.733   6.980 -30.299  1.00  0.00    -0.233 NA
HETATM   17  C   UNL     1       0.443   7.351 -29.003  1.00  0.00     0.087 A 
HETATM   18  C   UNL     1      -0.759   6.795 -28.583  1.00  0.00     0.062 A 
HETATM   19  C   UNL     1       1.157   8.173 -28.121  1.00  0.00     0.057 A 
HETATM   20  N   UNL     1      -1.198   6.080 -29.664  1.00  0.00    -0.343 N 
HETATM   21  C   UNL     1      -1.307   7.003 -27.314  1.00  0.00     0.034 A 
HETATM   22  H   UNL     1      -2.061   5.556 -29.715  1.00  0.00     0.167 HD
HETATM   23  C   UNL     1      -0.581   7.827 -26.447  1.00  0.00     0.026 A 
HETATM   24  C   UNL     1       0.627   8.399 -26.846  1.00  0.00     0.036 A 
HETATM   25 CL   UNL     1       1.491   9.412 -25.753  1.00  0.00    -0.084 Cl
ENDBRANCH  14  15
ENDBRANCH  13  14
ENDBRANCH  10  13
ENDBRANCH   8   9
ENDBRANCH   7   8
ENDBRANCH   2   7
BRANCH   1  26
HETATM   26  C   UNL     1      -7.878   3.752 -32.703  1.00  0.00     0.275 C 
BRANCH  26  27
HETATM   27  N   UNL     1      -8.295   4.310 -31.360  1.00  0.00    -0.075 N 
HETATM   28  C   UNL     1      -8.760   3.255 -30.400  1.00  0.00     0.269 C 
HETATM   29  H   UNL     1      -7.443   4.730 -30.964  1.00  0.00     0.279 HD
HETATM   30  C   UNL     1      -9.294   5.415 -31.507  1.00  0.00     0.269 C 
ENDBRANCH  26  27
ENDBRANCH   1  26
BRANCH   5  31
HETATM   31  C   UNL     1      -5.155  -0.383 -33.338  1.00  0.00     0.109 A 
HETATM   32  S   UNL     1      -3.758  -1.354 -33.090  1.00  0.00    -0.068 SA
HETATM   33  C   UNL     1      -4.554  -2.703 -33.797  1.00  0.00     0.035 A 
HETATM   34  C   UNL     1      -5.839  -2.321 -34.180  1.00  0.00     0.075 A 
HETATM   35  C   UNL     1      -4.076  -4.008 -34.000  1.00  0.00     0.021 A 
HETATM   36  N   UNL     1      -6.166  -0.997 -33.920  1.00  0.00    -0.240 NA
HETATM   37  C   UNL     1      -6.679  -3.276 -34.786  1.00  0.00     0.033 A 
HETATM   38  C   UNL     1      -6.214  -4.579 -34.992  1.00  0.00     0.002 A 
HETATM   39  C   UNL     1      -4.927  -4.938 -34.604  1.00  0.00     0.002 A 
ENDBRANCH   5  31
TORSDOF 9
ENDMDL
MODEL 7
REMARK VINA RESULT:      -7.9      2.660      5.372
REMARK  9 active torsions:
REMARK  status: ('A' for Active; 'I' for Inactive)
REMARK    1  A    between atoms: N_2  and  C_4 
REMARK    2  A    between atoms: C_4  and  C_5 
REMARK    3  A    between atoms: C_6  and  O_7 
REMARK    4  A    between atoms: O_7  and  C_8 
REMARK    5  A    between atoms: C_8  and  C_9 
REMARK       I    between atoms: C_9  and  N_10 
REMARK    6  A    between atoms: N_10  and  C_11 
REMARK    7  A    between atoms: C_11  and  C_12 
REMARK    8  A    between atoms: C_12  and  C_13 
REMARK    9  A    between atoms: C_27  and  C_28 
ROOT
HETATM    1  C   UNL     1      -9.523   2.167 -33.499  1.00  0.00     0.002 A 
HETATM    2  C   UNL     1      -8.840   3.391 -33.571  1.00  0.00     0.077 A 
HETATM    3  C   UNL     1      -7.455   3.392 -33.752  1.00  0.00     0.038 A 
HETATM    4  C   UNL     1      -6.749   2.188 -33.880  1.00  0.00     0.017 A 
HETATM    5  C   UNL     1      -7.410   0.955 -33.831  1.00  0.00     0.000 A 
HETATM    6  C   UNL     1      -8.801   0.965 -33.635  1.00  0.00     0.026 A 
ENDROOT
BRANCH   2   7
HETATM    7  O   UNL     1      -9.608   4.519 -33.415  1.00  0.00    -0.342 OA
BRANCH   7   8
HETATM    8  C   UNL     1      -9.032   5.548 -32.604  1.00  0.00     0.278 C 
BRANCH   8   9
HETATM    9  C   UNL     1      -8.981   5.187 -31.120  1.00  0.00     0.241 C 
HETATM   10  N   UNL     1      -7.909   5.697 -30.421  1.00  0.00    -0.359 N 
HETATM   11  H   UNL     1      -7.090   5.971 -30.946  1.00  0.00     0.162 HD
HETATM   12  O   UNL     1      -9.864   4.517 -30.591  1.00  0.00    -0.271 OA
BRANCH  10  13
HETATM   13  C   UNL     1      -7.731   5.406 -29.008  1.00  0.00     0.130 C 
BRANCH  13  14
HETATM   14  C   UNL     1      -6.261   5.231 -28.625  1.00  0.00     0.098 C 
BRANCH  14  15
HETATM   15  C   UNL     1      -5.359   5.148 -29.818  1.00  0.00     0.106 A 
HETATM   16  N   UNL     1      -4.868   6.134 -30.549  1.00  0.00    -0.233 NA
HETATM   17  C   UNL     1      -4.020   5.529 -31.453  1.00  0.00     0.087 A 
HETATM   18  C   UNL     1      -4.033   4.147 -31.300  1.00  0.00     0.062 A 
HETATM   19  C   UNL     1      -3.195   6.097 -32.433  1.00  0.00     0.057 A 
HETATM   20  N   UNL     1      -4.908   3.930 -30.270  1.00  0.00    -0.343 N 
HETATM   21  C   UNL     1      -3.266   3.276 -32.077  1.00  0.00     0.034 A 
HETATM   22  H   UNL     1      -5.147   3.028 -29.879  1.00  0.00     0.167 HD
HETATM   23  C   UNL     1      -2.448   3.859 -33.050  1.00  0.00     0.026 A 
HETATM   24  C   UNL     1      -2.415   5.243 -33.221  1.00  0.00     0.036 A 
HETATM   25 CL   UNL     1      -1.392   5.928 -34.426  1.00  0.00    -0.084 Cl
ENDBRANCH  14  15
ENDBRANCH  13  14
ENDBRANCH  10  13
ENDBRANCH   8   9
ENDBRANCH   7   8
ENDBRANCH   2   7
BRANCH   1  26
HETATM   26  C   UNL     1     -11.005   2.118 -33.241  1.00  0.00     0.275 C 
BRANCH  26  27
HETATM   27  N   UNL     1     -11.772   1.475 -34.376  1.00  0.00    -0.075 N 
HETATM   28  C   UNL     1     -12.232   2.460 -35.410  1.00  0.00     0.269 C 
HETATM   29  H   UNL     1     -11.101   0.842 -34.833  1.00  0.00     0.279 HD
HETATM   30  C   UNL     1     -12.895   0.624 -33.872  1.00  0.00     0.269 C 
ENDBRANCH  26  27
ENDBRANCH   1  26
BRANCH   5  31
HETATM   31  C   UNL     1      -6.720  -0.344 -33.937  1.00  0.00     0.109 A 
HETATM   32  S   UNL     1      -5.074  -0.540 -33.478  1.00  0.00    -0.068 SA
HETATM   33  C   UNL     1      -5.127  -2.194 -33.941  1.00  0.00     0.035 A 
HETATM   34  C   UNL     1      -6.403  -2.489 -34.420  1.00  0.00     0.075 A 
HETATM   35  C   UNL     1      -4.112  -3.163 -33.884  1.00  0.00     0.021 A 
HETATM   36  N   UNL     1      -7.297  -1.428 -34.419  1.00  0.00    -0.240 NA
HETATM   37  C   UNL     1      -6.677  -3.800 -34.857  1.00  0.00     0.033 A 
HETATM   38  C   UNL     1      -5.674  -4.774 -34.806  1.00  0.00     0.002 A 
HETATM   39  C   UNL     1      -4.407  -4.456 -34.326  1.00  0.00     0.002 A 
ENDBRANCH   5  31
TORSDOF 9
ENDMDL
MODEL 8
REMARK VINA RESULT:      -7.8      2.331      5.218
REMARK  9 active torsions:
REMARK  status: ('A' for Active; 'I' for Inactive)
REMARK    1  A    between atoms: N_2  and  C_4 
REMARK    2  A    between atoms: C_4  and  C_5 
REMARK    3  A    between atoms: C_6  and  O_7 
REMARK    4  A    between atoms: O_7  and  C_8 
REMARK    5  A    between atoms: C_8  and  C_9 
REMARK       I    between atoms: C_9  and  N_10 
REMARK    6  A    between atoms: N_10  and  C_11 
REMARK    7  A    between atoms: C_11  and  C_12 
REMARK    8  A    between atoms: C_12  and  C_13 
REMARK    9  A    between atoms: C_27  and  C_28 
ROOT
HETATM    1  C   UNL     1      -7.296   3.525 -31.660  1.00  0.00     0.002 A 
HETATM    2  C   UNL     1      -6.451   3.975 -30.633  1.00  0.00     0.077 A 
HETATM    3  C   UNL     1      -5.382   3.174 -30.227  1.00  0.00     0.038 A 
HETATM    4  C   UNL     1      -5.137   1.940 -30.844  1.00  0.00     0.017 A 
HETATM    5  C   UNL     1      -5.953   1.477 -31.882  1.00  0.00     0.000 A 
HETATM    6  C   UNL     1      -7.034   2.285 -32.275  1.00  0.00     0.026 A 
ENDROOT
BRANCH   2   7
HETATM    7  O   UNL     1      -6.778   5.185 -30.071  1.00  0.00    -0.342 OA
BRANCH   7   8
HETATM    8  C   UNL     1      -7.071   5.154 -28.671  1.00  0.00     0.278 C 
BRANCH   8   9
HETATM    9  C   UNL     1      -6.263   6.170 -27.864  1.00  0.00     0.241 C 
HETATM   10  N   UNL     1      -4.900   5.975 -27.859  1.00  0.00    -0.359 N 
HETATM   11  H   UNL     1      -4.554   5.052 -28.078  1.00  0.00     0.162 HD
HETATM   12  O   UNL     1      -6.805   7.113 -27.294  1.00  0.00    -0.271 OA
BRANCH  10  13
HETATM   13  C   UNL     1      -4.021   6.857 -27.108  1.00  0.00     0.130 C 
BRANCH  13  14
HETATM   14  C   UNL     1      -2.984   7.547 -27.993  1.00  0.00     0.098 C 
BRANCH  14  15
HETATM   15  C   UNL     1      -2.899   6.943 -29.361  1.00  0.00     0.106 A 
HETATM   16  N   UNL     1      -3.764   7.036 -30.357  1.00  0.00    -0.233 NA
HETATM   17  C   UNL     1      -3.165   6.391 -31.419  1.00  0.00     0.087 A 
HETATM   18  C   UNL     1      -1.937   5.856 -31.049  1.00  0.00     0.062 A 
HETATM   19  C   UNL     1      -3.608   6.229 -32.739  1.00  0.00     0.057 A 
HETATM   20  N   UNL     1      -1.802   6.201 -29.732  1.00  0.00    -0.343 N 
HETATM   21  C   UNL     1      -1.105   5.151 -31.923  1.00  0.00     0.034 A 
HETATM   22  H   UNL     1      -1.007   5.986 -29.143  1.00  0.00     0.167 HD
HETATM   23  C   UNL     1      -1.562   4.999 -33.236  1.00  0.00     0.026 A 
HETATM   24  C   UNL     1      -2.789   5.529 -33.633  1.00  0.00     0.036 A 
HETATM   25 CL   UNL     1      -3.318   5.328 -35.260  1.00  0.00    -0.084 Cl
ENDBRANCH  14  15
ENDBRANCH  13  14
ENDBRANCH  10  13
ENDBRANCH   8   9
ENDBRANCH   7   8
ENDBRANCH   2   7
BRANCH   1  26
HETATM   26  C   UNL     1      -8.497   4.326 -32.086  1.00  0.00     0.275 C 
BRANCH  26  27
HETATM   27  N   UNL     1      -9.801   3.611 -31.807  1.00  0.00    -0.075 N 
HETATM   28  C   UNL     1     -10.943   4.121 -32.635  1.00  0.00     0.269 C 
HETATM   29  H   UNL     1      -9.638   2.632 -32.080  1.00  0.00     0.279 HD
HETATM   30  C   UNL     1     -10.126   3.604 -30.346  1.00  0.00     0.269 C 
ENDBRANCH  26  27
ENDBRANCH   1  26
BRANCH   5  31
HETATM   31  C   UNL     1      -5.759   0.179 -32.556  1.00  0.00     0.109 A 
HETATM   32  S   UNL     1      -4.214  -0.568 -32.661  1.00  0.00    -0.068 SA
HETATM   33  C   UNL     1      -4.890  -1.872 -33.553  1.00  0.00     0.035 A 
HETATM   34  C   UNL     1      -6.257  -1.649 -33.714  1.00  0.00     0.075 A 
HETATM   35  C   UNL     1      -4.256  -3.012 -34.073  1.00  0.00     0.021 A 
HETATM   36  N   UNL     1      -6.737  -0.476 -33.149  1.00  0.00    -0.240 NA
HETATM   37  C   UNL     1      -7.020  -2.600 -34.420  1.00  0.00     0.033 A 
HETATM   38  C   UNL     1      -6.400  -3.740 -34.943  1.00  0.00     0.002 A 
HETATM   39  C   UNL     1      -5.034  -3.941 -34.771  1.00  0.00     0.002 A 
ENDBRANCH   5  31
TORSDOF 9
ENDMDL
MODEL 9
REMARK VINA RESULT:      -7.8      5.167      8.998
REMARK  9 active torsions:
REMARK  status: ('A' for Active; 'I' for Inactive)
REMARK    1  A    between atoms: N_2  and  C_4 
REMARK    2  A    between atoms: C_4  and  C_5 
REMARK    3  A    between atoms: C_6  and  O_7 
REMARK    4  A    between atoms: O_7  and  C_8 
REMARK    5  A    between atoms: C_8  and  C_9 
REMARK       I    between atoms: C_9  and  N_10 
REMARK    6  A    between atoms: N_10  and  C_11 
REMARK    7  A    between atoms: C_11  and  C_12 
REMARK    8  A    between atoms: C_12  and  C_13 
REMARK    9  A    between atoms: C_27  and  C_28 
ROOT
HETATM    1  C   UNL     1      -1.855   7.826 -31.016  1.00  0.00     0.002 A 
HETATM    2  C   UNL     1      -1.028   7.009 -31.802  1.00  0.00     0.077 A 
HETATM    3  C   UNL     1       0.217   6.616 -31.306  1.00  0.00     0.038 A 
HETATM    4  C   UNL     1       0.636   7.014 -30.029  1.00  0.00     0.017 A 
HETATM    5  C   UNL     1      -0.178   7.812 -29.218  1.00  0.00     0.000 A 
HETATM    6  C   UNL     1      -1.423   8.212 -29.732  1.00  0.00     0.026 A 
ENDROOT
BRANCH   2   7
HETATM    7  O   UNL     1      -1.510   6.686 -33.048  1.00  0.00    -0.342 OA
BRANCH   7   8
HETATM    8  C   UNL     1      -1.830   5.305 -33.244  1.00  0.00     0.278 C 
BRANCH   8   9
HETATM    9  C   UNL     1      -3.297   5.072 -33.606  1.00  0.00     0.241 C 
HETATM   10  N   UNL     1      -3.850   3.908 -33.120  1.00  0.00    -0.359 N 
HETATM   11  H   UNL     1      -3.224   3.158 -32.865  1.00  0.00     0.162 HD
HETATM   12  O   UNL     1      -3.936   5.895 -34.256  1.00  0.00    -0.271 OA
BRANCH  10  13
HETATM   13  C   UNL     1      -5.230   3.557 -33.414  1.00  0.00     0.130 C 
BRANCH  13  14
HETATM   14  C   UNL     1      -5.823   2.592 -32.388  1.00  0.00     0.098 C 
BRANCH  14  15
HETATM   15  C   UNL     1      -5.823   1.172 -32.863  1.00  0.00     0.106 A 
HETATM   16  N   UNL     1      -6.839   0.452 -33.309  1.00  0.00    -0.233 NA
HETATM   17  C   UNL     1      -6.287  -0.746 -33.712  1.00  0.00     0.087 A 
HETATM   18  C   UNL     1      -4.920  -0.773 -33.463  1.00  0.00     0.062 A 
HETATM   19  C   UNL     1      -6.891  -1.859 -34.312  1.00  0.00     0.057 A 
HETATM   20  N   UNL     1      -4.654   0.447 -32.903  1.00  0.00    -0.343 N 
HETATM   21  C   UNL     1      -4.098  -1.860 -33.773  1.00  0.00     0.034 A 
HETATM   22  H   UNL     1      -3.744   0.777 -32.610  1.00  0.00     0.167 HD
HETATM   23  C   UNL     1      -4.717  -2.962 -34.371  1.00  0.00     0.026 A 
HETATM   24  C   UNL     1      -6.087  -2.958 -34.634  1.00  0.00     0.036 A 
HETATM   25 CL   UNL     1      -6.816  -4.331 -35.377  1.00  0.00    -0.084 Cl
ENDBRANCH  14  15
ENDBRANCH  13  14
ENDBRANCH  10  13
ENDBRANCH   8   9
ENDBRANCH   7   8
ENDBRANCH   2   7
BRANCH   1  26
HETATM   26  C   UNL     1      -3.177   8.325 -31.536  1.00  0.00     0.275 C 
BRANCH  26  27
HETATM   27  N   UNL     1      -4.280   7.299 -31.399  1.00  0.00    -0.075 N 
HETATM   28  C   UNL     1      -5.653   7.905 -31.396  1.00  0.00     0.269 C 
HETATM   29  H   UNL     1      -4.209   6.708 -32.238  1.00  0.00     0.279 HD
HETATM   30  C   UNL     1      -4.060   6.405 -30.219  1.00  0.00     0.269 C 
ENDBRANCH  26  27
ENDBRANCH   1  26
BRANCH   5  31
HETATM   31  C   UNL     1       0.216   8.279 -27.875  1.00  0.00     0.109 A 
HETATM   32  S   UNL     1      -0.895   9.066 -26.825  1.00  0.00    -0.068 SA
HETATM   33  C   UNL     1       0.337   9.257 -25.642  1.00  0.00     0.035 A 
HETATM   34  C   UNL     1       1.522   8.707 -26.131  1.00  0.00     0.075 A 
HETATM   35  C   UNL     1       0.262   9.852 -24.372  1.00  0.00     0.021 A 
HETATM   36  N   UNL     1       1.441   8.161 -27.404  1.00  0.00    -0.240 NA
HETATM   37  C   UNL     1       2.674   8.751 -25.321  1.00  0.00     0.033 A 
HETATM   38  C   UNL     1       2.611   9.340 -24.054  1.00  0.00     0.002 A 
HETATM   39  C   UNL     1       1.419   9.885 -23.588  1.00  0.00     0.002 A 
ENDBRANCH   5  31
TORSDOF 9
ENDMDL
MODEL 10
REMARK VINA RESULT:      -7.7      2.166      2.702
REMARK  9 active torsions:
REMARK  status: ('A' for Active; 'I' for Inactive)
REMARK    1  A    between atoms: N_2  and  C_4 
REMARK    2  A    between atoms: C_4  and  C_5 
REMARK    3  A    between atoms: C_6  and  O_7 
REMARK    4  A    between atoms: O_7  and  C_8 
REMARK    5  A    between atoms: C_8  and  C_9 
REMARK       I    between atoms: C_9  and  N_10 
REMARK    6  A    between atoms: N_10  and  C_11 
REMARK    7  A    between atoms: C_11  and  C_12 
REMARK    8  A    between atoms: C_12  and  C_13 
REMARK    9  A    between atoms: C_27  and  C_28 
ROOT
HETATM    1  C   UNL     1      -4.438   2.983 -32.152  1.00  0.00     0.002 A 
HETATM    2  C   UNL     1      -5.498   3.867 -32.405  1.00  0.00     0.077 A 
HETATM    3  C   UNL     1      -6.631   3.401 -33.077  1.00  0.00     0.038 A 
HETATM    4  C   UNL     1      -6.724   2.063 -33.481  1.00  0.00     0.017 A 
HETATM    5  C   UNL     1      -5.688   1.157 -33.223  1.00  0.00     0.000 A 
HETATM    6  C   UNL     1      -4.548   1.639 -32.559  1.00  0.00     0.026 A 
ENDROOT
BRANCH   2   7
HETATM    7  O   UNL     1      -5.313   5.164 -31.993  1.00  0.00    -0.342 OA
BRANCH   7   8
HETATM    8  C   UNL     1      -5.857   6.167 -32.856  1.00  0.00     0.278 C 
BRANCH   8   9
HETATM    9  C   UNL     1      -6.844   7.098 -32.151  1.00  0.00     0.241 C 
HETATM   10  N   UNL     1      -7.971   7.422 -32.873  1.00  0.00    -0.359 N 
HETATM   11  H   UNL     1      -7.934   7.325 -33.877  1.00  0.00     0.162 HD
HETATM   12  O   UNL     1      -6.648   7.491 -31.004  1.00  0.00    -0.271 OA
BRANCH  10  13
HETATM   13  C   UNL     1      -8.976   8.320 -32.325  1.00  0.00     0.130 C 
BRANCH  13  14
HETATM   14  C   UNL     1     -10.205   7.577 -31.800  1.00  0.00     0.098 C 
BRANCH  14  15
HETATM   15  C   UNL     1     -10.258   6.153 -32.260  1.00  0.00     0.106 A 
HETATM   16  N   UNL     1      -9.871   5.064 -31.616  1.00  0.00    -0.233 NA
HETATM   17  C   UNL     1     -10.232   4.012 -32.432  1.00  0.00     0.087 A 
HETATM   18  C   UNL     1     -10.803   4.471 -33.613  1.00  0.00     0.062 A 
HETATM   19  C   UNL     1     -10.111   2.631 -32.227  1.00  0.00     0.057 A 
HETATM   20  N   UNL     1     -10.789   5.834 -33.489  1.00  0.00    -0.343 N 
HETATM   21  C   UNL     1     -11.268   3.628 -34.626  1.00  0.00     0.034 A 
HETATM   22  H   UNL     1     -11.148   6.493 -34.167  1.00  0.00     0.167 HD
HETATM   23  C   UNL     1     -11.140   2.253 -34.405  1.00  0.00     0.026 A 
HETATM   24  C   UNL     1     -10.572   1.768 -33.227  1.00  0.00     0.036 A 
HETATM   25 CL   UNL     1     -10.435   0.068 -32.985  1.00  0.00    -0.084 Cl
ENDBRANCH  14  15
ENDBRANCH  13  14
ENDBRANCH  10  13
ENDBRANCH   8   9
ENDBRANCH   7   8
ENDBRANCH   2   7
BRANCH   1  26
HETATM   26  C   UNL     1      -3.173   3.457 -31.488  1.00  0.00     0.275 C 
BRANCH  26  27
HETATM   27  N   UNL     1      -2.605   4.699 -32.140  1.00  0.00    -0.075 N 
HETATM   28  C   UNL     1      -2.119   4.462 -33.540  1.00  0.00     0.269 C 
HETATM   29  H   UNL     1      -3.393   5.359 -32.198  1.00  0.00     0.279 HD
HETATM   30  C   UNL     1      -1.561   5.345 -31.284  1.00  0.00     0.269 C 
ENDBRANCH  26  27
ENDBRANCH   1  26
BRANCH   5  31
HETATM   31  C   UNL     1      -5.718  -0.257 -33.642  1.00  0.00     0.109 A 
HETATM   32  S   UNL     1      -7.137  -0.984 -34.285  1.00  0.00    -0.068 SA
HETATM   33  C   UNL     1      -6.318  -2.488 -34.431  1.00  0.00     0.035 A 
HETATM   34  C   UNL     1      -5.009  -2.335 -33.975  1.00  0.00     0.075 A 
HETATM   35  C   UNL     1      -6.798  -3.715 -34.914  1.00  0.00     0.021 A 
HETATM   36  N   UNL     1      -4.683  -1.065 -33.523  1.00  0.00    -0.240 NA
HETATM   37  C   UNL     1      -4.146  -3.450 -34.004  1.00  0.00     0.033 A 
HETATM   38  C   UNL     1      -4.614  -4.677 -34.483  1.00  0.00     0.002 A 
HETATM   39  C   UNL     1      -5.924  -4.807 -34.931  1.00  0.00     0.002 A 
ENDBRANCH   5  31
TORSDOF 9
ENDMDL
