MODEL 1
REMARK VINA RESULT:      -8.1      0.000      0.000
REMARK  6 active torsions:
REMARK  status: ('A' for Active; 'I' for Inactive)
REMARK    1  A    between atoms: C_2  and  C_3 
REMARK    2  A    between atoms: C_8  and  C_9 
REMARK    3  A    between atoms: C_9  and  N_10 
REMARK    4  A    between atoms: C_12  and  C_13 
REMARK    5  A    between atoms: C_13  and  N_14 
REMARK       I    between atoms: N_14  and  C_15 
REMARK    6  A    between atoms: C_15  and  C_16 
ROOT
HETATM    1  N   UNL     1     -10.245   2.013 -32.909  1.00  0.00    -0.061 N 
HETATM    2  H   UNL     1     -10.803   1.998 -32.048  1.00  0.00     0.280 HD
HETATM    3  C   UNL     1      -9.447   0.703 -32.843  1.00  0.00     0.206 C 
HETATM    4  C   UNL     1      -8.624   0.737 -31.543  1.00  0.00     0.035 C 
HETATM    5  C   UNL     1      -7.733   1.970 -31.440  1.00  0.00     0.004 C 
HETATM    6  C   UNL     1      -8.550   3.247 -31.585  1.00  0.00     0.028 C 
HETATM    7  C   UNL     1      -9.394   3.255 -32.851  1.00  0.00     0.236 C 
ENDROOT
BRANCH   1   8
HETATM    8  C   UNL     1     -11.285   2.091 -34.011  1.00  0.00     0.277 C 
BRANCH   8   9
HETATM    9  C   UNL     1     -12.644   1.661 -33.603  1.00  0.00     0.012 A 
HETATM   10  C   UNL     1     -13.684   2.380 -32.922  1.00  0.00     0.071 A 
HETATM   11  N   UNL     1     -14.757   1.596 -32.753  1.00  0.00    -0.178 NA
HETATM   12  N   UNL     1     -14.444   0.426 -33.310  1.00  0.00    -0.288 N 
HETATM   13  H   UNL     1     -15.134  -0.322 -33.292  1.00  0.00     0.188 HD
HETATM   14  C   UNL     1     -13.195   0.416 -33.846  1.00  0.00     0.120 A 
BRANCH  10  15
HETATM   15  C   UNL     1     -13.753   3.828 -32.421  1.00  0.00    -0.004 C 
HETATM   16  C   UNL     1     -15.171   4.183 -31.902  1.00  0.00     0.021 C 
HETATM   17  C   UNL     1     -13.419   4.795 -33.573  1.00  0.00     0.021 C 
HETATM   18  C   UNL     1     -12.783   4.081 -31.253  1.00  0.00     0.021 C 
ENDBRANCH  10  15
ENDBRANCH   8   9
ENDBRANCH   1   8
BRANCH   3  19
HETATM   19  C   UNL     1      -8.578   0.460 -34.112  1.00  0.00     0.156 C 
BRANCH  19  20
HETATM   20  N   UNL     1      -7.911  -0.828 -34.130  1.00  0.00    -0.355 N 
HETATM   21  C   UNL     1      -6.533  -0.912 -34.112  1.00  0.00     0.251 C 
HETATM   22  O   UNL     1      -5.821   0.085 -34.045  1.00  0.00    -0.268 OA
HETATM   23  H   UNL     1      -8.451  -1.669 -34.305  1.00  0.00     0.162 HD
BRANCH  21  24
HETATM   24  C   UNL     1      -5.954  -2.268 -34.291  1.00  0.00     0.032 A 
HETATM   25  C   UNL     1      -6.792  -3.294 -34.743  1.00  0.00     0.017 A 
HETATM   26  C   UNL     1      -6.297  -4.591 -34.872  1.00  0.00     0.001 A 
HETATM   27  C   UNL     1      -4.963  -4.863 -34.565  1.00  0.00     0.000 A 
HETATM   28  C   UNL     1      -4.120  -3.837 -34.136  1.00  0.00     0.001 A 
HETATM   29  C   UNL     1      -4.611  -2.537 -33.999  1.00  0.00     0.017 A 
ENDBRANCH  21  24
ENDBRANCH  19  20
ENDBRANCH   3  19
TORSDOF 6
ENDMDL
MODEL 2
REMARK VINA RESULT:      -8.1      5.322      8.375
REMARK  6 active torsions:
REMARK  status: ('A' for Active; 'I' for Inactive)
REMARK    1  A    between atoms: C_2  and  C_3 
REMARK    2  A    between atoms: C_8  and  C_9 
REMARK    3  A    between atoms: C_9  and  N_10 
REMARK    4  A    between atoms: C_12  and  C_13 
REMARK    5  A    between atoms: C_13  and  N_14 
REMARK       I    between atoms: N_14  and  C_15 
REMARK    6  A    between atoms: C_15  and  C_16 
ROOT
HETATM    1  N   UNL     1      -4.420   3.458 -31.902  1.00  0.00    -0.061 N 
HETATM    2  H   UNL     1      -4.608   4.166 -32.619  1.00  0.00     0.280 HD
HETATM    3  C   UNL     1      -4.802   2.139 -32.589  1.00  0.00     0.206 C 
HETATM    4  C   UNL     1      -6.279   2.256 -33.006  1.00  0.00     0.035 C 
HETATM    5  C   UNL     1      -7.197   2.592 -31.837  1.00  0.00     0.004 C 
HETATM    6  C   UNL     1      -6.742   3.865 -31.135  1.00  0.00     0.028 C 
HETATM    7  C   UNL     1      -5.281   3.805 -30.716  1.00  0.00     0.236 C 
ENDROOT
BRANCH   1   8
HETATM    8  C   UNL     1      -2.943   3.634 -31.600  1.00  0.00     0.277 C 
BRANCH   8   9
HETATM    9  C   UNL     1      -2.233   4.551 -32.525  1.00  0.00     0.012 A 
HETATM   10  C   UNL     1      -1.237   5.551 -32.263  1.00  0.00     0.071 A 
HETATM   11  N   UNL     1      -0.869   6.152 -33.403  1.00  0.00    -0.178 NA
HETATM   12  N   UNL     1      -1.578   5.564 -34.368  1.00  0.00    -0.288 N 
HETATM   13  H   UNL     1      -1.446   5.875 -35.327  1.00  0.00     0.188 HD
HETATM   14  C   UNL     1      -2.400   4.588 -33.897  1.00  0.00     0.120 A 
BRANCH  10  15
HETATM   15  C   UNL     1      -0.552   5.982 -30.960  1.00  0.00    -0.004 C 
HETATM   16  C   UNL     1       0.557   7.034 -31.220  1.00  0.00     0.021 C 
HETATM   17  C   UNL     1       0.107   4.762 -30.288  1.00  0.00     0.021 C 
HETATM   18  C   UNL     1      -1.544   6.625 -29.973  1.00  0.00     0.021 C 
ENDBRANCH  10  15
ENDBRANCH   8   9
ENDBRANCH   1   8
BRANCH   3  19
HETATM   19  C   UNL     1      -4.510   0.891 -31.707  1.00  0.00     0.156 C 
BRANCH  19  20
HETATM   20  N   UNL     1      -4.993  -0.355 -32.273  1.00  0.00    -0.355 N 
HETATM   21  C   UNL     1      -4.217  -1.080 -33.155  1.00  0.00     0.251 C 
HETATM   22  O   UNL     1      -3.085  -0.727 -33.467  1.00  0.00    -0.268 OA
HETATM   23  H   UNL     1      -5.963  -0.623 -32.137  1.00  0.00     0.162 HD
BRANCH  21  24
HETATM   24  C   UNL     1      -4.867  -2.253 -33.792  1.00  0.00     0.032 A 
HETATM   25  C   UNL     1      -6.196  -2.128 -34.215  1.00  0.00     0.017 A 
HETATM   26  C   UNL     1      -6.857  -3.224 -34.769  1.00  0.00     0.001 A 
HETATM   27  C   UNL     1      -6.188  -4.440 -34.917  1.00  0.00     0.000 A 
HETATM   28  C   UNL     1      -4.856  -4.561 -34.518  1.00  0.00     0.001 A 
HETATM   29  C   UNL     1      -4.191  -3.469 -33.956  1.00  0.00     0.017 A 
ENDBRANCH  21  24
ENDBRANCH  19  20
ENDBRANCH   3  19
TORSDOF 6
ENDMDL
MODEL 3
REMARK VINA RESULT:      -8.0      1.769      2.398
REMARK  6 active torsions:
REMARK  status: ('A' for Active; 'I' for Inactive)
REMARK    1  A    between atoms: C_2  and  C_3 
REMARK    2  A    between atoms: C_8  and  C_9 
REMARK    3  A    between atoms: C_9  and  N_10 
REMARK    4  A    between atoms: C_12  and  C_13 
REMARK    5  A    between atoms: C_13  and  N_14 
REMARK       I    between atoms: N_14  and  C_15 
REMARK    6  A    between atoms: C_15  and  C_16 
ROOT
HETATM    1  N   UNL     1      -7.733   2.374 -32.137  1.00  0.00    -0.061 N 
HETATM    2  H   UNL     1      -8.506   2.307 -31.467  1.00  0.00     0.280 HD
HETATM    3  C   UNL     1      -6.808   1.215 -31.736  1.00  0.00     0.206 C 
HETATM    4  C   UNL     1      -6.407   1.441 -30.268  1.00  0.00     0.035 C 
HETATM    5  C   UNL     1      -5.769   2.805 -30.032  1.00  0.00     0.004 C 
HETATM    6  C   UNL     1      -6.684   3.925 -30.511  1.00  0.00     0.028 C 
HETATM    7  C   UNL     1      -7.122   3.739 -31.956  1.00  0.00     0.236 C 
ENDROOT
BRANCH   1   8
HETATM    8  C   UNL     1      -8.412   2.233 -33.486  1.00  0.00     0.277 C 
BRANCH   8   9
HETATM    9  C   UNL     1      -9.791   1.691 -33.424  1.00  0.00     0.012 A 
HETATM   10  C   UNL     1     -11.056   2.336 -33.638  1.00  0.00     0.071 A 
HETATM   11  N   UNL     1     -12.058   1.461 -33.476  1.00  0.00    -0.178 NA
HETATM   12  N   UNL     1     -11.479   0.295 -33.187  1.00  0.00    -0.288 N 
HETATM   13  H   UNL     1     -12.071  -0.516 -33.027  1.00  0.00     0.188 HD
HETATM   14  C   UNL     1     -10.122   0.375 -33.158  1.00  0.00     0.120 A 
BRANCH  10  15
HETATM   15  C   UNL     1     -11.405   3.777 -34.030  1.00  0.00    -0.004 C 
HETATM   16  C   UNL     1     -12.939   4.000 -34.074  1.00  0.00     0.021 C 
HETATM   17  C   UNL     1     -10.845   4.087 -35.432  1.00  0.00     0.021 C 
HETATM   18  C   UNL     1     -10.842   4.799 -33.027  1.00  0.00     0.021 C 
ENDBRANCH  10  15
ENDBRANCH   8   9
ENDBRANCH   1   8
BRANCH   3  19
HETATM   19  C   UNL     1      -5.586   1.060 -32.689  1.00  0.00     0.156 C 
BRANCH  19  20
HETATM   20  N   UNL     1      -5.277  -0.316 -33.029  1.00  0.00    -0.355 N 
HETATM   21  C   UNL     1      -5.807  -0.902 -34.162  1.00  0.00     0.251 C 
HETATM   22  O   UNL     1      -6.523  -0.281 -34.940  1.00  0.00    -0.268 OA
HETATM   23  H   UNL     1      -4.790  -0.900 -32.357  1.00  0.00     0.162 HD
BRANCH  21  24
HETATM   24  C   UNL     1      -5.553  -2.355 -34.331  1.00  0.00     0.032 A 
HETATM   25  C   UNL     1      -6.588  -3.157 -34.827  1.00  0.00     0.017 A 
HETATM   26  C   UNL     1      -6.405  -4.534 -34.950  1.00  0.00     0.001 A 
HETATM   27  C   UNL     1      -5.185  -5.110 -34.593  1.00  0.00     0.000 A 
HETATM   28  C   UNL     1      -4.144  -4.310 -34.120  1.00  0.00     0.001 A 
HETATM   29  C   UNL     1      -4.323  -2.931 -33.988  1.00  0.00     0.017 A 
ENDBRANCH  21  24
ENDBRANCH  19  20
ENDBRANCH   3  19
TORSDOF 6
ENDMDL
MODEL 4
REMARK VINA RESULT:      -7.9      4.454      7.229
REMARK  6 active torsions:
REMARK  status: ('A' for Active; 'I' for Inactive)
REMARK    1  A    between atoms: C_2  and  C_3 
REMARK    2  A    between atoms: C_8  and  C_9 
REMARK    3  A    between atoms: C_9  and  N_10 
REMARK    4  A    between atoms: C_12  and  C_13 
REMARK    5  A    between atoms: C_13  and  N_14 
REMARK       I    between atoms: N_14  and  C_15 
REMARK    6  A    between atoms: C_15  and  C_16 
ROOT
HETATM    1  N   UNL     1      -6.204   3.497 -32.730  1.00  0.00    -0.061 N 
HETATM    2  H   UNL     1      -6.557   4.099 -33.481  1.00  0.00     0.280 HD
HETATM    3  C   UNL     1      -6.015   2.137 -33.416  1.00  0.00     0.206 C 
HETATM    4  C   UNL     1      -7.384   1.721 -33.983  1.00  0.00     0.035 C 
HETATM    5  C   UNL     1      -8.479   1.693 -32.923  1.00  0.00     0.004 C 
HETATM    6  C   UNL     1      -8.585   3.036 -32.213  1.00  0.00     0.028 C 
HETATM    7  C   UNL     1      -7.251   3.500 -31.646  1.00  0.00     0.236 C 
ENDROOT
BRANCH   1   8
HETATM    8  C   UNL     1      -4.928   4.188 -32.284  1.00  0.00     0.277 C 
BRANCH   8   9
HETATM    9  C   UNL     1      -4.202   4.892 -33.369  1.00  0.00     0.012 A 
HETATM   10  C   UNL     1      -3.028   5.719 -33.320  1.00  0.00     0.071 A 
HETATM   11  N   UNL     1      -2.716   6.156 -34.547  1.00  0.00    -0.178 NA
HETATM   12  N   UNL     1      -3.629   5.629 -35.364  1.00  0.00    -0.288 N 
HETATM   13  H   UNL     1      -3.572   5.838 -36.357  1.00  0.00     0.188 HD
HETATM   14  C   UNL     1      -4.534   4.852 -34.710  1.00  0.00     0.120 A 
BRANCH  10  15
HETATM   15  C   UNL     1      -2.121   6.121 -32.151  1.00  0.00    -0.004 C 
HETATM   16  C   UNL     1      -2.915   6.857 -31.041  1.00  0.00     0.021 C 
HETATM   17  C   UNL     1      -1.019   7.076 -32.650  1.00  0.00     0.021 C 
HETATM   18  C   UNL     1      -1.464   4.900 -31.484  1.00  0.00     0.021 C 
ENDBRANCH  10  15
ENDBRANCH   8   9
ENDBRANCH   1   8
BRANCH   3  19
HETATM   19  C   UNL     1      -5.390   1.067 -32.474  1.00  0.00     0.156 C 
BRANCH  19  20
HETATM   20  N   UNL     1      -5.666  -0.301 -32.874  1.00  0.00    -0.355 N 
HETATM   21  C   UNL     1      -4.676  -1.092 -33.422  1.00  0.00     0.251 C 
HETATM   22  O   UNL     1      -3.526  -0.691 -33.560  1.00  0.00    -0.268 OA
HETATM   23  H   UNL     1      -6.625  -0.634 -32.889  1.00  0.00     0.162 HD
BRANCH  21  24
HETATM   24  C   UNL     1      -5.104  -2.417 -33.938  1.00  0.00     0.032 A 
HETATM   25  C   UNL     1      -4.204  -3.486 -33.849  1.00  0.00     0.017 A 
HETATM   26  C   UNL     1      -4.550  -4.733 -34.370  1.00  0.00     0.001 A 
HETATM   27  C   UNL     1      -5.798  -4.918 -34.967  1.00  0.00     0.000 A 
HETATM   28  C   UNL     1      -6.705  -3.860 -35.036  1.00  0.00     0.001 A 
HETATM   29  C   UNL     1      -6.362  -2.608 -34.522  1.00  0.00     0.017 A 
ENDBRANCH  21  24
ENDBRANCH  19  20
ENDBRANCH   3  19
TORSDOF 6
ENDMDL
MODEL 5
REMARK VINA RESULT:      -7.8      4.649      6.987
REMARK  6 active torsions:
REMARK  status: ('A' for Active; 'I' for Inactive)
REMARK    1  A    between atoms: C_2  and  C_3 
REMARK    2  A    between atoms: C_8  and  C_9 
REMARK    3  A    between atoms: C_9  and  N_10 
REMARK    4  A    between atoms: C_12  and  C_13 
REMARK    5  A    between atoms: C_13  and  N_14 
REMARK       I    between atoms: N_14  and  C_15 
REMARK    6  A    between atoms: C_15  and  C_16 
ROOT
HETATM    1  N   UNL     1      -5.196   2.614 -31.831  1.00  0.00    -0.061 N 
HETATM    2  H   UNL     1      -4.840   3.068 -30.983  1.00  0.00     0.280 HD
HETATM    3  C   UNL     1      -6.315   1.702 -31.309  1.00  0.00     0.206 C 
HETATM    4  C   UNL     1      -5.680   0.744 -30.286  1.00  0.00     0.035 C 
HETATM    5  C   UNL     1      -4.507  -0.042 -30.862  1.00  0.00     0.004 C 
HETATM    6  C   UNL     1      -3.453   0.894 -31.437  1.00  0.00     0.028 C 
HETATM    7  C   UNL     1      -4.036   1.874 -32.445  1.00  0.00     0.236 C 
ENDROOT
BRANCH   1   8
HETATM    8  C   UNL     1      -5.648   3.775 -32.698  1.00  0.00     0.277 C 
BRANCH   8   9
HETATM    9  C   UNL     1      -5.168   5.103 -32.243  1.00  0.00     0.012 A 
HETATM   10  C   UNL     1      -4.051   5.890 -32.683  1.00  0.00     0.071 A 
HETATM   11  N   UNL     1      -3.987   7.035 -31.989  1.00  0.00    -0.178 NA
HETATM   12  N   UNL     1      -5.020   7.007 -31.146  1.00  0.00    -0.288 N 
HETATM   13  H   UNL     1      -5.157   7.796 -30.519  1.00  0.00     0.188 HD
HETATM   14  C   UNL     1      -5.767   5.878 -31.268  1.00  0.00     0.120 A 
BRANCH  10  15
HETATM   15  C   UNL     1      -3.008   5.645 -33.781  1.00  0.00    -0.004 C 
HETATM   16  C   UNL     1      -3.676   5.246 -35.122  1.00  0.00     0.021 C 
HETATM   17  C   UNL     1      -2.071   4.496 -33.364  1.00  0.00     0.021 C 
HETATM   18  C   UNL     1      -2.167   6.902 -34.068  1.00  0.00     0.021 C 
ENDBRANCH  10  15
ENDBRANCH   8   9
ENDBRANCH   1   8
BRANCH   3  19
HETATM   19  C   UNL     1      -7.076   0.965 -32.450  1.00  0.00     0.156 C 
BRANCH  19  20
HETATM   20  N   UNL     1      -6.568  -0.365 -32.731  1.00  0.00    -0.355 N 
HETATM   21  C   UNL     1      -6.296  -0.760 -34.026  1.00  0.00     0.251 C 
HETATM   22  O   UNL     1      -6.433  -0.002 -34.980  1.00  0.00    -0.268 OA
HETATM   23  H   UNL     1      -6.552  -1.060 -31.992  1.00  0.00     0.162 HD
BRANCH  21  24
HETATM   24  C   UNL     1      -5.931  -2.187 -34.215  1.00  0.00     0.032 A 
HETATM   25  C   UNL     1      -4.617  -2.580 -33.932  1.00  0.00     0.017 A 
HETATM   26  C   UNL     1      -4.224  -3.901 -34.148  1.00  0.00     0.001 A 
HETATM   27  C   UNL     1      -5.143  -4.832 -34.632  1.00  0.00     0.000 A 
HETATM   28  C   UNL     1      -6.459  -4.449 -34.893  1.00  0.00     0.001 A 
HETATM   29  C   UNL     1      -6.857  -3.126 -34.685  1.00  0.00     0.017 A 
ENDBRANCH  21  24
ENDBRANCH  19  20
ENDBRANCH   3  19
TORSDOF 6
ENDMDL
MODEL 6
REMARK VINA RESULT:      -7.8      5.043      7.096
REMARK  6 active torsions:
REMARK  status: ('A' for Active; 'I' for Inactive)
REMARK    1  A    between atoms: C_2  and  C_3 
REMARK    2  A    between atoms: C_8  and  C_9 
REMARK    3  A    between atoms: C_9  and  N_10 
REMARK    4  A    between atoms: C_12  and  C_13 
REMARK    5  A    between atoms: C_13  and  N_14 
REMARK       I    between atoms: N_14  and  C_15 
REMARK    6  A    between atoms: C_15  and  C_16 
ROOT
HETATM    1  N   UNL     1      -5.150   3.281 -31.816  1.00  0.00    -0.061 N 
HETATM    2  H   UNL     1      -5.149   3.577 -30.835  1.00  0.00     0.280 HD
HETATM    3  C   UNL     1      -6.099   2.074 -31.828  1.00  0.00     0.206 C 
HETATM    4  C   UNL     1      -5.526   1.037 -30.846  1.00  0.00     0.035 C 
HETATM    5  C   UNL     1      -4.086   0.652 -31.167  1.00  0.00     0.004 C 
HETATM    6  C   UNL     1      -3.191   1.883 -31.221  1.00  0.00     0.028 C 
HETATM    7  C   UNL     1      -3.724   2.947 -32.169  1.00  0.00     0.236 C 
ENDROOT
BRANCH   1   8
HETATM    8  C   UNL     1      -5.643   4.508 -32.561  1.00  0.00     0.277 C 
BRANCH   8   9
HETATM    9  C   UNL     1      -4.645   5.111 -33.478  1.00  0.00     0.012 A 
HETATM   10  C   UNL     1      -3.667   6.137 -33.246  1.00  0.00     0.071 A 
HETATM   11  N   UNL     1      -2.970   6.376 -34.365  1.00  0.00    -0.178 NA
HETATM   12  N   UNL     1      -3.454   5.536 -35.282  1.00  0.00    -0.288 N 
HETATM   13  H   UNL     1      -3.055   5.553 -36.217  1.00  0.00     0.188 HD
HETATM   14  C   UNL     1      -4.450   4.746 -34.798  1.00  0.00     0.120 A 
BRANCH  10  15
HETATM   15  C   UNL     1      -3.306   6.925 -31.982  1.00  0.00    -0.004 C 
HETATM   16  C   UNL     1      -2.741   5.997 -30.875  1.00  0.00     0.021 C 
HETATM   17  C   UNL     1      -4.564   7.614 -31.419  1.00  0.00     0.021 C 
HETATM   18  C   UNL     1      -2.228   7.989 -32.254  1.00  0.00     0.021 C 
ENDBRANCH  10  15
ENDBRANCH   8   9
ENDBRANCH   1   8
BRANCH   3  19
HETATM   19  C   UNL     1      -6.332   1.502 -33.257  1.00  0.00     0.156 C 
BRANCH  19  20
HETATM   20  N   UNL     1      -5.905   0.124 -33.415  1.00  0.00    -0.355 N 
HETATM   21  C   UNL     1      -6.315  -0.624 -34.501  1.00  0.00     0.251 C 
HETATM   22  O   UNL     1      -7.018  -0.152 -35.388  1.00  0.00    -0.268 OA
HETATM   23  H   UNL     1      -5.425  -0.341 -32.652  1.00  0.00     0.162 HD
BRANCH  21  24
HETATM   24  C   UNL     1      -5.950  -2.063 -34.484  1.00  0.00     0.032 A 
HETATM   25  C   UNL     1      -4.636  -2.411 -34.149  1.00  0.00     0.017 A 
HETATM   26  C   UNL     1      -4.241  -3.748 -34.174  1.00  0.00     0.001 A 
HETATM   27  C   UNL     1      -5.161  -4.740 -34.518  1.00  0.00     0.000 A 
HETATM   28  C   UNL     1      -6.477  -4.398 -34.830  1.00  0.00     0.001 A 
HETATM   29  C   UNL     1      -6.876  -3.060 -34.813  1.00  0.00     0.017 A 
ENDBRANCH  21  24
ENDBRANCH  19  20
ENDBRANCH   3  19
TORSDOF 6
ENDMDL
MODEL 7
REMARK VINA RESULT:      -7.7      3.372      7.779
REMARK  6 active torsions:
REMARK  status: ('A' for Active; 'I' for Inactive)
REMARK    1  A    between atoms: C_2  and  C_3 
REMARK    2  A    between atoms: C_8  and  C_9 
REMARK    3  A    between atoms: C_9  and  N_10 
REMARK    4  A    between atoms: C_12  and  C_13 
REMARK    5  A    between atoms: C_13  and  N_14 
REMARK       I    between atoms: N_14  and  C_15 
REMARK    6  A    between atoms: C_15  and  C_16 
ROOT
HETATM    1  N   UNL     1      -4.788   3.111 -32.615  1.00  0.00    -0.061 N 
HETATM    2  H   UNL     1      -3.985   2.794 -33.168  1.00  0.00     0.280 HD
HETATM    3  C   UNL     1      -5.684   3.808 -33.649  1.00  0.00     0.206 C 
HETATM    4  C   UNL     1      -4.853   4.937 -34.283  1.00  0.00     0.035 C 
HETATM    5  C   UNL     1      -4.290   5.907 -33.251  1.00  0.00     0.004 C 
HETATM    6  C   UNL     1      -3.470   5.170 -32.200  1.00  0.00     0.028 C 
HETATM    7  C   UNL     1      -4.244   4.032 -31.553  1.00  0.00     0.236 C 
ENDROOT
BRANCH   1   8
HETATM    8  C   UNL     1      -5.346   1.831 -32.021  1.00  0.00     0.277 C 
BRANCH   8   9
HETATM    9  C   UNL     1      -4.777   0.589 -32.599  1.00  0.00     0.012 A 
HETATM   10  C   UNL     1      -5.374  -0.401 -33.451  1.00  0.00     0.071 A 
HETATM   11  N   UNL     1      -4.490  -1.367 -33.732  1.00  0.00    -0.178 NA
HETATM   12  N   UNL     1      -3.363  -1.020 -33.108  1.00  0.00    -0.288 N 
HETATM   13  H   UNL     1      -2.552  -1.628 -33.196  1.00  0.00     0.188 HD
HETATM   14  C   UNL     1      -3.477   0.151 -32.427  1.00  0.00     0.120 A 
BRANCH  10  15
HETATM   15  C   UNL     1      -6.773  -0.491 -34.072  1.00  0.00    -0.004 C 
HETATM   16  C   UNL     1      -7.883  -0.285 -33.009  1.00  0.00     0.021 C 
HETATM   17  C   UNL     1      -6.977  -1.884 -34.699  1.00  0.00     0.021 C 
HETATM   18  C   UNL     1      -6.995   0.583 -35.151  1.00  0.00     0.021 C 
ENDBRANCH  10  15
ENDBRANCH   8   9
ENDBRANCH   1   8
BRANCH   3  19
HETATM   19  C   UNL     1      -7.031   4.302 -33.046  1.00  0.00     0.156 C 
BRANCH  19  20
HETATM   20  N   UNL     1      -8.192   3.573 -33.523  1.00  0.00    -0.355 N 
HETATM   21  C   UNL     1      -9.124   4.182 -34.340  1.00  0.00     0.251 C 
HETATM   22  O   UNL     1      -8.995   5.339 -34.724  1.00  0.00    -0.268 OA
HETATM   23  H   UNL     1      -8.400   2.658 -33.138  1.00  0.00     0.162 HD
BRANCH  21  24
HETATM   24  C   UNL     1     -10.347   3.396 -34.641  1.00  0.00     0.032 A 
HETATM   25  C   UNL     1     -10.492   2.138 -34.045  1.00  0.00     0.017 A 
HETATM   26  C   UNL     1     -11.602   1.348 -34.345  1.00  0.00     0.001 A 
HETATM   27  C   UNL     1     -12.575   1.820 -35.227  1.00  0.00     0.000 A 
HETATM   28  C   UNL     1     -12.445   3.084 -35.805  1.00  0.00     0.001 A 
HETATM   29  C   UNL     1     -11.332   3.876 -35.514  1.00  0.00     0.017 A 
ENDBRANCH  21  24
ENDBRANCH  19  20
ENDBRANCH   3  19
TORSDOF 6
ENDMDL
MODEL 8
REMARK VINA RESULT:      -7.7      1.585      2.530
REMARK  6 active torsions:
REMARK  status: ('A' for Active; 'I' for Inactive)
REMARK    1  A    between atoms: C_2  and  C_3 
REMARK    2  A    between atoms: C_8  and  C_9 
REMARK    3  A    between atoms: C_9  and  N_10 
REMARK    4  A    between atoms: C_12  and  C_13 
REMARK    5  A    between atoms: C_13  and  N_14 
REMARK       I    between atoms: N_14  and  C_15 
REMARK    6  A    between atoms: C_15  and  C_16 
ROOT
HETATM    1  N   UNL     1      -8.737   2.627 -31.842  1.00  0.00    -0.061 N 
HETATM    2  H   UNL     1      -9.403   2.482 -31.075  1.00  0.00     0.280 HD
HETATM    3  C   UNL     1      -8.104   1.242 -32.035  1.00  0.00     0.206 C 
HETATM    4  C   UNL     1      -7.463   0.845 -30.694  1.00  0.00     0.035 C 
HETATM    5  C   UNL     1      -6.463   1.878 -30.188  1.00  0.00     0.004 C 
HETATM    6  C   UNL     1      -7.108   3.254 -30.081  1.00  0.00     0.028 C 
HETATM    7  C   UNL     1      -7.771   3.687 -31.380  1.00  0.00     0.236 C 
ENDROOT
BRANCH   1   8
HETATM    8  C   UNL     1      -9.606   3.115 -32.986  1.00  0.00     0.277 C 
BRANCH   8   9
HETATM    9  C   UNL     1     -11.022   3.361 -32.619  1.00  0.00     0.012 A 
HETATM   10  C   UNL     1     -12.218   2.660 -32.997  1.00  0.00     0.071 A 
HETATM   11  N   UNL     1     -13.289   3.231 -32.431  1.00  0.00    -0.178 NA
HETATM   12  N   UNL     1     -12.820   4.245 -31.704  1.00  0.00    -0.288 N 
HETATM   13  H   UNL     1     -13.480   4.817 -31.182  1.00  0.00     0.188 HD
HETATM   14  C   UNL     1     -11.466   4.358 -31.770  1.00  0.00     0.120 A 
BRANCH  10  15
HETATM   15  C   UNL     1     -12.430   1.418 -33.870  1.00  0.00    -0.004 C 
HETATM   16  C   UNL     1     -13.886   0.894 -33.770  1.00  0.00     0.021 C 
HETATM   17  C   UNL     1     -11.492   0.287 -33.407  1.00  0.00     0.021 C 
HETATM   18  C   UNL     1     -12.171   1.709 -35.359  1.00  0.00     0.021 C 
ENDBRANCH  10  15
ENDBRANCH   8   9
ENDBRANCH   1   8
BRANCH   3  19
HETATM   19  C   UNL     1      -7.107   1.195 -33.229  1.00  0.00     0.156 C 
BRANCH  19  20
HETATM   20  N   UNL     1      -6.443  -0.086 -33.391  1.00  0.00    -0.355 N 
HETATM   21  C   UNL     1      -6.597  -0.822 -34.549  1.00  0.00     0.251 C 
HETATM   22  O   UNL     1      -7.261  -0.414 -35.496  1.00  0.00    -0.268 OA
HETATM   23  H   UNL     1      -5.984  -0.515 -32.594  1.00  0.00     0.162 HD
BRANCH  21  24
HETATM   24  C   UNL     1      -6.003  -2.183 -34.547  1.00  0.00     0.032 A 
HETATM   25  C   UNL     1      -6.829  -3.268 -34.867  1.00  0.00     0.017 A 
HETATM   26  C   UNL     1      -6.321  -4.566 -34.824  1.00  0.00     0.001 A 
HETATM   27  C   UNL     1      -4.987  -4.782 -34.478  1.00  0.00     0.000 A 
HETATM   28  C   UNL     1      -4.155  -3.701 -34.181  1.00  0.00     0.001 A 
HETATM   29  C   UNL     1      -4.660  -2.399 -34.216  1.00  0.00     0.017 A 
ENDBRANCH  21  24
ENDBRANCH  19  20
ENDBRANCH   3  19
TORSDOF 6
ENDMDL
MODEL 9
REMARK VINA RESULT:      -7.6      3.372      4.168
REMARK  6 active torsions:
REMARK  status: ('A' for Active; 'I' for Inactive)
REMARK    1  A    between atoms: C_2  and  C_3 
REMARK    2  A    between atoms: C_8  and  C_9 
REMARK    3  A    between atoms: C_9  and  N_10 
REMARK    4  A    between atoms: C_12  and  C_13 
REMARK    5  A    between atoms: C_13  and  N_14 
REMARK       I    between atoms: N_14  and  C_15 
REMARK    6  A    between atoms: C_15  and  C_16 
ROOT
HETATM    1  N   UNL     1      -6.596   2.632 -31.210  1.00  0.00    -0.061 N 
HETATM    2  H   UNL     1      -7.423   2.716 -30.610  1.00  0.00     0.280 HD
HETATM    3  C   UNL     1      -7.054   1.677 -32.322  1.00  0.00     0.206 C 
HETATM    4  C   UNL     1      -7.492   0.367 -31.643  1.00  0.00     0.035 C 
HETATM    5  C   UNL     1      -6.401  -0.238 -30.767  1.00  0.00     0.004 C 
HETATM    6  C   UNL     1      -5.921   0.764 -29.726  1.00  0.00     0.028 C 
HETATM    7  C   UNL     1      -5.489   2.085 -30.347  1.00  0.00     0.236 C 
ENDROOT
BRANCH   1   8
HETATM    8  C   UNL     1      -6.320   4.059 -31.645  1.00  0.00     0.277 C 
BRANCH   8   9
HETATM    9  C   UNL     1      -7.419   4.688 -32.418  1.00  0.00     0.012 A 
HETATM   10  C   UNL     1      -8.760   5.021 -32.026  1.00  0.00     0.071 A 
HETATM   11  N   UNL     1      -9.419   5.578 -33.051  1.00  0.00    -0.178 NA
HETATM   12  N   UNL     1      -8.548   5.624 -34.061  1.00  0.00    -0.288 N 
HETATM   13  H   UNL     1      -8.851   6.020 -34.947  1.00  0.00     0.188 HD
HETATM   14  C   UNL     1      -7.331   5.116 -33.729  1.00  0.00     0.120 A 
BRANCH  10  15
HETATM   15  C   UNL     1      -9.491   4.871 -30.686  1.00  0.00    -0.004 C 
HETATM   16  C   UNL     1     -10.848   5.622 -30.691  1.00  0.00     0.021 C 
HETATM   17  C   UNL     1      -8.631   5.465 -29.554  1.00  0.00     0.021 C 
HETATM   18  C   UNL     1      -9.805   3.400 -30.362  1.00  0.00     0.021 C 
ENDBRANCH  10  15
ENDBRANCH   8   9
ENDBRANCH   1   8
BRANCH   3  19
HETATM   19  C   UNL     1      -5.972   1.466 -33.421  1.00  0.00     0.156 C 
BRANCH  19  20
HETATM   20  N   UNL     1      -5.574   0.082 -33.596  1.00  0.00    -0.355 N 
HETATM   21  C   UNL     1      -6.169  -0.710 -34.558  1.00  0.00     0.251 C 
HETATM   22  O   UNL     1      -7.024  -0.275 -35.321  1.00  0.00    -0.268 OA
HETATM   23  H   UNL     1      -4.961  -0.352 -32.914  1.00  0.00     0.162 HD
BRANCH  21  24
HETATM   24  C   UNL     1      -5.799  -2.148 -34.547  1.00  0.00     0.032 A 
HETATM   25  C   UNL     1      -6.784  -3.090 -34.867  1.00  0.00     0.017 A 
HETATM   26  C   UNL     1      -6.489  -4.452 -34.816  1.00  0.00     0.001 A 
HETATM   27  C   UNL     1      -5.207  -4.875 -34.461  1.00  0.00     0.000 A 
HETATM   28  C   UNL     1      -4.217  -3.937 -34.163  1.00  0.00     0.001 A 
HETATM   29  C   UNL     1      -4.509  -2.572 -34.206  1.00  0.00     0.017 A 
ENDBRANCH  21  24
ENDBRANCH  19  20
ENDBRANCH   3  19
TORSDOF 6
ENDMDL
MODEL 10
REMARK VINA RESULT:      -7.6      3.059      6.115
REMARK  6 active torsions:
REMARK  status: ('A' for Active; 'I' for Inactive)
REMARK    1  A    between atoms: C_2  and  C_3 
REMARK    2  A    between atoms: C_8  and  C_9 
REMARK    3  A    between atoms: C_9  and  N_10 
REMARK    4  A    between atoms: C_12  and  C_13 
REMARK    5  A    between atoms: C_13  and  N_14 
REMARK       I    between atoms: N_14  and  C_15 
REMARK    6  A    between atoms: C_15  and  C_16 
ROOT
HETATM    1  N   UNL     1      -8.201   3.163 -31.246  1.00  0.00    -0.061 N 
HETATM    2  H   UNL     1      -7.928   4.083 -31.607  1.00  0.00     0.280 HD
HETATM    3  C   UNL     1      -8.379   2.316 -32.514  1.00  0.00     0.206 C 
HETATM    4  C   UNL     1      -9.446   3.010 -33.378  1.00  0.00     0.035 C 
HETATM    5  C   UNL     1     -10.759   3.228 -32.633  1.00  0.00     0.004 C 
HETATM    6  C   UNL     1     -10.531   4.006 -31.344  1.00  0.00     0.028 C 
HETATM    7  C   UNL     1      -9.471   3.367 -30.460  1.00  0.00     0.236 C 
ENDROOT
BRANCH   1   8
HETATM    8  C   UNL     1      -7.041   2.768 -30.352  1.00  0.00     0.277 C 
BRANCH   8   9
HETATM    9  C   UNL     1      -5.965   3.785 -30.259  1.00  0.00     0.012 A 
HETATM   10  C   UNL     1      -4.873   4.069 -31.148  1.00  0.00     0.071 A 
HETATM   11  N   UNL     1      -4.134   5.079 -30.669  1.00  0.00    -0.178 NA
HETATM   12  N   UNL     1      -4.722   5.452 -29.531  1.00  0.00    -0.288 N 
HETATM   13  H   UNL     1      -4.315   6.218 -29.001  1.00  0.00     0.188 HD
HETATM   14  C   UNL     1      -5.831   4.718 -29.247  1.00  0.00     0.120 A 
BRANCH  10  15
HETATM   15  C   UNL     1      -4.472   3.448 -32.491  1.00  0.00    -0.004 C 
HETATM   16  C   UNL     1      -3.002   3.778 -32.856  1.00  0.00     0.021 C 
HETATM   17  C   UNL     1      -5.370   4.005 -33.613  1.00  0.00     0.021 C 
HETATM   18  C   UNL     1      -4.584   1.913 -32.473  1.00  0.00     0.021 C 
ENDBRANCH  10  15
ENDBRANCH   8   9
ENDBRANCH   1   8
BRANCH   3  19
HETATM   19  C   UNL     1      -8.712   0.828 -32.204  1.00  0.00     0.156 C 
BRANCH  19  20
HETATM   20  N   UNL     1      -7.653  -0.098 -32.560  1.00  0.00    -0.355 N 
HETATM   21  C   UNL     1      -7.499  -0.533 -33.862  1.00  0.00     0.251 C 
HETATM   22  O   UNL     1      -8.219  -0.132 -34.770  1.00  0.00    -0.268 OA
HETATM   23  H   UNL     1      -7.112  -0.546 -31.827  1.00  0.00     0.162 HD
BRANCH  21  24
HETATM   24  C   UNL     1      -6.486  -1.595 -34.086  1.00  0.00     0.032 A 
HETATM   25  C   UNL     1      -6.903  -2.799 -34.668  1.00  0.00     0.017 A 
HETATM   26  C   UNL     1      -5.992  -3.839 -34.845  1.00  0.00     0.001 A 
HETATM   27  C   UNL     1      -4.661  -3.675 -34.456  1.00  0.00     0.000 A 
HETATM   28  C   UNL     1      -4.238  -2.468 -33.897  1.00  0.00     0.001 A 
HETATM   29  C   UNL     1      -5.148  -1.425 -33.711  1.00  0.00     0.017 A 
ENDBRANCH  21  24
ENDBRANCH  19  20
ENDBRANCH   3  19
TORSDOF 6
ENDMDL
