MODEL 1
REMARK VINA RESULT:      -9.5      0.000      0.000
REMARK  8 active torsions:
REMARK  status: ('A' for Active; 'I' for Inactive)
REMARK    1  A    between atoms: C_5  and  C_6 
REMARK    2  A    between atoms: C_6  and  N_7 
REMARK       I    between atoms: N_7  and  C_8 
REMARK    3  A    between atoms: N_7  and  C_20 
REMARK    4  A    between atoms: C_8  and  C_9 
REMARK    5  A    between atoms: C_9  and  N_10 
REMARK    6  A    between atoms: C_20  and  C_21 
REMARK       I    between atoms: C_21  and  N_22 
REMARK    7  A    between atoms: N_22  and  C_23 
REMARK    8  A    between atoms: C_26  and  O_27 
ROOT
HETATM    1  N   UNL     1      -4.758   1.432 -32.071  1.00  0.00    -0.338 N 
HETATM    2  C   UNL     1      -3.560   2.091 -31.775  1.00  0.00     0.239 C 
HETATM    3  O   UNL     1      -2.728   1.583 -31.012  1.00  0.00    -0.271 OA
ENDROOT
BRANCH   1   4
HETATM    4  C   UNL     1      -4.853   0.053 -31.579  1.00  0.00     0.165 C 
BRANCH   4   5
HETATM    5  C   UNL     1      -5.173  -0.958 -32.658  1.00  0.00    -0.040 A 
HETATM    6  C   UNL     1      -4.183  -1.831 -33.127  1.00  0.00     0.009 A 
HETATM    7  C   UNL     1      -4.486  -2.797 -34.089  1.00  0.00     0.007 A 
HETATM    8  C   UNL     1      -5.783  -2.903 -34.605  1.00  0.00    -0.062 A 
HETATM    9  C   UNL     1      -6.099  -3.956 -35.625  1.00  0.00     0.048 C 
HETATM   10  C   UNL     1      -6.766  -2.013 -34.162  1.00  0.00     0.007 A 
HETATM   11  C   UNL     1      -6.462  -1.045 -33.201  1.00  0.00     0.009 A 
ENDBRANCH   4   5
ENDBRANCH   1   4
BRANCH   1  12
HETATM   12  C   UNL     1      -6.029   2.181 -32.152  1.00  0.00     0.229 C 
BRANCH  12  13
HETATM   13  C   UNL     1      -6.768   2.374 -30.831  1.00  0.00     0.240 C 
HETATM   14  N   UNL     1      -8.099   2.076 -30.719  1.00  0.00    -0.326 N 
HETATM   15  H   UNL     1      -8.387   2.103 -29.747  1.00  0.00     0.169 HD
HETATM   16  O   UNL     1      -6.177   2.746 -29.810  1.00  0.00    -0.271 OA
BRANCH  14  17
HETATM   17  C   UNL     1      -9.091   1.697 -31.643  1.00  0.00     0.034 A 
HETATM   18  C   UNL     1      -9.836   2.737 -32.216  1.00  0.00     0.032 A 
HETATM   19  C   UNL     1     -10.852   2.471 -33.141  1.00  0.00     0.039 A 
HETATM   20  C   UNL     1     -11.141   1.163 -33.520  1.00  0.00     0.068 A 
HETATM   21  C   UNL     1     -10.379   0.127 -32.989  1.00  0.00     0.039 A 
HETATM   22  C   UNL     1      -9.363   0.395 -32.059  1.00  0.00     0.032 A 
BRANCH  20  23
HETATM   23  O   UNL     1     -12.162   1.026 -34.419  1.00  0.00    -0.356 OA
HETATM   24  C   UNL     1     -13.338   0.379 -33.945  1.00  0.00     0.210 C 
ENDBRANCH  20  23
ENDBRANCH  14  17
ENDBRANCH  12  13
ENDBRANCH   1  12
BRANCH   2  25
HETATM   25  C   UNL     1      -3.172   3.320 -32.569  1.00  0.00     0.250 C 
BRANCH  25  26
HETATM   26  N   UNL     1      -3.086   4.568 -31.849  1.00  0.00    -0.263 N 
HETATM   27  N   UNL     1      -4.174   5.164 -31.326  1.00  0.00     0.006 NA
HETATM   28  N   UNL     1      -3.773   6.277 -30.725  1.00  0.00    -0.158 NA
HETATM   29  C   UNL     1      -2.408   6.346 -30.820  1.00  0.00     0.102 A 
HETATM   30  C   UNL     1      -1.936   5.250 -31.531  1.00  0.00     0.079 A 
HETATM   31  C   UNL     1      -1.498   7.292 -30.326  1.00  0.00     0.035 A 
HETATM   32  C   UNL     1      -0.577   5.029 -31.779  1.00  0.00     0.033 A 
HETATM   33  C   UNL     1       0.319   5.975 -31.270  1.00  0.00     0.002 A 
HETATM   34  C   UNL     1      -0.130   7.089 -30.557  1.00  0.00     0.002 A 
ENDBRANCH  25  26
ENDBRANCH   2  25
TORSDOF 8
ENDMDL
MODEL 2
REMARK VINA RESULT:      -9.3      2.354      8.043
REMARK  8 active torsions:
REMARK  status: ('A' for Active; 'I' for Inactive)
REMARK    1  A    between atoms: C_5  and  C_6 
REMARK    2  A    between atoms: C_6  and  N_7 
REMARK       I    between atoms: N_7  and  C_8 
REMARK    3  A    between atoms: N_7  and  C_20 
REMARK    4  A    between atoms: C_8  and  C_9 
REMARK    5  A    between atoms: C_9  and  N_10 
REMARK    6  A    between atoms: C_20  and  C_21 
REMARK       I    between atoms: C_21  and  N_22 
REMARK    7  A    between atoms: N_22  and  C_23 
REMARK    8  A    between atoms: C_26  and  O_27 
ROOT
HETATM    1  N   UNL     1      -7.085   0.639 -33.046  1.00  0.00    -0.338 N 
HETATM    2  C   UNL     1      -8.266   0.490 -33.781  1.00  0.00     0.239 C 
HETATM    3  O   UNL     1      -8.239   0.395 -35.015  1.00  0.00    -0.271 OA
ENDROOT
BRANCH   1   4
HETATM    4  C   UNL     1      -5.846   0.477 -33.814  1.00  0.00     0.165 C 
BRANCH   4   5
HETATM    5  C   UNL     1      -5.242  -0.907 -33.714  1.00  0.00    -0.040 A 
HETATM    6  C   UNL     1      -5.674  -1.932 -34.565  1.00  0.00     0.009 A 
HETATM    7  C   UNL     1      -5.087  -3.198 -34.506  1.00  0.00     0.007 A 
HETATM    8  C   UNL     1      -4.062  -3.464 -33.590  1.00  0.00    -0.062 A 
HETATM    9  C   UNL     1      -3.428  -4.823 -33.550  1.00  0.00     0.048 C 
HETATM   10  C   UNL     1      -3.650  -2.452 -32.719  1.00  0.00     0.007 A 
HETATM   11  C   UNL     1      -4.239  -1.187 -32.775  1.00  0.00     0.009 A 
ENDBRANCH   4   5
ENDBRANCH   1   4
BRANCH   1  12
HETATM   12  C   UNL     1      -7.021   1.570 -31.901  1.00  0.00     0.229 C 
BRANCH  12  13
HETATM   13  C   UNL     1      -6.017   1.210 -30.810  1.00  0.00     0.240 C 
HETATM   14  N   UNL     1      -4.899   1.970 -30.605  1.00  0.00    -0.326 N 
HETATM   15  H   UNL     1      -4.434   1.693 -29.748  1.00  0.00     0.169 HD
HETATM   16  O   UNL     1      -6.211   0.259 -30.044  1.00  0.00    -0.271 OA
BRANCH  14  17
HETATM   17  C   UNL     1      -4.324   3.058 -31.289  1.00  0.00     0.034 A 
HETATM   18  C   UNL     1      -3.348   2.745 -32.244  1.00  0.00     0.032 A 
HETATM   19  C   UNL     1      -2.707   3.751 -32.977  1.00  0.00     0.039 A 
HETATM   20  C   UNL     1      -3.032   5.090 -32.777  1.00  0.00     0.068 A 
HETATM   21  C   UNL     1      -4.029   5.408 -31.862  1.00  0.00     0.039 A 
HETATM   22  C   UNL     1      -4.669   4.399 -31.125  1.00  0.00     0.032 A 
BRANCH  20  23
HETATM   23  O   UNL     1      -2.331   5.982 -33.539  1.00  0.00    -0.356 OA
HETATM   24  C   UNL     1      -1.435   5.428 -34.496  1.00  0.00     0.210 C 
ENDBRANCH  20  23
ENDBRANCH  14  17
ENDBRANCH  12  13
ENDBRANCH   1  12
BRANCH   2  25
HETATM   25  C   UNL     1      -9.563   0.210 -33.052  1.00  0.00     0.250 C 
BRANCH  25  26
HETATM   26  N   UNL     1     -10.620   1.184 -33.193  1.00  0.00    -0.263 N 
HETATM   27  N   UNL     1     -10.372   2.508 -33.191  1.00  0.00     0.006 NA
HETATM   28  N   UNL     1     -11.532   3.133 -33.346  1.00  0.00    -0.158 NA
HETATM   29  C   UNL     1     -12.510   2.188 -33.508  1.00  0.00     0.102 A 
HETATM   30  C   UNL     1     -11.948   0.920 -33.425  1.00  0.00     0.079 A 
HETATM   31  C   UNL     1     -13.887   2.319 -33.739  1.00  0.00     0.035 A 
HETATM   32  C   UNL     1     -12.693  -0.256 -33.570  1.00  0.00     0.033 A 
HETATM   33  C   UNL     1     -14.063  -0.108 -33.812  1.00  0.00     0.002 A 
HETATM   34  C   UNL     1     -14.653   1.155 -33.894  1.00  0.00     0.002 A 
ENDBRANCH  25  26
ENDBRANCH   2  25
TORSDOF 8
ENDMDL
MODEL 3
REMARK VINA RESULT:      -9.2      2.221      4.732
REMARK  8 active torsions:
REMARK  status: ('A' for Active; 'I' for Inactive)
REMARK    1  A    between atoms: C_5  and  C_6 
REMARK    2  A    between atoms: C_6  and  N_7 
REMARK       I    between atoms: N_7  and  C_8 
REMARK    3  A    between atoms: N_7  and  C_20 
REMARK    4  A    between atoms: C_8  and  C_9 
REMARK    5  A    between atoms: C_9  and  N_10 
REMARK    6  A    between atoms: C_20  and  C_21 
REMARK       I    between atoms: C_21  and  N_22 
REMARK    7  A    between atoms: N_22  and  C_23 
REMARK    8  A    between atoms: C_26  and  O_27 
ROOT
HETATM    1  N   UNL     1      -5.127   3.873 -32.789  1.00  0.00    -0.338 N 
HETATM    2  C   UNL     1      -4.710   4.905 -33.637  1.00  0.00     0.239 C 
HETATM    3  O   UNL     1      -5.411   5.911 -33.806  1.00  0.00    -0.271 OA
ENDROOT
BRANCH   1   4
HETATM    4  C   UNL     1      -6.324   4.163 -31.993  1.00  0.00     0.165 C 
BRANCH   4   5
HETATM    5  C   UNL     1      -7.489   3.242 -32.286  1.00  0.00    -0.040 A 
HETATM    6  C   UNL     1      -8.115   3.269 -33.538  1.00  0.00     0.009 A 
HETATM    7  C   UNL     1      -9.160   2.389 -33.828  1.00  0.00     0.007 A 
HETATM    8  C   UNL     1      -9.603   1.472 -32.867  1.00  0.00    -0.062 A 
HETATM    9  C   UNL     1     -10.715   0.521 -33.197  1.00  0.00     0.048 C 
HETATM   10  C   UNL     1      -9.001   1.464 -31.606  1.00  0.00     0.007 A 
HETATM   11  C   UNL     1      -7.958   2.346 -31.315  1.00  0.00     0.009 A 
ENDBRANCH   4   5
ENDBRANCH   1   4
BRANCH   1  12
HETATM   12  C   UNL     1      -4.925   2.459 -33.168  1.00  0.00     0.229 C 
BRANCH  12  13
HETATM   13  C   UNL     1      -4.165   1.606 -32.156  1.00  0.00     0.240 C 
HETATM   14  N   UNL     1      -4.247   0.241 -32.186  1.00  0.00    -0.326 N 
HETATM   15  H   UNL     1      -3.560  -0.169 -31.562  1.00  0.00     0.169 HD
HETATM   16  O   UNL     1      -3.410   2.117 -31.321  1.00  0.00    -0.271 OA
BRANCH  14  17
HETATM   17  C   UNL     1      -5.022  -0.671 -32.927  1.00  0.00     0.034 A 
HETATM   18  C   UNL     1      -4.325  -1.711 -33.555  1.00  0.00     0.032 A 
HETATM   19  C   UNL     1      -4.997  -2.670 -34.323  1.00  0.00     0.039 A 
HETATM   20  C   UNL     1      -6.380  -2.614 -34.472  1.00  0.00     0.068 A 
HETATM   21  C   UNL     1      -7.086  -1.611 -33.818  1.00  0.00     0.039 A 
HETATM   22  C   UNL     1      -6.411  -0.648 -33.051  1.00  0.00     0.032 A 
BRANCH  20  23
HETATM   23  O   UNL     1      -6.923  -3.595 -35.255  1.00  0.00    -0.356 OA
HETATM   24  C   UNL     1      -6.180  -4.804 -35.359  1.00  0.00     0.210 C 
ENDBRANCH  20  23
ENDBRANCH  14  17
ENDBRANCH  12  13
ENDBRANCH   1  12
BRANCH   2  25
HETATM   25  C   UNL     1      -3.293   4.902 -34.170  1.00  0.00     0.250 C 
BRANCH  25  26
HETATM   26  N   UNL     1      -2.395   5.911 -33.659  1.00  0.00    -0.263 N 
HETATM   27  N   UNL     1      -2.310   7.134 -34.216  1.00  0.00     0.006 NA
HETATM   28  N   UNL     1      -1.415   7.828 -33.524  1.00  0.00    -0.158 NA
HETATM   29  C   UNL     1      -0.981   7.050 -32.484  1.00  0.00     0.102 A 
HETATM   30  C   UNL     1      -1.606   5.811 -32.539  1.00  0.00     0.079 A 
HETATM   31  C   UNL     1      -0.074   7.320 -31.449  1.00  0.00     0.035 A 
HETATM   32  C   UNL     1      -1.382   4.800 -31.597  1.00  0.00     0.033 A 
HETATM   33  C   UNL     1      -0.483   5.089 -30.565  1.00  0.00     0.002 A 
HETATM   34  C   UNL     1       0.162   6.325 -30.490  1.00  0.00     0.002 A 
ENDBRANCH  25  26
ENDBRANCH   2  25
TORSDOF 8
ENDMDL
MODEL 4
REMARK VINA RESULT:      -9.0      2.120      4.597
REMARK  8 active torsions:
REMARK  status: ('A' for Active; 'I' for Inactive)
REMARK    1  A    between atoms: C_5  and  C_6 
REMARK    2  A    between atoms: C_6  and  N_7 
REMARK       I    between atoms: N_7  and  C_8 
REMARK    3  A    between atoms: N_7  and  C_20 
REMARK    4  A    between atoms: C_8  and  C_9 
REMARK    5  A    between atoms: C_9  and  N_10 
REMARK    6  A    between atoms: C_20  and  C_21 
REMARK       I    between atoms: C_21  and  N_22 
REMARK    7  A    between atoms: N_22  and  C_23 
REMARK    8  A    between atoms: C_26  and  O_27 
ROOT
HETATM    1  N   UNL     1      -5.119   3.494 -32.835  1.00  0.00    -0.338 N 
HETATM    2  C   UNL     1      -4.523   4.743 -32.626  1.00  0.00     0.239 C 
HETATM    3  O   UNL     1      -4.627   5.645 -33.468  1.00  0.00    -0.271 OA
ENDROOT
BRANCH   1   4
HETATM    4  C   UNL     1      -6.010   3.412 -33.997  1.00  0.00     0.165 C 
BRANCH   4   5
HETATM    5  C   UNL     1      -7.243   2.567 -33.762  1.00  0.00    -0.040 A 
HETATM    6  C   UNL     1      -7.983   2.706 -32.581  1.00  0.00     0.009 A 
HETATM    7  C   UNL     1      -9.147   1.961 -32.381  1.00  0.00     0.007 A 
HETATM    8  C   UNL     1      -9.588   1.058 -33.355  1.00  0.00    -0.062 A 
HETATM    9  C   UNL     1     -10.849   0.276 -33.136  1.00  0.00     0.048 C 
HETATM   10  C   UNL     1      -8.835   0.893 -34.521  1.00  0.00     0.007 A 
HETATM   11  C   UNL     1      -7.668   1.636 -34.720  1.00  0.00     0.009 A 
ENDBRANCH   4   5
ENDBRANCH   1   4
BRANCH   1  12
HETATM   12  C   UNL     1      -4.408   2.251 -32.473  1.00  0.00     0.229 C 
BRANCH  12  13
HETATM   13  C   UNL     1      -4.951   1.509 -31.255  1.00  0.00     0.240 C 
HETATM   14  N   UNL     1      -5.199   0.165 -31.302  1.00  0.00    -0.326 N 
HETATM   15  H   UNL     1      -5.394  -0.192 -30.373  1.00  0.00     0.169 HD
HETATM   16  O   UNL     1      -5.128   2.087 -30.175  1.00  0.00    -0.271 OA
BRANCH  14  17
HETATM   17  C   UNL     1      -5.177  -0.792 -32.335  1.00  0.00     0.034 A 
HETATM   18  C   UNL     1      -6.388  -1.007 -33.007  1.00  0.00     0.032 A 
HETATM   19  C   UNL     1      -6.480  -1.941 -34.045  1.00  0.00     0.039 A 
HETATM   20  C   UNL     1      -5.364  -2.674 -34.440  1.00  0.00     0.068 A 
HETATM   21  C   UNL     1      -4.148  -2.437 -33.807  1.00  0.00     0.039 A 
HETATM   22  C   UNL     1      -4.058  -1.503 -32.764  1.00  0.00     0.032 A 
BRANCH  20  23
HETATM   23  O   UNL     1      -5.578  -3.565 -35.454  1.00  0.00    -0.356 OA
HETATM   24  C   UNL     1      -6.600  -4.533 -35.240  1.00  0.00     0.210 C 
ENDBRANCH  20  23
ENDBRANCH  14  17
ENDBRANCH  12  13
ENDBRANCH   1  12
BRANCH   2  25
HETATM   25  C   UNL     1      -3.947   5.073 -31.266  1.00  0.00     0.250 C 
BRANCH  25  26
HETATM   26  N   UNL     1      -2.513   5.207 -31.174  1.00  0.00    -0.263 N 
HETATM   27  N   UNL     1      -1.679   4.430 -31.890  1.00  0.00     0.006 NA
HETATM   28  N   UNL     1      -0.437   4.796 -31.597  1.00  0.00    -0.158 NA
HETATM   29  C   UNL     1      -0.498   5.858 -30.733  1.00  0.00     0.102 A 
HETATM   30  C   UNL     1      -1.825   6.152 -30.451  1.00  0.00     0.079 A 
HETATM   31  C   UNL     1       0.519   6.630 -30.153  1.00  0.00     0.035 A 
HETATM   32  C   UNL     1      -2.213   7.202 -29.611  1.00  0.00     0.033 A 
HETATM   33  C   UNL     1      -1.188   7.970 -29.049  1.00  0.00     0.002 A 
HETATM   34  C   UNL     1       0.155   7.691 -29.312  1.00  0.00     0.002 A 
ENDBRANCH  25  26
ENDBRANCH   2  25
TORSDOF 8
ENDMDL
MODEL 5
REMARK VINA RESULT:      -9.0      2.046      3.100
REMARK  8 active torsions:
REMARK  status: ('A' for Active; 'I' for Inactive)
REMARK    1  A    between atoms: C_5  and  C_6 
REMARK    2  A    between atoms: C_6  and  N_7 
REMARK       I    between atoms: N_7  and  C_8 
REMARK    3  A    between atoms: N_7  and  C_20 
REMARK    4  A    between atoms: C_8  and  C_9 
REMARK    5  A    between atoms: C_9  and  N_10 
REMARK    6  A    between atoms: C_20  and  C_21 
REMARK       I    between atoms: C_21  and  N_22 
REMARK    7  A    between atoms: N_22  and  C_23 
REMARK    8  A    between atoms: C_26  and  O_27 
ROOT
HETATM    1  N   UNL     1      -7.355   1.930 -31.685  1.00  0.00    -0.338 N 
HETATM    2  C   UNL     1      -6.499   2.641 -30.837  1.00  0.00     0.239 C 
HETATM    3  O   UNL     1      -6.033   2.115 -29.818  1.00  0.00    -0.271 OA
ENDROOT
BRANCH   1   4
HETATM    4  C   UNL     1      -7.488   0.501 -31.383  1.00  0.00     0.165 C 
BRANCH   4   5
HETATM    5  C   UNL     1      -6.886  -0.404 -32.436  1.00  0.00    -0.040 A 
HETATM    6  C   UNL     1      -5.557  -0.832 -32.326  1.00  0.00     0.009 A 
HETATM    7  C   UNL     1      -5.012  -1.704 -33.272  1.00  0.00     0.007 A 
HETATM    8  C   UNL     1      -5.783  -2.157 -34.348  1.00  0.00    -0.062 A 
HETATM    9  C   UNL     1      -5.191  -3.106 -35.347  1.00  0.00     0.048 C 
HETATM   10  C   UNL     1      -7.100  -1.706 -34.478  1.00  0.00     0.007 A 
HETATM   11  C   UNL     1      -7.645  -0.832 -33.535  1.00  0.00     0.009 A 
ENDBRANCH   4   5
ENDBRANCH   1   4
BRANCH   1  12
HETATM   12  C   UNL     1      -8.541   2.582 -32.277  1.00  0.00     0.229 C 
BRANCH  12  13
HETATM   13  C   UNL     1      -8.528   2.721 -33.797  1.00  0.00     0.240 C 
HETATM   14  N   UNL     1      -9.666   2.531 -34.530  1.00  0.00    -0.326 N 
HETATM   15  H   UNL     1      -9.522   2.822 -35.491  1.00  0.00     0.169 HD
HETATM   16  O   UNL     1      -7.507   3.068 -34.404  1.00  0.00    -0.271 OA
BRANCH  14  17
HETATM   17  C   UNL     1     -10.964   2.086 -34.214  1.00  0.00     0.034 A 
HETATM   18  C   UNL     1     -11.983   3.045 -34.284  1.00  0.00     0.032 A 
HETATM   19  C   UNL     1     -13.309   2.712 -33.983  1.00  0.00     0.039 A 
HETATM   20  C   UNL     1     -13.647   1.413 -33.613  1.00  0.00     0.068 A 
HETATM   21  C   UNL     1     -12.649   0.444 -33.581  1.00  0.00     0.039 A 
HETATM   22  C   UNL     1     -11.320   0.780 -33.880  1.00  0.00     0.032 A 
BRANCH  20  23
HETATM   23  O   UNL     1     -14.968   1.210 -33.330  1.00  0.00    -0.356 OA
HETATM   24  C   UNL     1     -15.533   2.041 -32.322  1.00  0.00     0.210 C 
ENDBRANCH  20  23
ENDBRANCH  14  17
ENDBRANCH  12  13
ENDBRANCH   1  12
BRANCH   2  25
HETATM   25  C   UNL     1      -5.953   3.980 -31.286  1.00  0.00     0.250 C 
BRANCH  25  26
HETATM   26  N   UNL     1      -4.571   4.021 -31.701  1.00  0.00    -0.263 N 
HETATM   27  N   UNL     1      -3.583   3.524 -30.934  1.00  0.00     0.006 NA
HETATM   28  N   UNL     1      -2.441   3.701 -31.586  1.00  0.00    -0.158 NA
HETATM   29  C   UNL     1      -2.725   4.260 -32.803  1.00  0.00     0.102 A 
HETATM   30  C   UNL     1      -4.094   4.468 -32.910  1.00  0.00     0.079 A 
HETATM   31  C   UNL     1      -1.888   4.611 -33.872  1.00  0.00     0.035 A 
HETATM   32  C   UNL     1      -4.698   5.011 -34.050  1.00  0.00     0.033 A 
HETATM   33  C   UNL     1      -3.851   5.345 -35.112  1.00  0.00     0.002 A 
HETATM   34  C   UNL     1      -2.470   5.151 -35.028  1.00  0.00     0.002 A 
ENDBRANCH  25  26
ENDBRANCH   2  25
TORSDOF 8
ENDMDL
MODEL 6
REMARK VINA RESULT:      -9.0      2.086      7.986
REMARK  8 active torsions:
REMARK  status: ('A' for Active; 'I' for Inactive)
REMARK    1  A    between atoms: C_5  and  C_6 
REMARK    2  A    between atoms: C_6  and  N_7 
REMARK       I    between atoms: N_7  and  C_8 
REMARK    3  A    between atoms: N_7  and  C_20 
REMARK    4  A    between atoms: C_8  and  C_9 
REMARK    5  A    between atoms: C_9  and  N_10 
REMARK    6  A    between atoms: C_20  and  C_21 
REMARK       I    between atoms: C_21  and  N_22 
REMARK    7  A    between atoms: N_22  and  C_23 
REMARK    8  A    between atoms: C_26  and  O_27 
ROOT
HETATM    1  N   UNL     1      -5.795   2.445 -31.333  1.00  0.00    -0.338 N 
HETATM    2  C   UNL     1      -4.977   1.394 -30.903  1.00  0.00     0.239 C 
HETATM    3  O   UNL     1      -5.292   0.704 -29.924  1.00  0.00    -0.271 OA
ENDROOT
BRANCH   1   4
HETATM    4  C   UNL     1      -7.104   2.529 -30.675  1.00  0.00     0.165 C 
BRANCH   4   5
HETATM    5  C   UNL     1      -8.256   2.090 -31.551  1.00  0.00    -0.040 A 
HETATM    6  C   UNL     1      -8.599   0.735 -31.645  1.00  0.00     0.009 A 
HETATM    7  C   UNL     1      -9.691   0.331 -32.416  1.00  0.00     0.007 A 
HETATM    8  C   UNL     1     -10.455   1.273 -33.114  1.00  0.00    -0.062 A 
HETATM    9  C   UNL     1     -11.636   0.827 -33.924  1.00  0.00     0.048 C 
HETATM   10  C   UNL     1     -10.097   2.623 -33.047  1.00  0.00     0.007 A 
HETATM   11  C   UNL     1      -9.003   3.027 -32.278  1.00  0.00     0.009 A 
ENDBRANCH   4   5
ENDBRANCH   1   4
BRANCH   1  12
HETATM   12  C   UNL     1      -5.207   3.727 -31.773  1.00  0.00     0.229 C 
BRANCH  12  13
HETATM   13  C   UNL     1      -5.094   3.919 -33.282  1.00  0.00     0.240 C 
HETATM   14  N   UNL     1      -4.025   4.572 -33.830  1.00  0.00    -0.326 N 
HETATM   15  H   UNL     1      -4.024   4.466 -34.839  1.00  0.00     0.169 HD
HETATM   16  O   UNL     1      -5.933   3.441 -34.057  1.00  0.00    -0.271 OA
BRANCH  14  17
HETATM   17  C   UNL     1      -2.936   5.281 -33.288  1.00  0.00     0.034 A 
HETATM   18  C   UNL     1      -2.011   4.529 -32.552  1.00  0.00     0.032 A 
HETATM   19  C   UNL     1      -0.895   5.135 -31.963  1.00  0.00     0.039 A 
HETATM   20  C   UNL     1      -0.675   6.503 -32.103  1.00  0.00     0.068 A 
HETATM   21  C   UNL     1      -1.565   7.250 -32.868  1.00  0.00     0.039 A 
HETATM   22  C   UNL     1      -2.686   6.642 -33.455  1.00  0.00     0.032 A 
BRANCH  20  23
HETATM   23  O   UNL     1       0.438   6.984 -31.474  1.00  0.00    -0.356 OA
HETATM   24  C   UNL     1       0.436   6.925 -30.052  1.00  0.00     0.210 C 
ENDBRANCH  20  23
ENDBRANCH  14  17
ENDBRANCH  12  13
ENDBRANCH   1  12
BRANCH   2  25
HETATM   25  C   UNL     1      -3.823   0.948 -31.774  1.00  0.00     0.250 C 
BRANCH  25  26
HETATM   26  N   UNL     1      -3.911  -0.368 -32.360  1.00  0.00    -0.263 N 
HETATM   27  N   UNL     1      -3.090  -1.369 -31.989  1.00  0.00     0.006 NA
HETATM   28  N   UNL     1      -3.422  -2.443 -32.694  1.00  0.00    -0.158 NA
HETATM   29  C   UNL     1      -4.504  -2.126 -33.472  1.00  0.00     0.102 A 
HETATM   30  C   UNL     1      -4.849  -0.796 -33.268  1.00  0.00     0.079 A 
HETATM   31  C   UNL     1      -5.255  -2.906 -34.363  1.00  0.00     0.035 A 
HETATM   32  C   UNL     1      -5.930  -0.181 -33.910  1.00  0.00     0.033 A 
HETATM   33  C   UNL     1      -6.677  -0.975 -34.787  1.00  0.00     0.002 A 
HETATM   34  C   UNL     1      -6.347  -2.313 -35.013  1.00  0.00     0.002 A 
ENDBRANCH  25  26
ENDBRANCH   2  25
TORSDOF 8
ENDMDL
MODEL 7
REMARK VINA RESULT:      -8.9      2.919      7.582
REMARK  8 active torsions:
REMARK  status: ('A' for Active; 'I' for Inactive)
REMARK    1  A    between atoms: C_5  and  C_6 
REMARK    2  A    between atoms: C_6  and  N_7 
REMARK       I    between atoms: N_7  and  C_8 
REMARK    3  A    between atoms: N_7  and  C_20 
REMARK    4  A    between atoms: C_8  and  C_9 
REMARK    5  A    between atoms: C_9  and  N_10 
REMARK    6  A    between atoms: C_20  and  C_21 
REMARK       I    between atoms: C_21  and  N_22 
REMARK    7  A    between atoms: N_22  and  C_23 
REMARK    8  A    between atoms: C_26  and  O_27 
ROOT
HETATM    1  N   UNL     1      -8.084   3.331 -33.178  1.00  0.00    -0.338 N 
HETATM    2  C   UNL     1      -8.584   4.577 -33.575  1.00  0.00     0.239 C 
HETATM    3  O   UNL     1      -7.932   5.312 -34.328  1.00  0.00    -0.271 OA
ENDROOT
BRANCH   1   4
HETATM    4  C   UNL     1      -6.860   2.901 -33.862  1.00  0.00     0.165 C 
BRANCH   4   5
HETATM    5  C   UNL     1      -6.811   1.416 -34.149  1.00  0.00    -0.040 A 
HETATM    6  C   UNL     1      -5.719   0.649 -33.724  1.00  0.00     0.009 A 
HETATM    7  C   UNL     1      -5.692  -0.730 -33.946  1.00  0.00     0.007 A 
HETATM    8  C   UNL     1      -6.752  -1.365 -34.603  1.00  0.00    -0.062 A 
HETATM    9  C   UNL     1      -6.718  -2.849 -34.819  1.00  0.00     0.048 C 
HETATM   10  C   UNL     1      -7.829  -0.597 -35.056  1.00  0.00     0.007 A 
HETATM   11  C   UNL     1      -7.855   0.783 -34.837  1.00  0.00     0.009 A 
ENDBRANCH   4   5
ENDBRANCH   1   4
BRANCH   1  12
HETATM   12  C   UNL     1      -8.249   2.862 -31.787  1.00  0.00     0.229 C 
BRANCH  12  13
HETATM   13  C   UNL     1      -7.622   3.746 -30.713  1.00  0.00     0.240 C 
HETATM   14  N   UNL     1      -6.353   3.510 -30.260  1.00  0.00    -0.326 N 
HETATM   15  H   UNL     1      -6.035   4.278 -29.679  1.00  0.00     0.169 HD
HETATM   16  O   UNL     1      -8.215   4.734 -30.264  1.00  0.00    -0.271 OA
BRANCH  14  17
HETATM   17  C   UNL     1      -5.417   2.481 -30.481  1.00  0.00     0.034 A 
HETATM   18  C   UNL     1      -4.219   2.856 -31.103  1.00  0.00     0.032 A 
HETATM   19  C   UNL     1      -3.223   1.912 -31.377  1.00  0.00     0.039 A 
HETATM   20  C   UNL     1      -3.398   0.575 -31.029  1.00  0.00     0.068 A 
HETATM   21  C   UNL     1      -4.566   0.201 -30.373  1.00  0.00     0.039 A 
HETATM   22  C   UNL     1      -5.566   1.148 -30.102  1.00  0.00     0.032 A 
BRANCH  20  23
HETATM   23  O   UNL     1      -2.364  -0.256 -31.358  1.00  0.00    -0.356 OA
HETATM   24  C   UNL     1      -2.720  -1.556 -31.816  1.00  0.00     0.210 C 
ENDBRANCH  20  23
ENDBRANCH  14  17
ENDBRANCH  12  13
ENDBRANCH   1  12
BRANCH   2  25
HETATM   25  C   UNL     1     -10.025   4.928 -33.274  1.00  0.00     0.250 C 
BRANCH  25  26
HETATM   26  N   UNL     1     -11.034   4.372 -34.144  1.00  0.00    -0.263 N 
HETATM   27  N   UNL     1     -11.532   5.062 -35.188  1.00  0.00     0.006 NA
HETATM   28  N   UNL     1     -12.424   4.287 -35.792  1.00  0.00    -0.158 NA
HETATM   29  C   UNL     1     -12.439   3.075 -35.155  1.00  0.00     0.102 A 
HETATM   30  C   UNL     1     -11.543   3.097 -34.094  1.00  0.00     0.079 A 
HETATM   31  C   UNL     1     -13.169   1.907 -35.418  1.00  0.00     0.035 A 
HETATM   32  C   UNL     1     -11.319   1.995 -33.262  1.00  0.00     0.033 A 
HETATM   33  C   UNL     1     -12.046   0.833 -33.544  1.00  0.00     0.002 A 
HETATM   34  C   UNL     1     -12.957   0.787 -34.601  1.00  0.00     0.002 A 
ENDBRANCH  25  26
ENDBRANCH   2  25
TORSDOF 8
ENDMDL
MODEL 8
REMARK VINA RESULT:      -8.7      2.856      8.518
REMARK  8 active torsions:
REMARK  status: ('A' for Active; 'I' for Inactive)
REMARK    1  A    between atoms: C_5  and  C_6 
REMARK    2  A    between atoms: C_6  and  N_7 
REMARK       I    between atoms: N_7  and  C_8 
REMARK    3  A    between atoms: N_7  and  C_20 
REMARK    4  A    between atoms: C_8  and  C_9 
REMARK    5  A    between atoms: C_9  and  N_10 
REMARK    6  A    between atoms: C_20  and  C_21 
REMARK       I    between atoms: C_21  and  N_22 
REMARK    7  A    between atoms: N_22  and  C_23 
REMARK    8  A    between atoms: C_26  and  O_27 
ROOT
HETATM    1  N   UNL     1      -8.620   2.217 -31.840  1.00  0.00    -0.338 N 
HETATM    2  C   UNL     1      -9.676   3.041 -31.435  1.00  0.00     0.239 C 
HETATM    3  O   UNL     1      -9.736   3.473 -30.277  1.00  0.00    -0.271 OA
ENDROOT
BRANCH   1   4
HETATM    4  C   UNL     1      -7.528   2.078 -30.871  1.00  0.00     0.165 C 
BRANCH   4   5
HETATM    5  C   UNL     1      -6.189   2.559 -31.388  1.00  0.00    -0.040 A 
HETATM    6  C   UNL     1      -6.123   3.416 -32.494  1.00  0.00     0.009 A 
HETATM    7  C   UNL     1      -4.892   3.898 -32.944  1.00  0.00     0.007 A 
HETATM    8  C   UNL     1      -3.705   3.527 -32.302  1.00  0.00    -0.062 A 
HETATM    9  C   UNL     1      -2.392   4.067 -32.786  1.00  0.00     0.048 C 
HETATM   10  C   UNL     1      -3.765   2.647 -31.218  1.00  0.00     0.007 A 
HETATM   11  C   UNL     1      -4.996   2.162 -30.768  1.00  0.00     0.009 A 
ENDBRANCH   4   5
ENDBRANCH   1   4
BRANCH   1  12
HETATM   12  C   UNL     1      -8.866   1.050 -32.713  1.00  0.00     0.229 C 
BRANCH  12  13
HETATM   13  C   UNL     1      -8.610   1.271 -34.201  1.00  0.00     0.240 C 
HETATM   14  N   UNL     1      -7.626   0.583 -34.855  1.00  0.00    -0.326 N 
HETATM   15  H   UNL     1      -7.701   0.724 -35.857  1.00  0.00     0.169 HD
HETATM   16  O   UNL     1      -9.320   2.032 -34.870  1.00  0.00    -0.271 OA
BRANCH  14  17
HETATM   17  C   UNL     1      -6.610  -0.295 -34.434  1.00  0.00     0.034 A 
HETATM   18  C   UNL     1      -6.749  -1.635 -34.820  1.00  0.00     0.032 A 
HETATM   19  C   UNL     1      -5.799  -2.594 -34.450  1.00  0.00     0.039 A 
HETATM   20  C   UNL     1      -4.686  -2.234 -33.694  1.00  0.00     0.068 A 
HETATM   21  C   UNL     1      -4.517  -0.899 -33.342  1.00  0.00     0.039 A 
HETATM   22  C   UNL     1      -5.472   0.061 -33.711  1.00  0.00     0.032 A 
BRANCH  20  23
HETATM   23  O   UNL     1      -3.835  -3.257 -33.382  1.00  0.00    -0.356 OA
HETATM   24  C   UNL     1      -3.172  -3.167 -32.125  1.00  0.00     0.210 C 
ENDBRANCH  20  23
ENDBRANCH  14  17
ENDBRANCH  12  13
ENDBRANCH   1  12
BRANCH   2  25
HETATM   25  C   UNL     1     -10.625   3.597 -32.475  1.00  0.00     0.250 C 
BRANCH  25  26
HETATM   26  N   UNL     1     -12.031   3.320 -32.298  1.00  0.00    -0.263 N 
HETATM   27  N   UNL     1     -12.797   4.040 -31.457  1.00  0.00     0.006 NA
HETATM   28  N   UNL     1     -14.030   3.554 -31.521  1.00  0.00    -0.158 NA
HETATM   29  C   UNL     1     -14.048   2.558 -32.461  1.00  0.00     0.102 A 
HETATM   30  C   UNL     1     -12.774   2.392 -32.987  1.00  0.00     0.079 A 
HETATM   31  C   UNL     1     -15.099   1.757 -32.931  1.00  0.00     0.035 A 
HETATM   32  C   UNL     1     -12.475   1.458 -33.985  1.00  0.00     0.033 A 
HETATM   33  C   UNL     1     -13.536   0.675 -34.453  1.00  0.00     0.002 A 
HETATM   34  C   UNL     1     -14.826   0.818 -33.936  1.00  0.00     0.002 A 
ENDBRANCH  25  26
ENDBRANCH   2  25
TORSDOF 8
ENDMDL
MODEL 9
REMARK VINA RESULT:      -8.6      1.668      2.687
REMARK  8 active torsions:
REMARK  status: ('A' for Active; 'I' for Inactive)
REMARK    1  A    between atoms: C_5  and  C_6 
REMARK    2  A    between atoms: C_6  and  N_7 
REMARK       I    between atoms: N_7  and  C_8 
REMARK    3  A    between atoms: N_7  and  C_20 
REMARK    4  A    between atoms: C_8  and  C_9 
REMARK    5  A    between atoms: C_9  and  N_10 
REMARK    6  A    between atoms: C_20  and  C_21 
REMARK       I    between atoms: C_21  and  N_22 
REMARK    7  A    between atoms: N_22  and  C_23 
REMARK    8  A    between atoms: C_26  and  O_27 
ROOT
HETATM    1  N   UNL     1      -6.876   2.394 -31.406  1.00  0.00    -0.338 N 
HETATM    2  C   UNL     1      -5.952   3.131 -30.656  1.00  0.00     0.239 C 
HETATM    3  O   UNL     1      -5.462   2.667 -29.619  1.00  0.00    -0.271 OA
ENDROOT
BRANCH   1   4
HETATM    4  C   UNL     1      -7.055   1.001 -30.984  1.00  0.00     0.165 C 
BRANCH   4   5
HETATM    5  C   UNL     1      -6.652  -0.011 -32.034  1.00  0.00    -0.040 A 
HETATM    6  C   UNL     1      -7.565  -0.416 -33.016  1.00  0.00     0.009 A 
HETATM    7  C   UNL     1      -7.182  -1.315 -34.013  1.00  0.00     0.007 A 
HETATM    8  C   UNL     1      -5.881  -1.831 -34.044  1.00  0.00    -0.062 A 
HETATM    9  C   UNL     1      -5.478  -2.782 -35.131  1.00  0.00     0.048 C 
HETATM   10  C   UNL     1      -4.976  -1.453 -33.047  1.00  0.00     0.007 A 
HETATM   11  C   UNL     1      -5.360  -0.556 -32.047  1.00  0.00     0.009 A 
ENDBRANCH   4   5
ENDBRANCH   1   4
BRANCH   1  12
HETATM   12  C   UNL     1      -8.060   3.050 -31.999  1.00  0.00     0.229 C 
BRANCH  12  13
HETATM   13  C   UNL     1      -8.041   3.200 -33.517  1.00  0.00     0.240 C 
HETATM   14  N   UNL     1      -9.195   3.116 -34.246  1.00  0.00    -0.326 N 
HETATM   15  H   UNL     1      -9.030   3.400 -35.206  1.00  0.00     0.169 HD
HETATM   16  O   UNL     1      -6.996   3.460 -34.127  1.00  0.00    -0.271 OA
BRANCH  14  17
HETATM   17  C   UNL     1     -10.525   2.784 -33.926  1.00  0.00     0.034 A 
HETATM   18  C   UNL     1     -10.905   1.455 -34.155  1.00  0.00     0.032 A 
HETATM   19  C   UNL     1     -12.207   1.019 -33.878  1.00  0.00     0.039 A 
HETATM   20  C   UNL     1     -13.154   1.900 -33.361  1.00  0.00     0.068 A 
HETATM   21  C   UNL     1     -12.774   3.210 -33.091  1.00  0.00     0.039 A 
HETATM   22  C   UNL     1     -11.470   3.646 -33.372  1.00  0.00     0.032 A 
BRANCH  20  23
HETATM   23  O   UNL     1     -14.393   1.365 -33.144  1.00  0.00    -0.356 OA
HETATM   24  C   UNL     1     -14.983   0.674 -34.239  1.00  0.00     0.210 C 
ENDBRANCH  20  23
ENDBRANCH  14  17
ENDBRANCH  12  13
ENDBRANCH   1  12
BRANCH   2  25
HETATM   25  C   UNL     1      -5.373   4.403 -31.235  1.00  0.00     0.250 C 
BRANCH  25  26
HETATM   26  N   UNL     1      -4.014   4.346 -31.722  1.00  0.00    -0.263 N 
HETATM   27  N   UNL     1      -3.624   3.435 -32.634  1.00  0.00     0.006 NA
HETATM   28  N   UNL     1      -2.336   3.641 -32.881  1.00  0.00    -0.158 NA
HETATM   29  C   UNL     1      -1.932   4.734 -32.161  1.00  0.00     0.102 A 
HETATM   30  C   UNL     1      -2.998   5.216 -31.412  1.00  0.00     0.079 A 
HETATM   31  C   UNL     1      -0.691   5.383 -32.094  1.00  0.00     0.035 A 
HETATM   32  C   UNL     1      -2.902   6.340 -30.584  1.00  0.00     0.033 A 
HETATM   33  C   UNL     1      -1.661   6.985 -30.537  1.00  0.00     0.002 A 
HETATM   34  C   UNL     1      -0.572   6.516 -31.276  1.00  0.00     0.002 A 
ENDBRANCH  25  26
ENDBRANCH   2  25
TORSDOF 8
ENDMDL
MODEL 10
REMARK VINA RESULT:      -8.5      2.349      4.238
REMARK  8 active torsions:
REMARK  status: ('A' for Active; 'I' for Inactive)
REMARK    1  A    between atoms: C_5  and  C_6 
REMARK    2  A    between atoms: C_6  and  N_7 
REMARK       I    between atoms: N_7  and  C_8 
REMARK    3  A    between atoms: N_7  and  C_20 
REMARK    4  A    between atoms: C_8  and  C_9 
REMARK    5  A    between atoms: C_9  and  N_10 
REMARK    6  A    between atoms: C_20  and  C_21 
REMARK       I    between atoms: C_21  and  N_22 
REMARK    7  A    between atoms: N_22  and  C_23 
REMARK    8  A    between atoms: C_26  and  O_27 
ROOT
HETATM    1  N   UNL     1      -6.437   1.742 -32.669  1.00  0.00    -0.338 N 
HETATM    2  C   UNL     1      -5.385   2.663 -32.624  1.00  0.00     0.239 C 
HETATM    3  O   UNL     1      -4.405   2.471 -31.893  1.00  0.00    -0.271 OA
ENDROOT
BRANCH   1   4
HETATM    4  C   UNL     1      -6.198   0.483 -31.956  1.00  0.00     0.165 C 
BRANCH   4   5
HETATM    5  C   UNL     1      -6.069  -0.719 -32.866  1.00  0.00    -0.040 A 
HETATM    6  C   UNL     1      -7.189  -1.221 -33.540  1.00  0.00     0.009 A 
HETATM    7  C   UNL     1      -7.065  -2.301 -34.417  1.00  0.00     0.007 A 
HETATM    8  C   UNL     1      -5.820  -2.904 -34.630  1.00  0.00    -0.062 A 
HETATM    9  C   UNL     1      -5.697  -4.052 -35.587  1.00  0.00     0.048 C 
HETATM   10  C   UNL     1      -4.705  -2.425 -33.934  1.00  0.00     0.007 A 
HETATM   11  C   UNL     1      -4.830  -1.347 -33.055  1.00  0.00     0.009 A 
ENDBRANCH   4   5
ENDBRANCH   1   4
BRANCH   1  12
HETATM   12  C   UNL     1      -7.840   2.203 -32.720  1.00  0.00     0.229 C 
BRANCH  12  13
HETATM   13  C   UNL     1      -8.725   1.755 -31.560  1.00  0.00     0.240 C 
HETATM   14  N   UNL     1      -8.892   2.547 -30.457  1.00  0.00    -0.326 N 
HETATM   15  H   UNL     1      -9.631   2.180 -29.866  1.00  0.00     0.169 HD
HETATM   16  O   UNL     1      -9.362   0.696 -31.606  1.00  0.00    -0.271 OA
BRANCH  14  17
HETATM   17  C   UNL     1      -8.307   3.753 -30.028  1.00  0.00     0.034 A 
HETATM   18  C   UNL     1      -6.977   3.678 -29.595  1.00  0.00     0.032 A 
HETATM   19  C   UNL     1      -6.300   4.816 -29.141  1.00  0.00     0.039 A 
HETATM   20  C   UNL     1      -6.936   6.055 -29.117  1.00  0.00     0.068 A 
HETATM   21  C   UNL     1      -8.242   6.148 -29.585  1.00  0.00     0.039 A 
HETATM   22  C   UNL     1      -8.920   5.005 -30.037  1.00  0.00     0.032 A 
BRANCH  20  23
HETATM   23  O   UNL     1      -6.181   7.091 -28.641  1.00  0.00    -0.356 OA
HETATM   24  C   UNL     1      -4.833   6.785 -28.298  1.00  0.00     0.210 C 
ENDBRANCH  20  23
ENDBRANCH  14  17
ENDBRANCH  12  13
ENDBRANCH   1  12
BRANCH   2  25
HETATM   25  C   UNL     1      -5.331   3.779 -33.644  1.00  0.00     0.250 C 
BRANCH  25  26
HETATM   26  N   UNL     1      -4.691   5.009 -33.240  1.00  0.00    -0.263 N 
HETATM   27  N   UNL     1      -5.272   5.862 -32.374  1.00  0.00     0.006 NA
HETATM   28  N   UNL     1      -4.442   6.882 -32.199  1.00  0.00    -0.158 NA
HETATM   29  C   UNL     1      -3.301   6.635 -32.917  1.00  0.00     0.102 A 
HETATM   30  C   UNL     1      -3.430   5.427 -33.590  1.00  0.00     0.079 A 
HETATM   31  C   UNL     1      -2.115   7.373 -33.042  1.00  0.00     0.035 A 
HETATM   32  C   UNL     1      -2.419   4.891 -34.396  1.00  0.00     0.033 A 
HETATM   33  C   UNL     1      -1.238   5.633 -34.502  1.00  0.00     0.002 A 
HETATM   34  C   UNL     1      -1.086   6.853 -33.839  1.00  0.00     0.002 A 
ENDBRANCH  25  26
ENDBRANCH   2  25
TORSDOF 8
ENDMDL
