MODEL 1
REMARK VINA RESULT:      -9.5      0.000      0.000
REMARK  3 active torsions:
REMARK  status: ('A' for Active; 'I' for Inactive)
REMARK    1  A    between atoms: C_4  and  N_5 
REMARK       I    between atoms: N_5  and  C_6 
REMARK    2  A    between atoms: C_6  and  C_7 
REMARK    3  A    between atoms: C_7  and  N_8 
ROOT
HETATM    1  N   UNL     1      -6.075   3.313 -33.200  1.00  0.00    -0.224 N 
HETATM    2  N   UNL     1      -5.929   4.213 -34.273  1.00  0.00    -0.180 NA
HETATM    3  C   UNL     1      -4.935   5.055 -34.265  1.00  0.00     0.153 A 
HETATM    4  C   UNL     1      -3.999   5.091 -33.176  1.00  0.00     0.028 A 
HETATM    5  C   UNL     1      -4.169   4.216 -32.132  1.00  0.00     0.116 A 
HETATM    6  N   UNL     1      -3.169   4.421 -31.227  1.00  0.00    -0.350 N 
HETATM    7  H   UNL     1      -3.052   3.898 -30.369  1.00  0.00     0.166 HD
HETATM    8  C   UNL     1      -2.349   5.439 -31.669  1.00  0.00     0.044 A 
HETATM    9  C   UNL     1      -2.852   5.880 -32.899  1.00  0.00     0.005 A 
HETATM   10  C   UNL     1      -1.209   5.994 -31.076  1.00  0.00     0.030 A 
HETATM   11  C   UNL     1      -0.566   7.031 -31.758  1.00  0.00     0.002 A 
HETATM   12  C   UNL     1      -1.043   7.492 -32.982  1.00  0.00     0.001 A 
HETATM   13  C   UNL     1      -2.184   6.926 -33.565  1.00  0.00     0.014 A 
HETATM   14  C   UNL     1      -5.238   3.267 -32.070  1.00  0.00     0.291 A 
HETATM   15  O   UNL     1      -5.404   2.512 -31.116  1.00  0.00    -0.264 OA
ENDROOT
BRANCH   1  16
HETATM   16  C   UNL     1      -7.170   2.357 -33.275  1.00  0.00     0.258 C 
BRANCH  16  17
HETATM   17  C   UNL     1      -6.718   1.048 -33.944  1.00  0.00     0.244 C 
HETATM   18  N   UNL     1      -6.562  -0.068 -33.093  1.00  0.00    -0.320 N 
HETATM   19  C   UNL     1      -6.975  -0.043 -31.694  1.00  0.00     0.159 C 
HETATM   20  O   UNL     1      -6.548   0.992 -35.166  1.00  0.00    -0.271 OA
BRANCH  18  21
HETATM   21  C   UNL     1      -5.919  -1.262 -33.582  1.00  0.00     0.043 A 
HETATM   22  C   UNL     1      -6.727  -2.254 -34.178  1.00  0.00     0.037 A 
HETATM   23  C   UNL     1      -6.188  -3.413 -34.750  1.00  0.00    -0.060 A 
HETATM   24  C   UNL     1      -7.077  -4.448 -35.374  1.00  0.00     0.048 C 
HETATM   25  C   UNL     1      -4.806  -3.583 -34.748  1.00  0.00     0.007 A 
HETATM   26  C   UNL     1      -3.986  -2.626 -34.152  1.00  0.00     0.009 A 
HETATM   27  C   UNL     1      -4.523  -1.473 -33.543  1.00  0.00    -0.035 A 
HETATM   28  C   UNL     1      -3.552  -0.568 -32.834  1.00  0.00     0.050 C 
ENDBRANCH  18  21
ENDBRANCH  16  17
ENDBRANCH   1  16
TORSDOF 3
ENDMDL
MODEL 2
REMARK VINA RESULT:      -9.3      3.965      7.764
REMARK  3 active torsions:
REMARK  status: ('A' for Active; 'I' for Inactive)
REMARK    1  A    between atoms: C_4  and  N_5 
REMARK       I    between atoms: N_5  and  C_6 
REMARK    2  A    between atoms: C_6  and  C_7 
REMARK    3  A    between atoms: C_7  and  N_8 
ROOT
HETATM    1  N   UNL     1      -7.210   1.612 -34.022  1.00  0.00    -0.224 N 
HETATM    2  N   UNL     1      -8.127   0.843 -34.762  1.00  0.00    -0.180 NA
HETATM    3  C   UNL     1      -7.874  -0.418 -34.974  1.00  0.00     0.153 A 
HETATM    4  C   UNL     1      -6.671  -1.028 -34.481  1.00  0.00     0.028 A 
HETATM    5  C   UNL     1      -5.782  -0.256 -33.776  1.00  0.00     0.116 A 
HETATM    6  N   UNL     1      -4.729  -1.039 -33.402  1.00  0.00    -0.350 N 
HETATM    7  H   UNL     1      -3.937  -0.720 -32.859  1.00  0.00     0.166 HD
HETATM    8  C   UNL     1      -4.918  -2.322 -33.872  1.00  0.00     0.044 A 
HETATM    9  C   UNL     1      -6.140  -2.342 -34.558  1.00  0.00     0.005 A 
HETATM   10  C   UNL     1      -4.108  -3.456 -33.739  1.00  0.00     0.030 A 
HETATM   11  C   UNL     1      -4.556  -4.642 -34.327  1.00  0.00     0.002 A 
HETATM   12  C   UNL     1      -5.764  -4.693 -35.017  1.00  0.00     0.001 A 
HETATM   13  C   UNL     1      -6.566  -3.552 -35.140  1.00  0.00     0.014 A 
HETATM   14  C   UNL     1      -5.990   1.133 -33.507  1.00  0.00     0.291 A 
HETATM   15  O   UNL     1      -5.173   1.826 -32.906  1.00  0.00    -0.264 OA
ENDROOT
BRANCH   1  16
HETATM   16  C   UNL     1      -7.557   3.002 -33.767  1.00  0.00     0.258 C 
BRANCH  16  17
HETATM   17  C   UNL     1      -9.079   3.214 -33.840  1.00  0.00     0.244 C 
HETATM   18  N   UNL     1      -9.830   2.749 -32.738  1.00  0.00    -0.320 N 
HETATM   19  C   UNL     1      -9.197   2.258 -31.518  1.00  0.00     0.159 C 
HETATM   20  O   UNL     1      -9.587   3.800 -34.801  1.00  0.00    -0.271 OA
BRANCH  18  21
HETATM   21  C   UNL     1     -11.268   2.688 -32.820  1.00  0.00     0.043 A 
HETATM   22  C   UNL     1     -11.851   1.547 -33.410  1.00  0.00     0.037 A 
HETATM   23  C   UNL     1     -13.239   1.362 -33.467  1.00  0.00    -0.060 A 
HETATM   24  C   UNL     1     -13.826   0.137 -34.103  1.00  0.00     0.048 C 
HETATM   25  C   UNL     1     -14.069   2.329 -32.906  1.00  0.00     0.007 A 
HETATM   26  C   UNL     1     -13.519   3.473 -32.331  1.00  0.00     0.009 A 
HETATM   27  C   UNL     1     -12.125   3.684 -32.301  1.00  0.00    -0.035 A 
HETATM   28  C   UNL     1     -11.652   5.005 -31.758  1.00  0.00     0.050 C 
ENDBRANCH  18  21
ENDBRANCH  16  17
ENDBRANCH   1  16
TORSDOF 3
ENDMDL
MODEL 3
REMARK VINA RESULT:      -9.2      4.196      8.060
REMARK  3 active torsions:
REMARK  status: ('A' for Active; 'I' for Inactive)
REMARK    1  A    between atoms: C_4  and  N_5 
REMARK       I    between atoms: N_5  and  C_6 
REMARK    2  A    between atoms: C_6  and  C_7 
REMARK    3  A    between atoms: C_7  and  N_8 
ROOT
HETATM    1  N   UNL     1      -7.476   1.183 -33.904  1.00  0.00    -0.224 N 
HETATM    2  N   UNL     1      -7.829   0.256 -34.903  1.00  0.00    -0.180 NA
HETATM    3  C   UNL     1      -7.185  -0.875 -34.976  1.00  0.00     0.153 A 
HETATM    4  C   UNL     1      -6.113  -1.180 -34.070  1.00  0.00     0.028 A 
HETATM    5  C   UNL     1      -5.774  -0.255 -33.115  1.00  0.00     0.116 A 
HETATM    6  N   UNL     1      -4.749  -0.758 -32.369  1.00  0.00    -0.350 N 
HETATM    7  H   UNL     1      -4.316  -0.282 -31.588  1.00  0.00     0.166 HD
HETATM    8  C   UNL     1      -4.404  -2.007 -32.841  1.00  0.00     0.044 A 
HETATM    9  C   UNL     1      -5.253  -2.298 -33.917  1.00  0.00     0.005 A 
HETATM   10  C   UNL     1      -3.416  -2.894 -32.397  1.00  0.00     0.030 A 
HETATM   11  C   UNL     1      -3.288  -4.110 -33.073  1.00  0.00     0.002 A 
HETATM   12  C   UNL     1      -4.115  -4.427 -34.148  1.00  0.00     0.001 A 
HETATM   13  C   UNL     1      -5.102  -3.532 -34.580  1.00  0.00     0.014 A 
HETATM   14  C   UNL     1      -6.433   1.007 -32.976  1.00  0.00     0.291 A 
HETATM   15  O   UNL     1      -6.100   1.845 -32.142  1.00  0.00    -0.264 OA
ENDROOT
BRANCH   1  16
HETATM   16  C   UNL     1      -8.255   2.410 -33.828  1.00  0.00     0.258 C 
BRANCH  16  17
HETATM   17  C   UNL     1      -9.639   2.150 -33.209  1.00  0.00     0.244 C 
HETATM   18  N   UNL     1     -10.716   2.885 -33.751  1.00  0.00    -0.320 N 
HETATM   19  C   UNL     1     -10.570   3.711 -34.946  1.00  0.00     0.159 C 
HETATM   20  O   UNL     1      -9.781   1.308 -32.317  1.00  0.00    -0.271 OA
BRANCH  18  21
HETATM   21  C   UNL     1     -11.995   2.886 -33.086  1.00  0.00     0.043 A 
HETATM   22  C   UNL     1     -12.192   3.800 -32.029  1.00  0.00     0.037 A 
HETATM   23  C   UNL     1     -13.423   3.928 -31.373  1.00  0.00    -0.060 A 
HETATM   24  C   UNL     1     -13.598   4.910 -30.252  1.00  0.00     0.048 C 
HETATM   25  C   UNL     1     -14.493   3.140 -31.790  1.00  0.00     0.007 A 
HETATM   26  C   UNL     1     -14.320   2.218 -32.821  1.00  0.00     0.009 A 
HETATM   27  C   UNL     1     -13.075   2.058 -33.464  1.00  0.00    -0.035 A 
HETATM   28  C   UNL     1     -12.977   0.955 -34.483  1.00  0.00     0.050 C 
ENDBRANCH  18  21
ENDBRANCH  16  17
ENDBRANCH   1  16
TORSDOF 3
ENDMDL
MODEL 4
REMARK VINA RESULT:      -9.0      1.514      8.302
REMARK  3 active torsions:
REMARK  status: ('A' for Active; 'I' for Inactive)
REMARK    1  A    between atoms: C_4  and  N_5 
REMARK       I    between atoms: N_5  and  C_6 
REMARK    2  A    between atoms: C_6  and  C_7 
REMARK    3  A    between atoms: C_7  and  N_8 
ROOT
HETATM    1  N   UNL     1      -5.614   1.757 -33.042  1.00  0.00    -0.224 N 
HETATM    2  N   UNL     1      -4.409   1.220 -32.552  1.00  0.00    -0.180 NA
HETATM    3  C   UNL     1      -4.136  -0.035 -32.774  1.00  0.00     0.153 A 
HETATM    4  C   UNL     1      -5.051  -0.879 -33.492  1.00  0.00     0.028 A 
HETATM    5  C   UNL     1      -6.228  -0.339 -33.946  1.00  0.00     0.116 A 
HETATM    6  N   UNL     1      -6.928  -1.310 -34.601  1.00  0.00    -0.350 N 
HETATM    7  H   UNL     1      -7.827  -1.173 -35.045  1.00  0.00     0.166 HD
HETATM    8  C   UNL     1      -6.217  -2.492 -34.566  1.00  0.00     0.044 A 
HETATM    9  C   UNL     1      -5.026  -2.246 -33.871  1.00  0.00     0.005 A 
HETATM   10  C   UNL     1      -6.537  -3.747 -35.097  1.00  0.00     0.030 A 
HETATM   11  C   UNL     1      -5.616  -4.782 -34.910  1.00  0.00     0.002 A 
HETATM   12  C   UNL     1      -4.425  -4.569 -34.221  1.00  0.00     0.001 A 
HETATM   13  C   UNL     1      -4.116  -3.307 -33.697  1.00  0.00     0.014 A 
HETATM   14  C   UNL     1      -6.597   1.028 -33.737  1.00  0.00     0.291 A 
HETATM   15  O   UNL     1      -7.667   1.495 -34.115  1.00  0.00    -0.264 OA
ENDROOT
BRANCH   1  16
HETATM   16  C   UNL     1      -5.853   3.175 -32.813  1.00  0.00     0.258 C 
BRANCH  16  17
HETATM   17  C   UNL     1      -4.531   3.959 -32.767  1.00  0.00     0.244 C 
HETATM   18  N   UNL     1      -4.140   4.453 -31.503  1.00  0.00    -0.320 N 
HETATM   19  C   UNL     1      -4.845   4.096 -30.277  1.00  0.00     0.159 C 
HETATM   20  O   UNL     1      -3.846   4.098 -33.785  1.00  0.00    -0.271 OA
BRANCH  18  21
HETATM   21  C   UNL     1      -3.051   5.393 -31.403  1.00  0.00     0.043 A 
HETATM   22  C   UNL     1      -1.749   4.881 -31.221  1.00  0.00     0.037 A 
HETATM   23  C   UNL     1      -0.619   5.709 -31.188  1.00  0.00    -0.060 A 
HETATM   24  C   UNL     1       0.752   5.131 -30.992  1.00  0.00     0.048 C 
HETATM   25  C   UNL     1      -0.785   7.080 -31.359  1.00  0.00     0.007 A 
HETATM   26  C   UNL     1      -2.063   7.613 -31.525  1.00  0.00     0.009 A 
HETATM   27  C   UNL     1      -3.208   6.791 -31.524  1.00  0.00    -0.035 A 
HETATM   28  C   UNL     1      -4.540   7.488 -31.597  1.00  0.00     0.050 C 
ENDBRANCH  18  21
ENDBRANCH  16  17
ENDBRANCH   1  16
TORSDOF 3
ENDMDL
MODEL 5
REMARK VINA RESULT:      -8.9      1.632      8.140
REMARK  3 active torsions:
REMARK  status: ('A' for Active; 'I' for Inactive)
REMARK    1  A    between atoms: C_4  and  N_5 
REMARK       I    between atoms: N_5  and  C_6 
REMARK    2  A    between atoms: C_6  and  C_7 
REMARK    3  A    between atoms: C_7  and  N_8 
ROOT
HETATM    1  N   UNL     1      -6.178   2.418 -31.973  1.00  0.00    -0.224 N 
HETATM    2  N   UNL     1      -4.817   2.062 -31.930  1.00  0.00    -0.180 NA
HETATM    3  C   UNL     1      -4.443   0.918 -32.431  1.00  0.00     0.153 A 
HETATM    4  C   UNL     1      -5.398   0.011 -33.007  1.00  0.00     0.028 A 
HETATM    5  C   UNL     1      -6.722   0.371 -33.022  1.00  0.00     0.116 A 
HETATM    6  N   UNL     1      -7.435  -0.627 -33.619  1.00  0.00    -0.350 N 
HETATM    7  H   UNL     1      -8.435  -0.610 -33.771  1.00  0.00     0.166 HD
HETATM    8  C   UNL     1      -6.583  -1.649 -33.984  1.00  0.00     0.044 A 
HETATM    9  C   UNL     1      -5.288  -1.269 -33.608  1.00  0.00     0.005 A 
HETATM   10  C   UNL     1      -6.860  -2.867 -34.616  1.00  0.00     0.030 A 
HETATM   11  C   UNL     1      -5.784  -3.723 -34.868  1.00  0.00     0.002 A 
HETATM   12  C   UNL     1      -4.486  -3.375 -34.504  1.00  0.00     0.001 A 
HETATM   13  C   UNL     1      -4.223  -2.152 -33.875  1.00  0.00     0.014 A 
HETATM   14  C   UNL     1      -7.206   1.607 -32.489  1.00  0.00     0.291 A 
HETATM   15  O   UNL     1      -8.397   1.906 -32.474  1.00  0.00    -0.264 OA
ENDROOT
BRANCH   1  16
HETATM   16  C   UNL     1      -6.542   3.726 -31.447  1.00  0.00     0.258 C 
BRANCH  16  17
HETATM   17  C   UNL     1      -5.296   4.601 -31.229  1.00  0.00     0.244 C 
HETATM   18  N   UNL     1      -4.920   5.434 -32.306  1.00  0.00    -0.320 N 
HETATM   19  C   UNL     1      -5.757   5.599 -33.490  1.00  0.00     0.159 C 
HETATM   20  O   UNL     1      -4.700   4.589 -30.148  1.00  0.00    -0.271 OA
BRANCH  18  21
HETATM   21  C   UNL     1      -3.644   6.105 -32.286  1.00  0.00     0.043 A 
HETATM   22  C   UNL     1      -3.586   7.403 -31.735  1.00  0.00     0.037 A 
HETATM   23  C   UNL     1      -2.381   8.105 -31.602  1.00  0.00    -0.060 A 
HETATM   24  C   UNL     1      -2.356   9.485 -31.013  1.00  0.00     0.048 C 
HETATM   25  C   UNL     1      -1.199   7.493 -32.009  1.00  0.00     0.007 A 
HETATM   26  C   UNL     1      -1.230   6.217 -32.570  1.00  0.00     0.009 A 
HETATM   27  C   UNL     1      -2.443   5.518 -32.740  1.00  0.00    -0.035 A 
HETATM   28  C   UNL     1      -2.367   4.199 -33.459  1.00  0.00     0.050 C 
ENDBRANCH  18  21
ENDBRANCH  16  17
ENDBRANCH   1  16
TORSDOF 3
ENDMDL
MODEL 6
REMARK VINA RESULT:      -8.7      2.118      8.464
REMARK  3 active torsions:
REMARK  status: ('A' for Active; 'I' for Inactive)
REMARK    1  A    between atoms: C_4  and  N_5 
REMARK       I    between atoms: N_5  and  C_6 
REMARK    2  A    between atoms: C_6  and  C_7 
REMARK    3  A    between atoms: C_7  and  N_8 
ROOT
HETATM    1  N   UNL     1      -5.040   4.670 -32.872  1.00  0.00    -0.224 N 
HETATM    2  N   UNL     1      -4.133   3.802 -32.236  1.00  0.00    -0.180 NA
HETATM    3  C   UNL     1      -4.258   2.516 -32.406  1.00  0.00     0.153 A 
HETATM    4  C   UNL     1      -5.316   1.972 -33.213  1.00  0.00     0.028 A 
HETATM    5  C   UNL     1      -6.200   2.836 -33.809  1.00  0.00     0.116 A 
HETATM    6  N   UNL     1      -7.102   2.106 -34.526  1.00  0.00    -0.350 N 
HETATM    7  H   UNL     1      -7.857   2.499 -35.074  1.00  0.00     0.166 HD
HETATM    8  C   UNL     1      -6.820   0.762 -34.390  1.00  0.00     0.044 A 
HETATM    9  C   UNL     1      -5.694   0.651 -33.564  1.00  0.00     0.005 A 
HETATM   10  C   UNL     1      -7.470  -0.351 -34.935  1.00  0.00     0.030 A 
HETATM   11  C   UNL     1      -6.958  -1.614 -34.625  1.00  0.00     0.002 A 
HETATM   12  C   UNL     1      -5.842  -1.757 -33.805  1.00  0.00     0.001 A 
HETATM   13  C   UNL     1      -5.200  -0.635 -33.269  1.00  0.00     0.014 A 
HETATM   14  C   UNL     1      -6.127   4.257 -33.666  1.00  0.00     0.291 A 
HETATM   15  O   UNL     1      -6.943   5.021 -34.174  1.00  0.00    -0.264 OA
ENDROOT
BRANCH   1  16
HETATM   16  C   UNL     1      -4.831   6.100 -32.695  1.00  0.00     0.258 C 
BRANCH  16  17
HETATM   17  C   UNL     1      -3.931   6.382 -31.480  1.00  0.00     0.244 C 
HETATM   18  N   UNL     1      -2.646   6.895 -31.759  1.00  0.00    -0.320 N 
HETATM   19  C   UNL     1      -2.248   7.309 -33.100  1.00  0.00     0.159 C 
HETATM   20  O   UNL     1      -4.349   6.200 -30.332  1.00  0.00    -0.271 OA
BRANCH  18  21
HETATM   21  C   UNL     1      -1.656   6.966 -30.713  1.00  0.00     0.043 A 
HETATM   22  C   UNL     1      -0.821   5.846 -30.513  1.00  0.00     0.037 A 
HETATM   23  C   UNL     1       0.218   5.847 -29.573  1.00  0.00    -0.060 A 
HETATM   24  C   UNL     1       1.086   4.638 -29.386  1.00  0.00     0.048 C 
HETATM   25  C   UNL     1       0.447   6.999 -28.826  1.00  0.00     0.007 A 
HETATM   26  C   UNL     1      -0.373   8.114 -28.993  1.00  0.00     0.009 A 
HETATM   27  C   UNL     1      -1.444   8.109 -29.910  1.00  0.00    -0.035 A 
HETATM   28  C   UNL     1      -2.329   9.325 -29.923  1.00  0.00     0.050 C 
ENDBRANCH  18  21
ENDBRANCH  16  17
ENDBRANCH   1  16
TORSDOF 3
ENDMDL
MODEL 7
REMARK VINA RESULT:      -8.7      2.913      8.136
REMARK  3 active torsions:
REMARK  status: ('A' for Active; 'I' for Inactive)
REMARK    1  A    between atoms: C_4  and  N_5 
REMARK       I    between atoms: N_5  and  C_6 
REMARK    2  A    between atoms: C_6  and  C_7 
REMARK    3  A    between atoms: C_7  and  N_8 
ROOT
HETATM    1  N   UNL     1      -4.125   1.290 -32.031  1.00  0.00    -0.224 N 
HETATM    2  N   UNL     1      -5.191   1.300 -32.950  1.00  0.00    -0.180 NA
HETATM    3  C   UNL     1      -5.522   0.192 -33.551  1.00  0.00     0.153 A 
HETATM    4  C   UNL     1      -4.807  -1.030 -33.305  1.00  0.00     0.028 A 
HETATM    5  C   UNL     1      -3.760  -1.013 -32.418  1.00  0.00     0.116 A 
HETATM    6  N   UNL     1      -3.242  -2.272 -32.335  1.00  0.00    -0.350 N 
HETATM    7  H   UNL     1      -2.468  -2.539 -31.741  1.00  0.00     0.166 HD
HETATM    8  C   UNL     1      -3.939  -3.114 -33.177  1.00  0.00     0.044 A 
HETATM    9  C   UNL     1      -4.935  -2.352 -33.802  1.00  0.00     0.005 A 
HETATM   10  C   UNL     1      -3.766  -4.481 -33.425  1.00  0.00     0.030 A 
HETATM   11  C   UNL     1      -4.631  -5.086 -34.341  1.00  0.00     0.002 A 
HETATM   12  C   UNL     1      -5.629  -4.355 -34.980  1.00  0.00     0.001 A 
HETATM   13  C   UNL     1      -5.793  -2.989 -34.720  1.00  0.00     0.014 A 
HETATM   14  C   UNL     1      -3.338   0.165 -31.724  1.00  0.00     0.291 A 
HETATM   15  O   UNL     1      -2.377   0.179 -30.959  1.00  0.00    -0.264 OA
ENDROOT
BRANCH   1  16
HETATM   16  C   UNL     1      -3.823   2.539 -31.347  1.00  0.00     0.258 C 
BRANCH  16  17
HETATM   17  C   UNL     1      -5.073   3.106 -30.653  1.00  0.00     0.244 C 
HETATM   18  N   UNL     1      -5.543   4.349 -31.129  1.00  0.00    -0.320 N 
HETATM   19  C   UNL     1      -4.996   4.982 -32.324  1.00  0.00     0.159 C 
HETATM   20  O   UNL     1      -5.640   2.469 -29.759  1.00  0.00    -0.271 OA
BRANCH  18  21
HETATM   21  C   UNL     1      -6.555   5.067 -30.392  1.00  0.00     0.043 A 
HETATM   22  C   UNL     1      -7.900   4.905 -30.784  1.00  0.00     0.037 A 
HETATM   23  C   UNL     1      -8.959   5.499 -30.084  1.00  0.00    -0.060 A 
HETATM   24  C   UNL     1     -10.378   5.307 -30.529  1.00  0.00     0.048 C 
HETATM   25  C   UNL     1      -8.673   6.259 -28.953  1.00  0.00     0.007 A 
HETATM   26  C   UNL     1      -7.351   6.447 -28.553  1.00  0.00     0.009 A 
HETATM   27  C   UNL     1      -6.278   5.882 -29.272  1.00  0.00    -0.035 A 
HETATM   28  C   UNL     1      -4.892   6.245 -28.815  1.00  0.00     0.050 C 
ENDBRANCH  18  21
ENDBRANCH  16  17
ENDBRANCH   1  16
TORSDOF 3
ENDMDL
MODEL 8
REMARK VINA RESULT:      -8.7      3.004      7.846
REMARK  3 active torsions:
REMARK  status: ('A' for Active; 'I' for Inactive)
REMARK    1  A    between atoms: C_4  and  N_5 
REMARK       I    between atoms: N_5  and  C_6 
REMARK    2  A    between atoms: C_6  and  C_7 
REMARK    3  A    between atoms: C_7  and  N_8 
ROOT
HETATM    1  N   UNL     1      -4.383   1.188 -32.343  1.00  0.00    -0.224 N 
HETATM    2  N   UNL     1      -5.447   1.142 -33.264  1.00  0.00    -0.180 NA
HETATM    3  C   UNL     1      -5.748   0.008 -33.832  1.00  0.00     0.153 A 
HETATM    4  C   UNL     1      -5.002  -1.187 -33.548  1.00  0.00     0.028 A 
HETATM    5  C   UNL     1      -3.958  -1.116 -32.660  1.00  0.00     0.116 A 
HETATM    6  N   UNL     1      -3.407  -2.358 -32.539  1.00  0.00    -0.350 N 
HETATM    7  H   UNL     1      -2.628  -2.587 -31.935  1.00  0.00     0.166 HD
HETATM    8  C   UNL     1      -4.080  -3.243 -33.356  1.00  0.00     0.044 A 
HETATM    9  C   UNL     1      -5.093  -2.526 -34.005  1.00  0.00     0.005 A 
HETATM   10  C   UNL     1      -3.869  -4.611 -33.564  1.00  0.00     0.030 A 
HETATM   11  C   UNL     1      -4.716  -5.266 -34.462  1.00  0.00     0.002 A 
HETATM   12  C   UNL     1      -5.731  -4.581 -35.125  1.00  0.00     0.001 A 
HETATM   13  C   UNL     1      -5.932  -3.213 -34.906  1.00  0.00     0.014 A 
HETATM   14  C   UNL     1      -3.568   0.093 -32.001  1.00  0.00     0.291 A 
HETATM   15  O   UNL     1      -2.610   0.155 -31.235  1.00  0.00    -0.264 OA
ENDROOT
BRANCH   1  16
HETATM   16  C   UNL     1      -4.116   2.464 -31.696  1.00  0.00     0.258 C 
BRANCH  16  17
HETATM   17  C   UNL     1      -5.403   3.295 -31.559  1.00  0.00     0.244 C 
HETATM   18  N   UNL     1      -6.305   2.891 -30.551  1.00  0.00    -0.320 N 
HETATM   19  C   UNL     1      -5.969   1.861 -29.573  1.00  0.00     0.159 C 
HETATM   20  O   UNL     1      -5.593   4.283 -32.275  1.00  0.00    -0.271 OA
BRANCH  18  21
HETATM   21  C   UNL     1      -7.632   3.454 -30.504  1.00  0.00     0.043 A 
HETATM   22  C   UNL     1      -7.801   4.699 -29.862  1.00  0.00     0.037 A 
HETATM   23  C   UNL     1      -9.035   5.362 -29.830  1.00  0.00    -0.060 A 
HETATM   24  C   UNL     1      -9.180   6.684 -29.138  1.00  0.00     0.048 C 
HETATM   25  C   UNL     1     -10.126   4.781 -30.471  1.00  0.00     0.007 A 
HETATM   26  C   UNL     1      -9.989   3.544 -31.099  1.00  0.00     0.009 A 
HETATM   27  C   UNL     1      -8.760   2.854 -31.105  1.00  0.00    -0.035 A 
HETATM   28  C   UNL     1      -8.760   1.478 -31.714  1.00  0.00     0.050 C 
ENDBRANCH  18  21
ENDBRANCH  16  17
ENDBRANCH   1  16
TORSDOF 3
ENDMDL
MODEL 9
REMARK VINA RESULT:      -8.6      2.657      4.679
REMARK  3 active torsions:
REMARK  status: ('A' for Active; 'I' for Inactive)
REMARK    1  A    between atoms: C_4  and  N_5 
REMARK       I    between atoms: N_5  and  C_6 
REMARK    2  A    between atoms: C_6  and  C_7 
REMARK    3  A    between atoms: C_7  and  N_8 
ROOT
HETATM    1  N   UNL     1      -2.408   5.825 -32.032  1.00  0.00    -0.224 N 
HETATM    2  N   UNL     1      -1.055   6.064 -32.336  1.00  0.00    -0.180 NA
HETATM    3  C   UNL     1      -0.279   6.575 -31.422  1.00  0.00     0.153 A 
HETATM    4  C   UNL     1      -0.786   6.914 -30.121  1.00  0.00     0.028 A 
HETATM    5  C   UNL     1      -2.112   6.688 -29.852  1.00  0.00     0.116 A 
HETATM    6  N   UNL     1      -2.365   7.071 -28.567  1.00  0.00    -0.350 N 
HETATM    7  H   UNL     1      -3.265   6.999 -28.110  1.00  0.00     0.166 HD
HETATM    8  C   UNL     1      -1.209   7.561 -27.996  1.00  0.00     0.044 A 
HETATM    9  C   UNL     1      -0.195   7.472 -28.959  1.00  0.00     0.005 A 
HETATM   10  C   UNL     1      -0.987   8.068 -26.710  1.00  0.00     0.030 A 
HETATM   11  C   UNL     1       0.305   8.500 -26.399  1.00  0.00     0.002 A 
HETATM   12  C   UNL     1       1.334   8.426 -27.335  1.00  0.00     0.001 A 
HETATM   13  C   UNL     1       1.099   7.915 -28.618  1.00  0.00     0.014 A 
HETATM   14  C   UNL     1      -3.024   6.134 -30.805  1.00  0.00     0.291 A 
HETATM   15  O   UNL     1      -4.217   5.968 -30.568  1.00  0.00    -0.264 OA
ENDROOT
BRANCH   1  16
HETATM   16  C   UNL     1      -3.225   5.207 -33.067  1.00  0.00     0.258 C 
BRANCH  16  17
HETATM   17  C   UNL     1      -3.549   3.745 -32.715  1.00  0.00     0.244 C 
HETATM   18  N   UNL     1      -4.894   3.346 -32.877  1.00  0.00    -0.320 N 
HETATM   19  C   UNL     1      -5.890   4.205 -33.509  1.00  0.00     0.159 C 
HETATM   20  O   UNL     1      -2.656   2.972 -32.354  1.00  0.00    -0.271 OA
BRANCH  18  21
HETATM   21  C   UNL     1      -5.336   2.077 -32.353  1.00  0.00     0.043 A 
HETATM   22  C   UNL     1      -5.454   0.994 -33.249  1.00  0.00     0.037 A 
HETATM   23  C   UNL     1      -5.803  -0.294 -32.823  1.00  0.00    -0.060 A 
HETATM   24  C   UNL     1      -5.920  -1.423 -33.803  1.00  0.00     0.048 C 
HETATM   25  C   UNL     1      -6.022  -0.516 -31.466  1.00  0.00     0.007 A 
HETATM   26  C   UNL     1      -5.927   0.540 -30.561  1.00  0.00     0.009 A 
HETATM   27  C   UNL     1      -5.611   1.847 -30.987  1.00  0.00    -0.035 A 
HETATM   28  C   UNL     1      -5.648   2.926 -29.940  1.00  0.00     0.050 C 
ENDBRANCH  18  21
ENDBRANCH  16  17
ENDBRANCH   1  16
TORSDOF 3
ENDMDL
MODEL 10
REMARK VINA RESULT:      -8.6      1.686      2.660
REMARK  3 active torsions:
REMARK  status: ('A' for Active; 'I' for Inactive)
REMARK    1  A    between atoms: C_4  and  N_5 
REMARK       I    between atoms: N_5  and  C_6 
REMARK    2  A    between atoms: C_6  and  C_7 
REMARK    3  A    between atoms: C_7  and  N_8 
ROOT
HETATM    1  N   UNL     1      -5.198   4.697 -32.279  1.00  0.00    -0.224 N 
HETATM    2  N   UNL     1      -4.200   4.592 -33.266  1.00  0.00    -0.180 NA
HETATM    3  C   UNL     1      -2.996   5.016 -33.001  1.00  0.00     0.153 A 
HETATM    4  C   UNL     1      -2.678   5.603 -31.729  1.00  0.00     0.028 A 
HETATM    5  C   UNL     1      -3.670   5.712 -30.787  1.00  0.00     0.116 A 
HETATM    6  N   UNL     1      -3.143   6.283 -29.666  1.00  0.00    -0.350 N 
HETATM    7  H   UNL     1      -3.659   6.466 -28.815  1.00  0.00     0.166 HD
HETATM    8  C   UNL     1      -1.809   6.563 -29.875  1.00  0.00     0.044 A 
HETATM    9  C   UNL     1      -1.490   6.142 -31.173  1.00  0.00     0.005 A 
HETATM   10  C   UNL     1      -0.869   7.149 -29.019  1.00  0.00     0.030 A 
HETATM   11  C   UNL     1       0.432   7.313 -29.502  1.00  0.00     0.002 A 
HETATM   12  C   UNL     1       0.779   6.906 -30.788  1.00  0.00     0.001 A 
HETATM   13  C   UNL     1      -0.170   6.319 -31.633  1.00  0.00     0.014 A 
HETATM   14  C   UNL     1      -5.013   5.271 -31.007  1.00  0.00     0.291 A 
HETATM   15  O   UNL     1      -5.904   5.405 -30.172  1.00  0.00    -0.264 OA
ENDROOT
BRANCH   1  16
HETATM   16  C   UNL     1      -6.514   4.165 -32.601  1.00  0.00     0.258 C 
BRANCH  16  17
HETATM   17  C   UNL     1      -6.401   2.849 -33.389  1.00  0.00     0.244 C 
HETATM   18  N   UNL     1      -6.712   1.667 -32.682  1.00  0.00    -0.320 N 
HETATM   19  C   UNL     1      -7.281   1.691 -31.339  1.00  0.00     0.159 C 
HETATM   20  O   UNL     1      -6.093   2.856 -34.586  1.00  0.00    -0.271 OA
BRANCH  18  21
HETATM   21  C   UNL     1      -6.408   0.381 -33.260  1.00  0.00     0.043 A 
HETATM   22  C   UNL     1      -5.237  -0.279 -32.832  1.00  0.00     0.037 A 
HETATM   23  C   UNL     1      -4.897  -1.562 -33.278  1.00  0.00    -0.060 A 
HETATM   24  C   UNL     1      -3.642  -2.234 -32.804  1.00  0.00     0.048 C 
HETATM   25  C   UNL     1      -5.755  -2.217 -34.158  1.00  0.00     0.007 A 
HETATM   26  C   UNL     1      -6.911  -1.582 -34.608  1.00  0.00     0.009 A 
HETATM   27  C   UNL     1      -7.242  -0.276 -34.192  1.00  0.00    -0.035 A 
HETATM   28  C   UNL     1      -8.452   0.351 -34.830  1.00  0.00     0.050 C 
ENDBRANCH  18  21
ENDBRANCH  16  17
ENDBRANCH   1  16
TORSDOF 3
ENDMDL
