MODEL 1
REMARK VINA RESULT:      -9.1      0.000      0.000
REMARK  6 active torsions:
REMARK  status: ('A' for Active; 'I' for Inactive)
REMARK    1  A    between atoms: O_2  and  C_3 
REMARK    2  A    between atoms: C_6  and  C_7 
REMARK    3  A    between atoms: C_7  and  N_8 
REMARK       I    between atoms: N_8  and  C_9 
REMARK    4  A    between atoms: C_9  and  C_10 
REMARK    5  A    between atoms: C_10  and  O_11 
REMARK    6  A    between atoms: N_12  and  C_13 
ROOT
HETATM    1  C   UNL     1      -8.320   1.713 -33.631  1.00  0.00     0.256 C 
HETATM    2  N   UNL     1      -9.493   1.883 -32.769  1.00  0.00    -0.254 N 
HETATM    3  C   UNL     1      -9.235   2.220 -31.436  1.00  0.00     0.330 C 
HETATM    4  O   UNL     1     -10.026   2.722 -30.639  1.00  0.00    -0.246 OA
HETATM    5  N   UNL     1      -8.003   1.834 -30.943  1.00  0.00    -0.308 N 
HETATM    6  C   UNL     1      -7.143   0.960 -31.608  1.00  0.00     0.048 A 
HETATM    7  C   UNL     1      -7.333   0.772 -32.975  1.00  0.00     0.035 A 
HETATM    8  C   UNL     1      -6.157   0.264 -30.912  1.00  0.00     0.031 A 
HETATM    9  C   UNL     1      -5.379  -0.676 -31.591  1.00  0.00     0.021 A 
HETATM   10  C   UNL     1      -5.592  -0.903 -32.952  1.00  0.00     0.011 A 
HETATM   11 BR   UNL     1      -4.548  -2.190 -33.861  1.00  0.00    -0.051 Br
HETATM   12  C   UNL     1      -6.559  -0.181 -33.651  1.00  0.00     0.034 A 
HETATM   13  H   UNL     1      -7.905   1.983 -29.946  1.00  0.00     0.170 HD
ENDROOT
BRANCH   1  14
HETATM   14  C   UNL     1      -7.655   3.145 -33.879  1.00  0.00     0.279 C 
HETATM   15  N   UNL     1      -6.280   3.155 -34.033  1.00  0.00    -0.352 N 
HETATM   16  H   UNL     1      -5.778   2.279 -34.098  1.00  0.00     0.162 HD
HETATM   17  O   UNL     1      -8.319   4.175 -34.015  1.00  0.00    -0.268 OA
BRANCH  15  18
HETATM   18  C   UNL     1      -5.542   4.372 -34.281  1.00  0.00     0.161 C 
BRANCH  18  19
HETATM   19  C   UNL     1      -4.297   4.436 -33.432  1.00  0.00    -0.040 A 
HETATM   20  C   UNL     1      -4.122   3.564 -32.350  1.00  0.00     0.011 A 
HETATM   21  C   UNL     1      -2.943   3.597 -31.601  1.00  0.00     0.037 A 
HETATM   22  C   UNL     1      -1.917   4.489 -31.920  1.00  0.00     0.068 A 
HETATM   23  C   UNL     1      -2.088   5.368 -32.988  1.00  0.00     0.037 A 
HETATM   24  C   UNL     1      -3.267   5.338 -33.742  1.00  0.00     0.011 A 
BRANCH  22  25
HETATM   25  O   UNL     1      -0.812   4.404 -31.118  1.00  0.00    -0.356 OA
HETATM   26  C   UNL     1       0.072   5.518 -31.126  1.00  0.00     0.210 C 
ENDBRANCH  22  25
ENDBRANCH  18  19
ENDBRANCH  15  18
ENDBRANCH   1  14
BRANCH   1  27
HETATM   27  O   UNL     1      -8.644   1.219 -34.933  1.00  0.00    -0.359 OA
HETATM   28  H   UNL     1      -9.608   1.072 -34.903  1.00  0.00     0.213 HD
ENDBRANCH   1  27
BRANCH   2  29
HETATM   29  C   UNL     1     -10.819   1.944 -33.293  1.00  0.00     0.042 A 
HETATM   30  C   UNL     1     -11.429   3.165 -33.605  1.00  0.00     0.030 A 
HETATM   31  C   UNL     1     -12.746   3.211 -34.072  1.00  0.00     0.002 A 
HETATM   32  C   UNL     1     -13.476   2.035 -34.224  1.00  0.00     0.000 A 
HETATM   33  C   UNL     1     -12.891   0.814 -33.904  1.00  0.00     0.002 A 
HETATM   34  C   UNL     1     -11.574   0.770 -33.438  1.00  0.00     0.030 A 
ENDBRANCH   2  29
TORSDOF 6
ENDMDL
MODEL 2
REMARK VINA RESULT:      -8.6      3.647      7.041
REMARK  6 active torsions:
REMARK  status: ('A' for Active; 'I' for Inactive)
REMARK    1  A    between atoms: O_2  and  C_3 
REMARK    2  A    between atoms: C_6  and  C_7 
REMARK    3  A    between atoms: C_7  and  N_8 
REMARK       I    between atoms: N_8  and  C_9 
REMARK    4  A    between atoms: C_9  and  C_10 
REMARK    5  A    between atoms: C_10  and  O_11 
REMARK    6  A    between atoms: N_12  and  C_13 
ROOT
HETATM    1  C   UNL     1      -3.952   4.396 -31.447  1.00  0.00     0.256 C 
HETATM    2  N   UNL     1      -5.084   4.680 -32.334  1.00  0.00    -0.254 N 
HETATM    3  C   UNL     1      -4.770   4.933 -33.674  1.00  0.00     0.330 C 
HETATM    4  O   UNL     1      -5.537   4.868 -34.633  1.00  0.00    -0.246 OA
HETATM    5  N   UNL     1      -3.500   5.421 -33.914  1.00  0.00    -0.308 N 
HETATM    6  C   UNL     1      -2.642   5.874 -32.912  1.00  0.00     0.048 A 
HETATM    7  C   UNL     1      -2.896   5.469 -31.603  1.00  0.00     0.035 A 
HETATM    8  C   UNL     1      -1.595   6.742 -33.209  1.00  0.00     0.031 A 
HETATM    9  C   UNL     1      -0.817   7.253 -32.167  1.00  0.00     0.021 A 
HETATM   10  C   UNL     1      -1.093   6.888 -30.849  1.00  0.00     0.011 A 
HETATM   11 BR   UNL     1      -0.048   7.598 -29.443  1.00  0.00    -0.051 Br
HETATM   12  C   UNL     1      -2.123   5.993 -30.559  1.00  0.00     0.034 A 
HETATM   13  H   UNL     1      -3.355   5.708 -34.874  1.00  0.00     0.170 HD
ENDROOT
BRANCH   1  14
HETATM   14  C   UNL     1      -3.358   2.960 -31.820  1.00  0.00     0.279 C 
HETATM   15  N   UNL     1      -3.831   1.897 -31.071  1.00  0.00    -0.352 N 
HETATM   16  H   UNL     1      -4.591   2.043 -30.419  1.00  0.00     0.162 HD
HETATM   17  O   UNL     1      -2.594   2.780 -32.771  1.00  0.00    -0.268 OA
BRANCH  15  18
HETATM   18  C   UNL     1      -3.398   0.538 -31.304  1.00  0.00     0.161 C 
BRANCH  18  19
HETATM   19  C   UNL     1      -4.367  -0.196 -32.196  1.00  0.00    -0.040 A 
HETATM   20  C   UNL     1      -3.907  -1.077 -33.183  1.00  0.00     0.011 A 
HETATM   21  C   UNL     1      -4.814  -1.791 -33.970  1.00  0.00     0.037 A 
HETATM   22  C   UNL     1      -6.191  -1.648 -33.784  1.00  0.00     0.068 A 
HETATM   23  C   UNL     1      -6.657  -0.765 -32.811  1.00  0.00     0.037 A 
HETATM   24  C   UNL     1      -5.752  -0.049 -32.020  1.00  0.00     0.011 A 
BRANCH  22  25
HETATM   25  O   UNL     1      -6.964  -2.418 -34.608  1.00  0.00    -0.356 OA
HETATM   26  C   UNL     1      -6.470  -3.714 -34.923  1.00  0.00     0.210 C 
ENDBRANCH  22  25
ENDBRANCH  18  19
ENDBRANCH  15  18
ENDBRANCH   1  14
BRANCH   1  27
HETATM   27  O   UNL     1      -4.325   4.302 -30.070  1.00  0.00    -0.359 OA
HETATM   28  H   UNL     1      -4.563   5.215 -29.821  1.00  0.00     0.213 HD
ENDBRANCH   1  27
BRANCH   2  29
HETATM   29  C   UNL     1      -6.437   4.477 -31.928  1.00  0.00     0.042 A 
HETATM   30  C   UNL     1      -7.054   3.224 -32.030  1.00  0.00     0.030 A 
HETATM   31  C   UNL     1      -8.395   3.052 -31.673  1.00  0.00     0.002 A 
HETATM   32  C   UNL     1      -9.142   4.136 -31.220  1.00  0.00     0.000 A 
HETATM   33  C   UNL     1      -8.551   5.392 -31.128  1.00  0.00     0.002 A 
HETATM   34  C   UNL     1      -7.210   5.561 -31.484  1.00  0.00     0.030 A 
ENDBRANCH   2  29
TORSDOF 6
ENDMDL
MODEL 3
REMARK VINA RESULT:      -8.4      3.231      5.149
REMARK  6 active torsions:
REMARK  status: ('A' for Active; 'I' for Inactive)
REMARK    1  A    between atoms: O_2  and  C_3 
REMARK    2  A    between atoms: C_6  and  C_7 
REMARK    3  A    between atoms: C_7  and  N_8 
REMARK       I    between atoms: N_8  and  C_9 
REMARK    4  A    between atoms: C_9  and  C_10 
REMARK    5  A    between atoms: C_10  and  O_11 
REMARK    6  A    between atoms: N_12  and  C_13 
ROOT
HETATM    1  C   UNL     1      -9.822   2.549 -32.887  1.00  0.00     0.256 C 
HETATM    2  N   UNL     1     -10.964   3.349 -33.338  1.00  0.00    -0.254 N 
HETATM    3  C   UNL     1     -10.724   4.217 -34.409  1.00  0.00     0.330 C 
HETATM    4  O   UNL     1     -11.568   4.721 -35.149  1.00  0.00    -0.246 OA
HETATM    5  N   UNL     1      -9.417   4.638 -34.564  1.00  0.00    -0.308 N 
HETATM    6  C   UNL     1      -8.421   4.436 -33.610  1.00  0.00     0.048 A 
HETATM    7  C   UNL     1      -8.627   3.448 -32.649  1.00  0.00     0.035 A 
HETATM    8  C   UNL     1      -7.278   5.232 -33.592  1.00  0.00     0.031 A 
HETATM    9  C   UNL     1      -6.348   5.067 -32.564  1.00  0.00     0.021 A 
HETATM   10  C   UNL     1      -6.569   4.110 -31.572  1.00  0.00     0.011 A 
HETATM   11 BR   UNL     1      -5.315   3.905 -30.173  1.00  0.00    -0.051 Br
HETATM   12  C   UNL     1      -7.699   3.293 -31.611  1.00  0.00     0.034 A 
HETATM   13  H   UNL     1      -9.308   5.358 -35.267  1.00  0.00     0.170 HD
ENDROOT
BRANCH   1  14
HETATM   14  C   UNL     1      -9.491   1.453 -34.003  1.00  0.00     0.279 C 
HETATM   15  N   UNL     1      -8.149   1.216 -34.239  1.00  0.00    -0.352 N 
HETATM   16  H   UNL     1      -7.453   1.641 -33.639  1.00  0.00     0.162 HD
HETATM   17  O   UNL     1     -10.365   0.788 -34.565  1.00  0.00    -0.268 OA
BRANCH  15  18
HETATM   18  C   UNL     1      -7.697   0.242 -35.206  1.00  0.00     0.161 C 
BRANCH  18  19
HETATM   19  C   UNL     1      -6.623  -0.642 -34.626  1.00  0.00    -0.040 A 
HETATM   20  C   UNL     1      -6.497  -1.977 -35.031  1.00  0.00     0.011 A 
HETATM   21  C   UNL     1      -5.466  -2.774 -34.525  1.00  0.00     0.037 A 
HETATM   22  C   UNL     1      -4.540  -2.256 -33.618  1.00  0.00     0.068 A 
HETATM   23  C   UNL     1      -4.665  -0.932 -33.201  1.00  0.00     0.037 A 
HETATM   24  C   UNL     1      -5.695  -0.130 -33.706  1.00  0.00     0.011 A 
BRANCH  22  25
HETATM   25  O   UNL     1      -3.574  -3.137 -33.218  1.00  0.00    -0.356 OA
HETATM   26  C   UNL     1      -3.728  -4.488 -33.636  1.00  0.00     0.210 C 
ENDBRANCH  22  25
ENDBRANCH  18  19
ENDBRANCH  15  18
ENDBRANCH   1  14
BRANCH   1  27
HETATM   27  O   UNL     1     -10.091   1.803 -31.697  1.00  0.00    -0.359 OA
HETATM   28  H   UNL     1      -9.592   2.271 -31.000  1.00  0.00     0.213 HD
ENDBRANCH   1  27
BRANCH   2  29
HETATM   29  C   UNL     1     -12.294   3.095 -32.888  1.00  0.00     0.042 A 
HETATM   30  C   UNL     1     -12.861   3.818 -31.832  1.00  0.00     0.030 A 
HETATM   31  C   UNL     1     -14.149   3.525 -31.371  1.00  0.00     0.002 A 
HETATM   32  C   UNL     1     -14.883   2.496 -31.955  1.00  0.00     0.000 A 
HETATM   33  C   UNL     1     -14.330   1.757 -32.996  1.00  0.00     0.002 A 
HETATM   34  C   UNL     1     -13.043   2.053 -33.455  1.00  0.00     0.030 A 
ENDBRANCH   2  29
TORSDOF 6
ENDMDL
MODEL 4
REMARK VINA RESULT:      -8.2      2.770      7.109
REMARK  6 active torsions:
REMARK  status: ('A' for Active; 'I' for Inactive)
REMARK    1  A    between atoms: O_2  and  C_3 
REMARK    2  A    between atoms: C_6  and  C_7 
REMARK    3  A    between atoms: C_7  and  N_8 
REMARK       I    between atoms: N_8  and  C_9 
REMARK    4  A    between atoms: C_9  and  C_10 
REMARK    5  A    between atoms: C_10  and  O_11 
REMARK    6  A    between atoms: N_12  and  C_13 
ROOT
HETATM    1  C   UNL     1      -5.931   3.630 -33.092  1.00  0.00     0.256 C 
HETATM    2  N   UNL     1      -6.037   2.403 -32.297  1.00  0.00    -0.254 N 
HETATM    3  C   UNL     1      -6.111   2.573 -30.910  1.00  0.00     0.330 C 
HETATM    4  O   UNL     1      -6.524   1.752 -30.091  1.00  0.00    -0.246 OA
HETATM    5  N   UNL     1      -5.549   3.732 -30.412  1.00  0.00    -0.308 N 
HETATM    6  C   UNL     1      -4.742   4.586 -31.164  1.00  0.00     0.048 A 
HETATM    7  C   UNL     1      -4.814   4.497 -32.553  1.00  0.00     0.035 A 
HETATM    8  C   UNL     1      -3.859   5.464 -30.542  1.00  0.00     0.031 A 
HETATM    9  C   UNL     1      -2.997   6.233 -31.325  1.00  0.00     0.021 A 
HETATM   10  C   UNL     1      -3.031   6.118 -32.716  1.00  0.00     0.011 A 
HETATM   11 BR   UNL     1      -1.848   7.148 -33.771  1.00  0.00    -0.051 Br
HETATM   12  C   UNL     1      -3.939   5.260 -33.336  1.00  0.00     0.034 A 
HETATM   13  H   UNL     1      -5.511   3.758 -29.401  1.00  0.00     0.170 HD
ENDROOT
BRANCH   1  14
HETATM   14  C   UNL     1      -7.328   4.403 -33.028  1.00  0.00     0.279 C 
HETATM   15  N   UNL     1      -8.215   4.135 -34.055  1.00  0.00    -0.352 N 
HETATM   16  H   UNL     1      -8.005   3.401 -34.720  1.00  0.00     0.162 HD
HETATM   17  O   UNL     1      -7.647   5.128 -32.083  1.00  0.00    -0.268 OA
BRANCH  15  18
HETATM   18  C   UNL     1      -9.523   4.746 -34.123  1.00  0.00     0.161 C 
BRANCH  18  19
HETATM   19  C   UNL     1     -10.590   3.718 -34.401  1.00  0.00    -0.040 A 
HETATM   20  C   UNL     1     -10.748   2.604 -33.567  1.00  0.00     0.011 A 
HETATM   21  C   UNL     1     -11.773   1.684 -33.805  1.00  0.00     0.037 A 
HETATM   22  C   UNL     1     -12.661   1.861 -34.867  1.00  0.00     0.068 A 
HETATM   23  C   UNL     1     -12.504   2.961 -35.709  1.00  0.00     0.037 A 
HETATM   24  C   UNL     1     -11.480   3.885 -35.474  1.00  0.00     0.011 A 
BRANCH  22  25
HETATM   25  O   UNL     1     -13.626   0.897 -34.974  1.00  0.00    -0.356 OA
HETATM   26  C   UNL     1     -13.823   0.060 -33.841  1.00  0.00     0.210 C 
ENDBRANCH  22  25
ENDBRANCH  18  19
ENDBRANCH  15  18
ENDBRANCH   1  14
BRANCH   1  27
HETATM   27  O   UNL     1      -5.702   3.382 -34.482  1.00  0.00    -0.359 OA
HETATM   28  H   UNL     1      -4.781   3.667 -34.630  1.00  0.00     0.213 HD
ENDBRANCH   1  27
BRANCH   2  29
HETATM   29  C   UNL     1      -6.293   1.131 -32.891  1.00  0.00     0.042 A 
HETATM   30  C   UNL     1      -5.254   0.257 -33.231  1.00  0.00     0.030 A 
HETATM   31  C   UNL     1      -5.518  -0.965 -33.857  1.00  0.00     0.002 A 
HETATM   32  C   UNL     1      -6.828  -1.325 -34.162  1.00  0.00     0.000 A 
HETATM   33  C   UNL     1      -7.873  -0.462 -33.846  1.00  0.00     0.002 A 
HETATM   34  C   UNL     1      -7.606   0.759 -33.220  1.00  0.00     0.030 A 
ENDBRANCH   2  29
TORSDOF 6
ENDMDL
MODEL 5
REMARK VINA RESULT:      -8.1      3.652      6.595
REMARK  6 active torsions:
REMARK  status: ('A' for Active; 'I' for Inactive)
REMARK    1  A    between atoms: O_2  and  C_3 
REMARK    2  A    between atoms: C_6  and  C_7 
REMARK    3  A    between atoms: C_7  and  N_8 
REMARK       I    between atoms: N_8  and  C_9 
REMARK    4  A    between atoms: C_9  and  C_10 
REMARK    5  A    between atoms: C_10  and  O_11 
REMARK    6  A    between atoms: N_12  and  C_13 
ROOT
HETATM    1  C   UNL     1      -3.978   3.007 -31.878  1.00  0.00     0.256 C 
HETATM    2  N   UNL     1      -4.131   3.980 -32.963  1.00  0.00    -0.254 N 
HETATM    3  C   UNL     1      -5.345   3.941 -33.660  1.00  0.00     0.330 C 
HETATM    4  O   UNL     1      -5.819   4.835 -34.358  1.00  0.00    -0.246 OA
HETATM    5  N   UNL     1      -6.006   2.728 -33.653  1.00  0.00    -0.308 N 
HETATM    6  C   UNL     1      -5.434   1.537 -33.207  1.00  0.00     0.048 A 
HETATM    7  C   UNL     1      -4.315   1.620 -32.381  1.00  0.00     0.035 A 
HETATM    8  C   UNL     1      -5.940   0.306 -33.616  1.00  0.00     0.031 A 
HETATM    9  C   UNL     1      -5.282  -0.864 -33.230  1.00  0.00     0.021 A 
HETATM   10  C   UNL     1      -4.135  -0.789 -32.438  1.00  0.00     0.011 A 
HETATM   11 BR   UNL     1      -3.239  -2.375 -31.934  1.00  0.00    -0.051 Br
HETATM   12  C   UNL     1      -3.650   0.445 -32.005  1.00  0.00     0.034 A 
HETATM   13  H   UNL     1      -6.810   2.705 -34.268  1.00  0.00     0.170 HD
ENDROOT
BRANCH   1  14
HETATM   14  C   UNL     1      -4.948   3.424 -30.677  1.00  0.00     0.279 C 
HETATM   15  N   UNL     1      -4.675   4.638 -30.074  1.00  0.00    -0.352 N 
HETATM   16  H   UNL     1      -3.974   5.249 -30.474  1.00  0.00     0.162 HD
HETATM   17  O   UNL     1      -5.934   2.759 -30.355  1.00  0.00    -0.268 OA
BRANCH  15  18
HETATM   18  C   UNL     1      -5.475   5.155 -28.987  1.00  0.00     0.161 C 
BRANCH  18  19
HETATM   19  C   UNL     1      -4.770   6.286 -28.282  1.00  0.00    -0.040 A 
HETATM   20  C   UNL     1      -3.876   7.115 -28.972  1.00  0.00     0.011 A 
HETATM   21  C   UNL     1      -3.266   8.191 -28.322  1.00  0.00     0.037 A 
HETATM   22  C   UNL     1      -3.541   8.466 -26.981  1.00  0.00     0.068 A 
HETATM   23  C   UNL     1      -4.421   7.640 -26.284  1.00  0.00     0.037 A 
HETATM   24  C   UNL     1      -5.035   6.561 -26.932  1.00  0.00     0.011 A 
BRANCH  22  25
HETATM   25  O   UNL     1      -2.892   9.558 -26.474  1.00  0.00    -0.356 OA
HETATM   26  C   UNL     1      -1.927  10.176 -27.317  1.00  0.00     0.210 C 
ENDBRANCH  22  25
ENDBRANCH  18  19
ENDBRANCH  15  18
ENDBRANCH   1  14
BRANCH   1  27
HETATM   27  O   UNL     1      -2.665   2.995 -31.313  1.00  0.00    -0.359 OA
HETATM   28  H   UNL     1      -2.091   2.691 -32.042  1.00  0.00     0.213 HD
ENDBRANCH   1  27
BRANCH   2  29
HETATM   29  C   UNL     1      -3.216   5.058 -33.152  1.00  0.00     0.042 A 
HETATM   30  C   UNL     1      -3.372   6.278 -32.482  1.00  0.00     0.030 A 
HETATM   31  C   UNL     1      -2.495   7.342 -32.714  1.00  0.00     0.002 A 
HETATM   32  C   UNL     1      -1.455   7.204 -33.630  1.00  0.00     0.000 A 
HETATM   33  C   UNL     1      -1.294   6.004 -34.316  1.00  0.00     0.002 A 
HETATM   34  C   UNL     1      -2.172   4.942 -34.082  1.00  0.00     0.030 A 
ENDBRANCH   2  29
TORSDOF 6
ENDMDL
MODEL 6
REMARK VINA RESULT:      -7.9      3.655      7.306
REMARK  6 active torsions:
REMARK  status: ('A' for Active; 'I' for Inactive)
REMARK    1  A    between atoms: O_2  and  C_3 
REMARK    2  A    between atoms: C_6  and  C_7 
REMARK    3  A    between atoms: C_7  and  N_8 
REMARK       I    between atoms: N_8  and  C_9 
REMARK    4  A    between atoms: C_9  and  C_10 
REMARK    5  A    between atoms: C_10  and  O_11 
REMARK    6  A    between atoms: N_12  and  C_13 
ROOT
HETATM    1  C   UNL     1      -5.480   4.905 -32.752  1.00  0.00     0.256 C 
HETATM    2  N   UNL     1      -4.095   4.688 -32.322  1.00  0.00    -0.254 N 
HETATM    3  C   UNL     1      -3.870   3.568 -31.513  1.00  0.00     0.330 C 
HETATM    4  O   UNL     1      -2.790   3.013 -31.313  1.00  0.00    -0.246 OA
HETATM    5  N   UNL     1      -4.952   3.128 -30.776  1.00  0.00    -0.308 N 
HETATM    6  C   UNL     1      -6.134   3.852 -30.628  1.00  0.00     0.048 A 
HETATM    7  C   UNL     1      -6.402   4.859 -31.553  1.00  0.00     0.035 A 
HETATM    8  C   UNL     1      -6.993   3.605 -29.560  1.00  0.00     0.031 A 
HETATM    9  C   UNL     1      -8.117   4.415 -29.388  1.00  0.00     0.021 A 
HETATM   10  C   UNL     1      -8.370   5.455 -30.284  1.00  0.00     0.011 A 
HETATM   11 BR   UNL     1      -9.883   6.559 -30.034  1.00  0.00    -0.051 Br
HETATM   12  C   UNL     1      -7.524   5.678 -31.370  1.00  0.00     0.034 A 
HETATM   13  H   UNL     1      -4.717   2.399 -30.114  1.00  0.00     0.170 HD
ENDROOT
BRANCH   1  14
HETATM   14  C   UNL     1      -5.871   3.772 -33.810  1.00  0.00     0.279 C 
HETATM   15  N   UNL     1      -6.765   2.814 -33.366  1.00  0.00    -0.352 N 
HETATM   16  H   UNL     1      -7.212   2.925 -32.465  1.00  0.00     0.162 HD
HETATM   17  O   UNL     1      -5.479   3.787 -34.979  1.00  0.00    -0.268 OA
BRANCH  15  18
HETATM   18  C   UNL     1      -7.224   1.739 -34.215  1.00  0.00     0.161 C 
BRANCH  18  19
HETATM   19  C   UNL     1      -6.379   0.503 -34.034  1.00  0.00    -0.040 A 
HETATM   20  C   UNL     1      -5.375   0.458 -33.059  1.00  0.00     0.011 A 
HETATM   21  C   UNL     1      -4.631  -0.709 -32.865  1.00  0.00     0.037 A 
HETATM   22  C   UNL     1      -4.880  -1.851 -33.629  1.00  0.00     0.068 A 
HETATM   23  C   UNL     1      -5.871  -1.811 -34.609  1.00  0.00     0.037 A 
HETATM   24  C   UNL     1      -6.618  -0.645 -34.806  1.00  0.00     0.011 A 
BRANCH  22  25
HETATM   25  O   UNL     1      -4.094  -2.928 -33.324  1.00  0.00    -0.356 OA
HETATM   26  C   UNL     1      -3.267  -2.811 -32.172  1.00  0.00     0.210 C 
ENDBRANCH  22  25
ENDBRANCH  18  19
ENDBRANCH  15  18
ENDBRANCH   1  14
BRANCH   1  27
HETATM   27  O   UNL     1      -5.668   6.144 -33.441  1.00  0.00    -0.359 OA
HETATM   28  H   UNL     1      -4.815   6.304 -33.888  1.00  0.00     0.213 HD
ENDBRANCH   1  27
BRANCH   2  29
HETATM   29  C   UNL     1      -3.003   5.417 -32.879  1.00  0.00     0.042 A 
HETATM   30  C   UNL     1      -2.389   5.020 -34.073  1.00  0.00     0.030 A 
HETATM   31  C   UNL     1      -1.288   5.718 -34.581  1.00  0.00     0.002 A 
HETATM   32  C   UNL     1      -0.779   6.817 -33.894  1.00  0.00     0.000 A 
HETATM   33  C   UNL     1      -1.367   7.216 -32.698  1.00  0.00     0.002 A 
HETATM   34  C   UNL     1      -2.468   6.518 -32.193  1.00  0.00     0.030 A 
ENDBRANCH   2  29
TORSDOF 6
ENDMDL
MODEL 7
REMARK VINA RESULT:      -7.9      2.123      7.323
REMARK  6 active torsions:
REMARK  status: ('A' for Active; 'I' for Inactive)
REMARK    1  A    between atoms: O_2  and  C_3 
REMARK    2  A    between atoms: C_6  and  C_7 
REMARK    3  A    between atoms: C_7  and  N_8 
REMARK       I    between atoms: N_8  and  C_9 
REMARK    4  A    between atoms: C_9  and  C_10 
REMARK    5  A    between atoms: C_10  and  O_11 
REMARK    6  A    between atoms: N_12  and  C_13 
ROOT
HETATM    1  C   UNL     1      -4.090   2.998 -31.950  1.00  0.00     0.256 C 
HETATM    2  N   UNL     1      -4.134   3.968 -33.047  1.00  0.00    -0.254 N 
HETATM    3  C   UNL     1      -5.267   3.921 -33.867  1.00  0.00     0.330 C 
HETATM    4  O   UNL     1      -5.671   4.812 -34.612  1.00  0.00    -0.246 OA
HETATM    5  N   UNL     1      -5.918   2.704 -33.928  1.00  0.00    -0.308 N 
HETATM    6  C   UNL     1      -5.388   1.517 -33.423  1.00  0.00     0.048 A 
HETATM    7  C   UNL     1      -4.363   1.608 -32.484  1.00  0.00     0.035 A 
HETATM    8  C   UNL     1      -5.840   0.282 -33.881  1.00  0.00     0.031 A 
HETATM    9  C   UNL     1      -5.220  -0.883 -33.426  1.00  0.00     0.021 A 
HETATM   10  C   UNL     1      -4.163  -0.800 -32.519  1.00  0.00     0.011 A 
HETATM   11 BR   UNL     1      -3.315  -2.380 -31.921  1.00  0.00    -0.051 Br
HETATM   12  C   UNL     1      -3.734   0.437 -32.039  1.00  0.00     0.034 A 
HETATM   13  H   UNL     1      -6.653   2.676 -34.624  1.00  0.00     0.170 HD
ENDROOT
BRANCH   1  14
HETATM   14  C   UNL     1      -5.182   3.409 -30.859  1.00  0.00     0.279 C 
HETATM   15  N   UNL     1      -6.285   2.579 -30.765  1.00  0.00    -0.352 N 
HETATM   16  H   UNL     1      -6.305   1.712 -31.288  1.00  0.00     0.162 HD
HETATM   17  O   UNL     1      -5.025   4.351 -30.080  1.00  0.00    -0.268 OA
BRANCH  15  18
HETATM   18  C   UNL     1      -7.347   2.814 -29.813  1.00  0.00     0.161 C 
BRANCH  18  19
HETATM   19  C   UNL     1      -8.656   3.080 -30.512  1.00  0.00    -0.040 A 
HETATM   20  C   UNL     1      -9.501   4.112 -30.084  1.00  0.00     0.011 A 
HETATM   21  C   UNL     1     -10.688   4.383 -30.770  1.00  0.00     0.037 A 
HETATM   22  C   UNL     1     -11.049   3.641 -31.896  1.00  0.00     0.068 A 
HETATM   23  C   UNL     1     -10.220   2.604 -32.322  1.00  0.00     0.037 A 
HETATM   24  C   UNL     1      -9.030   2.330 -31.638  1.00  0.00     0.011 A 
BRANCH  22  25
HETATM   25  O   UNL     1     -12.225   4.022 -32.481  1.00  0.00    -0.356 OA
HETATM   26  C   UNL     1     -12.986   3.001 -33.114  1.00  0.00     0.210 C 
ENDBRANCH  22  25
ENDBRANCH  18  19
ENDBRANCH  15  18
ENDBRANCH   1  14
BRANCH   1  27
HETATM   27  O   UNL     1      -2.842   2.994 -31.251  1.00  0.00    -0.359 OA
HETATM   28  H   UNL     1      -2.837   2.145 -30.770  1.00  0.00     0.213 HD
ENDBRANCH   1  27
BRANCH   2  29
HETATM   29  C   UNL     1      -3.211   5.053 -33.140  1.00  0.00     0.042 A 
HETATM   30  C   UNL     1      -3.407   6.245 -32.433  1.00  0.00     0.030 A 
HETATM   31  C   UNL     1      -2.519   7.316 -32.572  1.00  0.00     0.002 A 
HETATM   32  C   UNL     1      -1.428   7.214 -33.431  1.00  0.00     0.000 A 
HETATM   33  C   UNL     1      -1.226   6.042 -34.154  1.00  0.00     0.002 A 
HETATM   34  C   UNL     1      -2.115   4.972 -34.012  1.00  0.00     0.030 A 
ENDBRANCH   2  29
TORSDOF 6
ENDMDL
MODEL 8
REMARK VINA RESULT:      -7.8      2.534      5.262
REMARK  6 active torsions:
REMARK  status: ('A' for Active; 'I' for Inactive)
REMARK    1  A    between atoms: O_2  and  C_3 
REMARK    2  A    between atoms: C_6  and  C_7 
REMARK    3  A    between atoms: C_7  and  N_8 
REMARK       I    between atoms: N_8  and  C_9 
REMARK    4  A    between atoms: C_9  and  C_10 
REMARK    5  A    between atoms: C_10  and  O_11 
REMARK    6  A    between atoms: N_12  and  C_13 
ROOT
HETATM    1  C   UNL     1      -7.302   2.929 -32.689  1.00  0.00     0.256 C 
HETATM    2  N   UNL     1      -6.784   1.649 -33.179  1.00  0.00    -0.254 N 
HETATM    3  C   UNL     1      -7.242   1.238 -34.436  1.00  0.00     0.330 C 
HETATM    4  O   UNL     1      -6.717   0.404 -35.172  1.00  0.00    -0.246 OA
HETATM    5  N   UNL     1      -8.471   1.737 -34.823  1.00  0.00    -0.308 N 
HETATM    6  C   UNL     1      -9.340   2.407 -33.963  1.00  0.00     0.048 A 
HETATM    7  C   UNL     1      -8.812   2.944 -32.790  1.00  0.00     0.035 A 
HETATM    8  C   UNL     1     -10.700   2.493 -34.248  1.00  0.00     0.031 A 
HETATM    9  C   UNL     1     -11.556   3.086 -33.317  1.00  0.00     0.021 A 
HETATM   10  C   UNL     1     -11.043   3.586 -32.120  1.00  0.00     0.011 A 
HETATM   11 BR   UNL     1     -12.209   4.370 -30.856  1.00  0.00    -0.051 Br
HETATM   12  C   UNL     1      -9.675   3.526 -31.852  1.00  0.00     0.034 A 
HETATM   13  H   UNL     1      -8.822   1.320 -35.677  1.00  0.00     0.170 HD
ENDROOT
BRANCH   1  14
HETATM   14  C   UNL     1      -6.666   4.107 -33.563  1.00  0.00     0.279 C 
HETATM   15  N   UNL     1      -5.286   4.194 -33.546  1.00  0.00    -0.352 N 
HETATM   16  H   UNL     1      -4.744   3.468 -33.094  1.00  0.00     0.162 HD
HETATM   17  O   UNL     1      -7.343   4.844 -34.283  1.00  0.00    -0.268 OA
BRANCH  15  18
HETATM   18  C   UNL     1      -4.568   5.196 -34.301  1.00  0.00     0.161 C 
BRANCH  18  19
HETATM   19  C   UNL     1      -3.266   5.554 -33.630  1.00  0.00    -0.040 A 
HETATM   20  C   UNL     1      -2.468   6.594 -34.122  1.00  0.00     0.011 A 
HETATM   21  C   UNL     1      -1.289   6.951 -33.464  1.00  0.00     0.037 A 
HETATM   22  C   UNL     1      -0.889   6.288 -32.302  1.00  0.00     0.068 A 
HETATM   23  C   UNL     1      -1.672   5.244 -31.811  1.00  0.00     0.037 A 
HETATM   24  C   UNL     1      -2.854   4.884 -32.468  1.00  0.00     0.011 A 
BRANCH  22  25
HETATM   25  O   UNL     1       0.274   6.750 -31.749  1.00  0.00    -0.356 OA
HETATM   26  C   UNL     1       0.315   6.843 -30.330  1.00  0.00     0.210 C 
ENDBRANCH  22  25
ENDBRANCH  18  19
ENDBRANCH  15  18
ENDBRANCH   1  14
BRANCH   1  27
HETATM   27  O   UNL     1      -6.920   3.213 -31.341  1.00  0.00    -0.359 OA
HETATM   28  H   UNL     1      -7.705   2.977 -30.812  1.00  0.00     0.213 HD
ENDBRANCH   1  27
BRANCH   2  29
HETATM   29  C   UNL     1      -5.701   0.974 -32.541  1.00  0.00     0.042 A 
HETATM   30  C   UNL     1      -4.388   1.453 -32.622  1.00  0.00     0.030 A 
HETATM   31  C   UNL     1      -3.330   0.754 -32.032  1.00  0.00     0.002 A 
HETATM   32  C   UNL     1      -3.571  -0.443 -31.362  1.00  0.00     0.000 A 
HETATM   33  C   UNL     1      -4.867  -0.943 -31.285  1.00  0.00     0.002 A 
HETATM   34  C   UNL     1      -5.922  -0.241 -31.875  1.00  0.00     0.030 A 
ENDBRANCH   2  29
TORSDOF 6
ENDMDL
MODEL 9
REMARK VINA RESULT:      -7.8      2.629      5.302
REMARK  6 active torsions:
REMARK  status: ('A' for Active; 'I' for Inactive)
REMARK    1  A    between atoms: O_2  and  C_3 
REMARK    2  A    between atoms: C_6  and  C_7 
REMARK    3  A    between atoms: C_7  and  N_8 
REMARK       I    between atoms: N_8  and  C_9 
REMARK    4  A    between atoms: C_9  and  C_10 
REMARK    5  A    between atoms: C_10  and  O_11 
REMARK    6  A    between atoms: N_12  and  C_13 
ROOT
HETATM    1  C   UNL     1      -9.078   0.900 -32.759  1.00  0.00     0.256 C 
HETATM    2  N   UNL     1      -7.863   0.962 -33.577  1.00  0.00    -0.254 N 
HETATM    3  C   UNL     1      -7.583   2.197 -34.171  1.00  0.00     0.330 C 
HETATM    4  O   UNL     1      -6.495   2.572 -34.608  1.00  0.00    -0.246 OA
HETATM    5  N   UNL     1      -8.670   3.020 -34.395  1.00  0.00    -0.308 N 
HETATM    6  C   UNL     1      -9.994   2.602 -34.279  1.00  0.00     0.048 A 
HETATM    7  C   UNL     1     -10.252   1.448 -33.541  1.00  0.00     0.035 A 
HETATM    8  C   UNL     1     -11.019   3.291 -34.922  1.00  0.00     0.031 A 
HETATM    9  C   UNL     1     -12.320   2.788 -34.865  1.00  0.00     0.021 A 
HETATM   10  C   UNL     1     -12.580   1.609 -34.165  1.00  0.00     0.011 A 
HETATM   11 BR   UNL     1     -14.341   0.923 -34.107  1.00  0.00    -0.051 Br
HETATM   12  C   UNL     1     -11.556   0.939 -33.496  1.00  0.00     0.034 A 
HETATM   13  H   UNL     1      -8.443   3.845 -34.938  1.00  0.00     0.170 HD
ENDROOT
BRANCH   1  14
HETATM   14  C   UNL     1      -8.841   1.750 -31.426  1.00  0.00     0.279 C 
HETATM   15  N   UNL     1      -7.535   1.811 -30.972  1.00  0.00    -0.352 N 
HETATM   16  H   UNL     1      -6.790   1.429 -31.540  1.00  0.00     0.162 HD
HETATM   17  O   UNL     1      -9.738   2.391 -30.874  1.00  0.00    -0.268 OA
BRANCH  15  18
HETATM   18  C   UNL     1      -7.165   2.555 -29.790  1.00  0.00     0.161 C 
BRANCH  18  19
HETATM   19  C   UNL     1      -6.071   3.548 -30.093  1.00  0.00    -0.040 A 
HETATM   20  C   UNL     1      -5.106   3.276 -31.071  1.00  0.00     0.011 A 
HETATM   21  C   UNL     1      -4.127   4.223 -31.379  1.00  0.00     0.037 A 
HETATM   22  C   UNL     1      -4.096   5.458 -30.729  1.00  0.00     0.068 A 
HETATM   23  C   UNL     1      -5.046   5.733 -29.747  1.00  0.00     0.037 A 
HETATM   24  C   UNL     1      -6.029   4.787 -29.435  1.00  0.00     0.011 A 
BRANCH  22  25
HETATM   25  O   UNL     1      -3.097   6.298 -31.140  1.00  0.00    -0.356 OA
HETATM   26  C   UNL     1      -1.799   6.053 -30.613  1.00  0.00     0.210 C 
ENDBRANCH  22  25
ENDBRANCH  18  19
ENDBRANCH  15  18
ENDBRANCH   1  14
BRANCH   1  27
HETATM   27  O   UNL     1      -9.389  -0.422 -32.311  1.00  0.00    -0.359 OA
HETATM   28  H   UNL     1      -8.588  -0.941 -32.514  1.00  0.00     0.213 HD
ENDBRANCH   1  27
BRANCH   2  29
HETATM   29  C   UNL     1      -6.894  -0.086 -33.579  1.00  0.00     0.042 A 
HETATM   30  C   UNL     1      -5.849  -0.121 -32.648  1.00  0.00     0.030 A 
HETATM   31  C   UNL     1      -4.880  -1.127 -32.694  1.00  0.00     0.002 A 
HETATM   32  C   UNL     1      -4.937  -2.108 -33.681  1.00  0.00     0.000 A 
HETATM   33  C   UNL     1      -5.960  -2.080 -34.624  1.00  0.00     0.002 A 
HETATM   34  C   UNL     1      -6.928  -1.074 -34.575  1.00  0.00     0.030 A 
ENDBRANCH   2  29
TORSDOF 6
ENDMDL
MODEL 10
REMARK VINA RESULT:      -7.8      3.601      6.866
REMARK  6 active torsions:
REMARK  status: ('A' for Active; 'I' for Inactive)
REMARK    1  A    between atoms: O_2  and  C_3 
REMARK    2  A    between atoms: C_6  and  C_7 
REMARK    3  A    between atoms: C_7  and  N_8 
REMARK       I    between atoms: N_8  and  C_9 
REMARK    4  A    between atoms: C_9  and  C_10 
REMARK    5  A    between atoms: C_10  and  O_11 
REMARK    6  A    between atoms: N_12  and  C_13 
ROOT
HETATM    1  C   UNL     1      -4.012   2.994 -31.834  1.00  0.00     0.256 C 
HETATM    2  N   UNL     1      -4.163   3.983 -32.906  1.00  0.00    -0.254 N 
HETATM    3  C   UNL     1      -5.366   3.941 -33.619  1.00  0.00     0.330 C 
HETATM    4  O   UNL     1      -5.842   4.841 -34.309  1.00  0.00    -0.246 OA
HETATM    5  N   UNL     1      -6.012   2.720 -33.641  1.00  0.00    -0.308 N 
HETATM    6  C   UNL     1      -5.432   1.529 -33.207  1.00  0.00     0.048 A 
HETATM    7  C   UNL     1      -4.326   1.611 -32.364  1.00  0.00     0.035 A 
HETATM    8  C   UNL     1      -5.918   0.299 -33.642  1.00  0.00     0.031 A 
HETATM    9  C   UNL     1      -5.251  -0.870 -33.266  1.00  0.00     0.021 A 
HETATM   10  C   UNL     1      -4.116  -0.793 -32.458  1.00  0.00     0.011 A 
HETATM   11 BR   UNL     1      -3.208  -2.377 -31.968  1.00  0.00    -0.051 Br
HETATM   12  C   UNL     1      -3.651   0.439 -31.998  1.00  0.00     0.034 A 
HETATM   13  H   UNL     1      -6.808   2.698 -34.267  1.00  0.00     0.170 HD
ENDROOT
BRANCH   1  14
HETATM   14  C   UNL     1      -5.002   3.380 -30.640  1.00  0.00     0.279 C 
HETATM   15  N   UNL     1      -4.756   4.591 -30.018  1.00  0.00    -0.352 N 
HETATM   16  H   UNL     1      -4.060   5.218 -30.402  1.00  0.00     0.162 HD
HETATM   17  O   UNL     1      -5.982   2.695 -30.338  1.00  0.00    -0.268 OA
BRANCH  15  18
HETATM   18  C   UNL     1      -5.577   5.081 -28.935  1.00  0.00     0.161 C 
BRANCH  18  19
HETATM   19  C   UNL     1      -6.757   5.862 -29.456  1.00  0.00    -0.040 A 
HETATM   20  C   UNL     1      -7.967   5.890 -28.751  1.00  0.00     0.011 A 
HETATM   21  C   UNL     1      -9.038   6.658 -29.216  1.00  0.00     0.037 A 
HETATM   22  C   UNL     1      -8.920   7.417 -30.382  1.00  0.00     0.068 A 
HETATM   23  C   UNL     1      -7.724   7.386 -31.096  1.00  0.00     0.037 A 
HETATM   24  C   UNL     1      -6.649   6.619 -30.633  1.00  0.00     0.011 A 
BRANCH  22  25
HETATM   25  O   UNL     1     -10.036   8.135 -30.714  1.00  0.00    -0.356 OA
HETATM   26  C   UNL     1      -9.876   9.543 -30.843  1.00  0.00     0.210 C 
ENDBRANCH  22  25
ENDBRANCH  18  19
ENDBRANCH  15  18
ENDBRANCH   1  14
BRANCH   1  27
HETATM   27  O   UNL     1      -2.706   2.988 -31.252  1.00  0.00    -0.359 OA
HETATM   28  H   UNL     1      -2.778   3.593 -30.490  1.00  0.00     0.213 HD
ENDBRANCH   1  27
BRANCH   2  29
HETATM   29  C   UNL     1      -3.258   5.075 -33.065  1.00  0.00     0.042 A 
HETATM   30  C   UNL     1      -3.431   6.278 -32.369  1.00  0.00     0.030 A 
HETATM   31  C   UNL     1      -2.564   7.356 -32.572  1.00  0.00     0.002 A 
HETATM   32  C   UNL     1      -1.517   7.249 -33.484  1.00  0.00     0.000 A 
HETATM   33  C   UNL     1      -1.340   6.067 -34.196  1.00  0.00     0.002 A 
HETATM   34  C   UNL     1      -2.207   4.991 -33.991  1.00  0.00     0.030 A 
ENDBRANCH   2  29
TORSDOF 6
ENDMDL
