MODEL 1
REMARK VINA RESULT:      -7.5      0.000      0.000
REMARK  3 active torsions:
REMARK  status: ('A' for Active; 'I' for Inactive)
REMARK    1  A    between atoms: C_2  and  C_3 
REMARK    2  A    between atoms: C_4  and  N_5 
REMARK    3  A    between atoms: C_18  and  C_19 
ROOT
HETATM    1  N   UNL     1      -6.347   1.074 -32.134  1.00  0.00    -0.320 N 
HETATM    2  C   UNL     1      -6.303   1.063 -30.701  1.00  0.00     0.141 C 
HETATM    3  N   UNL     1      -6.397  -0.034 -30.005  1.00  0.00    -0.380 N 
HETATM    4  H   UNL     1      -6.508  -0.913 -30.491  1.00  0.00     0.158 HD
HETATM    5  H   UNL     1      -6.360   0.007 -28.997  1.00  0.00     0.158 HD
HETATM    6  S   UNL     1      -6.111   2.638 -30.012  1.00  0.00    -0.086 SA
HETATM    7  C   UNL     1      -6.459   3.398 -31.632  1.00  0.00     0.093 C 
HETATM    8  C   UNL     1      -5.887   2.377 -32.640  1.00  0.00     0.121 C 
HETATM    9  C   UNL     1      -5.869   4.724 -32.044  1.00  0.00     0.158 C 
HETATM   10  S   UNL     1      -6.039   4.647 -33.840  1.00  0.00     0.147 S 
HETATM   11  O   UNL     1      -7.234   5.368 -34.221  1.00  0.00    -0.228 OA
HETATM   12  O   UNL     1      -4.744   4.910 -34.428  1.00  0.00    -0.228 OA
HETATM   13  C   UNL     1      -6.376   2.882 -33.976  1.00  0.00     0.167 C 
ENDROOT
BRANCH   1  14
HETATM   14  C   UNL     1      -6.127  -0.049 -32.954  1.00  0.00     0.049 A 
HETATM   15  C   UNL     1      -7.250  -0.736 -33.484  1.00  0.00    -0.031 A 
HETATM   16  C   UNL     1      -7.058  -1.918 -34.222  1.00  0.00     0.009 A 
HETATM   17  C   UNL     1      -5.783  -2.417 -34.453  1.00  0.00     0.001 A 
HETATM   18  C   UNL     1      -4.679  -1.744 -33.944  1.00  0.00     0.009 A 
HETATM   19  C   UNL     1      -4.827  -0.563 -33.192  1.00  0.00    -0.031 A 
BRANCH  15  20
HETATM   20  C   UNL     1      -8.678  -0.272 -33.261  1.00  0.00     0.036 C 
HETATM   21  C   UNL     1      -9.167   0.687 -34.340  1.00  0.00     0.010 C 
ENDBRANCH  15  20
BRANCH  19  22
HETATM   22  C   UNL     1      -3.553   0.082 -32.687  1.00  0.00     0.036 C 
HETATM   23  C   UNL     1      -2.929  -0.696 -31.535  1.00  0.00     0.010 C 
ENDBRANCH  19  22
ENDBRANCH   1  14
TORSDOF 3
ENDMDL
MODEL 2
REMARK VINA RESULT:      -7.4      0.376      2.910
REMARK  3 active torsions:
REMARK  status: ('A' for Active; 'I' for Inactive)
REMARK    1  A    between atoms: C_2  and  C_3 
REMARK    2  A    between atoms: C_4  and  N_5 
REMARK    3  A    between atoms: C_18  and  C_19 
ROOT
HETATM    1  N   UNL     1      -6.451   1.320 -31.919  1.00  0.00    -0.320 N 
HETATM    2  C   UNL     1      -6.273   1.410 -30.500  1.00  0.00     0.141 C 
HETATM    3  N   UNL     1      -6.274   0.363 -29.726  1.00  0.00    -0.380 N 
HETATM    4  H   UNL     1      -6.410  -0.550 -30.138  1.00  0.00     0.158 HD
HETATM    5  H   UNL     1      -6.144   0.474 -28.730  1.00  0.00     0.158 HD
HETATM    6  S   UNL     1      -6.055   3.032 -29.940  1.00  0.00    -0.086 SA
HETATM    7  C   UNL     1      -6.572   3.671 -31.566  1.00  0.00     0.093 C 
HETATM    8  C   UNL     1      -6.073   2.593 -32.553  1.00  0.00     0.121 C 
HETATM    9  C   UNL     1      -6.055   4.976 -32.121  1.00  0.00     0.158 C 
HETATM   10  S   UNL     1      -6.392   4.771 -33.884  1.00  0.00     0.147 S 
HETATM   11  O   UNL     1      -7.633   5.443 -34.197  1.00  0.00    -0.228 OA
HETATM   12  O   UNL     1      -5.164   5.016 -34.609  1.00  0.00    -0.228 OA
HETATM   13  C   UNL     1      -6.697   2.995 -33.867  1.00  0.00     0.167 C 
ENDROOT
BRANCH   1  14
HETATM   14  C   UNL     1      -6.283   0.147 -32.679  1.00  0.00     0.049 A 
HETATM   15  C   UNL     1      -4.966  -0.290 -32.974  1.00  0.00    -0.031 A 
HETATM   16  C   UNL     1      -4.774  -1.402 -33.815  1.00  0.00     0.009 A 
HETATM   17  C   UNL     1      -5.856  -2.089 -34.348  1.00  0.00     0.001 A 
HETATM   18  C   UNL     1      -7.148  -1.672 -34.054  1.00  0.00     0.009 A 
HETATM   19  C   UNL     1      -7.384  -0.558 -33.227  1.00  0.00    -0.031 A 
BRANCH  15  20
HETATM   20  C   UNL     1      -3.728   0.417 -32.451  1.00  0.00     0.036 C 
HETATM   21  C   UNL     1      -3.004  -0.376 -31.369  1.00  0.00     0.010 C 
ENDBRANCH  15  20
BRANCH  19  22
HETATM   22  C   UNL     1      -8.835  -0.195 -32.978  1.00  0.00     0.036 C 
HETATM   23  C   UNL     1      -9.399   0.704 -34.071  1.00  0.00     0.010 C 
ENDBRANCH  19  22
ENDBRANCH   1  14
TORSDOF 3
ENDMDL
MODEL 3
REMARK VINA RESULT:      -6.6      1.945      3.385
REMARK  3 active torsions:
REMARK  status: ('A' for Active; 'I' for Inactive)
REMARK    1  A    between atoms: C_2  and  C_3 
REMARK    2  A    between atoms: C_4  and  N_5 
REMARK    3  A    between atoms: C_18  and  C_19 
ROOT
HETATM    1  N   UNL     1      -6.314   2.070 -32.431  1.00  0.00    -0.320 N 
HETATM    2  C   UNL     1      -5.475   1.140 -31.733  1.00  0.00     0.141 C 
HETATM    3  N   UNL     1      -5.941   0.058 -31.177  1.00  0.00    -0.380 N 
HETATM    4  H   UNL     1      -6.931  -0.135 -31.235  1.00  0.00     0.158 HD
HETATM    5  H   UNL     1      -5.312  -0.570 -30.696  1.00  0.00     0.158 HD
HETATM    6  S   UNL     1      -3.809   1.602 -31.715  1.00  0.00    -0.086 SA
HETATM    7  C   UNL     1      -4.254   3.259 -32.331  1.00  0.00     0.093 C 
HETATM    8  C   UNL     1      -5.486   2.993 -33.223  1.00  0.00     0.121 C 
HETATM    9  C   UNL     1      -3.321   4.077 -33.189  1.00  0.00     0.158 C 
HETATM   10  S   UNL     1      -4.471   5.240 -33.956  1.00  0.00     0.147 S 
HETATM   11  O   UNL     1      -4.436   6.480 -33.212  1.00  0.00    -0.228 OA
HETATM   12  O   UNL     1      -4.285   5.181 -35.389  1.00  0.00    -0.228 OA
HETATM   13  C   UNL     1      -5.998   4.376 -33.546  1.00  0.00     0.167 C 
ENDROOT
BRANCH   1  14
HETATM   14  C   UNL     1      -7.604   1.784 -32.915  1.00  0.00     0.049 A 
HETATM   15  C   UNL     1      -8.726   2.254 -32.185  1.00  0.00    -0.031 A 
HETATM   16  C   UNL     1     -10.023   1.895 -32.595  1.00  0.00     0.009 A 
HETATM   17  C   UNL     1     -10.224   1.097 -33.713  1.00  0.00     0.001 A 
HETATM   18  C   UNL     1      -9.130   0.642 -34.437  1.00  0.00     0.009 A 
HETATM   19  C   UNL     1      -7.815   0.969 -34.056  1.00  0.00    -0.031 A 
BRANCH  15  20
HETATM   20  C   UNL     1      -8.595   3.112 -30.939  1.00  0.00     0.036 C 
HETATM   21  C   UNL     1      -9.933   3.652 -30.446  1.00  0.00     0.010 C 
ENDBRANCH  15  20
BRANCH  19  22
HETATM   22  C   UNL     1      -6.701   0.414 -34.921  1.00  0.00     0.036 C 
HETATM   23  C   UNL     1      -6.610  -1.105 -34.838  1.00  0.00     0.010 C 
ENDBRANCH  19  22
ENDBRANCH   1  14
TORSDOF 3
ENDMDL
MODEL 4
REMARK VINA RESULT:      -6.4      1.741      2.070
REMARK  3 active torsions:
REMARK  status: ('A' for Active; 'I' for Inactive)
REMARK    1  A    between atoms: C_2  and  C_3 
REMARK    2  A    between atoms: C_4  and  N_5 
REMARK    3  A    between atoms: C_18  and  C_19 
ROOT
HETATM    1  N   UNL     1      -7.208   2.318 -32.071  1.00  0.00    -0.320 N 
HETATM    2  C   UNL     1      -8.149   2.516 -31.007  1.00  0.00     0.141 C 
HETATM    3  N   UNL     1      -9.090   1.658 -30.735  1.00  0.00    -0.380 N 
HETATM    4  H   UNL     1      -9.166   0.821 -31.296  1.00  0.00     0.158 HD
HETATM    5  H   UNL     1      -9.730   1.840 -29.975  1.00  0.00     0.158 HD
HETATM    6  S   UNL     1      -7.896   3.990 -30.138  1.00  0.00    -0.086 SA
HETATM    7  C   UNL     1      -6.741   4.561 -31.427  1.00  0.00     0.093 C 
HETATM    8  C   UNL     1      -6.084   3.256 -31.927  1.00  0.00     0.121 C 
HETATM    9  C   UNL     1      -5.588   5.486 -31.124  1.00  0.00     0.158 C 
HETATM   10  S   UNL     1      -4.517   5.199 -32.549  1.00  0.00     0.147 S 
HETATM   11  O   UNL     1      -4.749   6.248 -33.518  1.00  0.00    -0.228 OA
HETATM   12  O   UNL     1      -3.198   4.860 -32.062  1.00  0.00    -0.228 OA
HETATM   13  C   UNL     1      -5.307   3.693 -33.145  1.00  0.00     0.167 C 
ENDROOT
BRANCH   1  14
HETATM   14  C   UNL     1      -6.941   1.082 -32.689  1.00  0.00     0.049 A 
HETATM   15  C   UNL     1      -7.693   0.716 -33.835  1.00  0.00    -0.031 A 
HETATM   16  C   UNL     1      -7.513  -0.556 -34.408  1.00  0.00     0.009 A 
HETATM   17  C   UNL     1      -6.599  -1.456 -33.877  1.00  0.00     0.001 A 
HETATM   18  C   UNL     1      -5.854  -1.100 -32.760  1.00  0.00     0.009 A 
HETATM   19  C   UNL     1      -6.010   0.158 -32.149  1.00  0.00    -0.031 A 
BRANCH  15  20
HETATM   20  C   UNL     1      -8.728   1.631 -34.466  1.00  0.00     0.036 C 
HETATM   21  C   UNL     1     -10.160   1.207 -34.162  1.00  0.00     0.010 C 
ENDBRANCH  15  20
BRANCH  19  22
HETATM   22  C   UNL     1      -5.144   0.435 -30.937  1.00  0.00     0.036 C 
HETATM   23  C   UNL     1      -5.887   0.184 -29.630  1.00  0.00     0.010 C 
ENDBRANCH  19  22
ENDBRANCH   1  14
TORSDOF 3
ENDMDL
MODEL 5
REMARK VINA RESULT:      -6.2      1.671      2.233
REMARK  3 active torsions:
REMARK  status: ('A' for Active; 'I' for Inactive)
REMARK    1  A    between atoms: C_2  and  C_3 
REMARK    2  A    between atoms: C_4  and  N_5 
REMARK    3  A    between atoms: C_18  and  C_19 
ROOT
HETATM    1  N   UNL     1      -6.324   2.336 -32.238  1.00  0.00    -0.320 N 
HETATM    2  C   UNL     1      -6.483   2.102 -30.832  1.00  0.00     0.141 C 
HETATM    3  N   UNL     1      -7.339   1.242 -30.358  1.00  0.00    -0.380 N 
HETATM    4  H   UNL     1      -7.917   0.720 -31.003  1.00  0.00     0.158 HD
HETATM    5  H   UNL     1      -7.416   1.110 -29.359  1.00  0.00     0.158 HD
HETATM    6  S   UNL     1      -5.432   3.066 -29.856  1.00  0.00    -0.086 SA
HETATM    7  C   UNL     1      -5.006   4.085 -31.305  1.00  0.00     0.093 C 
HETATM    8  C   UNL     1      -5.083   3.088 -32.482  1.00  0.00     0.121 C 
HETATM    9  C   UNL     1      -3.664   4.758 -31.452  1.00  0.00     0.158 C 
HETATM   10  S   UNL     1      -3.609   5.058 -33.232  1.00  0.00     0.147 S 
HETATM   11  O   UNL     1      -4.015   6.423 -33.482  1.00  0.00    -0.228 OA
HETATM   12  O   UNL     1      -2.376   4.501 -33.746  1.00  0.00    -0.228 OA
HETATM   13  C   UNL     1      -4.964   3.968 -33.703  1.00  0.00     0.167 C 
ENDROOT
BRANCH   1  14
HETATM   14  C   UNL     1      -6.759   1.463 -33.253  1.00  0.00     0.049 A 
HETATM   15  C   UNL     1      -8.044   1.666 -33.821  1.00  0.00    -0.031 A 
HETATM   16  C   UNL     1      -8.539   0.747 -34.764  1.00  0.00     0.009 A 
HETATM   17  C   UNL     1      -7.784  -0.348 -35.160  1.00  0.00     0.001 A 
HETATM   18  C   UNL     1      -6.522  -0.546 -34.615  1.00  0.00     0.009 A 
HETATM   19  C   UNL     1      -5.992   0.343 -33.661  1.00  0.00    -0.031 A 
BRANCH  15  20
HETATM   20  C   UNL     1      -8.943   2.824 -33.428  1.00  0.00     0.036 C 
HETATM   21  C   UNL     1      -8.605   4.115 -34.164  1.00  0.00     0.010 C 
ENDBRANCH  15  20
BRANCH  19  22
HETATM   22  C   UNL     1      -4.606   0.024 -33.135  1.00  0.00     0.036 C 
HETATM   23  C   UNL     1      -4.643  -0.970 -31.981  1.00  0.00     0.010 C 
ENDBRANCH  19  22
ENDBRANCH   1  14
TORSDOF 3
ENDMDL
MODEL 6
REMARK VINA RESULT:      -6.2      3.064      4.588
REMARK  3 active torsions:
REMARK  status: ('A' for Active; 'I' for Inactive)
REMARK    1  A    between atoms: C_2  and  C_3 
REMARK    2  A    between atoms: C_4  and  N_5 
REMARK    3  A    between atoms: C_18  and  C_19 
ROOT
HETATM    1  N   UNL     1      -9.213   2.071 -33.262  1.00  0.00    -0.320 N 
HETATM    2  C   UNL     1     -10.370   1.233 -33.146  1.00  0.00     0.141 C 
HETATM    3  N   UNL     1     -10.302  -0.004 -32.744  1.00  0.00    -0.380 N 
HETATM    4  H   UNL     1      -9.400  -0.392 -32.506  1.00  0.00     0.158 HD
HETATM    5  H   UNL     1     -11.145  -0.557 -32.677  1.00  0.00     0.158 HD
HETATM    6  S   UNL     1     -11.839   2.032 -33.588  1.00  0.00    -0.086 SA
HETATM    7  C   UNL     1     -10.884   3.411 -34.300  1.00  0.00     0.093 C 
HETATM    8  C   UNL     1      -9.625   3.476 -33.408  1.00  0.00     0.121 C 
HETATM    9  C   UNL     1     -11.411   4.825 -34.331  1.00  0.00     0.158 C 
HETATM   10  S   UNL     1      -9.886   5.768 -34.544  1.00  0.00     0.147 S 
HETATM   11  O   UNL     1      -9.732   6.084 -35.947  1.00  0.00    -0.228 OA
HETATM   12  O   UNL     1      -9.828   6.773 -33.505  1.00  0.00    -0.228 OA
HETATM   13  C   UNL     1      -8.727   4.453 -34.128  1.00  0.00     0.167 C 
ENDROOT
BRANCH   1  14
HETATM   14  C   UNL     1      -7.975   1.823 -32.640  1.00  0.00     0.049 A 
HETATM   15  C   UNL     1      -6.966   1.146 -33.374  1.00  0.00    -0.031 A 
HETATM   16  C   UNL     1      -5.760   0.800 -32.740  1.00  0.00     0.009 A 
HETATM   17  C   UNL     1      -5.533   1.123 -31.409  1.00  0.00     0.001 A 
HETATM   18  C   UNL     1      -6.512   1.794 -30.688  1.00  0.00     0.009 A 
HETATM   19  C   UNL     1      -7.739   2.150 -31.280  1.00  0.00    -0.031 A 
BRANCH  15  20
HETATM   20  C   UNL     1      -7.141   0.736 -34.825  1.00  0.00     0.036 C 
HETATM   21  C   UNL     1      -7.162  -0.776 -35.017  1.00  0.00     0.010 C 
ENDBRANCH  15  20
BRANCH  19  22
HETATM   22  C   UNL     1      -8.731   2.878 -30.397  1.00  0.00     0.036 C 
HETATM   23  C   UNL     1      -8.244   4.269 -30.008  1.00  0.00     0.010 C 
ENDBRANCH  19  22
ENDBRANCH   1  14
TORSDOF 3
ENDMDL
MODEL 7
REMARK VINA RESULT:      -6.1      2.417      3.008
REMARK  3 active torsions:
REMARK  status: ('A' for Active; 'I' for Inactive)
REMARK    1  A    between atoms: C_2  and  C_3 
REMARK    2  A    between atoms: C_4  and  N_5 
REMARK    3  A    between atoms: C_18  and  C_19 
ROOT
HETATM    1  N   UNL     1      -8.044   2.666 -31.774  1.00  0.00    -0.320 N 
HETATM    2  C   UNL     1      -7.772   3.138 -30.448  1.00  0.00     0.141 C 
HETATM    3  N   UNL     1      -7.117   2.431 -29.573  1.00  0.00    -0.380 N 
HETATM    4  H   UNL     1      -6.788   1.511 -29.834  1.00  0.00     0.158 HD
HETATM    5  H   UNL     1      -6.948   2.805 -28.650  1.00  0.00     0.158 HD
HETATM    6  S   UNL     1      -8.396   4.722 -30.146  1.00  0.00    -0.086 SA
HETATM    7  C   UNL     1      -9.368   4.642 -31.686  1.00  0.00     0.093 C 
HETATM    8  C   UNL     1      -8.489   3.783 -32.622  1.00  0.00     0.121 C 
HETATM    9  C   UNL     1      -9.706   5.873 -32.491  1.00  0.00     0.158 C 
HETATM   10  S   UNL     1     -10.088   5.151 -34.101  1.00  0.00     0.147 S 
HETATM   11  O   UNL     1     -11.524   5.014 -34.215  1.00  0.00    -0.228 OA
HETATM   12  O   UNL     1      -9.283   5.821 -35.099  1.00  0.00    -0.228 OA
HETATM   13  C   UNL     1      -9.385   3.518 -33.808  1.00  0.00     0.167 C 
ENDROOT
BRANCH   1  14
HETATM   14  C   UNL     1      -7.363   1.609 -32.406  1.00  0.00     0.049 A 
HETATM   15  C   UNL     1      -8.010   0.350 -32.515  1.00  0.00    -0.031 A 
HETATM   16  C   UNL     1      -7.311  -0.746 -33.052  1.00  0.00     0.009 A 
HETATM   17  C   UNL     1      -6.001  -0.613 -33.492  1.00  0.00     0.001 A 
HETATM   18  C   UNL     1      -5.367   0.619 -33.398  1.00  0.00     0.009 A 
HETATM   19  C   UNL     1      -6.025   1.739 -32.857  1.00  0.00    -0.031 A 
BRANCH  15  20
HETATM   20  C   UNL     1      -9.431   0.112 -32.037  1.00  0.00     0.036 C 
HETATM   21  C   UNL     1     -10.459   0.209 -33.159  1.00  0.00     0.010 C 
ENDBRANCH  15  20
BRANCH  19  22
HETATM   22  C   UNL     1      -5.233   3.030 -32.804  1.00  0.00     0.036 C 
HETATM   23  C   UNL     1      -4.182   3.015 -31.700  1.00  0.00     0.010 C 
ENDBRANCH  19  22
ENDBRANCH   1  14
TORSDOF 3
ENDMDL
MODEL 8
REMARK VINA RESULT:      -5.9     15.463     16.700
REMARK  3 active torsions:
REMARK  status: ('A' for Active; 'I' for Inactive)
REMARK    1  A    between atoms: C_2  and  C_3 
REMARK    2  A    between atoms: C_4  and  N_5 
REMARK    3  A    between atoms: C_18  and  C_19 
ROOT
HETATM    1  N   UNL     1      -6.336 -14.970 -38.018  1.00  0.00    -0.320 N 
HETATM    2  C   UNL     1      -5.868 -16.280 -38.363  1.00  0.00     0.141 C 
HETATM    3  N   UNL     1      -5.793 -16.695 -39.595  1.00  0.00    -0.380 N 
HETATM    4  H   UNL     1      -6.078 -16.073 -40.340  1.00  0.00     0.158 HD
HETATM    5  H   UNL     1      -5.456 -17.627 -39.791  1.00  0.00     0.158 HD
HETATM    6  S   UNL     1      -5.419 -17.229 -36.989  1.00  0.00    -0.086 SA
HETATM    7  C   UNL     1      -6.204 -16.013 -35.882  1.00  0.00     0.093 C 
HETATM    8  C   UNL     1      -5.997 -14.670 -36.617  1.00  0.00     0.121 C 
HETATM    9  C   UNL     1      -5.712 -15.766 -34.477  1.00  0.00     0.158 C 
HETATM   10  S   UNL     1      -6.412 -14.137 -34.136  1.00  0.00     0.147 S 
HETATM   11  O   UNL     1      -7.636 -14.310 -33.386  1.00  0.00    -0.228 OA
HETATM   12  O   UNL     1      -5.341 -13.268 -33.698  1.00  0.00    -0.228 OA
HETATM   13  C   UNL     1      -6.842 -13.698 -35.830  1.00  0.00     0.167 C 
ENDROOT
BRANCH   1  14
HETATM   14  C   UNL     1      -6.414 -13.883 -38.909  1.00  0.00     0.049 A 
HETATM   15  C   UNL     1      -7.690 -13.479 -39.381  1.00  0.00    -0.031 A 
HETATM   16  C   UNL     1      -7.783 -12.462 -40.348  1.00  0.00     0.009 A 
HETATM   17  C   UNL     1      -6.645 -11.835 -40.838  1.00  0.00     0.001 A 
HETATM   18  C   UNL     1      -5.394 -12.220 -40.373  1.00  0.00     0.009 A 
HETATM   19  C   UNL     1      -5.255 -13.240 -39.413  1.00  0.00    -0.031 A 
BRANCH  15  20
HETATM   20  C   UNL     1      -8.982 -14.126 -38.914  1.00  0.00     0.036 C 
HETATM   21  C   UNL     1     -10.225 -13.412 -39.433  1.00  0.00     0.010 C 
ENDBRANCH  15  20
BRANCH  19  22
HETATM   22  C   UNL     1      -3.841 -13.575 -38.982  1.00  0.00     0.036 C 
HETATM   23  C   UNL     1      -3.263 -12.527 -38.038  1.00  0.00     0.010 C 
ENDBRANCH  19  22
ENDBRANCH   1  14
TORSDOF 3
ENDMDL
MODEL 9
REMARK VINA RESULT:      -5.9      8.867     10.834
REMARK  3 active torsions:
REMARK  status: ('A' for Active; 'I' for Inactive)
REMARK    1  A    between atoms: C_2  and  C_3 
REMARK    2  A    between atoms: C_4  and  N_5 
REMARK    3  A    between atoms: C_18  and  C_19 
ROOT
HETATM    1  N   UNL     1      -1.958   7.734 -27.182  1.00  0.00    -0.320 N 
HETATM    2  C   UNL     1      -2.864   6.819 -26.551  1.00  0.00     0.141 C 
HETATM    3  N   UNL     1      -2.473   5.941 -25.672  1.00  0.00    -0.380 N 
HETATM    4  H   UNL     1      -1.493   5.898 -25.425  1.00  0.00     0.158 HD
HETATM    5  H   UNL     1      -3.147   5.317 -25.252  1.00  0.00     0.158 HD
HETATM    6  S   UNL     1      -4.501   7.010 -27.072  1.00  0.00    -0.086 SA
HETATM    7  C   UNL     1      -3.950   8.084 -28.437  1.00  0.00     0.093 C 
HETATM    8  C   UNL     1      -2.714   8.803 -27.854  1.00  0.00     0.121 C 
HETATM    9  C   UNL     1      -4.815   9.188 -28.994  1.00  0.00     0.158 C 
HETATM   10  S   UNL     1      -3.585  10.227 -29.811  1.00  0.00     0.147 S 
HETATM   11  O   UNL     1      -3.568   9.900 -31.220  1.00  0.00    -0.228 OA
HETATM   12  O   UNL     1      -3.740  11.580 -29.323  1.00  0.00    -0.228 OA
HETATM   13  C   UNL     1      -2.118   9.512 -29.046  1.00  0.00     0.167 C 
ENDROOT
BRANCH   1  14
HETATM   14  C   UNL     1      -0.675   8.056 -26.702  1.00  0.00     0.049 A 
HETATM   15  C   UNL     1       0.448   7.392 -27.260  1.00  0.00    -0.031 A 
HETATM   16  C   UNL     1       1.729   7.624 -26.727  1.00  0.00     0.009 A 
HETATM   17  C   UNL     1       1.914   8.505 -25.670  1.00  0.00     0.001 A 
HETATM   18  C   UNL     1       0.820   9.166 -25.126  1.00  0.00     0.009 A 
HETATM   19  C   UNL     1      -0.480   8.955 -25.623  1.00  0.00    -0.031 A 
BRANCH  15  20
HETATM   20  C   UNL     1       0.331   6.397 -28.401  1.00  0.00     0.036 C 
HETATM   21  C   UNL     1       0.474   7.046 -29.773  1.00  0.00     0.010 C 
ENDBRANCH  15  20
BRANCH  19  22
HETATM   22  C   UNL     1      -1.596   9.729 -24.949  1.00  0.00     0.036 C 
HETATM   23  C   UNL     1      -1.504  11.225 -25.222  1.00  0.00     0.010 C 
ENDBRANCH  19  22
ENDBRANCH   1  14
TORSDOF 3
ENDMDL
MODEL 10
REMARK VINA RESULT:      -5.8      4.121      5.711
REMARK  3 active torsions:
REMARK  status: ('A' for Active; 'I' for Inactive)
REMARK    1  A    between atoms: C_2  and  C_3 
REMARK    2  A    between atoms: C_4  and  N_5 
REMARK    3  A    between atoms: C_18  and  C_19 
ROOT
HETATM    1  N   UNL     1      -9.469   3.002 -33.308  1.00  0.00    -0.320 N 
HETATM    2  C   UNL     1      -8.947   4.148 -33.994  1.00  0.00     0.141 C 
HETATM    3  N   UNL     1      -7.728   4.573 -33.821  1.00  0.00    -0.380 N 
HETATM    4  H   UNL     1      -7.124   4.080 -33.177  1.00  0.00     0.158 HD
HETATM    5  H   UNL     1      -7.403   5.385 -34.327  1.00  0.00     0.158 HD
HETATM    6  S   UNL     1     -10.092   4.886 -35.058  1.00  0.00    -0.086 SA
HETATM    7  C   UNL     1     -11.429   3.888 -34.326  1.00  0.00     0.093 C 
HETATM    8  C   UNL     1     -10.725   2.569 -33.940  1.00  0.00     0.121 C 
HETATM    9  C   UNL     1     -12.643   3.464 -35.115  1.00  0.00     0.158 C 
HETATM   10  S   UNL     1     -13.242   2.075 -34.128  1.00  0.00     0.147 S 
HETATM   11  O   UNL     1     -14.303   2.546 -33.266  1.00  0.00    -0.228 OA
HETATM   12  O   UNL     1     -13.392   0.932 -35.002  1.00  0.00    -0.228 OA
HETATM   13  C   UNL     1     -11.763   1.835 -33.127  1.00  0.00     0.167 C 
ENDROOT
BRANCH   1  14
HETATM   14  C   UNL     1      -8.686   2.012 -32.685  1.00  0.00     0.049 A 
HETATM   15  C   UNL     1      -8.400   2.140 -31.301  1.00  0.00    -0.031 A 
HETATM   16  C   UNL     1      -7.538   1.217 -30.681  1.00  0.00     0.009 A 
HETATM   17  C   UNL     1      -6.972   0.173 -31.400  1.00  0.00     0.001 A 
HETATM   18  C   UNL     1      -7.255   0.037 -32.753  1.00  0.00     0.009 A 
HETATM   19  C   UNL     1      -8.105   0.944 -33.415  1.00  0.00    -0.031 A 
BRANCH  15  20
HETATM   20  C   UNL     1      -8.959   3.263 -30.446  1.00  0.00     0.036 C 
HETATM   21  C   UNL     1      -7.927   4.340 -30.131  1.00  0.00     0.010 C 
ENDBRANCH  15  20
BRANCH  19  22
HETATM   22  C   UNL     1      -8.339   0.697 -34.891  1.00  0.00     0.036 C 
HETATM   23  C   UNL     1      -7.077   0.228 -35.605  1.00  0.00     0.010 C 
ENDBRANCH  19  22
ENDBRANCH   1  14
TORSDOF 3
ENDMDL
