MODEL 1
REMARK VINA RESULT:      -8.2      0.000      0.000
REMARK  8 active torsions:
REMARK  status: ('A' for Active; 'I' for Inactive)
REMARK    1  A    between atoms: N_3  and  C_4 
REMARK    2  A    between atoms: C_4  and  C_5 
REMARK    3  A    between atoms: C_5  and  O_6 
REMARK    4  A    between atoms: C_11  and  C_12 
REMARK    5  A    between atoms: C_13  and  C_14 
REMARK    6  A    between atoms: C_22  and  C_23 
REMARK       I    between atoms: C_23  and  N_24 
REMARK    7  A    between atoms: N_24  and  C_25 
REMARK    8  A    between atoms: C_26  and  O_27 
ROOT
HETATM    1  C   UNL     1      -4.334   2.840 -32.693  1.00  0.00     0.069 C 
HETATM    2  C   UNL     1      -5.664   2.856 -31.980  1.00  0.00     0.026 C 
HETATM    3  N   UNL     1      -5.840   3.727 -30.892  1.00  0.00    -0.301 N 
HETATM    4  C   UNL     1      -6.929   3.625 -30.020  1.00  0.00     0.323 C 
HETATM    5  O   UNL     1      -7.093   4.304 -29.009  1.00  0.00    -0.247 OA
HETATM    6  N   UNL     1      -7.840   2.653 -30.302  1.00  0.00    -0.330 N 
HETATM    7  C   UNL     1      -7.997   2.046 -31.596  1.00  0.00     0.161 C 
HETATM    8  C   UNL     1      -6.691   2.052 -32.325  1.00  0.00     0.059 C 
HETATM    9  H   UNL     1      -8.620   2.639 -29.659  1.00  0.00     0.165 HD
ENDROOT
BRANCH   8  10
HETATM   10  C   UNL     1      -6.548   1.025 -33.390  1.00  0.00     0.256 C 
HETATM   11  N   UNL     1      -6.310  -0.232 -32.887  1.00  0.00    -0.321 N 
HETATM   12  H   UNL     1      -6.250  -0.355 -31.880  1.00  0.00     0.169 HD
HETATM   13  O   UNL     1      -6.647   1.357 -34.564  1.00  0.00    -0.267 OA
BRANCH  11  14
HETATM   14  C   UNL     1      -6.063  -1.424 -33.606  1.00  0.00     0.068 A 
HETATM   15  C   UNL     1      -4.719  -1.845 -33.698  1.00  0.00     0.095 A 
HETATM   16  C   UNL     1      -4.403  -3.007 -34.409  1.00  0.00     0.039 A 
HETATM   17  C   UNL     1      -5.414  -3.751 -35.019  1.00  0.00     0.003 A 
HETATM   18  C   UNL     1      -6.741  -3.338 -34.923  1.00  0.00     0.002 A 
HETATM   19  C   UNL     1      -7.066  -2.176 -34.221  1.00  0.00     0.032 A 
BRANCH  15  20
HETATM   20  O   UNL     1      -3.805  -1.038 -33.059  1.00  0.00    -0.354 OA
HETATM   21  C   UNL     1      -3.089  -1.609 -31.971  1.00  0.00     0.210 C 
ENDBRANCH  15  20
ENDBRANCH  11  14
ENDBRANCH   8  10
BRANCH   7  22
HETATM   22  C   UNL     1      -9.141   2.737 -32.344  1.00  0.00    -0.016 A 
HETATM   23  C   UNL     1     -10.159   2.004 -33.006  1.00  0.00     0.056 A 
HETATM   24  C   UNL     1     -11.185   2.699 -33.676  1.00  0.00     0.017 A 
HETATM   25  C   UNL     1     -11.226   4.093 -33.685  1.00  0.00     0.001 A 
HETATM   26  C   UNL     1     -10.246   4.815 -33.017  1.00  0.00     0.001 A 
HETATM   27  C   UNL     1      -9.219   4.147 -32.352  1.00  0.00     0.010 A 
BRANCH  23  28
HETATM   28  C   UNL     1     -10.191   0.490 -32.999  1.00  0.00     0.418 C 
HETATM   29  F   UNL     1      -9.421  -0.045 -33.987  1.00  0.00    -0.166 F 
HETATM   30  F   UNL     1      -9.741  -0.065 -31.839  1.00  0.00    -0.166 F 
HETATM   31  F   UNL     1     -11.445  -0.004 -33.186  1.00  0.00    -0.166 F 
ENDBRANCH  23  28
ENDBRANCH   7  22
BRANCH   3  32
HETATM   32  C   UNL     1      -4.868   4.788 -30.585  1.00  0.00     0.160 C 
BRANCH  32  33
HETATM   33  C   UNL     1      -5.112   6.086 -31.369  1.00  0.00     0.187 C 
BRANCH  33  34
HETATM   34  O   UNL     1      -3.895   6.586 -31.927  1.00  0.00    -0.394 OA
HETATM   35  C   UNL     1      -2.756   5.980 -31.332  1.00  0.00     0.201 C 
ENDBRANCH  33  34
ENDBRANCH  32  33
ENDBRANCH   3  32
TORSDOF 8
ENDMDL
MODEL 2
REMARK VINA RESULT:      -8.0      2.763      6.774
REMARK  8 active torsions:
REMARK  status: ('A' for Active; 'I' for Inactive)
REMARK    1  A    between atoms: N_3  and  C_4 
REMARK    2  A    between atoms: C_4  and  C_5 
REMARK    3  A    between atoms: C_5  and  O_6 
REMARK    4  A    between atoms: C_11  and  C_12 
REMARK    5  A    between atoms: C_13  and  C_14 
REMARK    6  A    between atoms: C_22  and  C_23 
REMARK       I    between atoms: C_23  and  N_24 
REMARK    7  A    between atoms: N_24  and  C_25 
REMARK    8  A    between atoms: C_26  and  O_27 
ROOT
HETATM    1  C   UNL     1      -9.310   4.275 -33.847  1.00  0.00     0.069 C 
HETATM    2  C   UNL     1      -9.266   2.843 -33.371  1.00  0.00     0.026 C 
HETATM    3  N   UNL     1     -10.340   1.992 -33.681  1.00  0.00    -0.301 N 
HETATM    4  C   UNL     1     -10.508   0.745 -33.069  1.00  0.00     0.323 C 
HETATM    5  O   UNL     1     -11.466  -0.005 -33.240  1.00  0.00    -0.247 OA
HETATM    6  N   UNL     1      -9.550   0.378 -32.174  1.00  0.00    -0.330 N 
HETATM    7  C   UNL     1      -8.225   0.936 -32.136  1.00  0.00     0.161 C 
HETATM    8  C   UNL     1      -8.251   2.346 -32.636  1.00  0.00     0.059 C 
HETATM    9  H   UNL     1      -9.702  -0.542 -31.782  1.00  0.00     0.165 HD
ENDROOT
BRANCH   8  10
HETATM   10  C   UNL     1      -7.134   3.210 -32.170  1.00  0.00     0.256 C 
HETATM   11  N   UNL     1      -6.120   3.310 -33.092  1.00  0.00    -0.321 N 
HETATM   12  H   UNL     1      -6.206   2.811 -33.974  1.00  0.00     0.169 HD
HETATM   13  O   UNL     1      -7.198   3.735 -31.066  1.00  0.00    -0.267 OA
BRANCH  11  14
HETATM   14  C   UNL     1      -4.889   3.992 -32.961  1.00  0.00     0.068 A 
HETATM   15  C   UNL     1      -4.921   5.397 -33.106  1.00  0.00     0.095 A 
HETATM   16  C   UNL     1      -3.736   6.132 -33.005  1.00  0.00     0.039 A 
HETATM   17  C   UNL     1      -2.528   5.480 -32.753  1.00  0.00     0.003 A 
HETATM   18  C   UNL     1      -2.497   4.096 -32.604  1.00  0.00     0.002 A 
HETATM   19  C   UNL     1      -3.674   3.352 -32.709  1.00  0.00     0.032 A 
BRANCH  15  20
HETATM   20  O   UNL     1      -6.164   5.934 -33.351  1.00  0.00    -0.354 OA
HETATM   21  C   UNL     1      -6.636   6.913 -32.434  1.00  0.00     0.210 C 
ENDBRANCH  15  20
ENDBRANCH  11  14
ENDBRANCH   8  10
BRANCH   7  22
HETATM   22  C   UNL     1      -7.264   0.015 -32.894  1.00  0.00    -0.016 A 
HETATM   23  C   UNL     1      -6.047  -0.438 -32.323  1.00  0.00     0.056 A 
HETATM   24  C   UNL     1      -5.207  -1.285 -33.073  1.00  0.00     0.017 A 
HETATM   25  C   UNL     1      -5.560  -1.699 -34.356  1.00  0.00     0.001 A 
HETATM   26  C   UNL     1      -6.762  -1.280 -34.910  1.00  0.00     0.001 A 
HETATM   27  C   UNL     1      -7.606  -0.438 -34.187  1.00  0.00     0.010 A 
BRANCH  23  28
HETATM   28  C   UNL     1      -5.629  -0.054 -30.919  1.00  0.00     0.418 C 
HETATM   29  F   UNL     1      -6.558  -0.409 -29.990  1.00  0.00    -0.166 F 
HETATM   30  F   UNL     1      -4.463  -0.632 -30.514  1.00  0.00    -0.166 F 
HETATM   31  F   UNL     1      -5.447   1.287 -30.781  1.00  0.00    -0.166 F 
ENDBRANCH  23  28
ENDBRANCH   7  22
BRANCH   3  32
HETATM   32  C   UNL     1     -11.374   2.374 -34.654  1.00  0.00     0.160 C 
BRANCH  32  33
HETATM   33  C   UNL     1     -12.609   3.025 -34.012  1.00  0.00     0.187 C 
BRANCH  33  34
HETATM   34  O   UNL     1     -13.772   2.216 -34.196  1.00  0.00    -0.394 OA
HETATM   35  C   UNL     1     -14.418   1.935 -32.962  1.00  0.00     0.201 C 
ENDBRANCH  33  34
ENDBRANCH  32  33
ENDBRANCH   3  32
TORSDOF 8
ENDMDL
MODEL 3
REMARK VINA RESULT:      -7.9      2.460      5.834
REMARK  8 active torsions:
REMARK  status: ('A' for Active; 'I' for Inactive)
REMARK    1  A    between atoms: N_3  and  C_4 
REMARK    2  A    between atoms: C_4  and  C_5 
REMARK    3  A    between atoms: C_5  and  O_6 
REMARK    4  A    between atoms: C_11  and  C_12 
REMARK    5  A    between atoms: C_13  and  C_14 
REMARK    6  A    between atoms: C_22  and  C_23 
REMARK       I    between atoms: C_23  and  N_24 
REMARK    7  A    between atoms: N_24  and  C_25 
REMARK    8  A    between atoms: C_26  and  O_27 
ROOT
HETATM    1  C   UNL     1      -8.618   5.111 -31.803  1.00  0.00     0.069 C 
HETATM    2  C   UNL     1      -7.648   4.328 -32.654  1.00  0.00     0.026 C 
HETATM    3  N   UNL     1      -6.491   4.969 -33.129  1.00  0.00    -0.301 N 
HETATM    4  C   UNL     1      -5.681   4.411 -34.124  1.00  0.00     0.323 C 
HETATM    5  O   UNL     1      -4.706   4.959 -34.633  1.00  0.00    -0.247 OA
HETATM    6  N   UNL     1      -6.053   3.187 -34.590  1.00  0.00    -0.330 N 
HETATM    7  C   UNL     1      -6.906   2.277 -33.874  1.00  0.00     0.161 C 
HETATM    8  C   UNL     1      -7.852   3.041 -33.003  1.00  0.00     0.059 C 
HETATM    9  H   UNL     1      -5.420   2.816 -35.286  1.00  0.00     0.165 HD
ENDROOT
BRANCH   8  10
HETATM   10  C   UNL     1      -9.103   2.327 -32.637  1.00  0.00     0.256 C 
HETATM   11  N   UNL     1     -10.027   2.319 -33.654  1.00  0.00    -0.321 N 
HETATM   12  H   UNL     1      -9.797   2.779 -34.531  1.00  0.00     0.169 HD
HETATM   13  O   UNL     1      -9.210   1.830 -31.523  1.00  0.00    -0.267 OA
BRANCH  11  14
HETATM   14  C   UNL     1     -11.337   1.790 -33.635  1.00  0.00     0.068 A 
HETATM   15  C   UNL     1     -12.400   2.720 -33.641  1.00  0.00     0.095 A 
HETATM   16  C   UNL     1     -13.721   2.265 -33.606  1.00  0.00     0.039 A 
HETATM   17  C   UNL     1     -13.989   0.895 -33.572  1.00  0.00     0.003 A 
HETATM   18  C   UNL     1     -12.941  -0.022 -33.571  1.00  0.00     0.002 A 
HETATM   19  C   UNL     1     -11.618   0.423 -33.600  1.00  0.00     0.032 A 
BRANCH  15  20
HETATM   20  O   UNL     1     -12.022   4.043 -33.677  1.00  0.00    -0.354 OA
HETATM   21  C   UNL     1     -12.644   4.866 -34.657  1.00  0.00     0.210 C 
ENDBRANCH  15  20
ENDBRANCH  11  14
ENDBRANCH   8  10
BRANCH   7  22
HETATM   22  C   UNL     1      -6.043   1.256 -33.126  1.00  0.00    -0.016 A 
HETATM   23  C   UNL     1      -6.092  -0.131 -33.420  1.00  0.00     0.056 A 
HETATM   24  C   UNL     1      -5.273  -1.019 -32.696  1.00  0.00     0.017 A 
HETATM   25  C   UNL     1      -4.403  -0.557 -31.710  1.00  0.00     0.001 A 
HETATM   26  C   UNL     1      -4.333   0.802 -31.435  1.00  0.00     0.001 A 
HETATM   27  C   UNL     1      -5.138   1.698 -32.136  1.00  0.00     0.010 A 
BRANCH  23  28
HETATM   28  C   UNL     1      -6.987  -0.689 -34.507  1.00  0.00     0.418 C 
HETATM   29  F   UNL     1      -8.308  -0.539 -34.213  1.00  0.00    -0.166 F 
HETATM   30  F   UNL     1      -6.811  -0.100 -35.723  1.00  0.00    -0.166 F 
HETATM   31  F   UNL     1      -6.793  -2.020 -34.706  1.00  0.00    -0.166 F 
ENDBRANCH  23  28
ENDBRANCH   7  22
BRANCH   3  32
HETATM   32  C   UNL     1      -6.074   6.286 -32.624  1.00  0.00     0.160 C 
BRANCH  32  33
HETATM   33  C   UNL     1      -5.179   6.209 -31.378  1.00  0.00     0.187 C 
BRANCH  33  34
HETATM   34  O   UNL     1      -3.796   6.242 -31.736  1.00  0.00    -0.394 OA
HETATM   35  C   UNL     1      -3.132   5.035 -31.385  1.00  0.00     0.201 C 
ENDBRANCH  33  34
ENDBRANCH  32  33
ENDBRANCH   3  32
TORSDOF 8
ENDMDL
MODEL 4
REMARK VINA RESULT:      -7.8      2.939      5.427
REMARK  8 active torsions:
REMARK  status: ('A' for Active; 'I' for Inactive)
REMARK    1  A    between atoms: N_3  and  C_4 
REMARK    2  A    between atoms: C_4  and  C_5 
REMARK    3  A    between atoms: C_5  and  O_6 
REMARK    4  A    between atoms: C_11  and  C_12 
REMARK    5  A    between atoms: C_13  and  C_14 
REMARK    6  A    between atoms: C_22  and  C_23 
REMARK       I    between atoms: C_23  and  N_24 
REMARK    7  A    between atoms: N_24  and  C_25 
REMARK    8  A    between atoms: C_26  and  O_27 
ROOT
HETATM    1  C   UNL     1     -10.525   0.015 -33.082  1.00  0.00     0.069 C 
HETATM    2  C   UNL     1      -9.778   1.322 -33.200  1.00  0.00     0.026 C 
HETATM    3  N   UNL     1     -10.498   2.488 -33.509  1.00  0.00    -0.301 N 
HETATM    4  C   UNL     1      -9.868   3.678 -33.891  1.00  0.00     0.323 C 
HETATM    5  O   UNL     1     -10.445   4.702 -34.250  1.00  0.00    -0.247 OA
HETATM    6  N   UNL     1      -8.507   3.660 -33.915  1.00  0.00    -0.330 N 
HETATM    7  C   UNL     1      -7.700   2.711 -33.195  1.00  0.00     0.161 C 
HETATM    8  C   UNL     1      -8.442   1.420 -33.045  1.00  0.00     0.059 C 
HETATM    9  H   UNL     1      -8.100   4.549 -34.170  1.00  0.00     0.165 HD
ENDROOT
BRANCH   8  10
HETATM   10  C   UNL     1      -7.596   0.218 -32.829  1.00  0.00     0.256 C 
HETATM   11  N   UNL     1      -7.196  -0.369 -34.006  1.00  0.00    -0.321 N 
HETATM   12  H   UNL     1      -7.496   0.041 -34.886  1.00  0.00     0.169 HD
HETATM   13  O   UNL     1      -7.335  -0.139 -31.687  1.00  0.00    -0.267 OA
BRANCH  11  14
HETATM   14  C   UNL     1      -6.443  -1.553 -34.176  1.00  0.00     0.068 A 
HETATM   15  C   UNL     1      -5.053  -1.461 -33.944  1.00  0.00     0.095 A 
HETATM   16  C   UNL     1      -4.245  -2.590 -34.110  1.00  0.00     0.039 A 
HETATM   17  C   UNL     1      -4.812  -3.805 -34.496  1.00  0.00     0.003 A 
HETATM   18  C   UNL     1      -6.184  -3.897 -34.719  1.00  0.00     0.002 A 
HETATM   19  C   UNL     1      -6.998  -2.774 -34.562  1.00  0.00     0.032 A 
BRANCH  15  20
HETATM   20  O   UNL     1      -4.601  -0.217 -33.566  1.00  0.00    -0.354 OA
HETATM   21  C   UNL     1      -3.591  -0.172 -32.566  1.00  0.00     0.210 C 
ENDBRANCH  15  20
ENDBRANCH  11  14
ENDBRANCH   8  10
BRANCH   7  22
HETATM   22  C   UNL     1      -7.243   3.333 -31.873  1.00  0.00    -0.016 A 
HETATM   23  C   UNL     1      -5.996   3.998 -31.745  1.00  0.00     0.056 A 
HETATM   24  C   UNL     1      -5.634   4.551 -30.501  1.00  0.00     0.017 A 
HETATM   25  C   UNL     1      -6.486   4.471 -29.401  1.00  0.00     0.001 A 
HETATM   26  C   UNL     1      -7.719   3.845 -29.527  1.00  0.00     0.001 A 
HETATM   27  C   UNL     1      -8.095   3.287 -30.748  1.00  0.00     0.010 A 
BRANCH  23  28
HETATM   28  C   UNL     1      -5.045   4.150 -32.914  1.00  0.00     0.418 C 
HETATM   29  F   UNL     1      -4.710   2.951 -33.464  1.00  0.00    -0.166 F 
HETATM   30  F   UNL     1      -5.544   4.898 -33.937  1.00  0.00    -0.166 F 
HETATM   31  F   UNL     1      -3.874   4.743 -32.556  1.00  0.00    -0.166 F 
ENDBRANCH  23  28
ENDBRANCH   7  22
BRANCH   3  32
HETATM   32  C   UNL     1     -11.968   2.523 -33.476  1.00  0.00     0.160 C 
BRANCH  32  33
HETATM   33  C   UNL     1     -12.613   2.487 -34.870  1.00  0.00     0.187 C 
BRANCH  33  34
HETATM   34  O   UNL     1     -13.226   1.221 -35.121  1.00  0.00    -0.394 OA
HETATM   35  C   UNL     1     -14.078   0.828 -34.053  1.00  0.00     0.201 C 
ENDBRANCH  33  34
ENDBRANCH  32  33
ENDBRANCH   3  32
TORSDOF 8
ENDMDL
MODEL 5
REMARK VINA RESULT:      -7.8      2.826      7.045
REMARK  8 active torsions:
REMARK  status: ('A' for Active; 'I' for Inactive)
REMARK    1  A    between atoms: N_3  and  C_4 
REMARK    2  A    between atoms: C_4  and  C_5 
REMARK    3  A    between atoms: C_5  and  O_6 
REMARK    4  A    between atoms: C_11  and  C_12 
REMARK    5  A    between atoms: C_13  and  C_14 
REMARK    6  A    between atoms: C_22  and  C_23 
REMARK       I    between atoms: C_23  and  N_24 
REMARK    7  A    between atoms: N_24  and  C_25 
REMARK    8  A    between atoms: C_26  and  O_27 
ROOT
HETATM    1  C   UNL     1      -8.357   4.096 -33.925  1.00  0.00     0.069 C 
HETATM    2  C   UNL     1      -7.934   2.875 -33.144  1.00  0.00     0.026 C 
HETATM    3  N   UNL     1      -8.923   2.080 -32.542  1.00  0.00    -0.301 N 
HETATM    4  C   UNL     1      -8.619   1.095 -31.596  1.00  0.00     0.323 C 
HETATM    5  O   UNL     1      -9.444   0.426 -30.979  1.00  0.00    -0.247 OA
HETATM    6  N   UNL     1      -7.299   0.920 -31.310  1.00  0.00    -0.330 N 
HETATM    7  C   UNL     1      -6.225   1.332 -32.173  1.00  0.00     0.161 C 
HETATM    8  C   UNL     1      -6.643   2.523 -32.975  1.00  0.00     0.059 C 
HETATM    9  H   UNL     1      -7.131   0.180 -30.643  1.00  0.00     0.165 HD
ENDROOT
BRANCH   8  10
HETATM   10  C   UNL     1      -5.535   3.373 -33.484  1.00  0.00     0.256 C 
HETATM   11  N   UNL     1      -4.721   3.841 -32.480  1.00  0.00    -0.321 N 
HETATM   12  H   UNL     1      -4.930   3.586 -31.518  1.00  0.00     0.169 HD
HETATM   13  O   UNL     1      -5.436   3.580 -34.687  1.00  0.00    -0.267 OA
BRANCH  11  14
HETATM   14  C   UNL     1      -3.618   4.718 -32.592  1.00  0.00     0.068 A 
HETATM   15  C   UNL     1      -3.824   6.055 -32.187  1.00  0.00     0.095 A 
HETATM   16  C   UNL     1      -2.780   6.979 -32.286  1.00  0.00     0.039 A 
HETATM   17  C   UNL     1      -1.536   6.579 -32.778  1.00  0.00     0.003 A 
HETATM   18  C   UNL     1      -1.331   5.259 -33.173  1.00  0.00     0.002 A 
HETATM   19  C   UNL     1      -2.370   4.331 -33.082  1.00  0.00     0.032 A 
BRANCH  15  20
HETATM   20  O   UNL     1      -5.086   6.339 -31.717  1.00  0.00    -0.354 OA
HETATM   21  C   UNL     1      -5.360   7.693 -31.380  1.00  0.00     0.210 C 
ENDBRANCH  15  20
ENDBRANCH  11  14
ENDBRANCH   8  10
BRANCH   7  22
HETATM   22  C   UNL     1      -5.762   0.137 -33.012  1.00  0.00    -0.016 A 
HETATM   23  C   UNL     1      -4.508  -0.491 -32.801  1.00  0.00     0.056 A 
HETATM   24  C   UNL     1      -4.141  -1.587 -33.606  1.00  0.00     0.017 A 
HETATM   25  C   UNL     1      -4.996  -2.075 -34.593  1.00  0.00     0.001 A 
HETATM   26  C   UNL     1      -6.235  -1.481 -34.787  1.00  0.00     0.001 A 
HETATM   27  C   UNL     1      -6.616  -0.393 -34.004  1.00  0.00     0.010 A 
BRANCH  23  28
HETATM   28  C   UNL     1      -3.553  -0.030 -31.719  1.00  0.00     0.418 C 
HETATM   29  F   UNL     1      -4.132  -0.033 -30.486  1.00  0.00    -0.166 F 
HETATM   30  F   UNL     1      -2.437  -0.803 -31.604  1.00  0.00    -0.166 F 
HETATM   31  F   UNL     1      -3.108   1.238 -31.926  1.00  0.00    -0.166 F 
ENDBRANCH  23  28
ENDBRANCH   7  22
BRANCH   3  32
HETATM   32  C   UNL     1     -10.351   2.253 -32.852  1.00  0.00     0.160 C 
BRANCH  32  33
HETATM   33  C   UNL     1     -10.856   1.311 -33.956  1.00  0.00     0.187 C 
BRANCH  33  34
HETATM   34  O   UNL     1     -11.764   0.342 -33.430  1.00  0.00    -0.394 OA
HETATM   35  C   UNL     1     -13.099   0.592 -33.845  1.00  0.00     0.201 C 
ENDBRANCH  33  34
ENDBRANCH  32  33
ENDBRANCH   3  32
TORSDOF 8
ENDMDL
MODEL 6
REMARK VINA RESULT:      -7.7      2.732      6.682
REMARK  8 active torsions:
REMARK  status: ('A' for Active; 'I' for Inactive)
REMARK    1  A    between atoms: N_3  and  C_4 
REMARK    2  A    between atoms: C_4  and  C_5 
REMARK    3  A    between atoms: C_5  and  O_6 
REMARK    4  A    between atoms: C_11  and  C_12 
REMARK    5  A    between atoms: C_13  and  C_14 
REMARK    6  A    between atoms: C_22  and  C_23 
REMARK       I    between atoms: C_23  and  N_24 
REMARK    7  A    between atoms: N_24  and  C_25 
REMARK    8  A    between atoms: C_26  and  O_27 
ROOT
HETATM    1  C   UNL     1      -8.132   5.330 -33.863  1.00  0.00     0.069 C 
HETATM    2  C   UNL     1      -7.805   4.110 -33.036  1.00  0.00     0.026 C 
HETATM    3  N   UNL     1      -8.812   3.543 -32.237  1.00  0.00    -0.301 N 
HETATM    4  C   UNL     1      -8.538   2.587 -31.253  1.00  0.00     0.323 C 
HETATM    5  O   UNL     1      -9.363   2.116 -30.473  1.00  0.00    -0.247 OA
HETATM    6  N   UNL     1      -7.237   2.204 -31.129  1.00  0.00    -0.330 N 
HETATM    7  C   UNL     1      -6.249   2.361 -32.162  1.00  0.00     0.161 C 
HETATM    8  C   UNL     1      -6.579   3.550 -33.007  1.00  0.00     0.059 C 
HETATM    9  H   UNL     1      -7.097   1.492 -30.425  1.00  0.00     0.165 HD
ENDROOT
BRANCH   8  10
HETATM   10  C   UNL     1      -5.432   4.156 -33.734  1.00  0.00     0.256 C 
HETATM   11  N   UNL     1      -4.478   4.669 -32.888  1.00  0.00    -0.321 N 
HETATM   12  H   UNL     1      -4.623   4.600 -31.884  1.00  0.00     0.169 HD
HETATM   13  O   UNL     1      -5.426   4.154 -34.959  1.00  0.00    -0.267 OA
BRANCH  11  14
HETATM   14  C   UNL     1      -3.297   5.365 -33.230  1.00  0.00     0.068 A 
HETATM   15  C   UNL     1      -3.170   6.683 -32.738  1.00  0.00     0.095 A 
HETATM   16  C   UNL     1      -2.034   7.434 -33.052  1.00  0.00     0.039 A 
HETATM   17  C   UNL     1      -1.025   6.881 -33.842  1.00  0.00     0.003 A 
HETATM   18  C   UNL     1      -1.147   5.579 -34.322  1.00  0.00     0.002 A 
HETATM   19  C   UNL     1      -2.281   4.823 -34.019  1.00  0.00     0.032 A 
BRANCH  15  20
HETATM   20  O   UNL     1      -4.222   7.127 -31.970  1.00  0.00    -0.354 OA
HETATM   21  C   UNL     1      -3.961   8.206 -31.080  1.00  0.00     0.210 C 
ENDBRANCH  15  20
ENDBRANCH  11  14
ENDBRANCH   8  10
BRANCH   7  22
HETATM   22  C   UNL     1      -6.115   1.049 -32.941  1.00  0.00    -0.016 A 
HETATM   23  C   UNL     1      -5.169   0.054 -32.584  1.00  0.00     0.056 A 
HETATM   24  C   UNL     1      -5.096  -1.131 -33.341  1.00  0.00     0.017 A 
HETATM   25  C   UNL     1      -5.949  -1.351 -34.421  1.00  0.00     0.001 A 
HETATM   26  C   UNL     1      -6.895  -0.392 -34.759  1.00  0.00     0.001 A 
HETATM   27  C   UNL     1      -6.980   0.791 -34.026  1.00  0.00     0.010 A 
BRANCH  23  28
HETATM   28  C   UNL     1      -4.242   0.219 -31.398  1.00  0.00     0.418 C 
HETATM   29  F   UNL     1      -3.466   1.333 -31.501  1.00  0.00    -0.166 F 
HETATM   30  F   UNL     1      -4.888   0.329 -30.204  1.00  0.00    -0.166 F 
HETATM   31  F   UNL     1      -3.384  -0.829 -31.261  1.00  0.00    -0.166 F 
ENDBRANCH  23  28
ENDBRANCH   7  22
BRANCH   3  32
HETATM   32  C   UNL     1     -10.222   3.941 -32.370  1.00  0.00     0.160 C 
BRANCH  32  33
HETATM   33  C   UNL     1     -11.014   3.071 -33.358  1.00  0.00     0.187 C 
BRANCH  33  34
HETATM   34  O   UNL     1     -10.230   1.966 -33.813  1.00  0.00    -0.394 OA
HETATM   35  C   UNL     1     -10.827   0.723 -33.471  1.00  0.00     0.201 C 
ENDBRANCH  33  34
ENDBRANCH  32  33
ENDBRANCH   3  32
TORSDOF 8
ENDMDL
MODEL 7
REMARK VINA RESULT:      -7.6      2.491      6.065
REMARK  8 active torsions:
REMARK  status: ('A' for Active; 'I' for Inactive)
REMARK    1  A    between atoms: N_3  and  C_4 
REMARK    2  A    between atoms: C_4  and  C_5 
REMARK    3  A    between atoms: C_5  and  O_6 
REMARK    4  A    between atoms: C_11  and  C_12 
REMARK    5  A    between atoms: C_13  and  C_14 
REMARK    6  A    between atoms: C_22  and  C_23 
REMARK       I    between atoms: C_23  and  N_24 
REMARK    7  A    between atoms: N_24  and  C_25 
REMARK    8  A    between atoms: C_26  and  O_27 
ROOT
HETATM    1  C   UNL     1      -7.546   5.747 -31.012  1.00  0.00     0.069 C 
HETATM    2  C   UNL     1      -7.032   4.814 -32.082  1.00  0.00     0.026 C 
HETATM    3  N   UNL     1      -5.873   5.168 -32.791  1.00  0.00    -0.301 N 
HETATM    4  C   UNL     1      -5.477   4.506 -33.958  1.00  0.00     0.323 C 
HETATM    5  O   UNL     1      -4.521   4.822 -34.663  1.00  0.00    -0.247 OA
HETATM    6  N   UNL     1      -6.261   3.468 -34.359  1.00  0.00    -0.330 N 
HETATM    7  C   UNL     1      -7.159   2.754 -33.491  1.00  0.00     0.161 C 
HETATM    8  C   UNL     1      -7.651   3.661 -32.408  1.00  0.00     0.059 C 
HETATM    9  H   UNL     1      -5.918   3.006 -35.190  1.00  0.00     0.165 HD
ENDROOT
BRANCH   8  10
HETATM   10  C   UNL     1      -8.943   3.271 -31.785  1.00  0.00     0.256 C 
HETATM   11  N   UNL     1     -10.030   3.792 -32.444  1.00  0.00    -0.321 N 
HETATM   12  H   UNL     1      -9.876   4.375 -33.262  1.00  0.00     0.169 HD
HETATM   13  O   UNL     1      -8.941   2.557 -30.790  1.00  0.00    -0.267 OA
BRANCH  11  14
HETATM   14  C   UNL     1     -11.395   3.678 -32.097  1.00  0.00     0.068 A 
HETATM   15  C   UNL     1     -12.221   2.957 -32.987  1.00  0.00     0.095 A 
HETATM   16  C   UNL     1     -13.585   2.820 -32.712  1.00  0.00     0.039 A 
HETATM   17  C   UNL     1     -14.127   3.388 -31.558  1.00  0.00     0.003 A 
HETATM   18  C   UNL     1     -13.312   4.095 -30.678  1.00  0.00     0.002 A 
HETATM   19  C   UNL     1     -11.950   4.243 -30.946  1.00  0.00     0.032 A 
BRANCH  15  20
HETATM   20  O   UNL     1     -11.583   2.439 -34.091  1.00  0.00    -0.354 OA
HETATM   21  C   UNL     1     -12.328   1.541 -34.905  1.00  0.00     0.210 C 
ENDBRANCH  15  20
ENDBRANCH  11  14
ENDBRANCH   8  10
BRANCH   7  22
HETATM   22  C   UNL     1      -6.472   1.482 -32.986  1.00  0.00    -0.016 A 
HETATM   23  C   UNL     1      -6.635   0.230 -33.633  1.00  0.00     0.056 A 
HETATM   24  C   UNL     1      -5.975  -0.903 -33.118  1.00  0.00     0.017 A 
HETATM   25  C   UNL     1      -5.152  -0.811 -31.998  1.00  0.00     0.001 A 
HETATM   26  C   UNL     1      -4.968   0.416 -31.375  1.00  0.00     0.001 A 
HETATM   27  C   UNL     1      -5.616   1.549 -31.865  1.00  0.00     0.010 A 
BRANCH  23  28
HETATM   28  C   UNL     1      -7.485   0.075 -34.877  1.00  0.00     0.418 C 
HETATM   29  F   UNL     1      -7.581  -1.223 -35.276  1.00  0.00    -0.166 F 
HETATM   30  F   UNL     1      -8.767   0.509 -34.725  1.00  0.00    -0.166 F 
HETATM   31  F   UNL     1      -6.982   0.762 -35.937  1.00  0.00    -0.166 F 
ENDBRANCH  23  28
ENDBRANCH   7  22
BRANCH   3  32
HETATM   32  C   UNL     1      -5.012   6.281 -32.361  1.00  0.00     0.160 C 
BRANCH  32  33
HETATM   33  C   UNL     1      -3.905   5.857 -31.385  1.00  0.00     0.187 C 
BRANCH  33  34
HETATM   34  O   UNL     1      -2.622   5.903 -32.012  1.00  0.00    -0.394 OA
HETATM   35  C   UNL     1      -1.599   5.415 -31.154  1.00  0.00     0.201 C 
ENDBRANCH  33  34
ENDBRANCH  32  33
ENDBRANCH   3  32
TORSDOF 8
ENDMDL
MODEL 8
REMARK VINA RESULT:      -7.6      3.038      5.041
REMARK  8 active torsions:
REMARK  status: ('A' for Active; 'I' for Inactive)
REMARK    1  A    between atoms: N_3  and  C_4 
REMARK    2  A    between atoms: C_4  and  C_5 
REMARK    3  A    between atoms: C_5  and  O_6 
REMARK    4  A    between atoms: C_11  and  C_12 
REMARK    5  A    between atoms: C_13  and  C_14 
REMARK    6  A    between atoms: C_22  and  C_23 
REMARK       I    between atoms: C_23  and  N_24 
REMARK    7  A    between atoms: N_24  and  C_25 
REMARK    8  A    between atoms: C_26  and  O_27 
ROOT
HETATM    1  C   UNL     1      -9.294   1.803 -33.033  1.00  0.00     0.069 C 
HETATM    2  C   UNL     1      -8.254   2.884 -33.201  1.00  0.00     0.026 C 
HETATM    3  N   UNL     1      -8.518   4.165 -32.687  1.00  0.00    -0.301 N 
HETATM    4  C   UNL     1      -7.740   5.280 -33.019  1.00  0.00     0.323 C 
HETATM    5  O   UNL     1      -7.970   6.434 -32.665  1.00  0.00    -0.247 OA
HETATM    6  N   UNL     1      -6.683   5.054 -33.845  1.00  0.00    -0.330 N 
HETATM    7  C   UNL     1      -6.071   3.766 -34.039  1.00  0.00     0.161 C 
HETATM    8  C   UNL     1      -7.086   2.685 -33.846  1.00  0.00     0.059 C 
HETATM    9  H   UNL     1      -6.137   5.884 -34.032  1.00  0.00     0.165 HD
ENDROOT
BRANCH   8  10
HETATM   10  C   UNL     1      -6.781   1.393 -34.515  1.00  0.00     0.256 C 
HETATM   11  N   UNL     1      -6.397   0.414 -33.631  1.00  0.00    -0.321 N 
HETATM   12  H   UNL     1      -6.351   0.637 -32.640  1.00  0.00     0.169 HD
HETATM   13  O   UNL     1      -6.888   1.305 -35.732  1.00  0.00    -0.267 OA
BRANCH  11  14
HETATM   14  C   UNL     1      -5.978  -0.904 -33.921  1.00  0.00     0.068 A 
HETATM   15  C   UNL     1      -4.642  -1.232 -33.601  1.00  0.00     0.095 A 
HETATM   16  C   UNL     1      -4.157  -2.514 -33.877  1.00  0.00     0.039 A 
HETATM   17  C   UNL     1      -4.993  -3.468 -34.459  1.00  0.00     0.003 A 
HETATM   18  C   UNL     1      -6.312  -3.147 -34.769  1.00  0.00     0.002 A 
HETATM   19  C   UNL     1      -6.804  -1.867 -34.503  1.00  0.00     0.032 A 
BRANCH  15  20
HETATM   20  O   UNL     1      -3.908  -0.217 -33.031  1.00  0.00    -0.354 OA
HETATM   21  C   UNL     1      -3.007  -0.577 -31.991  1.00  0.00     0.210 C 
ENDBRANCH  15  20
ENDBRANCH  11  14
ENDBRANCH   8  10
BRANCH   7  22
HETATM   22  C   UNL     1      -4.841   3.647 -33.135  1.00  0.00    -0.016 A 
HETATM   23  C   UNL     1      -3.597   4.240 -33.473  1.00  0.00     0.056 A 
HETATM   24  C   UNL     1      -2.503   4.095 -32.597  1.00  0.00     0.017 A 
HETATM   25  C   UNL     1      -2.628   3.396 -31.398  1.00  0.00     0.001 A 
HETATM   26  C   UNL     1      -3.849   2.835 -31.049  1.00  0.00     0.001 A 
HETATM   27  C   UNL     1      -4.943   2.963 -31.904  1.00  0.00     0.010 A 
BRANCH  23  28
HETATM   28  C   UNL     1      -3.411   5.044 -34.742  1.00  0.00     0.418 C 
HETATM   29  F   UNL     1      -3.567   6.381 -34.533  1.00  0.00    -0.166 F 
HETATM   30  F   UNL     1      -2.181   4.901 -35.310  1.00  0.00    -0.166 F 
HETATM   31  F   UNL     1      -4.309   4.705 -35.707  1.00  0.00    -0.166 F 
ENDBRANCH  23  28
ENDBRANCH   7  22
BRANCH   3  32
HETATM   32  C   UNL     1      -9.651   4.418 -31.784  1.00  0.00     0.160 C 
BRANCH  32  33
HETATM   33  C   UNL     1      -9.366   4.040 -30.323  1.00  0.00     0.187 C 
BRANCH  33  34
HETATM   34  O   UNL     1      -8.018   4.350 -29.965  1.00  0.00    -0.394 OA
HETATM   35  C   UNL     1      -7.947   5.484 -29.112  1.00  0.00     0.201 C 
ENDBRANCH  33  34
ENDBRANCH  32  33
ENDBRANCH   3  32
TORSDOF 8
ENDMDL
MODEL 9
REMARK VINA RESULT:      -7.5      2.733      6.247
REMARK  8 active torsions:
REMARK  status: ('A' for Active; 'I' for Inactive)
REMARK    1  A    between atoms: N_3  and  C_4 
REMARK    2  A    between atoms: C_4  and  C_5 
REMARK    3  A    between atoms: C_5  and  O_6 
REMARK    4  A    between atoms: C_11  and  C_12 
REMARK    5  A    between atoms: C_13  and  C_14 
REMARK    6  A    between atoms: C_22  and  C_23 
REMARK       I    between atoms: C_23  and  N_24 
REMARK    7  A    between atoms: N_24  and  C_25 
REMARK    8  A    between atoms: C_26  and  O_27 
ROOT
HETATM    1  C   UNL     1      -9.499   4.659 -34.319  1.00  0.00     0.069 C 
HETATM    2  C   UNL     1      -9.531   3.259 -33.754  1.00  0.00     0.026 C 
HETATM    3  N   UNL     1     -10.632   2.436 -34.043  1.00  0.00    -0.301 N 
HETATM    4  C   UNL     1     -10.871   1.238 -33.361  1.00  0.00     0.323 C 
HETATM    5  O   UNL     1     -11.857   0.520 -33.514  1.00  0.00    -0.247 OA
HETATM    6  N   UNL     1      -9.955   0.887 -32.417  1.00  0.00    -0.330 N 
HETATM    7  C   UNL     1      -8.608   1.391 -32.374  1.00  0.00     0.161 C 
HETATM    8  C   UNL     1      -8.558   2.766 -32.960  1.00  0.00     0.059 C 
HETATM    9  H   UNL     1     -10.158   0.002 -31.974  1.00  0.00     0.165 HD
ENDROOT
BRANCH   8  10
HETATM   10  C   UNL     1      -7.418   3.609 -32.516  1.00  0.00     0.256 C 
HETATM   11  N   UNL     1      -6.378   3.613 -33.413  1.00  0.00    -0.321 N 
HETATM   12  H   UNL     1      -6.463   3.065 -34.266  1.00  0.00     0.169 HD
HETATM   13  O   UNL     1      -7.488   4.202 -31.446  1.00  0.00    -0.267 OA
BRANCH  11  14
HETATM   14  C   UNL     1      -5.123   4.250 -33.288  1.00  0.00     0.068 A 
HETATM   15  C   UNL     1      -4.039   3.445 -32.872  1.00  0.00     0.095 A 
HETATM   16  C   UNL     1      -2.773   4.015 -32.711  1.00  0.00     0.039 A 
HETATM   17  C   UNL     1      -2.579   5.373 -32.969  1.00  0.00     0.003 A 
HETATM   18  C   UNL     1      -3.646   6.165 -33.385  1.00  0.00     0.002 A 
HETATM   19  C   UNL     1      -4.916   5.607 -33.543  1.00  0.00     0.032 A 
BRANCH  15  20
HETATM   20  O   UNL     1      -4.343   2.122 -32.647  1.00  0.00    -0.354 OA
HETATM   21  C   UNL     1      -3.279   1.278 -32.222  1.00  0.00     0.210 C 
ENDBRANCH  15  20
ENDBRANCH  11  14
ENDBRANCH   8  10
BRANCH   7  22
HETATM   22  C   UNL     1      -7.669   0.384 -33.046  1.00  0.00    -0.016 A 
HETATM   23  C   UNL     1      -6.636  -0.275 -32.331  1.00  0.00     0.056 A 
HETATM   24  C   UNL     1      -5.806  -1.191 -33.006  1.00  0.00     0.017 A 
HETATM   25  C   UNL     1      -5.994  -1.474 -34.358  1.00  0.00     0.001 A 
HETATM   26  C   UNL     1      -7.020  -0.852 -35.056  1.00  0.00     0.001 A 
HETATM   27  C   UNL     1      -7.850   0.062 -34.408  1.00  0.00     0.010 A 
BRANCH  23  28
HETATM   28  C   UNL     1      -6.408  -0.038 -30.852  1.00  0.00     0.418 C 
HETATM   29  F   UNL     1      -6.439   1.285 -30.532  1.00  0.00    -0.166 F 
HETATM   30  F   UNL     1      -7.332  -0.634 -30.049  1.00  0.00    -0.166 F 
HETATM   31  F   UNL     1      -5.198  -0.501 -30.434  1.00  0.00    -0.166 F 
ENDBRANCH  23  28
ENDBRANCH   7  22
BRANCH   3  32
HETATM   32  C   UNL     1     -11.622   2.800 -35.069  1.00  0.00     0.160 C 
BRANCH  32  33
HETATM   33  C   UNL     1     -12.989   3.192 -34.488  1.00  0.00     0.187 C 
BRANCH  33  34
HETATM   34  O   UNL     1     -12.882   4.349 -33.657  1.00  0.00    -0.394 OA
HETATM   35  C   UNL     1     -13.166   5.541 -34.376  1.00  0.00     0.201 C 
ENDBRANCH  33  34
ENDBRANCH  32  33
ENDBRANCH   3  32
TORSDOF 8
ENDMDL
MODEL 10
REMARK VINA RESULT:      -7.5      3.016      5.935
REMARK  8 active torsions:
REMARK  status: ('A' for Active; 'I' for Inactive)
REMARK    1  A    between atoms: N_3  and  C_4 
REMARK    2  A    between atoms: C_4  and  C_5 
REMARK    3  A    between atoms: C_5  and  O_6 
REMARK    4  A    between atoms: C_11  and  C_12 
REMARK    5  A    between atoms: C_13  and  C_14 
REMARK    6  A    between atoms: C_22  and  C_23 
REMARK       I    between atoms: C_23  and  N_24 
REMARK    7  A    between atoms: N_24  and  C_25 
REMARK    8  A    between atoms: C_26  and  O_27 
ROOT
HETATM    1  C   UNL     1      -9.627   6.201 -33.044  1.00  0.00     0.069 C 
HETATM    2  C   UNL     1      -8.437   5.308 -33.297  1.00  0.00     0.026 C 
HETATM    3  N   UNL     1      -7.150   5.799 -33.021  1.00  0.00    -0.301 N 
HETATM    4  C   UNL     1      -5.991   5.152 -33.463  1.00  0.00     0.323 C 
HETATM    5  O   UNL     1      -4.845   5.575 -33.321  1.00  0.00    -0.247 OA
HETATM    6  N   UNL     1      -6.172   3.992 -34.152  1.00  0.00    -0.330 N 
HETATM    7  C   UNL     1      -7.365   3.192 -34.085  1.00  0.00     0.161 C 
HETATM    8  C   UNL     1      -8.549   4.062 -33.803  1.00  0.00     0.059 C 
HETATM    9  H   UNL     1      -5.305   3.550 -34.425  1.00  0.00     0.165 HD
ENDROOT
BRANCH   8  10
HETATM   10  C   UNL     1      -9.863   3.513 -34.227  1.00  0.00     0.256 C 
HETATM   11  N   UNL     1     -10.482   2.791 -33.236  1.00  0.00    -0.321 N 
HETATM   12  H   UNL     1     -10.018   2.692 -32.337  1.00  0.00     0.169 HD
HETATM   13  O   UNL     1     -10.270   3.731 -35.361  1.00  0.00    -0.267 OA
BRANCH  11  14
HETATM   14  C   UNL     1     -11.703   2.082 -33.308  1.00  0.00     0.068 A 
HETATM   15  C   UNL     1     -12.879   2.809 -33.020  1.00  0.00     0.095 A 
HETATM   16  C   UNL     1     -14.119   2.165 -33.057  1.00  0.00     0.039 A 
HETATM   17  C   UNL     1     -14.195   0.810 -33.386  1.00  0.00     0.003 A 
HETATM   18  C   UNL     1     -13.035   0.095 -33.675  1.00  0.00     0.002 A 
HETATM   19  C   UNL     1     -11.792   0.728 -33.635  1.00  0.00     0.032 A 
BRANCH  15  20
HETATM   20  O   UNL     1     -12.688   4.136 -32.710  1.00  0.00    -0.354 OA
HETATM   21  C   UNL     1     -13.333   5.093 -33.543  1.00  0.00     0.210 C 
ENDBRANCH  15  20
ENDBRANCH  11  14
ENDBRANCH   8  10
BRANCH   7  22
HETATM   22  C   UNL     1      -7.160   2.059 -33.074  1.00  0.00    -0.016 A 
HETATM   23  C   UNL     1      -7.272   0.693 -33.440  1.00  0.00     0.056 A 
HETATM   24  C   UNL     1      -7.071  -0.301 -32.463  1.00  0.00     0.017 A 
HETATM   25  C   UNL     1      -6.746   0.033 -31.150  1.00  0.00     0.001 A 
HETATM   26  C   UNL     1      -6.609   1.367 -30.791  1.00  0.00     0.001 A 
HETATM   27  C   UNL     1      -6.809   2.368 -31.741  1.00  0.00     0.010 A 
BRANCH  23  28
HETATM   28  C   UNL     1      -7.585   0.267 -34.859  1.00  0.00     0.418 C 
HETATM   29  F   UNL     1      -8.868   0.555 -35.212  1.00  0.00    -0.166 F 
HETATM   30  F   UNL     1      -6.801   0.864 -35.800  1.00  0.00    -0.166 F 
HETATM   31  F   UNL     1      -7.433  -1.072 -35.044  1.00  0.00    -0.166 F 
ENDBRANCH  23  28
ENDBRANCH   7  22
BRANCH   3  32
HETATM   32  C   UNL     1      -6.942   7.045 -32.268  1.00  0.00     0.160 C 
BRANCH  32  33
HETATM   33  C   UNL     1      -6.799   6.829 -30.754  1.00  0.00     0.187 C 
BRANCH  33  34
HETATM   34  O   UNL     1      -8.007   7.166 -30.070  1.00  0.00    -0.394 OA
HETATM   35  C   UNL     1      -8.493   6.080 -29.294  1.00  0.00     0.201 C 
ENDBRANCH  33  34
ENDBRANCH  32  33
ENDBRANCH   3  32
TORSDOF 8
ENDMDL
