MODEL 1
REMARK VINA RESULT:      -8.6      0.000      0.000
REMARK  3 active torsions:
REMARK  status: ('A' for Active; 'I' for Inactive)
REMARK    1  A    between atoms: C_4  and  N_5 
REMARK       I    between atoms: N_5  and  C_6 
REMARK    2  A    between atoms: C_6  and  C_7 
REMARK    3  A    between atoms: C_7  and  C_8 
ROOT
HETATM    1  C   UNL     1      -9.408   1.863 -33.772  1.00  0.00     0.286 C 
HETATM    2  N   UNL     1     -10.231   2.530 -34.873  1.00  0.00    -0.056 N 
HETATM    3  H   UNL     1      -9.877   3.511 -34.929  1.00  0.00     0.278 HD
HETATM    4  H   UNL     1     -10.033   2.114 -35.789  1.00  0.00     0.278 HD
HETATM    5  C   UNL     1     -11.707   2.622 -34.615  1.00  0.00     0.209 C 
HETATM    6  C   UNL     1     -11.949   3.242 -33.218  1.00  0.00     0.115 C 
HETATM    7  N   UNL     1     -11.176   2.580 -32.169  1.00  0.00    -0.353 N 
HETATM    8  C   UNL     1      -9.868   2.204 -32.340  1.00  0.00     0.249 C 
HETATM    9  O   UNL     1      -9.138   2.055 -31.366  1.00  0.00    -0.271 OA
HETATM   10  C   UNL     1     -12.357   1.248 -34.784  1.00  0.00     0.035 C 
HETATM   11  C   UNL     1     -13.847   1.314 -34.457  1.00  0.00     0.002 C 
HETATM   12  C   UNL     1     -14.091   1.875 -33.058  1.00  0.00     0.002 C 
HETATM   13  C   UNL     1     -13.442   3.247 -32.876  1.00  0.00     0.027 C 
HETATM   14  H   UNL     1     -11.379   2.830 -31.203  1.00  0.00     0.163 HD
ENDROOT
BRANCH   1  15
HETATM   15  C   UNL     1      -7.912   2.182 -33.933  1.00  0.00     0.146 C 
BRANCH  15  16
HETATM   16  C   UNL     1      -7.187   0.988 -34.521  1.00  0.00     0.224 C 
HETATM   17  N   UNL     1      -6.756   0.075 -33.591  1.00  0.00    -0.327 N 
HETATM   18  H   UNL     1      -6.873   0.300 -32.608  1.00  0.00     0.169 HD
HETATM   19  O   UNL     1      -7.102   0.908 -35.747  1.00  0.00    -0.273 OA
BRANCH  17  20
HETATM   20  C   UNL     1      -6.101  -1.153 -33.842  1.00  0.00     0.035 A 
HETATM   21  C   UNL     1      -6.689  -2.232 -34.507  1.00  0.00     0.036 A 
HETATM   22  C   UNL     1      -5.980  -3.427 -34.714  1.00  0.00    -0.060 A 
HETATM   23  C   UNL     1      -6.625  -4.564 -35.453  1.00  0.00     0.048 C 
HETATM   24  C   UNL     1      -4.662  -3.529 -34.262  1.00  0.00     0.007 A 
HETATM   25  C   UNL     1      -4.068  -2.458 -33.596  1.00  0.00     0.003 A 
HETATM   26  C   UNL     1      -4.785  -1.279 -33.385  1.00  0.00     0.029 A 
ENDBRANCH  17  20
ENDBRANCH  15  16
ENDBRANCH   1  15
TORSDOF 3
ENDMDL
MODEL 2
REMARK VINA RESULT:      -8.5      1.623      3.033
REMARK  3 active torsions:
REMARK  status: ('A' for Active; 'I' for Inactive)
REMARK    1  A    between atoms: C_4  and  N_5 
REMARK       I    between atoms: N_5  and  C_6 
REMARK    2  A    between atoms: C_6  and  C_7 
REMARK    3  A    between atoms: C_7  and  C_8 
ROOT
HETATM    1  C   UNL     1      -7.333   1.956 -33.170  1.00  0.00     0.286 C 
HETATM    2  N   UNL     1      -8.205   1.665 -31.950  1.00  0.00    -0.056 N 
HETATM    3  H   UNL     1      -8.016   0.668 -31.705  1.00  0.00     0.278 HD
HETATM    4  H   UNL     1      -7.900   2.210 -31.136  1.00  0.00     0.278 HD
HETATM    5  C   UNL     1      -9.686   1.779 -32.168  1.00  0.00     0.209 C 
HETATM    6  C   UNL     1     -10.089   0.951 -33.412  1.00  0.00     0.115 C 
HETATM    7  N   UNL     1      -9.265   1.256 -34.580  1.00  0.00    -0.353 N 
HETATM    8  C   UNL     1      -7.906   1.429 -34.501  1.00  0.00     0.249 C 
HETATM    9  O   UNL     1      -7.206   1.260 -35.494  1.00  0.00    -0.271 OA
HETATM   10  C   UNL     1     -10.092   3.249 -32.267  1.00  0.00     0.035 C 
HETATM   11  C   UNL     1     -11.585   3.378 -32.558  1.00  0.00     0.002 C 
HETATM   12  C   UNL     1     -11.981   2.607 -33.815  1.00  0.00     0.002 C 
HETATM   13  C   UNL     1     -11.576   1.135 -33.730  1.00  0.00     0.027 C 
HETATM   14  H   UNL     1      -9.549   0.863 -35.476  1.00  0.00     0.163 HD
ENDROOT
BRANCH   1  15
HETATM   15  C   UNL     1      -5.905   1.423 -32.966  1.00  0.00     0.146 C 
BRANCH  15  16
HETATM   16  C   UNL     1      -5.925  -0.089 -32.858  1.00  0.00     0.224 C 
HETATM   17  N   UNL     1      -5.665  -0.743 -34.036  1.00  0.00    -0.327 N 
HETATM   18  H   UNL     1      -5.567  -0.189 -34.881  1.00  0.00     0.169 HD
HETATM   19  O   UNL     1      -6.105  -0.588 -31.746  1.00  0.00    -0.273 OA
BRANCH  17  20
HETATM   20  C   UNL     1      -5.565  -2.140 -34.232  1.00  0.00     0.035 A 
HETATM   21  C   UNL     1      -4.435  -2.897 -33.915  1.00  0.00     0.036 A 
HETATM   22  C   UNL     1      -4.404  -4.283 -34.145  1.00  0.00    -0.060 A 
HETATM   23  C   UNL     1      -3.185  -5.078 -33.773  1.00  0.00     0.048 C 
HETATM   24  C   UNL     1      -5.529  -4.913 -34.682  1.00  0.00     0.007 A 
HETATM   25  C   UNL     1      -6.661  -4.166 -35.003  1.00  0.00     0.003 A 
HETATM   26  C   UNL     1      -6.678  -2.788 -34.782  1.00  0.00     0.029 A 
ENDBRANCH  17  20
ENDBRANCH  15  16
ENDBRANCH   1  15
TORSDOF 3
ENDMDL
MODEL 3
REMARK VINA RESULT:      -8.2      4.014      6.360
REMARK  3 active torsions:
REMARK  status: ('A' for Active; 'I' for Inactive)
REMARK    1  A    between atoms: C_4  and  N_5 
REMARK       I    between atoms: N_5  and  C_6 
REMARK    2  A    between atoms: C_6  and  C_7 
REMARK    3  A    between atoms: C_7  and  C_8 
ROOT
HETATM    1  C   UNL     1      -5.564   3.419 -33.276  1.00  0.00     0.286 C 
HETATM    2  N   UNL     1      -4.539   3.353 -32.145  1.00  0.00    -0.056 N 
HETATM    3  H   UNL     1      -5.086   3.486 -31.266  1.00  0.00     0.278 HD
HETATM    4  H   UNL     1      -4.126   2.416 -32.072  1.00  0.00     0.278 HD
HETATM    5  C   UNL     1      -3.485   4.422 -32.160  1.00  0.00     0.209 C 
HETATM    6  C   UNL     1      -4.160   5.809 -32.285  1.00  0.00     0.115 C 
HETATM    7  N   UNL     1      -5.120   5.868 -33.385  1.00  0.00    -0.353 N 
HETATM    8  C   UNL     1      -5.996   4.849 -33.658  1.00  0.00     0.249 C 
HETATM    9  O   UNL     1      -7.033   5.076 -34.273  1.00  0.00    -0.271 OA
HETATM   10  C   UNL     1      -2.470   4.145 -33.268  1.00  0.00     0.035 C 
HETATM   11  C   UNL     1      -1.432   5.263 -33.340  1.00  0.00     0.002 C 
HETATM   12  C   UNL     1      -2.089   6.629 -33.517  1.00  0.00     0.002 C 
HETATM   13  C   UNL     1      -3.110   6.916 -32.416  1.00  0.00     0.027 C 
HETATM   14  H   UNL     1      -5.505   6.780 -33.628  1.00  0.00     0.163 HD
ENDROOT
BRANCH   1  15
HETATM   15  C   UNL     1      -6.801   2.566 -32.949  1.00  0.00     0.146 C 
BRANCH  15  16
HETATM   16  C   UNL     1      -6.396   1.120 -32.748  1.00  0.00     0.224 C 
HETATM   17  N   UNL     1      -6.124   0.443 -33.911  1.00  0.00    -0.327 N 
HETATM   18  H   UNL     1      -6.292   0.917 -34.792  1.00  0.00     0.169 HD
HETATM   19  O   UNL     1      -6.288   0.703 -31.594  1.00  0.00    -0.273 OA
BRANCH  17  20
HETATM   20  C   UNL     1      -5.676  -0.893 -34.035  1.00  0.00     0.035 A 
HETATM   21  C   UNL     1      -6.425  -1.920 -34.615  1.00  0.00     0.036 A 
HETATM   22  C   UNL     1      -5.918  -3.227 -34.697  1.00  0.00    -0.060 A 
HETATM   23  C   UNL     1      -6.733  -4.309 -35.347  1.00  0.00     0.048 C 
HETATM   24  C   UNL     1      -4.638  -3.498 -34.206  1.00  0.00     0.007 A 
HETATM   25  C   UNL     1      -3.883  -2.480 -33.625  1.00  0.00     0.003 A 
HETATM   26  C   UNL     1      -4.401  -1.186 -33.538  1.00  0.00     0.029 A 
ENDBRANCH  17  20
ENDBRANCH  15  16
ENDBRANCH   1  15
TORSDOF 3
ENDMDL
MODEL 4
REMARK VINA RESULT:      -8.2      4.788      7.777
REMARK  3 active torsions:
REMARK  status: ('A' for Active; 'I' for Inactive)
REMARK    1  A    between atoms: C_4  and  N_5 
REMARK       I    between atoms: N_5  and  C_6 
REMARK    2  A    between atoms: C_6  and  C_7 
REMARK    3  A    between atoms: C_7  and  C_8 
ROOT
HETATM    1  C   UNL     1      -5.133   0.217 -31.558  1.00  0.00     0.286 C 
HETATM    2  N   UNL     1      -4.268   0.163 -32.816  1.00  0.00    -0.056 N 
HETATM    3  H   UNL     1      -4.370   1.101 -33.264  1.00  0.00     0.278 HD
HETATM    4  H   UNL     1      -3.273   0.080 -32.580  1.00  0.00     0.278 HD
HETATM    5  C   UNL     1      -4.679  -0.850 -33.844  1.00  0.00     0.209 C 
HETATM    6  C   UNL     1      -6.187  -0.689 -34.153  1.00  0.00     0.115 C 
HETATM    7  N   UNL     1      -7.007  -0.663 -32.944  1.00  0.00    -0.353 N 
HETATM    8  C   UNL     1      -6.641   0.027 -31.816  1.00  0.00     0.249 C 
HETATM    9  O   UNL     1      -7.493   0.381 -31.007  1.00  0.00    -0.271 OA
HETATM   10  C   UNL     1      -4.309  -2.257 -33.375  1.00  0.00     0.035 C 
HETATM   11  C   UNL     1      -4.784  -3.303 -34.380  1.00  0.00     0.002 C 
HETATM   12  C   UNL     1      -6.283  -3.184 -34.648  1.00  0.00     0.002 C 
HETATM   13  C   UNL     1      -6.666  -1.780 -35.115  1.00  0.00     0.027 C 
HETATM   14  H   UNL     1      -8.019  -0.702 -33.057  1.00  0.00     0.163 HD
ENDROOT
BRANCH   1  15
HETATM   15  C   UNL     1      -4.894   1.523 -30.781  1.00  0.00     0.146 C 
BRANCH  15  16
HETATM   16  C   UNL     1      -3.626   2.194 -31.270  1.00  0.00     0.224 C 
HETATM   17  N   UNL     1      -3.819   3.434 -31.824  1.00  0.00    -0.327 N 
HETATM   18  H   UNL     1      -4.773   3.763 -31.941  1.00  0.00     0.169 HD
HETATM   19  O   UNL     1      -2.555   1.616 -31.079  1.00  0.00    -0.273 OA
BRANCH  17  20
HETATM   20  C   UNL     1      -2.827   4.314 -32.315  1.00  0.00     0.035 A 
HETATM   21  C   UNL     1      -1.843   4.907 -31.519  1.00  0.00     0.036 A 
HETATM   22  C   UNL     1      -0.892   5.778 -32.075  1.00  0.00    -0.060 A 
HETATM   23  C   UNL     1       0.170   6.384 -31.203  1.00  0.00     0.048 C 
HETATM   24  C   UNL     1      -0.922   6.041 -33.447  1.00  0.00     0.007 A 
HETATM   25  C   UNL     1      -1.900   5.455 -34.248  1.00  0.00     0.003 A 
HETATM   26  C   UNL     1      -2.848   4.599 -33.685  1.00  0.00     0.029 A 
ENDBRANCH  17  20
ENDBRANCH  15  16
ENDBRANCH   1  15
TORSDOF 3
ENDMDL
MODEL 5
REMARK VINA RESULT:      -8.2      4.881      7.314
REMARK  3 active torsions:
REMARK  status: ('A' for Active; 'I' for Inactive)
REMARK    1  A    between atoms: C_4  and  N_5 
REMARK       I    between atoms: N_5  and  C_6 
REMARK    2  A    between atoms: C_6  and  C_7 
REMARK    3  A    between atoms: C_7  and  C_8 
ROOT
HETATM    1  C   UNL     1      -4.299   4.297 -31.411  1.00  0.00     0.286 C 
HETATM    2  N   UNL     1      -4.763   5.277 -32.487  1.00  0.00    -0.056 N 
HETATM    3  H   UNL     1      -5.276   4.698 -33.187  1.00  0.00     0.278 HD
HETATM    4  H   UNL     1      -5.455   5.937 -32.116  1.00  0.00     0.278 HD
HETATM    5  C   UNL     1      -3.670   5.985 -33.235  1.00  0.00     0.209 C 
HETATM    6  C   UNL     1      -2.649   4.949 -33.760  1.00  0.00     0.115 C 
HETATM    7  N   UNL     1      -2.193   4.032 -32.717  1.00  0.00    -0.353 N 
HETATM    8  C   UNL     1      -3.044   3.485 -31.789  1.00  0.00     0.249 C 
HETATM    9  O   UNL     1      -2.747   2.439 -31.223  1.00  0.00    -0.271 OA
HETATM   10  C   UNL     1      -3.037   7.059 -32.350  1.00  0.00     0.035 C 
HETATM   11  C   UNL     1      -1.878   7.740 -33.074  1.00  0.00     0.002 C 
HETATM   12  C   UNL     1      -0.839   6.726 -33.549  1.00  0.00     0.002 C 
HETATM   13  C   UNL     1      -1.462   5.645 -34.432  1.00  0.00     0.027 C 
HETATM   14  H   UNL     1      -1.418   3.409 -32.939  1.00  0.00     0.163 HD
ENDROOT
BRANCH   1  15
HETATM   15  C   UNL     1      -5.437   3.346 -31.005  1.00  0.00     0.146 C 
BRANCH  15  16
HETATM   16  C   UNL     1      -5.787   2.432 -32.163  1.00  0.00     0.224 C 
HETATM   17  N   UNL     1      -5.680   1.094 -31.879  1.00  0.00    -0.327 N 
HETATM   18  H   UNL     1      -5.304   0.824 -30.975  1.00  0.00     0.169 HD
HETATM   19  O   UNL     1      -6.187   2.948 -33.208  1.00  0.00    -0.273 OA
BRANCH  17  20
HETATM   20  C   UNL     1      -5.989   0.012 -32.737  1.00  0.00     0.035 A 
HETATM   21  C   UNL     1      -5.045  -0.895 -33.224  1.00  0.00     0.036 A 
HETATM   22  C   UNL     1      -5.423  -1.943 -34.080  1.00  0.00    -0.060 A 
HETATM   23  C   UNL     1      -4.393  -2.919 -34.571  1.00  0.00     0.048 C 
HETATM   24  C   UNL     1      -6.767  -2.086 -34.434  1.00  0.00     0.007 A 
HETATM   25  C   UNL     1      -7.716  -1.186 -33.954  1.00  0.00     0.003 A 
HETATM   26  C   UNL     1      -7.328  -0.141 -33.113  1.00  0.00     0.029 A 
ENDBRANCH  17  20
ENDBRANCH  15  16
ENDBRANCH   1  15
TORSDOF 3
ENDMDL
MODEL 6
REMARK VINA RESULT:      -8.0      4.894      7.326
REMARK  3 active torsions:
REMARK  status: ('A' for Active; 'I' for Inactive)
REMARK    1  A    between atoms: C_4  and  N_5 
REMARK       I    between atoms: N_5  and  C_6 
REMARK    2  A    between atoms: C_6  and  C_7 
REMARK    3  A    between atoms: C_7  and  C_8 
ROOT
HETATM    1  C   UNL     1      -4.434   3.921 -31.424  1.00  0.00     0.286 C 
HETATM    2  N   UNL     1      -2.922   3.816 -31.229  1.00  0.00    -0.056 N 
HETATM    3  H   UNL     1      -2.765   3.939 -30.205  1.00  0.00     0.278 HD
HETATM    4  H   UNL     1      -2.585   2.871 -31.447  1.00  0.00     0.278 HD
HETATM    5  C   UNL     1      -2.104   4.868 -31.919  1.00  0.00     0.209 C 
HETATM    6  C   UNL     1      -2.662   6.268 -31.569  1.00  0.00     0.115 C 
HETATM    7  N   UNL     1      -4.105   6.365 -31.782  1.00  0.00    -0.353 N 
HETATM    8  C   UNL     1      -4.975   5.365 -31.426  1.00  0.00     0.249 C 
HETATM    9  O   UNL     1      -6.156   5.622 -31.219  1.00  0.00    -0.271 OA
HETATM   10  C   UNL     1      -2.058   4.598 -33.423  1.00  0.00     0.035 C 
HETATM   11  C   UNL     1      -1.286   5.700 -34.145  1.00  0.00     0.002 C 
HETATM   12  C   UNL     1      -1.866   7.080 -33.846  1.00  0.00     0.002 C 
HETATM   13  C   UNL     1      -1.921   7.360 -32.344  1.00  0.00     0.027 C 
HETATM   14  H   UNL     1      -4.533   7.287 -31.712  1.00  0.00     0.163 HD
ENDROOT
BRANCH   1  15
HETATM   15  C   UNL     1      -5.184   3.082 -30.376  1.00  0.00     0.146 C 
BRANCH  15  16
HETATM   16  C   UNL     1      -5.783   1.851 -31.028  1.00  0.00     0.224 C 
HETATM   17  N   UNL     1      -5.493   1.723 -32.364  1.00  0.00    -0.327 N 
HETATM   18  H   UNL     1      -4.991   2.478 -32.820  1.00  0.00     0.169 HD
HETATM   19  O   UNL     1      -6.405   1.063 -30.316  1.00  0.00    -0.273 OA
BRANCH  17  20
HETATM   20  C   UNL     1      -5.866   0.659 -33.219  1.00  0.00     0.035 A 
HETATM   21  C   UNL     1      -5.185  -0.558 -33.298  1.00  0.00     0.036 A 
HETATM   22  C   UNL     1      -5.608  -1.568 -34.177  1.00  0.00    -0.060 A 
HETATM   23  C   UNL     1      -4.872  -2.876 -34.227  1.00  0.00     0.048 C 
HETATM   24  C   UNL     1      -6.738  -1.356 -34.971  1.00  0.00     0.007 A 
HETATM   25  C   UNL     1      -7.424  -0.145 -34.900  1.00  0.00     0.003 A 
HETATM   26  C   UNL     1      -6.989   0.858 -34.031  1.00  0.00     0.029 A 
ENDBRANCH  17  20
ENDBRANCH  15  16
ENDBRANCH   1  15
TORSDOF 3
ENDMDL
MODEL 7
REMARK VINA RESULT:      -7.8      3.232      4.479
REMARK  3 active torsions:
REMARK  status: ('A' for Active; 'I' for Inactive)
REMARK    1  A    between atoms: C_4  and  N_5 
REMARK       I    between atoms: N_5  and  C_6 
REMARK    2  A    between atoms: C_6  and  C_7 
REMARK    3  A    between atoms: C_7  and  C_8 
ROOT
HETATM    1  C   UNL     1      -5.134   2.152 -31.974  1.00  0.00     0.286 C 
HETATM    2  N   UNL     1      -5.520   2.009 -30.503  1.00  0.00    -0.056 N 
HETATM    3  H   UNL     1      -5.574   0.981 -30.329  1.00  0.00     0.278 HD
HETATM    4  H   UNL     1      -4.775   2.352 -29.888  1.00  0.00     0.278 HD
HETATM    5  C   UNL     1      -6.857   2.578 -30.124  1.00  0.00     0.209 C 
HETATM    6  C   UNL     1      -7.939   2.039 -31.090  1.00  0.00     0.115 C 
HETATM    7  N   UNL     1      -7.570   2.205 -32.494  1.00  0.00    -0.353 N 
HETATM    8  C   UNL     1      -6.303   1.958 -32.960  1.00  0.00     0.249 C 
HETATM    9  O   UNL     1      -6.123   1.693 -34.144  1.00  0.00    -0.271 OA
HETATM   10  C   UNL     1      -6.788   4.104 -30.089  1.00  0.00     0.035 C 
HETATM   11  C   UNL     1      -8.158   4.699 -29.773  1.00  0.00     0.002 C 
HETATM   12  C   UNL     1      -9.221   4.213 -30.755  1.00  0.00     0.002 C 
HETATM   13  C   UNL     1      -9.297   2.687 -30.802  1.00  0.00     0.027 C 
HETATM   14  H   UNL     1      -8.281   2.008 -33.197  1.00  0.00     0.163 HD
ENDROOT
BRANCH   1  15
HETATM   15  C   UNL     1      -3.979   1.203 -32.336  1.00  0.00     0.146 C 
BRANCH  15  16
HETATM   16  C   UNL     1      -4.474  -0.230 -32.359  1.00  0.00     0.224 C 
HETATM   17  N   UNL     1      -4.091  -0.942 -33.467  1.00  0.00    -0.327 N 
HETATM   18  H   UNL     1      -3.596  -0.451 -34.205  1.00  0.00     0.169 HD
HETATM   19  O   UNL     1      -5.104  -0.641 -31.383  1.00  0.00    -0.273 OA
BRANCH  17  20
HETATM   20  C   UNL     1      -4.355  -2.305 -33.739  1.00  0.00     0.035 A 
HETATM   21  C   UNL     1      -5.417  -2.755 -34.527  1.00  0.00     0.036 A 
HETATM   22  C   UNL     1      -5.623  -4.127 -34.748  1.00  0.00    -0.060 A 
HETATM   23  C   UNL     1      -6.759  -4.584 -35.619  1.00  0.00     0.048 C 
HETATM   24  C   UNL     1      -4.741  -5.052 -34.184  1.00  0.00     0.007 A 
HETATM   25  C   UNL     1      -3.679  -4.613 -33.396  1.00  0.00     0.003 A 
HETATM   26  C   UNL     1      -3.489  -3.248 -33.173  1.00  0.00     0.029 A 
ENDBRANCH  17  20
ENDBRANCH  15  16
ENDBRANCH   1  15
TORSDOF 3
ENDMDL
MODEL 8
REMARK VINA RESULT:      -7.8      5.354      7.711
REMARK  3 active torsions:
REMARK  status: ('A' for Active; 'I' for Inactive)
REMARK    1  A    between atoms: C_4  and  N_5 
REMARK       I    between atoms: N_5  and  C_6 
REMARK    2  A    between atoms: C_6  and  C_7 
REMARK    3  A    between atoms: C_7  and  C_8 
ROOT
HETATM    1  C   UNL     1      -5.435   1.792 -31.818  1.00  0.00     0.286 C 
HETATM    2  N   UNL     1      -6.930   1.479 -31.844  1.00  0.00    -0.056 N 
HETATM    3  H   UNL     1      -7.145   1.074 -30.906  1.00  0.00     0.278 HD
HETATM    4  H   UNL     1      -7.488   2.338 -31.906  1.00  0.00     0.278 HD
HETATM    5  C   UNL     1      -7.364   0.463 -32.860  1.00  0.00     0.209 C 
HETATM    6  C   UNL     1      -6.484  -0.802 -32.732  1.00  0.00     0.115 C 
HETATM    7  N   UNL     1      -5.055  -0.494 -32.734  1.00  0.00    -0.353 N 
HETATM    8  C   UNL     1      -4.526   0.567 -32.043  1.00  0.00     0.249 C 
HETATM    9  O   UNL     1      -3.344   0.560 -31.714  1.00  0.00    -0.271 OA
HETATM   10  C   UNL     1      -7.338   1.076 -34.260  1.00  0.00     0.035 C 
HETATM   11  C   UNL     1      -7.711   0.032 -35.311  1.00  0.00     0.002 C 
HETATM   12  C   UNL     1      -6.810  -1.198 -35.226  1.00  0.00     0.002 C 
HETATM   13  C   UNL     1      -6.825  -1.816 -33.828  1.00  0.00     0.027 C 
HETATM   14  H   UNL     1      -4.402  -1.274 -32.796  1.00  0.00     0.163 HD
ENDROOT
BRANCH   1  15
HETATM   15  C   UNL     1      -5.043   2.504 -30.513  1.00  0.00     0.146 C 
BRANCH  15  16
HETATM   16  C   UNL     1      -4.339   3.809 -30.824  1.00  0.00     0.224 C 
HETATM   17  N   UNL     1      -3.079   3.661 -31.346  1.00  0.00    -0.327 N 
HETATM   18  H   UNL     1      -2.690   2.725 -31.403  1.00  0.00     0.169 HD
HETATM   19  O   UNL     1      -4.959   4.859 -30.647  1.00  0.00    -0.273 OA
BRANCH  17  20
HETATM   20  C   UNL     1      -2.208   4.689 -31.780  1.00  0.00     0.035 A 
HETATM   21  C   UNL     1      -1.310   5.358 -30.945  1.00  0.00     0.036 A 
HETATM   22  C   UNL     1      -0.480   6.376 -31.443  1.00  0.00    -0.060 A 
HETATM   23  C   UNL     1       0.494   7.064 -30.530  1.00  0.00     0.048 C 
HETATM   24  C   UNL     1      -0.544   6.709 -32.799  1.00  0.00     0.007 A 
HETATM   25  C   UNL     1      -1.437   6.048 -33.639  1.00  0.00     0.003 A 
HETATM   26  C   UNL     1      -2.266   5.045 -33.132  1.00  0.00     0.029 A 
ENDBRANCH  17  20
ENDBRANCH  15  16
ENDBRANCH   1  15
TORSDOF 3
ENDMDL
MODEL 9
REMARK VINA RESULT:      -7.7      2.065      7.408
REMARK  3 active torsions:
REMARK  status: ('A' for Active; 'I' for Inactive)
REMARK    1  A    between atoms: C_4  and  N_5 
REMARK       I    between atoms: N_5  and  C_6 
REMARK    2  A    between atoms: C_6  and  C_7 
REMARK    3  A    between atoms: C_7  and  C_8 
ROOT
HETATM    1  C   UNL     1      -6.471   0.172 -34.445  1.00  0.00     0.286 C 
HETATM    2  N   UNL     1      -6.408  -1.062 -33.547  1.00  0.00    -0.056 N 
HETATM    3  H   UNL     1      -7.346  -1.123 -33.093  1.00  0.00     0.278 HD
HETATM    4  H   UNL     1      -6.315  -1.921 -34.101  1.00  0.00     0.278 HD
HETATM    5  C   UNL     1      -5.398  -1.008 -32.437  1.00  0.00     0.209 C 
HETATM    6  C   UNL     1      -5.574   0.309 -31.644  1.00  0.00     0.115 C 
HETATM    7  N   UNL     1      -5.607   1.485 -32.511  1.00  0.00    -0.353 N 
HETATM    8  C   UNL     1      -6.294   1.510 -33.699  1.00  0.00     0.249 C 
HETATM    9  O   UNL     1      -6.657   2.579 -34.178  1.00  0.00    -0.271 OA
HETATM   10  C   UNL     1      -3.988  -1.188 -32.999  1.00  0.00     0.035 C 
HETATM   11  C   UNL     1      -2.946  -1.065 -31.890  1.00  0.00     0.002 C 
HETATM   12  C   UNL     1      -3.080   0.257 -31.138  1.00  0.00     0.002 C 
HETATM   13  C   UNL     1      -4.487   0.450 -30.574  1.00  0.00     0.027 C 
HETATM   14  H   UNL     1      -5.578   2.402 -32.067  1.00  0.00     0.163 HD
ENDROOT
BRANCH   1  15
HETATM   15  C   UNL     1      -7.774   0.195 -35.260  1.00  0.00     0.146 C 
BRANCH  15  16
HETATM   16  C   UNL     1      -8.955   0.453 -34.346  1.00  0.00     0.224 C 
HETATM   17  N   UNL     1      -9.800   1.443 -34.780  1.00  0.00    -0.327 N 
HETATM   18  H   UNL     1      -9.536   1.970 -35.607  1.00  0.00     0.169 HD
HETATM   19  O   UNL     1      -9.087  -0.266 -33.354  1.00  0.00    -0.273 OA
BRANCH  17  20
HETATM   20  C   UNL     1     -11.003   1.866 -34.169  1.00  0.00     0.035 A 
HETATM   21  C   UNL     1     -12.250   1.281 -34.404  1.00  0.00     0.036 A 
HETATM   22  C   UNL     1     -13.406   1.760 -33.766  1.00  0.00    -0.060 A 
HETATM   23  C   UNL     1     -14.731   1.099 -34.019  1.00  0.00     0.048 C 
HETATM   24  C   UNL     1     -13.301   2.827 -32.870  1.00  0.00     0.007 A 
HETATM   25  C   UNL     1     -12.062   3.418 -32.629  1.00  0.00     0.003 A 
HETATM   26  C   UNL     1     -10.921   2.942 -33.277  1.00  0.00     0.029 A 
ENDBRANCH  17  20
ENDBRANCH  15  16
ENDBRANCH   1  15
TORSDOF 3
ENDMDL
MODEL 10
REMARK VINA RESULT:      -7.6      2.458      3.481
REMARK  3 active torsions:
REMARK  status: ('A' for Active; 'I' for Inactive)
REMARK    1  A    between atoms: C_4  and  N_5 
REMARK       I    between atoms: N_5  and  C_6 
REMARK    2  A    between atoms: C_6  and  C_7 
REMARK    3  A    between atoms: C_7  and  C_8 
ROOT
HETATM    1  C   UNL     1     -10.962   2.490 -34.502  1.00  0.00     0.286 C 
HETATM    2  N   UNL     1     -10.624   3.667 -33.588  1.00  0.00    -0.056 N 
HETATM    3  H   UNL     1     -10.972   3.394 -32.643  1.00  0.00     0.278 HD
HETATM    4  H   UNL     1      -9.609   3.777 -33.485  1.00  0.00     0.278 HD
HETATM    5  C   UNL     1     -11.290   4.968 -33.931  1.00  0.00     0.209 C 
HETATM    6  C   UNL     1     -12.812   4.742 -34.089  1.00  0.00     0.115 C 
HETATM    7  N   UNL     1     -13.125   3.630 -34.984  1.00  0.00    -0.353 N 
HETATM    8  C   UNL     1     -12.433   2.445 -34.962  1.00  0.00     0.249 C 
HETATM    9  O   UNL     1     -12.954   1.420 -35.389  1.00  0.00    -0.271 OA
HETATM   10  C   UNL     1     -10.641   5.580 -35.173  1.00  0.00     0.035 C 
HETATM   11  C   UNL     1     -11.354   6.869 -35.574  1.00  0.00     0.002 C 
HETATM   12  C   UNL     1     -12.850   6.642 -35.783  1.00  0.00     0.002 C 
HETATM   13  C   UNL     1     -13.509   6.026 -34.549  1.00  0.00     0.027 C 
HETATM   14  H   UNL     1     -14.098   3.500 -35.256  1.00  0.00     0.163 HD
ENDROOT
BRANCH   1  15
HETATM   15  C   UNL     1     -10.577   1.154 -33.845  1.00  0.00     0.146 C 
BRANCH  15  16
HETATM   16  C   UNL     1      -9.081   0.934 -33.955  1.00  0.00     0.224 C 
HETATM   17  N   UNL     1      -8.651  -0.275 -33.470  1.00  0.00    -0.327 N 
HETATM   18  H   UNL     1      -9.328  -0.876 -33.010  1.00  0.00     0.169 HD
HETATM   19  O   UNL     1      -8.407   1.803 -34.511  1.00  0.00    -0.273 OA
BRANCH  17  20
HETATM   20  C   UNL     1      -7.329  -0.779 -33.485  1.00  0.00     0.035 A 
HETATM   21  C   UNL     1      -6.355  -0.453 -32.538  1.00  0.00     0.036 A 
HETATM   22  C   UNL     1      -5.058  -0.987 -32.621  1.00  0.00    -0.060 A 
HETATM   23  C   UNL     1      -4.036  -0.639 -31.577  1.00  0.00     0.048 C 
HETATM   24  C   UNL     1      -4.746  -1.870 -33.657  1.00  0.00     0.007 A 
HETATM   25  C   UNL     1      -5.710  -2.200 -34.608  1.00  0.00     0.003 A 
HETATM   26  C   UNL     1      -6.993  -1.656 -34.523  1.00  0.00     0.029 A 
ENDBRANCH  17  20
ENDBRANCH  15  16
ENDBRANCH   1  15
TORSDOF 3
ENDMDL
