MODEL 1
REMARK VINA RESULT:      -9.1      0.000      0.000
REMARK  8 active torsions:
REMARK  status: ('A' for Active; 'I' for Inactive)
REMARK    1  A    between atoms: C_7  and  C_8 
REMARK    2  A    between atoms: C_10  and  O_11 
REMARK    3  A    between atoms: C_13  and  O_14 
REMARK    4  A    between atoms: O_14  and  C_15 
REMARK    5  A    between atoms: C_15  and  C_16 
REMARK       I    between atoms: C_16  and  N_17 
REMARK    6  A    between atoms: C_21  and  C_22 
REMARK       I    between atoms: C_22  and  N_23 
REMARK    7  A    between atoms: N_23  and  C_24 
REMARK    8  A    between atoms: C_24  and  C_25 
ROOT
HETATM    1  C   UNL     1      -9.149  -0.161 -32.994  1.00  0.00     0.069 C 
HETATM    2  C   UNL     1      -8.606   0.864 -32.040  1.00  0.00     0.024 C 
HETATM    3  N   UNL     1      -9.511   1.814 -31.621  1.00  0.00    -0.312 N 
HETATM    4  C   UNL     1      -9.293   2.739 -30.645  1.00  0.00     0.321 C 
HETATM    5  O   UNL     1     -10.162   3.532 -30.300  1.00  0.00    -0.247 OA
HETATM    6  N   UNL     1      -8.071   2.722 -30.061  1.00  0.00    -0.330 N 
HETATM    7  C   UNL     1      -6.936   1.949 -30.531  1.00  0.00     0.160 C 
HETATM    8  C   UNL     1      -7.357   0.914 -31.538  1.00  0.00     0.059 C 
HETATM    9  H   UNL     1     -10.457   1.811 -31.986  1.00  0.00     0.170 HD
HETATM   10  H   UNL     1      -7.922   3.429 -29.355  1.00  0.00     0.165 HD
ENDROOT
BRANCH   7  11
HETATM   11  C   UNL     1      -5.871   2.899 -31.066  1.00  0.00    -0.028 A 
HETATM   12  C   UNL     1      -6.226   4.076 -31.752  1.00  0.00     0.049 A 
HETATM   13  C   UNL     1      -5.249   4.951 -32.235  1.00  0.00     0.102 A 
HETATM   14  C   UNL     1      -3.891   4.640 -32.045  1.00  0.00     0.102 A 
HETATM   15  C   UNL     1      -3.528   3.482 -31.353  1.00  0.00     0.040 A 
HETATM   16  C   UNL     1      -4.512   2.614 -30.874  1.00  0.00     0.012 A 
BRANCH  13  17
HETATM   17  O   UNL     1      -5.511   6.109 -32.925  1.00  0.00    -0.353 OA
HETATM   18  C   UNL     1      -6.586   6.913 -32.457  1.00  0.00     0.210 C 
ENDBRANCH  13  17
BRANCH  14  19
HETATM   19  O   UNL     1      -2.987   5.552 -32.524  1.00  0.00    -0.339 OA
BRANCH  19  20
HETATM   20  C   UNL     1      -1.841   5.022 -33.184  1.00  0.00     0.278 C 
BRANCH  20  21
HETATM   21  C   UNL     1      -1.929   5.338 -34.674  1.00  0.00     0.239 C 
HETATM   22  N   UNL     1      -3.191   5.553 -35.153  1.00  0.00    -0.368 N 
HETATM   23  H   UNL     1      -3.943   5.730 -34.494  1.00  0.00     0.159 HD
HETATM   24  H   UNL     1      -3.296   5.847 -36.114  1.00  0.00     0.159 HD
HETATM   25  O   UNL     1      -0.956   5.347 -35.421  1.00  0.00    -0.271 OA
ENDBRANCH  20  21
ENDBRANCH  19  20
ENDBRANCH  14  19
ENDBRANCH   7  11
BRANCH   8  26
HETATM   26  C   UNL     1      -6.298  -0.071 -31.876  1.00  0.00     0.252 C 
HETATM   27  N   UNL     1      -5.783   0.049 -33.139  1.00  0.00    -0.353 N 
HETATM   28  H   UNL     1      -6.029   0.849 -33.707  1.00  0.00     0.163 HD
HETATM   29  O   UNL     1      -5.892  -0.866 -31.036  1.00  0.00    -0.268 OA
BRANCH  27  30
HETATM   30  C   UNL     1      -4.679  -0.773 -33.576  1.00  0.00     0.161 C 
BRANCH  30  31
HETATM   31  C   UNL     1      -5.162  -2.127 -34.025  1.00  0.00    -0.041 A 
HETATM   32  C   UNL     1      -4.310  -3.239 -33.999  1.00  0.00     0.009 A 
HETATM   33  C   UNL     1      -4.769  -4.492 -34.411  1.00  0.00     0.001 A 
HETATM   34  C   UNL     1      -6.082  -4.644 -34.856  1.00  0.00     0.000 A 
HETATM   35  C   UNL     1      -6.937  -3.544 -34.891  1.00  0.00     0.001 A 
HETATM   36  C   UNL     1      -6.480  -2.292 -34.476  1.00  0.00     0.009 A 
ENDBRANCH  30  31
ENDBRANCH  27  30
ENDBRANCH   8  26
TORSDOF 8
ENDMDL
MODEL 2
REMARK VINA RESULT:      -9.1      0.982      1.502
REMARK  8 active torsions:
REMARK  status: ('A' for Active; 'I' for Inactive)
REMARK    1  A    between atoms: C_7  and  C_8 
REMARK    2  A    between atoms: C_10  and  O_11 
REMARK    3  A    between atoms: C_13  and  O_14 
REMARK    4  A    between atoms: O_14  and  C_15 
REMARK    5  A    between atoms: C_15  and  C_16 
REMARK       I    between atoms: C_16  and  N_17 
REMARK    6  A    between atoms: C_21  and  C_22 
REMARK       I    between atoms: C_22  and  N_23 
REMARK    7  A    between atoms: N_23  and  C_24 
REMARK    8  A    between atoms: C_24  and  C_25 
ROOT
HETATM    1  C   UNL     1      -9.334  -0.378 -32.511  1.00  0.00     0.069 C 
HETATM    2  C   UNL     1      -8.846   0.864 -31.820  1.00  0.00     0.024 C 
HETATM    3  N   UNL     1      -9.832   1.740 -31.422  1.00  0.00    -0.312 N 
HETATM    4  C   UNL     1      -9.642   2.843 -30.646  1.00  0.00     0.321 C 
HETATM    5  O   UNL     1     -10.576   3.559 -30.302  1.00  0.00    -0.247 OA
HETATM    6  N   UNL     1      -8.370   3.096 -30.257  1.00  0.00    -0.330 N 
HETATM    7  C   UNL     1      -7.194   2.414 -30.766  1.00  0.00     0.160 C 
HETATM    8  C   UNL     1      -7.568   1.171 -31.526  1.00  0.00     0.059 C 
HETATM    9  H   UNL     1     -10.803   1.544 -31.636  1.00  0.00     0.170 HD
HETATM   10  H   UNL     1      -8.248   3.929 -29.700  1.00  0.00     0.165 HD
ENDROOT
BRANCH   7  11
HETATM   11  C   UNL     1      -6.370   3.391 -31.597  1.00  0.00    -0.028 A 
HETATM   12  C   UNL     1      -5.163   3.924 -31.106  1.00  0.00     0.049 A 
HETATM   13  C   UNL     1      -4.404   4.813 -31.872  1.00  0.00     0.102 A 
HETATM   14  C   UNL     1      -4.864   5.191 -33.146  1.00  0.00     0.102 A 
HETATM   15  C   UNL     1      -6.052   4.657 -33.648  1.00  0.00     0.040 A 
HETATM   16  C   UNL     1      -6.804   3.769 -32.875  1.00  0.00     0.012 A 
BRANCH  13  17
HETATM   17  O   UNL     1      -3.226   5.388 -31.462  1.00  0.00    -0.353 OA
HETATM   18  C   UNL     1      -3.304   6.349 -30.417  1.00  0.00     0.210 C 
ENDBRANCH  13  17
BRANCH  14  19
HETATM   19  O   UNL     1      -4.060   6.048 -33.852  1.00  0.00    -0.339 OA
BRANCH  19  20
HETATM   20  C   UNL     1      -3.301   5.476 -34.914  1.00  0.00     0.278 C 
BRANCH  20  21
HETATM   21  C   UNL     1      -1.820   5.757 -34.680  1.00  0.00     0.239 C 
HETATM   22  N   UNL     1      -1.544   6.675 -33.705  1.00  0.00    -0.368 N 
HETATM   23  H   UNL     1      -2.277   6.929 -33.048  1.00  0.00     0.159 HD
HETATM   24  H   UNL     1      -0.579   6.834 -33.455  1.00  0.00     0.159 HD
HETATM   25  O   UNL     1      -0.923   5.251 -35.346  1.00  0.00    -0.271 OA
ENDBRANCH  20  21
ENDBRANCH  19  20
ENDBRANCH  14  19
ENDBRANCH   7  11
BRANCH   8  26
HETATM   26  C   UNL     1      -6.417   0.295 -31.862  1.00  0.00     0.252 C 
HETATM   27  N   UNL     1      -6.104   0.242 -33.194  1.00  0.00    -0.353 N 
HETATM   28  H   UNL     1      -6.552   0.879 -33.840  1.00  0.00     0.163 HD
HETATM   29  O   UNL     1      -5.776  -0.263 -30.978  1.00  0.00    -0.268 OA
BRANCH  27  30
HETATM   30  C   UNL     1      -4.949  -0.487 -33.661  1.00  0.00     0.161 C 
BRANCH  30  31
HETATM   31  C   UNL     1      -5.324  -1.890 -34.059  1.00  0.00    -0.041 A 
HETATM   32  C   UNL     1      -4.376  -2.921 -34.040  1.00  0.00     0.009 A 
HETATM   33  C   UNL     1      -4.736  -4.221 -34.405  1.00  0.00     0.001 A 
HETATM   34  C   UNL     1      -6.045  -4.499 -34.796  1.00  0.00     0.000 A 
HETATM   35  C   UNL     1      -6.996  -3.481 -34.824  1.00  0.00     0.001 A 
HETATM   36  C   UNL     1      -6.637  -2.183 -34.457  1.00  0.00     0.009 A 
ENDBRANCH  30  31
ENDBRANCH  27  30
ENDBRANCH   8  26
TORSDOF 8
ENDMDL
MODEL 3
REMARK VINA RESULT:      -8.9      3.558      6.807
REMARK  8 active torsions:
REMARK  status: ('A' for Active; 'I' for Inactive)
REMARK    1  A    between atoms: C_7  and  C_8 
REMARK    2  A    between atoms: C_10  and  O_11 
REMARK    3  A    between atoms: C_13  and  O_14 
REMARK    4  A    between atoms: O_14  and  C_15 
REMARK    5  A    between atoms: C_15  and  C_16 
REMARK       I    between atoms: C_16  and  N_17 
REMARK    6  A    between atoms: C_21  and  C_22 
REMARK       I    between atoms: C_22  and  N_23 
REMARK    7  A    between atoms: N_23  and  C_24 
REMARK    8  A    between atoms: C_24  and  C_25 
ROOT
HETATM    1  C   UNL     1      -5.955  -0.109 -31.205  1.00  0.00     0.069 C 
HETATM    2  C   UNL     1      -6.895   1.009 -31.556  1.00  0.00     0.024 C 
HETATM    3  N   UNL     1      -7.277   1.806 -30.499  1.00  0.00    -0.312 N 
HETATM    4  C   UNL     1      -7.989   2.964 -30.600  1.00  0.00     0.321 C 
HETATM    5  O   UNL     1      -8.263   3.641 -29.616  1.00  0.00    -0.247 OA
HETATM    6  N   UNL     1      -8.359   3.337 -31.848  1.00  0.00    -0.330 N 
HETATM    7  C   UNL     1      -8.239   2.509 -33.034  1.00  0.00     0.160 C 
HETATM    8  C   UNL     1      -7.353   1.320 -32.783  1.00  0.00     0.059 C 
HETATM    9  H   UNL     1      -6.958   1.595 -29.560  1.00  0.00     0.170 HD
HETATM   10  H   UNL     1      -8.904   4.186 -31.899  1.00  0.00     0.165 HD
ENDROOT
BRANCH   7  11
HETATM   11  C   UNL     1      -9.632   2.120 -33.516  1.00  0.00    -0.028 A 
HETATM   12  C   UNL     1     -10.325   2.912 -34.450  1.00  0.00     0.049 A 
HETATM   13  C   UNL     1     -11.598   2.548 -34.899  1.00  0.00     0.102 A 
HETATM   14  C   UNL     1     -12.200   1.382 -34.393  1.00  0.00     0.102 A 
HETATM   15  C   UNL     1     -11.514   0.582 -33.476  1.00  0.00     0.040 A 
HETATM   16  C   UNL     1     -10.242   0.954 -33.034  1.00  0.00     0.012 A 
BRANCH  13  17
HETATM   17  O   UNL     1     -12.345   3.272 -35.796  1.00  0.00    -0.353 OA
HETATM   18  C   UNL     1     -12.694   4.600 -35.426  1.00  0.00     0.210 C 
ENDBRANCH  13  17
BRANCH  14  19
HETATM   19  O   UNL     1     -13.438   1.074 -34.891  1.00  0.00    -0.339 OA
BRANCH  19  20
HETATM   20  C   UNL     1     -14.304   0.338 -34.031  1.00  0.00     0.278 C 
BRANCH  20  21
HETATM   21  C   UNL     1     -15.182   1.311 -33.250  1.00  0.00     0.239 C 
HETATM   22  N   UNL     1     -14.621   1.824 -32.114  1.00  0.00    -0.368 N 
HETATM   23  H   UNL     1     -13.618   1.736 -31.977  1.00  0.00     0.159 HD
HETATM   24  H   UNL     1     -15.129   2.535 -31.607  1.00  0.00     0.159 HD
HETATM   25  O   UNL     1     -16.334   1.586 -33.570  1.00  0.00    -0.271 OA
ENDBRANCH  20  21
ENDBRANCH  19  20
ENDBRANCH  14  19
ENDBRANCH   7  11
BRANCH   8  26
HETATM   26  C   UNL     1      -6.985   0.568 -34.010  1.00  0.00     0.252 C 
HETATM   27  N   UNL     1      -7.082  -0.793 -33.900  1.00  0.00    -0.353 N 
HETATM   28  H   UNL     1      -7.515  -1.201 -33.082  1.00  0.00     0.163 HD
HETATM   29  O   UNL     1      -6.693   1.160 -35.043  1.00  0.00    -0.268 OA
BRANCH  27  30
HETATM   30  C   UNL     1      -6.854  -1.653 -35.038  1.00  0.00     0.161 C 
BRANCH  30  31
HETATM   31  C   UNL     1      -5.917  -2.776 -34.684  1.00  0.00    -0.041 A 
HETATM   32  C   UNL     1      -6.198  -4.095 -35.065  1.00  0.00     0.009 A 
HETATM   33  C   UNL     1      -5.319  -5.129 -34.736  1.00  0.00     0.001 A 
HETATM   34  C   UNL     1      -4.154  -4.856 -34.021  1.00  0.00     0.000 A 
HETATM   35  C   UNL     1      -3.866  -3.549 -33.631  1.00  0.00     0.001 A 
HETATM   36  C   UNL     1      -4.743  -2.515 -33.962  1.00  0.00     0.009 A 
ENDBRANCH  30  31
ENDBRANCH  27  30
ENDBRANCH   8  26
TORSDOF 8
ENDMDL
MODEL 4
REMARK VINA RESULT:      -8.9      2.132      2.565
REMARK  8 active torsions:
REMARK  status: ('A' for Active; 'I' for Inactive)
REMARK    1  A    between atoms: C_7  and  C_8 
REMARK    2  A    between atoms: C_10  and  O_11 
REMARK    3  A    between atoms: C_13  and  O_14 
REMARK    4  A    between atoms: O_14  and  C_15 
REMARK    5  A    between atoms: C_15  and  C_16 
REMARK       I    between atoms: C_16  and  N_17 
REMARK    6  A    between atoms: C_21  and  C_22 
REMARK       I    between atoms: C_22  and  N_23 
REMARK    7  A    between atoms: N_23  and  C_24 
REMARK    8  A    between atoms: C_24  and  C_25 
ROOT
HETATM    1  C   UNL     1      -8.208   0.364 -34.788  1.00  0.00     0.069 C 
HETATM    2  C   UNL     1      -7.805   1.412 -33.790  1.00  0.00     0.024 C 
HETATM    3  N   UNL     1      -8.502   2.597 -33.871  1.00  0.00    -0.312 N 
HETATM    4  C   UNL     1      -8.423   3.624 -32.979  1.00  0.00     0.321 C 
HETATM    5  O   UNL     1      -9.102   4.637 -33.097  1.00  0.00    -0.247 OA
HETATM    6  N   UNL     1      -7.567   3.456 -31.942  1.00  0.00    -0.330 N 
HETATM    7  C   UNL     1      -6.599   2.381 -31.828  1.00  0.00     0.160 C 
HETATM    8  C   UNL     1      -6.877   1.287 -32.823  1.00  0.00     0.059 C 
HETATM    9  H   UNL     1      -9.202   2.729 -34.593  1.00  0.00     0.170 HD
HETATM   10  H   UNL     1      -7.507   4.237 -31.304  1.00  0.00     0.165 HD
ENDROOT
BRANCH   7  11
HETATM   11  C   UNL     1      -5.194   2.957 -31.957  1.00  0.00    -0.028 A 
HETATM   12  C   UNL     1      -4.903   3.956 -32.903  1.00  0.00     0.049 A 
HETATM   13  C   UNL     1      -3.615   4.490 -33.014  1.00  0.00     0.102 A 
HETATM   14  C   UNL     1      -2.595   4.007 -32.177  1.00  0.00     0.102 A 
HETATM   15  C   UNL     1      -2.877   3.025 -31.225  1.00  0.00     0.040 A 
HETATM   16  C   UNL     1      -4.166   2.498 -31.121  1.00  0.00     0.012 A 
BRANCH  13  17
HETATM   17  O   UNL     1      -3.246   5.455 -33.919  1.00  0.00    -0.353 OA
HETATM   18  C   UNL     1      -3.672   5.278 -35.265  1.00  0.00     0.210 C 
ENDBRANCH  13  17
BRANCH  14  19
HETATM   19  O   UNL     1      -1.363   4.589 -32.324  1.00  0.00    -0.339 OA
BRANCH  19  20
HETATM   20  C   UNL     1      -1.011   5.581 -31.363  1.00  0.00     0.278 C 
BRANCH  20  21
HETATM   21  C   UNL     1       0.158   5.073 -30.524  1.00  0.00     0.239 C 
HETATM   22  N   UNL     1       0.034   5.257 -29.175  1.00  0.00    -0.368 N 
HETATM   23  H   UNL     1      -0.879   5.483 -28.791  1.00  0.00     0.159 HD
HETATM   24  H   UNL     1       0.742   4.865 -28.570  1.00  0.00     0.159 HD
HETATM   25  O   UNL     1       1.173   4.582 -31.007  1.00  0.00    -0.271 OA
ENDBRANCH  20  21
ENDBRANCH  19  20
ENDBRANCH  14  19
ENDBRANCH   7  11
BRANCH   8  26
HETATM   26  C   UNL     1      -6.085   0.050 -32.602  1.00  0.00     0.252 C 
HETATM   27  N   UNL     1      -5.169  -0.229 -33.581  1.00  0.00    -0.353 N 
HETATM   28  H   UNL     1      -4.979   0.457 -34.300  1.00  0.00     0.163 HD
HETATM   29  O   UNL     1      -6.220  -0.604 -31.574  1.00  0.00    -0.268 OA
BRANCH  27  30
HETATM   30  C   UNL     1      -4.258  -1.342 -33.456  1.00  0.00     0.161 C 
BRANCH  30  31
HETATM   31  C   UNL     1      -4.869  -2.601 -34.011  1.00  0.00    -0.041 A 
HETATM   32  C   UNL     1      -6.141  -2.586 -34.597  1.00  0.00     0.009 A 
HETATM   33  C   UNL     1      -6.696  -3.759 -35.115  1.00  0.00     0.001 A 
HETATM   34  C   UNL     1      -5.986  -4.957 -35.047  1.00  0.00     0.000 A 
HETATM   35  C   UNL     1      -4.722  -4.986 -34.462  1.00  0.00     0.001 A 
HETATM   36  C   UNL     1      -4.166  -3.814 -33.947  1.00  0.00     0.009 A 
ENDBRANCH  30  31
ENDBRANCH  27  30
ENDBRANCH   8  26
TORSDOF 8
ENDMDL
MODEL 5
REMARK VINA RESULT:      -8.7      1.876      2.359
REMARK  8 active torsions:
REMARK  status: ('A' for Active; 'I' for Inactive)
REMARK    1  A    between atoms: C_7  and  C_8 
REMARK    2  A    between atoms: C_10  and  O_11 
REMARK    3  A    between atoms: C_13  and  O_14 
REMARK    4  A    between atoms: O_14  and  C_15 
REMARK    5  A    between atoms: C_15  and  C_16 
REMARK       I    between atoms: C_16  and  N_17 
REMARK    6  A    between atoms: C_21  and  C_22 
REMARK       I    between atoms: C_22  and  N_23 
REMARK    7  A    between atoms: N_23  and  C_24 
REMARK    8  A    between atoms: C_24  and  C_25 
ROOT
HETATM    1  C   UNL     1      -7.855  -0.045 -35.342  1.00  0.00     0.069 C 
HETATM    2  C   UNL     1      -7.916   1.051 -34.317  1.00  0.00     0.024 C 
HETATM    3  N   UNL     1      -8.808   2.064 -34.594  1.00  0.00    -0.312 N 
HETATM    4  C   UNL     1      -9.149   3.072 -33.744  1.00  0.00     0.321 C 
HETATM    5  O   UNL     1      -9.979   3.921 -34.048  1.00  0.00    -0.247 OA
HETATM    6  N   UNL     1      -8.536   3.075 -32.536  1.00  0.00    -0.330 N 
HETATM    7  C   UNL     1      -7.416   2.227 -32.170  1.00  0.00     0.160 C 
HETATM    8  C   UNL     1      -7.226   1.112 -33.162  1.00  0.00     0.059 C 
HETATM    9  H   UNL     1      -9.338   2.054 -35.459  1.00  0.00     0.170 HD
HETATM   10  H   UNL     1      -8.785   3.843 -31.929  1.00  0.00     0.165 HD
ENDROOT
BRANCH   7  11
HETATM   11  C   UNL     1      -6.170   3.088 -32.000  1.00  0.00    -0.028 A 
HETATM   12  C   UNL     1      -5.354   3.410 -33.101  1.00  0.00     0.049 A 
HETATM   13  C   UNL     1      -4.216   4.207 -32.946  1.00  0.00     0.102 A 
HETATM   14  C   UNL     1      -3.876   4.680 -31.666  1.00  0.00     0.102 A 
HETATM   15  C   UNL     1      -4.687   4.378 -30.570  1.00  0.00     0.040 A 
HETATM   16  C   UNL     1      -5.822   3.581 -30.735  1.00  0.00     0.012 A 
BRANCH  13  17
HETATM   17  O   UNL     1      -3.361   4.554 -33.963  1.00  0.00    -0.353 OA
HETATM   18  C   UNL     1      -3.930   5.203 -35.094  1.00  0.00     0.210 C 
ENDBRANCH  13  17
BRANCH  14  19
HETATM   19  O   UNL     1      -2.761   5.474 -31.589  1.00  0.00    -0.339 OA
BRANCH  19  20
HETATM   20  C   UNL     1      -2.982   6.881 -31.613  1.00  0.00     0.278 C 
BRANCH  20  21
HETATM   21  C   UNL     1      -1.957   7.534 -32.536  1.00  0.00     0.239 C 
HETATM   22  N   UNL     1      -1.186   6.669 -33.259  1.00  0.00    -0.368 N 
HETATM   23  H   UNL     1      -1.475   5.698 -33.335  1.00  0.00     0.159 HD
HETATM   24  H   UNL     1      -0.550   7.051 -33.946  1.00  0.00     0.159 HD
HETATM   25  O   UNL     1      -1.782   8.746 -32.600  1.00  0.00    -0.271 OA
ENDBRANCH  20  21
ENDBRANCH  19  20
ENDBRANCH  14  19
ENDBRANCH   7  11
BRANCH   8  26
HETATM   26  C   UNL     1      -6.265   0.068 -32.726  1.00  0.00     0.252 C 
HETATM   27  N   UNL     1      -5.248  -0.181 -33.606  1.00  0.00    -0.353 N 
HETATM   28  H   UNL     1      -5.117   0.424 -34.406  1.00  0.00     0.163 HD
HETATM   29  O   UNL     1      -6.369  -0.455 -31.622  1.00  0.00    -0.268 OA
BRANCH  27  30
HETATM   30  C   UNL     1      -4.182  -1.098 -33.276  1.00  0.00     0.161 C 
BRANCH  30  31
HETATM   31  C   UNL     1      -4.505  -2.490 -33.749  1.00  0.00    -0.041 A 
HETATM   32  C   UNL     1      -5.593  -2.727 -34.599  1.00  0.00     0.009 A 
HETATM   33  C   UNL     1      -5.880  -4.022 -35.037  1.00  0.00     0.001 A 
HETATM   34  C   UNL     1      -5.085  -5.091 -34.627  1.00  0.00     0.000 A 
HETATM   35  C   UNL     1      -4.003  -4.869 -33.778  1.00  0.00     0.001 A 
HETATM   36  C   UNL     1      -3.714  -3.575 -33.342  1.00  0.00     0.009 A 
ENDBRANCH  30  31
ENDBRANCH  27  30
ENDBRANCH   8  26
TORSDOF 8
ENDMDL
MODEL 6
REMARK VINA RESULT:      -8.6      2.650      6.270
REMARK  8 active torsions:
REMARK  status: ('A' for Active; 'I' for Inactive)
REMARK    1  A    between atoms: C_7  and  C_8 
REMARK    2  A    between atoms: C_10  and  O_11 
REMARK    3  A    between atoms: C_13  and  O_14 
REMARK    4  A    between atoms: O_14  and  C_15 
REMARK    5  A    between atoms: C_15  and  C_16 
REMARK       I    between atoms: C_16  and  N_17 
REMARK    6  A    between atoms: C_21  and  C_22 
REMARK       I    between atoms: C_22  and  N_23 
REMARK    7  A    between atoms: N_23  and  C_24 
REMARK    8  A    between atoms: C_24  and  C_25 
ROOT
HETATM    1  C   UNL     1      -3.699   2.712 -31.010  1.00  0.00     0.069 C 
HETATM    2  C   UNL     1      -4.607   2.853 -32.198  1.00  0.00     0.024 C 
HETATM    3  N   UNL     1      -4.760   4.138 -32.670  1.00  0.00    -0.312 N 
HETATM    4  C   UNL     1      -5.401   4.488 -33.820  1.00  0.00     0.321 C 
HETATM    5  O   UNL     1      -5.466   5.652 -34.195  1.00  0.00    -0.247 OA
HETATM    6  N   UNL     1      -5.944   3.476 -34.539  1.00  0.00    -0.330 N 
HETATM    7  C   UNL     1      -6.073   2.105 -34.079  1.00  0.00     0.160 C 
HETATM    8  C   UNL     1      -5.237   1.858 -32.852  1.00  0.00     0.059 C 
HETATM    9  H   UNL     1      -4.307   4.912 -32.196  1.00  0.00     0.170 HD
HETATM   10  H   UNL     1      -6.433   3.757 -35.377  1.00  0.00     0.165 HD
ENDROOT
BRANCH   7  11
HETATM   11  C   UNL     1      -7.548   1.785 -33.866  1.00  0.00    -0.028 A 
HETATM   12  C   UNL     1      -8.331   2.534 -32.968  1.00  0.00     0.049 A 
HETATM   13  C   UNL     1      -9.686   2.245 -32.781  1.00  0.00     0.102 A 
HETATM   14  C   UNL     1     -10.268   1.179 -33.489  1.00  0.00     0.102 A 
HETATM   15  C   UNL     1      -9.502   0.439 -34.393  1.00  0.00     0.040 A 
HETATM   16  C   UNL     1      -8.149   0.735 -34.573  1.00  0.00     0.012 A 
BRANCH  13  17
HETATM   17  O   UNL     1     -10.515   2.917 -31.915  1.00  0.00    -0.353 OA
HETATM   18  C   UNL     1     -10.850   4.258 -32.249  1.00  0.00     0.210 C 
ENDBRANCH  13  17
BRANCH  14  19
HETATM   19  O   UNL     1     -11.604   0.965 -33.274  1.00  0.00    -0.339 OA
BRANCH  19  20
HETATM   20  C   UNL     1     -12.475   1.244 -34.367  1.00  0.00     0.278 C 
BRANCH  20  21
HETATM   21  C   UNL     1     -13.770   0.457 -34.189  1.00  0.00     0.239 C 
HETATM   22  N   UNL     1     -13.657  -0.703 -33.476  1.00  0.00    -0.368 N 
HETATM   23  H   UNL     1     -12.823  -0.857 -32.917  1.00  0.00     0.159 HD
HETATM   24  H   UNL     1     -14.499  -1.218 -33.260  1.00  0.00     0.159 HD
HETATM   25  O   UNL     1     -14.838   0.793 -34.691  1.00  0.00    -0.271 OA
ENDBRANCH  20  21
ENDBRANCH  19  20
ENDBRANCH  14  19
ENDBRANCH   7  11
BRANCH   8  26
HETATM   26  C   UNL     1      -5.124   0.427 -32.472  1.00  0.00     0.252 C 
HETATM   27  N   UNL     1      -4.243  -0.300 -33.226  1.00  0.00    -0.353 N 
HETATM   28  H   UNL     1      -3.633   0.173 -33.880  1.00  0.00     0.163 HD
HETATM   29  O   UNL     1      -5.735  -0.013 -31.504  1.00  0.00    -0.268 OA
BRANCH  27  30
HETATM   30  C   UNL     1      -3.952  -1.679 -32.913  1.00  0.00     0.161 C 
BRANCH  30  31
HETATM   31  C   UNL     1      -4.797  -2.608 -33.742  1.00  0.00    -0.041 A 
HETATM   32  C   UNL     1      -4.379  -3.919 -34.005  1.00  0.00     0.009 A 
HETATM   33  C   UNL     1      -5.174  -4.776 -34.770  1.00  0.00     0.001 A 
HETATM   34  C   UNL     1      -6.391  -4.329 -35.283  1.00  0.00     0.000 A 
HETATM   35  C   UNL     1      -6.815  -3.025 -35.033  1.00  0.00     0.001 A 
HETATM   36  C   UNL     1      -6.023  -2.170 -34.266  1.00  0.00     0.009 A 
ENDBRANCH  30  31
ENDBRANCH  27  30
ENDBRANCH   8  26
TORSDOF 8
ENDMDL
MODEL 7
REMARK VINA RESULT:      -8.6      1.650      2.007
REMARK  8 active torsions:
REMARK  status: ('A' for Active; 'I' for Inactive)
REMARK    1  A    between atoms: C_7  and  C_8 
REMARK    2  A    between atoms: C_10  and  O_11 
REMARK    3  A    between atoms: C_13  and  O_14 
REMARK    4  A    between atoms: O_14  and  C_15 
REMARK    5  A    between atoms: C_15  and  C_16 
REMARK       I    between atoms: C_16  and  N_17 
REMARK    6  A    between atoms: C_21  and  C_22 
REMARK       I    between atoms: C_22  and  N_23 
REMARK    7  A    between atoms: N_23  and  C_24 
REMARK    8  A    between atoms: C_24  and  C_25 
ROOT
HETATM    1  C   UNL     1     -10.080   1.644 -34.533  1.00  0.00     0.069 C 
HETATM    2  C   UNL     1      -9.201   1.691 -33.316  1.00  0.00     0.024 C 
HETATM    3  N   UNL     1      -9.727   2.369 -32.238  1.00  0.00    -0.312 N 
HETATM    4  C   UNL     1      -9.188   2.409 -30.988  1.00  0.00     0.321 C 
HETATM    5  O   UNL     1      -9.733   3.006 -30.067  1.00  0.00    -0.247 OA
HETATM    6  N   UNL     1      -8.026   1.735 -30.812  1.00  0.00    -0.330 N 
HETATM    7  C   UNL     1      -7.225   1.164 -31.879  1.00  0.00     0.160 C 
HETATM    8  C   UNL     1      -7.994   1.112 -33.172  1.00  0.00     0.059 C 
HETATM    9  H   UNL     1     -10.630   2.825 -32.315  1.00  0.00     0.170 HD
HETATM   10  H   UNL     1      -7.631   1.794 -29.884  1.00  0.00     0.165 HD
ENDROOT
BRANCH   7  11
HETATM   11  C   UNL     1      -5.920   1.942 -31.997  1.00  0.00    -0.028 A 
HETATM   12  C   UNL     1      -5.896   3.343 -31.875  1.00  0.00     0.049 A 
HETATM   13  C   UNL     1      -4.696   4.055 -31.974  1.00  0.00     0.102 A 
HETATM   14  C   UNL     1      -3.500   3.357 -32.215  1.00  0.00     0.102 A 
HETATM   15  C   UNL     1      -3.511   1.965 -32.324  1.00  0.00     0.040 A 
HETATM   16  C   UNL     1      -4.714   1.263 -32.223  1.00  0.00     0.012 A 
BRANCH  13  17
HETATM   17  O   UNL     1      -4.589   5.421 -31.881  1.00  0.00    -0.353 OA
HETATM   18  C   UNL     1      -5.354   6.194 -32.799  1.00  0.00     0.210 C 
ENDBRANCH  13  17
BRANCH  14  19
HETATM   19  O   UNL     1      -2.359   4.114 -32.279  1.00  0.00    -0.339 OA
BRANCH  19  20
HETATM   20  C   UNL     1      -1.958   4.549 -33.576  1.00  0.00     0.278 C 
BRANCH  20  21
HETATM   21  C   UNL     1      -1.525   6.010 -33.503  1.00  0.00     0.239 C 
HETATM   22  N   UNL     1      -1.723   6.620 -32.296  1.00  0.00    -0.368 N 
HETATM   23  H   UNL     1      -1.906   6.045 -31.478  1.00  0.00     0.159 HD
HETATM   24  H   UNL     1      -1.378   7.561 -32.171  1.00  0.00     0.159 HD
HETATM   25  O   UNL     1      -1.081   6.631 -34.463  1.00  0.00    -0.271 OA
ENDBRANCH  20  21
ENDBRANCH  19  20
ENDBRANCH  14  19
ENDBRANCH   7  11
BRANCH   8  26
HETATM   26  C   UNL     1      -7.333   0.319 -34.240  1.00  0.00     0.252 C 
HETATM   27  N   UNL     1      -7.347  -1.035 -34.042  1.00  0.00    -0.353 N 
HETATM   28  H   UNL     1      -7.903  -1.427 -33.293  1.00  0.00     0.163 HD
HETATM   29  O   UNL     1      -6.886   0.868 -35.240  1.00  0.00    -0.268 OA
BRANCH  27  30
HETATM   30  C   UNL     1      -6.833  -1.941 -35.042  1.00  0.00     0.161 C 
BRANCH  30  31
HETATM   31  C   UNL     1      -5.724  -2.789 -34.479  1.00  0.00    -0.041 A 
HETATM   32  C   UNL     1      -5.666  -4.164 -34.740  1.00  0.00     0.009 A 
HETATM   33  C   UNL     1      -4.628  -4.941 -34.217  1.00  0.00     0.001 A 
HETATM   34  C   UNL     1      -3.644  -4.352 -33.426  1.00  0.00     0.000 A 
HETATM   35  C   UNL     1      -3.693  -2.986 -33.155  1.00  0.00     0.001 A 
HETATM   36  C   UNL     1      -4.727  -2.208 -33.679  1.00  0.00     0.009 A 
ENDBRANCH  30  31
ENDBRANCH  27  30
ENDBRANCH   8  26
TORSDOF 8
ENDMDL
MODEL 8
REMARK VINA RESULT:      -8.5      1.936      2.305
REMARK  8 active torsions:
REMARK  status: ('A' for Active; 'I' for Inactive)
REMARK    1  A    between atoms: C_7  and  C_8 
REMARK    2  A    between atoms: C_10  and  O_11 
REMARK    3  A    between atoms: C_13  and  O_14 
REMARK    4  A    between atoms: O_14  and  C_15 
REMARK    5  A    between atoms: C_15  and  C_16 
REMARK       I    between atoms: C_16  and  N_17 
REMARK    6  A    between atoms: C_21  and  C_22 
REMARK       I    between atoms: C_22  and  N_23 
REMARK    7  A    between atoms: N_23  and  C_24 
REMARK    8  A    between atoms: C_24  and  C_25 
ROOT
HETATM    1  C   UNL     1      -7.862  -0.584 -34.997  1.00  0.00     0.069 C 
HETATM    2  C   UNL     1      -8.073   0.721 -34.284  1.00  0.00     0.024 C 
HETATM    3  N   UNL     1      -9.054   1.528 -34.817  1.00  0.00    -0.312 N 
HETATM    4  C   UNL     1      -9.528   2.675 -34.253  1.00  0.00     0.321 C 
HETATM    5  O   UNL     1     -10.430   3.324 -34.769  1.00  0.00    -0.247 OA
HETATM    6  N   UNL     1      -8.962   3.048 -33.080  1.00  0.00    -0.330 N 
HETATM    7  C   UNL     1      -7.774   2.446 -32.501  1.00  0.00     0.160 C 
HETATM    8  C   UNL     1      -7.435   1.145 -33.176  1.00  0.00     0.059 C 
HETATM    9  H   UNL     1      -9.548   1.244 -35.655  1.00  0.00     0.170 HD
HETATM   10  H   UNL     1      -9.311   3.911 -32.689  1.00  0.00     0.165 HD
ENDROOT
BRANCH   7  11
HETATM   11  C   UNL     1      -6.631   3.453 -32.544  1.00  0.00    -0.028 A 
HETATM   12  C   UNL     1      -6.118   4.020 -31.363  1.00  0.00     0.049 A 
HETATM   13  C   UNL     1      -5.062   4.936 -31.403  1.00  0.00     0.102 A 
HETATM   14  C   UNL     1      -4.519   5.307 -32.646  1.00  0.00     0.102 A 
HETATM   15  C   UNL     1      -5.012   4.739 -33.823  1.00  0.00     0.040 A 
HETATM   16  C   UNL     1      -6.066   3.824 -33.772  1.00  0.00     0.012 A 
BRANCH  13  17
HETATM   17  O   UNL     1      -4.515   5.545 -30.300  1.00  0.00    -0.353 OA
HETATM   18  C   UNL     1      -5.386   6.329 -29.494  1.00  0.00     0.210 C 
ENDBRANCH  13  17
BRANCH  14  19
HETATM   19  O   UNL     1      -3.473   6.192 -32.611  1.00  0.00    -0.339 OA
BRANCH  19  20
HETATM   20  C   UNL     1      -2.184   5.663 -32.910  1.00  0.00     0.278 C 
BRANCH  20  21
HETATM   21  C   UNL     1      -1.597   6.416 -34.100  1.00  0.00     0.239 C 
HETATM   22  N   UNL     1      -0.829   5.667 -34.946  1.00  0.00    -0.368 N 
HETATM   23  H   UNL     1      -0.882   4.654 -34.890  1.00  0.00     0.159 HD
HETATM   24  H   UNL     1      -0.486   6.099 -35.792  1.00  0.00     0.159 HD
HETATM   25  O   UNL     1      -1.743   7.622 -34.274  1.00  0.00    -0.271 OA
ENDBRANCH  20  21
ENDBRANCH  19  20
ENDBRANCH  14  19
ENDBRANCH   7  11
BRANCH   8  26
HETATM   26  C   UNL     1      -6.388   0.355 -32.481  1.00  0.00     0.252 C 
HETATM   27  N   UNL     1      -5.216   0.217 -33.175  1.00  0.00    -0.353 N 
HETATM   28  H   UNL     1      -5.069   0.750 -34.022  1.00  0.00     0.163 HD
HETATM   29  O   UNL     1      -6.571  -0.062 -31.343  1.00  0.00    -0.268 OA
BRANCH  27  30
HETATM   30  C   UNL     1      -4.072  -0.440 -32.587  1.00  0.00     0.161 C 
BRANCH  30  31
HETATM   31  C   UNL     1      -4.020  -1.890 -32.988  1.00  0.00    -0.041 A 
HETATM   32  C   UNL     1      -3.321  -2.825 -32.214  1.00  0.00     0.009 A 
HETATM   33  C   UNL     1      -3.284  -4.170 -32.592  1.00  0.00     0.001 A 
HETATM   34  C   UNL     1      -3.941  -4.590 -33.747  1.00  0.00     0.000 A 
HETATM   35  C   UNL     1      -4.636  -3.668 -34.528  1.00  0.00     0.001 A 
HETATM   36  C   UNL     1      -4.676  -2.325 -34.150  1.00  0.00     0.009 A 
ENDBRANCH  30  31
ENDBRANCH  27  30
ENDBRANCH   8  26
TORSDOF 8
ENDMDL
MODEL 9
REMARK VINA RESULT:      -8.3      2.163      3.906
REMARK  8 active torsions:
REMARK  status: ('A' for Active; 'I' for Inactive)
REMARK    1  A    between atoms: C_7  and  C_8 
REMARK    2  A    between atoms: C_10  and  O_11 
REMARK    3  A    between atoms: C_13  and  O_14 
REMARK    4  A    between atoms: O_14  and  C_15 
REMARK    5  A    between atoms: C_15  and  C_16 
REMARK       I    between atoms: C_16  and  N_17 
REMARK    6  A    between atoms: C_21  and  C_22 
REMARK       I    between atoms: C_22  and  N_23 
REMARK    7  A    between atoms: N_23  and  C_24 
REMARK    8  A    between atoms: C_24  and  C_25 
ROOT
HETATM    1  C   UNL     1     -10.452   5.603 -30.762  1.00  0.00     0.069 C 
HETATM    2  C   UNL     1      -9.153   5.174 -30.141  1.00  0.00     0.024 C 
HETATM    3  N   UNL     1      -8.671   6.007 -29.155  1.00  0.00    -0.312 N 
HETATM    4  C   UNL     1      -7.606   5.743 -28.348  1.00  0.00     0.321 C 
HETATM    5  O   UNL     1      -7.255   6.519 -27.467  1.00  0.00    -0.247 OA
HETATM    6  N   UNL     1      -6.967   4.567 -28.558  1.00  0.00    -0.330 N 
HETATM    7  C   UNL     1      -7.197   3.686 -29.688  1.00  0.00     0.160 C 
HETATM    8  C   UNL     1      -8.457   4.056 -30.423  1.00  0.00     0.059 C 
HETATM    9  H   UNL     1      -9.166   6.861 -28.923  1.00  0.00     0.170 HD
HETATM   10  H   UNL     1      -6.167   4.400 -27.964  1.00  0.00     0.165 HD
ENDROOT
BRANCH   7  11
HETATM   11  C   UNL     1      -5.965   3.689 -30.585  1.00  0.00    -0.028 A 
HETATM   12  C   UNL     1      -5.090   2.588 -30.620  1.00  0.00     0.049 A 
HETATM   13  C   UNL     1      -3.964   2.588 -31.449  1.00  0.00     0.102 A 
HETATM   14  C   UNL     1      -3.698   3.714 -32.248  1.00  0.00     0.102 A 
HETATM   15  C   UNL     1      -4.568   4.806 -32.231  1.00  0.00     0.040 A 
HETATM   16  C   UNL     1      -5.690   4.797 -31.399  1.00  0.00     0.012 A 
BRANCH  13  17
HETATM   17  O   UNL     1      -3.055   1.562 -31.531  1.00  0.00    -0.353 OA
HETATM   18  C   UNL     1      -3.450   0.303 -31.001  1.00  0.00     0.210 C 
ENDBRANCH  13  17
BRANCH  14  19
HETATM   19  O   UNL     1      -2.591   3.639 -33.053  1.00  0.00    -0.339 OA
BRANCH  19  20
HETATM   20  C   UNL     1      -1.867   4.850 -33.251  1.00  0.00     0.278 C 
BRANCH  20  21
HETATM   21  C   UNL     1      -1.899   5.217 -34.732  1.00  0.00     0.239 C 
HETATM   22  N   UNL     1      -3.139   5.477 -35.244  1.00  0.00    -0.368 N 
HETATM   23  H   UNL     1      -3.909   5.649 -34.603  1.00  0.00     0.159 HD
HETATM   24  H   UNL     1      -3.206   5.805 -36.197  1.00  0.00     0.159 HD
HETATM   25  O   UNL     1      -0.902   5.229 -35.446  1.00  0.00    -0.271 OA
ENDBRANCH  20  21
ENDBRANCH  19  20
ENDBRANCH  14  19
ENDBRANCH   7  11
BRANCH   8  26
HETATM   26  C   UNL     1      -8.887   3.056 -31.433  1.00  0.00     0.252 C 
HETATM   27  N   UNL     1      -8.841   1.755 -31.009  1.00  0.00    -0.353 N 
HETATM   28  H   UNL     1      -8.664   1.551 -30.035  1.00  0.00     0.163 HD
HETATM   29  O   UNL     1      -9.314   3.413 -32.525  1.00  0.00    -0.268 OA
BRANCH  27  30
HETATM   30  C   UNL     1      -9.322   0.680 -31.844  1.00  0.00     0.161 C 
BRANCH  30  31
HETATM   31  C   UNL     1      -8.285   0.284 -32.861  1.00  0.00    -0.041 A 
HETATM   32  C   UNL     1      -8.578   0.300 -34.231  1.00  0.00     0.009 A 
HETATM   33  C   UNL     1      -7.606  -0.063 -35.167  1.00  0.00     0.001 A 
HETATM   34  C   UNL     1      -6.336  -0.451 -34.741  1.00  0.00     0.000 A 
HETATM   35  C   UNL     1      -6.035  -0.476 -33.381  1.00  0.00     0.001 A 
HETATM   36  C   UNL     1      -7.004  -0.110 -32.446  1.00  0.00     0.009 A 
ENDBRANCH  30  31
ENDBRANCH  27  30
ENDBRANCH   8  26
TORSDOF 8
ENDMDL
MODEL 10
REMARK VINA RESULT:      -8.2      2.338      5.354
REMARK  8 active torsions:
REMARK  status: ('A' for Active; 'I' for Inactive)
REMARK    1  A    between atoms: C_7  and  C_8 
REMARK    2  A    between atoms: C_10  and  O_11 
REMARK    3  A    between atoms: C_13  and  O_14 
REMARK    4  A    between atoms: O_14  and  C_15 
REMARK    5  A    between atoms: C_15  and  C_16 
REMARK       I    between atoms: C_16  and  N_17 
REMARK    6  A    between atoms: C_21  and  C_22 
REMARK       I    between atoms: C_22  and  N_23 
REMARK    7  A    between atoms: N_23  and  C_24 
REMARK    8  A    between atoms: C_24  and  C_25 
ROOT
HETATM    1  C   UNL     1      -3.929  -0.069 -31.060  1.00  0.00     0.069 C 
HETATM    2  C   UNL     1      -4.166   1.274 -31.690  1.00  0.00     0.024 C 
HETATM    3  N   UNL     1      -3.254   2.250 -31.353  1.00  0.00    -0.312 N 
HETATM    4  C   UNL     1      -3.175   3.487 -31.918  1.00  0.00     0.321 C 
HETATM    5  O   UNL     1      -2.311   4.293 -31.591  1.00  0.00    -0.247 OA
HETATM    6  N   UNL     1      -4.088   3.772 -32.877  1.00  0.00    -0.330 N 
HETATM    7  C   UNL     1      -5.247   2.956 -33.190  1.00  0.00     0.160 C 
HETATM    8  C   UNL     1      -5.141   1.592 -32.564  1.00  0.00     0.059 C 
HETATM    9  H   UNL     1      -2.513   2.048 -30.691  1.00  0.00     0.170 HD
HETATM   10  H   UNL     1      -4.026   4.701 -33.268  1.00  0.00     0.165 HD
ENDROOT
BRANCH   7  11
HETATM   11  C   UNL     1      -6.510   3.701 -32.778  1.00  0.00    -0.028 A 
HETATM   12  C   UNL     1      -7.361   4.276 -33.741  1.00  0.00     0.049 A 
HETATM   13  C   UNL     1      -8.525   4.952 -33.363  1.00  0.00     0.102 A 
HETATM   14  C   UNL     1      -8.839   5.070 -31.997  1.00  0.00     0.102 A 
HETATM   15  C   UNL     1      -8.009   4.490 -31.035  1.00  0.00     0.040 A 
HETATM   16  C   UNL     1      -6.849   3.817 -31.423  1.00  0.00     0.012 A 
BRANCH  13  17
HETATM   17  O   UNL     1      -9.398   5.553 -34.237  1.00  0.00    -0.353 OA
HETATM   18  C   UNL     1     -10.176   4.697 -35.065  1.00  0.00     0.210 C 
ENDBRANCH  13  17
BRANCH  14  19
HETATM   19  O   UNL     1     -10.005   5.725 -31.698  1.00  0.00    -0.339 OA
BRANCH  19  20
HETATM   20  C   UNL     1     -10.699   5.286 -30.533  1.00  0.00     0.278 C 
BRANCH  20  21
HETATM   21  C   UNL     1     -11.772   4.280 -30.938  1.00  0.00     0.239 C 
HETATM   22  N   UNL     1     -12.539   3.798 -29.915  1.00  0.00    -0.368 N 
HETATM   23  H   UNL     1     -12.529   4.284 -29.022  1.00  0.00     0.159 HD
HETATM   24  H   UNL     1     -13.316   3.194 -30.141  1.00  0.00     0.159 HD
HETATM   25  O   UNL     1     -11.918   3.875 -32.087  1.00  0.00    -0.271 OA
ENDBRANCH  20  21
ENDBRANCH  19  20
ENDBRANCH  14  19
ENDBRANCH   7  11
BRANCH   8  26
HETATM   26  C   UNL     1      -6.161   0.624 -33.041  1.00  0.00     0.252 C 
HETATM   27  N   UNL     1      -5.868   0.021 -34.235  1.00  0.00    -0.353 N 
HETATM   28  H   UNL     1      -4.953   0.144 -34.648  1.00  0.00     0.163 HD
HETATM   29  O   UNL     1      -7.141   0.358 -32.354  1.00  0.00    -0.268 OA
BRANCH  27  30
HETATM   30  C   UNL     1      -6.716  -1.015 -34.776  1.00  0.00     0.161 C 
BRANCH  30  31
HETATM   31  C   UNL     1      -6.066  -2.367 -34.639  1.00  0.00    -0.041 A 
HETATM   32  C   UNL     1      -6.775  -3.539 -34.930  1.00  0.00     0.009 A 
HETATM   33  C   UNL     1      -6.161  -4.788 -34.806  1.00  0.00     0.001 A 
HETATM   34  C   UNL     1      -4.834  -4.875 -34.386  1.00  0.00     0.000 A 
HETATM   35  C   UNL     1      -4.120  -3.717 -34.088  1.00  0.00     0.001 A 
HETATM   36  C   UNL     1      -4.732  -2.469 -34.215  1.00  0.00     0.009 A 
ENDBRANCH  30  31
ENDBRANCH  27  30
ENDBRANCH   8  26
TORSDOF 8
ENDMDL
