MODEL 1
REMARK VINA RESULT:      -8.1      0.000      0.000
REMARK  6 active torsions:
REMARK  status: ('A' for Active; 'I' for Inactive)
REMARK    1  A    between atoms: C_2  and  N_3 
REMARK    2  A    between atoms: C_4  and  S_5 
REMARK    3  A    between atoms: S_5  and  C_6 
REMARK    4  A    between atoms: C_6  and  C_7 
REMARK       I    between atoms: C_7  and  N_8 
REMARK    5  A    between atoms: N_8  and  C_9 
REMARK    6  A    between atoms: C_23  and  C_24 
ROOT
HETATM    1  C   UNL     1      -5.004   1.449 -31.368  1.00  0.00     0.231 C 
HETATM    2  N   UNL     1      -4.722   1.096 -32.679  1.00  0.00    -0.325 N 
HETATM    3  O   UNL     1      -5.678   0.777 -30.591  1.00  0.00    -0.272 OA
HETATM    4  H   UNL     1      -3.786   1.358 -32.994  1.00  0.00     0.169 HD
ENDROOT
BRANCH   2   5
HETATM    5  C   UNL     1      -5.274  -0.047 -33.299  1.00  0.00     0.054 A 
HETATM    6  C   UNL     1      -6.544  -0.051 -33.945  1.00  0.00     0.040 A 
HETATM    7 BR   UNL     1      -7.557   1.542 -34.223  1.00  0.00    -0.049 Br
HETATM    8  C   UNL     1      -7.047  -1.213 -34.550  1.00  0.00     0.053 A 
HETATM    9  C   UNL     1      -6.251  -2.330 -34.499  1.00  0.00     0.064 A 
HETATM   10  C   UNL     1      -4.995  -2.323 -33.898  1.00  0.00     0.065 A 
HETATM   11  N   UNL     1      -6.477  -3.606 -35.005  1.00  0.00    -0.306 N 
HETATM   12  N   UNL     1      -4.453  -3.598 -34.024  1.00  0.00    -0.306 N 
HETATM   13  C   UNL     1      -4.469  -1.198 -33.310  1.00  0.00     0.063 A 
HETATM   14  C   UNL     1      -5.367  -4.410 -34.712  1.00  0.00     0.325 A 
HETATM   15  H   UNL     1      -3.561  -3.919 -33.685  1.00  0.00     0.170 HD
HETATM   16  O   UNL     1      -5.223  -5.585 -35.000  1.00  0.00    -0.247 OA
HETATM   17  H   UNL     1      -7.291  -3.934 -35.499  1.00  0.00     0.170 HD
ENDBRANCH   2   5
BRANCH   1  18
HETATM   18  C   UNL     1      -4.429   2.791 -30.946  1.00  0.00     0.185 C 
BRANCH  18  19
HETATM   19  S   UNL     1      -5.050   4.172 -31.954  1.00  0.00    -0.081 SA
BRANCH  19  20
HETATM   20  C   UNL     1      -3.784   5.309 -31.674  1.00  0.00     0.192 A 
HETATM   21  N   UNL     1      -2.554   5.276 -32.264  1.00  0.00    -0.311 N 
HETATM   22  C   UNL     1      -1.789   6.161 -31.543  1.00  0.00     0.135 A 
HETATM   23  N   UNL     1      -2.546   6.747 -30.636  1.00  0.00    -0.134 NA
HETATM   24  N   UNL     1      -3.805   6.213 -30.724  1.00  0.00    -0.123 NA
BRANCH  21  25
HETATM   25  C   UNL     1      -2.116   4.462 -33.376  1.00  0.00     0.128 C 
HETATM   26  C   UNL     1      -2.213   5.185 -34.709  1.00  0.00     0.027 C 
ENDBRANCH  21  25
BRANCH  22  27
HETATM   27  C   UNL     1      -0.296   6.418 -31.693  1.00  0.00     0.057 A 
HETATM   28  C   UNL     1       0.477   6.907 -30.487  1.00  0.00     0.013 A 
HETATM   29  C   UNL     1       0.646   5.499 -30.939  1.00  0.00     0.013 A 
ENDBRANCH  22  27
ENDBRANCH  19  20
ENDBRANCH  18  19
ENDBRANCH   1  18
TORSDOF 6
ENDMDL
MODEL 2
REMARK VINA RESULT:      -8.0      1.999      2.990
REMARK  6 active torsions:
REMARK  status: ('A' for Active; 'I' for Inactive)
REMARK    1  A    between atoms: C_2  and  N_3 
REMARK    2  A    between atoms: C_4  and  S_5 
REMARK    3  A    between atoms: S_5  and  C_6 
REMARK    4  A    between atoms: C_6  and  C_7 
REMARK       I    between atoms: C_7  and  N_8 
REMARK    5  A    between atoms: N_8  and  C_9 
REMARK    6  A    between atoms: C_23  and  C_24 
ROOT
HETATM    1  C   UNL     1      -7.300   1.924 -32.438  1.00  0.00     0.231 C 
HETATM    2  N   UNL     1      -6.642   1.519 -33.589  1.00  0.00    -0.325 N 
HETATM    3  O   UNL     1      -7.324   1.291 -31.385  1.00  0.00    -0.272 OA
HETATM    4  H   UNL     1      -6.216   2.280 -34.121  1.00  0.00     0.169 HD
ENDROOT
BRANCH   2   5
HETATM    5  C   UNL     1      -6.000   0.265 -33.702  1.00  0.00     0.054 A 
HETATM    6  C   UNL     1      -4.671   0.022 -33.249  1.00  0.00     0.040 A 
HETATM    7 BR   UNL     1      -3.677   1.309 -32.253  1.00  0.00    -0.049 Br
HETATM    8  C   UNL     1      -4.079  -1.244 -33.382  1.00  0.00     0.053 A 
HETATM    9  C   UNL     1      -4.847  -2.228 -33.953  1.00  0.00     0.064 A 
HETATM   10  C   UNL     1      -6.158  -2.005 -34.367  1.00  0.00     0.065 A 
HETATM   11  N   UNL     1      -4.538  -3.560 -34.209  1.00  0.00    -0.306 N 
HETATM   12  N   UNL     1      -6.651  -3.196 -34.889  1.00  0.00    -0.306 N 
HETATM   13  C   UNL     1      -6.770  -0.781 -34.237  1.00  0.00     0.063 A 
HETATM   14  C   UNL     1      -5.652  -4.176 -34.798  1.00  0.00     0.325 A 
HETATM   15  H   UNL     1      -7.564  -3.360 -35.279  1.00  0.00     0.170 HD
HETATM   16  O   UNL     1      -5.735  -5.336 -35.159  1.00  0.00    -0.247 OA
HETATM   17  H   UNL     1      -3.670  -4.034 -34.021  1.00  0.00     0.170 HD
ENDBRANCH   2   5
BRANCH   1  18
HETATM   18  C   UNL     1      -8.049   3.238 -32.578  1.00  0.00     0.185 C 
BRANCH  18  19
HETATM   19  S   UNL     1      -7.166   4.637 -31.822  1.00  0.00    -0.081 SA
BRANCH  19  20
HETATM   20  C   UNL     1      -5.861   4.777 -32.940  1.00  0.00     0.192 A 
HETATM   21  N   UNL     1      -4.582   5.127 -32.615  1.00  0.00    -0.311 N 
HETATM   22  C   UNL     1      -3.972   5.402 -33.815  1.00  0.00     0.135 A 
HETATM   23  N   UNL     1      -4.815   5.147 -34.797  1.00  0.00    -0.134 NA
HETATM   24  N   UNL     1      -6.002   4.747 -34.244  1.00  0.00    -0.123 NA
BRANCH  21  25
HETATM   25  C   UNL     1      -3.990   5.234 -31.300  1.00  0.00     0.128 C 
HETATM   26  C   UNL     1      -4.073   6.640 -30.731  1.00  0.00     0.027 C 
ENDBRANCH  21  25
BRANCH  22  27
HETATM   27  C   UNL     1      -2.573   5.965 -34.027  1.00  0.00     0.057 A 
HETATM   28  C   UNL     1      -1.398   5.223 -33.427  1.00  0.00     0.013 A 
HETATM   29  C   UNL     1      -1.625   5.162 -34.897  1.00  0.00     0.013 A 
ENDBRANCH  22  27
ENDBRANCH  19  20
ENDBRANCH  18  19
ENDBRANCH   1  18
TORSDOF 6
ENDMDL
MODEL 3
REMARK VINA RESULT:      -8.0      4.493      7.206
REMARK  6 active torsions:
REMARK  status: ('A' for Active; 'I' for Inactive)
REMARK    1  A    between atoms: C_2  and  N_3 
REMARK    2  A    between atoms: C_4  and  S_5 
REMARK    3  A    between atoms: S_5  and  C_6 
REMARK    4  A    between atoms: C_6  and  C_7 
REMARK       I    between atoms: C_7  and  N_8 
REMARK    5  A    between atoms: N_8  and  C_9 
REMARK    6  A    between atoms: C_23  and  C_24 
ROOT
HETATM    1  C   UNL     1      -6.815   2.183 -33.214  1.00  0.00     0.231 C 
HETATM    2  N   UNL     1      -6.594   1.051 -32.444  1.00  0.00    -0.325 N 
HETATM    3  O   UNL     1      -6.590   2.266 -34.419  1.00  0.00    -0.272 OA
HETATM    4  H   UNL     1      -7.288   0.897 -31.711  1.00  0.00     0.169 HD
ENDROOT
BRANCH   2   5
HETATM    5  C   UNL     1      -5.983  -0.115 -32.957  1.00  0.00     0.054 A 
HETATM    6  C   UNL     1      -4.586  -0.379 -32.850  1.00  0.00     0.040 A 
HETATM    7 BR   UNL     1      -3.412   0.718 -31.822  1.00  0.00    -0.049 Br
HETATM    8  C   UNL     1      -4.028  -1.556 -33.373  1.00  0.00     0.053 A 
HETATM    9  C   UNL     1      -4.893  -2.435 -33.975  1.00  0.00     0.064 A 
HETATM   10  C   UNL     1      -6.263  -2.198 -34.053  1.00  0.00     0.065 A 
HETATM   11  N   UNL     1      -4.636  -3.664 -34.573  1.00  0.00    -0.306 N 
HETATM   12  N   UNL     1      -6.847  -3.276 -34.710  1.00  0.00    -0.306 N 
HETATM   13  C   UNL     1      -6.841  -1.063 -33.538  1.00  0.00     0.063 A 
HETATM   14  C   UNL     1      -5.845  -4.199 -35.041  1.00  0.00     0.325 A 
HETATM   15  H   UNL     1      -7.821  -3.400 -34.931  1.00  0.00     0.170 HD
HETATM   16  O   UNL     1      -5.996  -5.259 -35.621  1.00  0.00    -0.247 OA
HETATM   17  H   UNL     1      -3.746  -4.122 -34.675  1.00  0.00     0.170 HD
ENDBRANCH   2   5
BRANCH   1  18
HETATM   18  C   UNL     1      -7.343   3.374 -32.433  1.00  0.00     0.185 C 
BRANCH  18  19
HETATM   19  S   UNL     1      -8.701   2.933 -31.306  1.00  0.00    -0.081 SA
BRANCH  19  20
HETATM   20  C   UNL     1      -9.655   1.981 -32.382  1.00  0.00     0.192 A 
HETATM   21  N   UNL     1     -10.600   2.470 -33.237  1.00  0.00    -0.311 N 
HETATM   22  C   UNL     1     -11.300   1.367 -33.664  1.00  0.00     0.135 A 
HETATM   23  N   UNL     1     -10.746   0.283 -33.158  1.00  0.00    -0.134 NA
HETATM   24  N   UNL     1      -9.706   0.671 -32.356  1.00  0.00    -0.123 NA
BRANCH  21  25
HETATM   25  C   UNL     1     -10.855   3.848 -33.595  1.00  0.00     0.128 C 
HETATM   26  C   UNL     1     -10.147   4.265 -34.873  1.00  0.00     0.027 C 
ENDBRANCH  21  25
BRANCH  22  27
HETATM   27  C   UNL     1     -12.550   1.353 -34.533  1.00  0.00     0.057 A 
HETATM   28  C   UNL     1     -13.638   0.350 -34.215  1.00  0.00     0.013 A 
HETATM   29  C   UNL     1     -13.851   1.786 -33.884  1.00  0.00     0.013 A 
ENDBRANCH  22  27
ENDBRANCH  19  20
ENDBRANCH  18  19
ENDBRANCH   1  18
TORSDOF 6
ENDMDL
MODEL 4
REMARK VINA RESULT:      -7.5      1.364      2.007
REMARK  6 active torsions:
REMARK  status: ('A' for Active; 'I' for Inactive)
REMARK    1  A    between atoms: C_2  and  N_3 
REMARK    2  A    between atoms: C_4  and  S_5 
REMARK    3  A    between atoms: S_5  and  C_6 
REMARK    4  A    between atoms: C_6  and  C_7 
REMARK       I    between atoms: C_7  and  N_8 
REMARK    5  A    between atoms: N_8  and  C_9 
REMARK    6  A    between atoms: C_23  and  C_24 
ROOT
HETATM    1  C   UNL     1      -6.388   2.091 -31.613  1.00  0.00     0.231 C 
HETATM    2  N   UNL     1      -5.797   1.726 -32.812  1.00  0.00    -0.325 N 
HETATM    3  O   UNL     1      -6.899   1.308 -30.816  1.00  0.00    -0.272 OA
HETATM    4  H   UNL     1      -4.975   2.278 -33.063  1.00  0.00     0.169 HD
ENDROOT
BRANCH   2   5
HETATM    5  C   UNL     1      -5.809   0.399 -33.298  1.00  0.00     0.054 A 
HETATM    6  C   UNL     1      -6.887  -0.150 -34.050  1.00  0.00     0.040 A 
HETATM    7 BR   UNL     1      -8.353   0.907 -34.661  1.00  0.00    -0.049 Br
HETATM    8  C   UNL     1      -6.849  -1.475 -34.513  1.00  0.00     0.053 A 
HETATM    9  C   UNL     1      -5.722  -2.200 -34.217  1.00  0.00     0.064 A 
HETATM   10  C   UNL     1      -4.651  -1.658 -33.512  1.00  0.00     0.065 A 
HETATM   11  N   UNL     1      -5.402  -3.515 -34.539  1.00  0.00    -0.306 N 
HETATM   12  N   UNL     1      -3.677  -2.643 -33.390  1.00  0.00    -0.306 N 
HETATM   13  C   UNL     1      -4.652  -0.361 -33.058  1.00  0.00     0.063 A 
HETATM   14  C   UNL     1      -4.131  -3.808 -34.026  1.00  0.00     0.325 A 
HETATM   15  H   UNL     1      -2.787  -2.568 -32.924  1.00  0.00     0.170 HD
HETATM   16  O   UNL     1      -3.537  -4.867 -34.115  1.00  0.00    -0.247 OA
HETATM   17  H   UNL     1      -5.965  -4.175 -35.051  1.00  0.00     0.170 HD
ENDBRANCH   2   5
BRANCH   1  18
HETATM   18  C   UNL     1      -6.394   3.588 -31.352  1.00  0.00     0.185 C 
BRANCH  18  19
HETATM   19  S   UNL     1      -5.490   4.529 -32.619  1.00  0.00    -0.081 SA
BRANCH  19  20
HETATM   20  C   UNL     1      -3.914   4.491 -31.920  1.00  0.00     0.192 A 
HETATM   21  N   UNL     1      -3.329   5.522 -31.244  1.00  0.00    -0.311 N 
HETATM   22  C   UNL     1      -2.005   5.170 -31.134  1.00  0.00     0.135 A 
HETATM   23  N   UNL     1      -1.835   3.965 -31.639  1.00  0.00    -0.134 NA
HETATM   24  N   UNL     1      -3.040   3.535 -32.128  1.00  0.00    -0.123 NA
BRANCH  21  25
HETATM   25  C   UNL     1      -3.940   6.746 -30.776  1.00  0.00     0.128 C 
HETATM   26  C   UNL     1      -4.626   6.584 -29.430  1.00  0.00     0.027 C 
ENDBRANCH  21  25
BRANCH  22  27
HETATM   27  C   UNL     1      -0.872   6.023 -30.579  1.00  0.00     0.057 A 
HETATM   28  C   UNL     1       0.548   5.682 -30.975  1.00  0.00     0.013 A 
HETATM   29  C   UNL     1      -0.104   6.884 -31.565  1.00  0.00     0.013 A 
ENDBRANCH  22  27
ENDBRANCH  19  20
ENDBRANCH  18  19
ENDBRANCH   1  18
TORSDOF 6
ENDMDL
MODEL 5
REMARK VINA RESULT:      -7.2      2.880      4.116
REMARK  6 active torsions:
REMARK  status: ('A' for Active; 'I' for Inactive)
REMARK    1  A    between atoms: C_2  and  N_3 
REMARK    2  A    between atoms: C_4  and  S_5 
REMARK    3  A    between atoms: S_5  and  C_6 
REMARK    4  A    between atoms: C_6  and  C_7 
REMARK       I    between atoms: C_7  and  N_8 
REMARK    5  A    between atoms: N_8  and  C_9 
REMARK    6  A    between atoms: C_23  and  C_24 
ROOT
HETATM    1  C   UNL     1      -8.726   1.265 -33.657  1.00  0.00     0.231 C 
HETATM    2  N   UNL     1      -7.710   0.975 -34.556  1.00  0.00    -0.325 N 
HETATM    3  O   UNL     1      -8.880   0.711 -32.571  1.00  0.00    -0.272 OA
HETATM    4  H   UNL     1      -7.349   1.786 -35.060  1.00  0.00     0.169 HD
ENDROOT
BRANCH   2   5
HETATM    5  C   UNL     1      -6.788  -0.076 -34.354  1.00  0.00     0.054 A 
HETATM    6  C   UNL     1      -5.538   0.096 -33.691  1.00  0.00     0.040 A 
HETATM    7 BR   UNL     1      -5.055   1.723 -32.821  1.00  0.00    -0.049 Br
HETATM    8  C   UNL     1      -4.657  -0.982 -33.513  1.00  0.00     0.053 A 
HETATM    9  C   UNL     1      -5.066  -2.201 -33.994  1.00  0.00     0.064 A 
HETATM   10  C   UNL     1      -6.300  -2.381 -34.612  1.00  0.00     0.065 A 
HETATM   11  N   UNL     1      -4.419  -3.431 -33.961  1.00  0.00    -0.306 N 
HETATM   12  N   UNL     1      -6.407  -3.721 -34.971  1.00  0.00    -0.306 N 
HETATM   13  C   UNL     1      -7.191  -1.349 -34.789  1.00  0.00     0.063 A 
HETATM   14  C   UNL     1      -5.241  -4.389 -34.572  1.00  0.00     0.325 A 
HETATM   15  H   UNL     1      -7.176  -4.167 -35.443  1.00  0.00     0.170 HD
HETATM   16  O   UNL     1      -4.991  -5.571 -34.725  1.00  0.00    -0.247 OA
HETATM   17  H   UNL     1      -3.511  -3.636 -33.577  1.00  0.00     0.170 HD
ENDBRANCH   2   5
BRANCH   1  18
HETATM   18  C   UNL     1      -9.696   2.331 -34.137  1.00  0.00     0.185 C 
BRANCH  18  19
HETATM   19  S   UNL     1      -9.827   3.735 -32.987  1.00  0.00    -0.081 SA
BRANCH  19  20
HETATM   20  C   UNL     1      -8.204   4.313 -33.070  1.00  0.00     0.192 A 
HETATM   21  N   UNL     1      -7.444   4.676 -31.996  1.00  0.00    -0.311 N 
HETATM   22  C   UNL     1      -6.366   5.340 -32.532  1.00  0.00     0.135 A 
HETATM   23  N   UNL     1      -6.442   5.296 -33.848  1.00  0.00    -0.134 NA
HETATM   24  N   UNL     1      -7.598   4.643 -34.185  1.00  0.00    -0.123 NA
BRANCH  21  25
HETATM   25  C   UNL     1      -7.715   4.459 -30.593  1.00  0.00     0.128 C 
HETATM   26  C   UNL     1      -7.361   3.055 -30.135  1.00  0.00     0.027 C 
ENDBRANCH  21  25
BRANCH  22  27
HETATM   27  C   UNL     1      -5.268   6.071 -31.772  1.00  0.00     0.057 A 
HETATM   28  C   UNL     1      -4.215   5.252 -31.058  1.00  0.00     0.013 A 
HETATM   29  C   UNL     1      -3.857   5.963 -32.316  1.00  0.00     0.013 A 
ENDBRANCH  22  27
ENDBRANCH  19  20
ENDBRANCH  18  19
ENDBRANCH   1  18
TORSDOF 6
ENDMDL
MODEL 6
REMARK VINA RESULT:      -7.1      4.635      6.944
REMARK  6 active torsions:
REMARK  status: ('A' for Active; 'I' for Inactive)
REMARK    1  A    between atoms: C_2  and  N_3 
REMARK    2  A    between atoms: C_4  and  S_5 
REMARK    3  A    between atoms: S_5  and  C_6 
REMARK    4  A    between atoms: C_6  and  C_7 
REMARK       I    between atoms: C_7  and  N_8 
REMARK    5  A    between atoms: N_8  and  C_9 
REMARK    6  A    between atoms: C_23  and  C_24 
ROOT
HETATM    1  C   UNL     1      -7.101   2.219 -33.117  1.00  0.00     0.231 C 
HETATM    2  N   UNL     1      -6.930   1.025 -32.433  1.00  0.00    -0.325 N 
HETATM    3  O   UNL     1      -6.762   2.414 -34.282  1.00  0.00    -0.272 OA
HETATM    4  H   UNL     1      -7.689   0.796 -31.788  1.00  0.00     0.169 HD
ENDROOT
BRANCH   2   5
HETATM    5  C   UNL     1      -6.247  -0.082 -32.985  1.00  0.00     0.054 A 
HETATM    6  C   UNL     1      -4.827  -0.202 -32.991  1.00  0.00     0.040 A 
HETATM    7 BR   UNL     1      -3.691   1.025 -32.073  1.00  0.00    -0.049 Br
HETATM    8  C   UNL     1      -4.196  -1.324 -33.549  1.00  0.00     0.053 A 
HETATM    9  C   UNL     1      -5.013  -2.297 -34.071  1.00  0.00     0.064 A 
HETATM   10  C   UNL     1      -6.401  -2.200 -34.037  1.00  0.00     0.065 A 
HETATM   11  N   UNL     1      -4.682  -3.503 -34.677  1.00  0.00    -0.306 N 
HETATM   12  N   UNL     1      -6.924  -3.342 -34.634  1.00  0.00    -0.306 N 
HETATM   13  C   UNL     1      -7.049  -1.121 -33.485  1.00  0.00     0.063 A 
HETATM   14  C   UNL     1      -5.863  -4.165 -35.039  1.00  0.00     0.325 A 
HETATM   15  H   UNL     1      -7.895  -3.568 -34.774  1.00  0.00     0.170 HD
HETATM   16  O   UNL     1      -5.952  -5.244 -35.597  1.00  0.00    -0.247 OA
HETATM   17  H   UNL     1      -3.760  -3.871 -34.848  1.00  0.00     0.170 HD
ENDBRANCH   2   5
BRANCH   1  18
HETATM   18  C   UNL     1      -7.728   3.327 -32.289  1.00  0.00     0.185 C 
BRANCH  18  19
HETATM   19  S   UNL     1      -8.935   2.706 -31.077  1.00  0.00    -0.081 SA
BRANCH  19  20
HETATM   20  C   UNL     1     -10.375   3.364 -31.760  1.00  0.00     0.192 A 
HETATM   21  N   UNL     1     -10.974   2.924 -32.906  1.00  0.00    -0.311 N 
HETATM   22  C   UNL     1     -11.887   3.899 -33.227  1.00  0.00     0.135 A 
HETATM   23  N   UNL     1     -11.889   4.819 -32.282  1.00  0.00    -0.134 NA
HETATM   24  N   UNL     1     -10.940   4.476 -31.355  1.00  0.00    -0.123 NA
BRANCH  21  25
HETATM   25  C   UNL     1     -10.694   1.721 -33.657  1.00  0.00     0.128 C 
HETATM   26  C   UNL     1     -11.763   0.656 -33.482  1.00  0.00     0.027 C 
ENDBRANCH  21  25
BRANCH  22  27
HETATM   27  C   UNL     1     -12.741   3.979 -34.485  1.00  0.00     0.057 A 
HETATM   28  C   UNL     1     -13.022   5.341 -35.082  1.00  0.00     0.013 A 
HETATM   29  C   UNL     1     -12.057   4.432 -35.761  1.00  0.00     0.013 A 
ENDBRANCH  22  27
ENDBRANCH  19  20
ENDBRANCH  18  19
ENDBRANCH   1  18
TORSDOF 6
ENDMDL
MODEL 7
REMARK VINA RESULT:      -7.1      5.210      7.937
REMARK  6 active torsions:
REMARK  status: ('A' for Active; 'I' for Inactive)
REMARK    1  A    between atoms: C_2  and  N_3 
REMARK    2  A    between atoms: C_4  and  S_5 
REMARK    3  A    between atoms: S_5  and  C_6 
REMARK    4  A    between atoms: C_6  and  C_7 
REMARK       I    between atoms: C_7  and  N_8 
REMARK    5  A    between atoms: N_8  and  C_9 
REMARK    6  A    between atoms: C_23  and  C_24 
ROOT
HETATM    1  C   UNL     1      -8.107   4.078 -33.867  1.00  0.00     0.231 C 
HETATM    2  N   UNL     1      -8.765   3.144 -33.081  1.00  0.00    -0.325 N 
HETATM    3  O   UNL     1      -8.662   4.935 -34.550  1.00  0.00    -0.272 OA
HETATM    4  H   UNL     1      -8.291   2.923 -32.203  1.00  0.00     0.169 HD
ENDROOT
BRANCH   2   5
HETATM    5  C   UNL     1     -10.172   3.017 -33.061  1.00  0.00     0.054 A 
HETATM    6  C   UNL     1     -11.020   3.826 -32.251  1.00  0.00     0.040 A 
HETATM    7 BR   UNL     1     -10.367   5.312 -31.250  1.00  0.00    -0.049 Br
HETATM    8  C   UNL     1     -12.414   3.662 -32.270  1.00  0.00     0.053 A 
HETATM    9  C   UNL     1     -12.912   2.700 -33.113  1.00  0.00     0.064 A 
HETATM   10  C   UNL     1     -12.090   1.930 -33.932  1.00  0.00     0.065 A 
HETATM   11  N   UNL     1     -14.228   2.317 -33.346  1.00  0.00    -0.306 N 
HETATM   12  N   UNL     1     -12.901   1.065 -34.659  1.00  0.00    -0.306 N 
HETATM   13  C   UNL     1     -10.723   2.076 -33.947  1.00  0.00     0.063 A 
HETATM   14  C   UNL     1     -14.238   1.294 -34.304  1.00  0.00     0.325 A 
HETATM   15  H   UNL     1     -12.608   0.374 -35.331  1.00  0.00     0.170 HD
HETATM   16  O   UNL     1     -15.216   0.717 -34.743  1.00  0.00    -0.247 OA
HETATM   17  H   UNL     1     -15.059   2.687 -32.914  1.00  0.00     0.170 HD
ENDBRANCH   2   5
BRANCH   1  18
HETATM   18  C   UNL     1      -6.593   3.946 -33.855  1.00  0.00     0.185 C 
BRANCH  18  19
HETATM   19  S   UNL     1      -5.995   2.797 -32.578  1.00  0.00    -0.081 SA
BRANCH  19  20
HETATM   20  C   UNL     1      -6.315   1.303 -33.378  1.00  0.00     0.192 A 
HETATM   21  N   UNL     1      -6.014   0.067 -32.884  1.00  0.00    -0.311 N 
HETATM   22  C   UNL     1      -6.161  -0.787 -33.951  1.00  0.00     0.135 A 
HETATM   23  N   UNL     1      -6.605  -0.109 -34.990  1.00  0.00    -0.134 NA
HETATM   24  N   UNL     1      -6.708   1.208 -34.626  1.00  0.00    -0.123 NA
BRANCH  21  25
HETATM   25  C   UNL     1      -5.590  -0.284 -31.548  1.00  0.00     0.128 C 
HETATM   26  C   UNL     1      -6.674  -0.059 -30.508  1.00  0.00     0.027 C 
ENDBRANCH  21  25
BRANCH  22  27
HETATM   27  C   UNL     1      -5.824  -2.272 -33.991  1.00  0.00     0.057 A 
HETATM   28  C   UNL     1      -5.479  -2.898 -35.324  1.00  0.00     0.013 A 
HETATM   29  C   UNL     1      -4.396  -2.651 -34.333  1.00  0.00     0.013 A 
ENDBRANCH  22  27
ENDBRANCH  19  20
ENDBRANCH  18  19
ENDBRANCH   1  18
TORSDOF 6
ENDMDL
MODEL 8
REMARK VINA RESULT:      -7.0      3.941      5.220
REMARK  6 active torsions:
REMARK  status: ('A' for Active; 'I' for Inactive)
REMARK    1  A    between atoms: C_2  and  N_3 
REMARK    2  A    between atoms: C_4  and  S_5 
REMARK    3  A    between atoms: S_5  and  C_6 
REMARK    4  A    between atoms: C_6  and  C_7 
REMARK       I    between atoms: C_7  and  N_8 
REMARK    5  A    between atoms: N_8  and  C_9 
REMARK    6  A    between atoms: C_23  and  C_24 
ROOT
HETATM    1  C   UNL     1      -6.213   3.089 -32.770  1.00  0.00     0.231 C 
HETATM    2  N   UNL     1      -7.125   3.264 -33.799  1.00  0.00    -0.325 N 
HETATM    3  O   UNL     1      -6.439   2.471 -31.732  1.00  0.00    -0.272 OA
HETATM    4  H   UNL     1      -6.714   3.247 -34.735  1.00  0.00     0.169 HD
ENDROOT
BRANCH   2   5
HETATM    5  C   UNL     1      -8.466   2.826 -33.717  1.00  0.00     0.054 A 
HETATM    6  C   UNL     1      -8.914   1.574 -34.228  1.00  0.00     0.040 A 
HETATM    7 BR   UNL     1      -7.713   0.256 -34.905  1.00  0.00    -0.049 Br
HETATM    8  C   UNL     1     -10.257   1.183 -34.118  1.00  0.00     0.053 A 
HETATM    9  C   UNL     1     -11.105   2.057 -33.484  1.00  0.00     0.064 A 
HETATM   10  C   UNL     1     -10.666   3.267 -32.953  1.00  0.00     0.065 A 
HETATM   11  N   UNL     1     -12.467   1.945 -33.227  1.00  0.00    -0.306 N 
HETATM   12  N   UNL     1     -11.761   3.904 -32.379  1.00  0.00    -0.306 N 
HETATM   13  C   UNL     1      -9.355   3.671 -33.032  1.00  0.00     0.063 A 
HETATM   14  C   UNL     1     -12.893   3.092 -32.542  1.00  0.00     0.325 A 
HETATM   15  H   UNL     1     -11.775   4.801 -31.921  1.00  0.00     0.170 HD
HETATM   16  O   UNL     1     -14.024   3.335 -32.163  1.00  0.00    -0.247 OA
HETATM   17  H   UNL     1     -13.077   1.185 -33.478  1.00  0.00     0.170 HD
ENDBRANCH   2   5
BRANCH   1  18
HETATM   18  C   UNL     1      -4.873   3.766 -33.003  1.00  0.00     0.185 C 
BRANCH  18  19
HETATM   19  S   UNL     1      -5.037   5.527 -33.428  1.00  0.00    -0.081 SA
BRANCH  19  20
HETATM   20  C   UNL     1      -3.815   6.174 -32.396  1.00  0.00     0.192 A 
HETATM   21  N   UNL     1      -2.561   6.536 -32.795  1.00  0.00    -0.311 N 
HETATM   22  C   UNL     1      -1.852   6.705 -31.630  1.00  0.00     0.135 A 
HETATM   23  N   UNL     1      -2.661   6.536 -30.604  1.00  0.00    -0.134 NA
HETATM   24  N   UNL     1      -3.900   6.209 -31.088  1.00  0.00    -0.123 NA
BRANCH  21  25
HETATM   25  C   UNL     1      -2.055   6.674 -34.143  1.00  0.00     0.128 C 
HETATM   26  C   UNL     1      -1.439   5.392 -34.675  1.00  0.00     0.027 C 
ENDBRANCH  21  25
BRANCH  22  27
HETATM   27  C   UNL     1      -0.361   6.985 -31.495  1.00  0.00     0.057 A 
HETATM   28  C   UNL     1       0.269   6.895 -30.122  1.00  0.00     0.013 A 
HETATM   29  C   UNL     1       0.533   5.819 -31.118  1.00  0.00     0.013 A 
ENDBRANCH  22  27
ENDBRANCH  19  20
ENDBRANCH  18  19
ENDBRANCH   1  18
TORSDOF 6
ENDMDL
MODEL 9
REMARK VINA RESULT:      -7.0      5.787      8.154
REMARK  6 active torsions:
REMARK  status: ('A' for Active; 'I' for Inactive)
REMARK    1  A    between atoms: C_2  and  N_3 
REMARK    2  A    between atoms: C_4  and  S_5 
REMARK    3  A    between atoms: S_5  and  C_6 
REMARK    4  A    between atoms: C_6  and  C_7 
REMARK       I    between atoms: C_7  and  N_8 
REMARK    5  A    between atoms: N_8  and  C_9 
REMARK    6  A    between atoms: C_23  and  C_24 
ROOT
HETATM    1  C   UNL     1      -9.487   3.819 -31.947  1.00  0.00     0.231 C 
HETATM    2  N   UNL     1     -10.281   3.775 -33.084  1.00  0.00    -0.325 N 
HETATM    3  O   UNL     1      -9.681   3.156 -30.931  1.00  0.00    -0.272 OA
HETATM    4  H   UNL     1      -9.766   3.866 -33.962  1.00  0.00     0.169 HD
ENDROOT
BRANCH   2   5
HETATM    5  C   UNL     1     -11.474   3.022 -33.154  1.00  0.00     0.054 A 
HETATM    6  C   UNL     1     -11.519   1.663 -33.580  1.00  0.00     0.040 A 
HETATM    7 BR   UNL     1      -9.942   0.641 -33.912  1.00  0.00    -0.049 Br
HETATM    8  C   UNL     1     -12.731   0.957 -33.630  1.00  0.00     0.053 A 
HETATM    9  C   UNL     1     -13.857   1.635 -33.236  1.00  0.00     0.064 A 
HETATM   10  C   UNL     1     -13.815   2.953 -32.787  1.00  0.00     0.065 A 
HETATM   11  N   UNL     1     -15.178   1.204 -33.176  1.00  0.00    -0.306 N 
HETATM   12  N   UNL     1     -15.112   3.336 -32.462  1.00  0.00    -0.306 N 
HETATM   13  C   UNL     1     -12.642   3.666 -32.714  1.00  0.00     0.063 A 
HETATM   14  C   UNL     1     -15.974   2.256 -32.700  1.00  0.00     0.325 A 
HETATM   15  H   UNL     1     -15.416   4.232 -32.117  1.00  0.00     0.170 HD
HETATM   16  O   UNL     1     -17.179   2.235 -32.526  1.00  0.00    -0.247 OA
HETATM   17  H   UNL     1     -15.539   0.299 -33.428  1.00  0.00     0.170 HD
ENDBRANCH   2   5
BRANCH   1  18
HETATM   18  C   UNL     1      -8.334   4.804 -32.031  1.00  0.00     0.185 C 
BRANCH  18  19
HETATM   19  S   UNL     1      -6.747   4.080 -31.517  1.00  0.00    -0.081 SA
BRANCH  19  20
HETATM   20  C   UNL     1      -6.750   2.673 -32.514  1.00  0.00     0.192 A 
HETATM   21  N   UNL     1      -6.757   1.386 -32.058  1.00  0.00    -0.311 N 
HETATM   22  C   UNL     1      -6.456   0.617 -33.157  1.00  0.00     0.135 A 
HETATM   23  N   UNL     1      -6.363   1.396 -34.217  1.00  0.00    -0.134 NA
HETATM   24  N   UNL     1      -6.555   2.690 -33.811  1.00  0.00    -0.123 NA
BRANCH  21  25
HETATM   25  C   UNL     1      -6.984   0.916 -30.710  1.00  0.00     0.128 C 
HETATM   26  C   UNL     1      -5.694   0.711 -29.934  1.00  0.00     0.027 C 
ENDBRANCH  21  25
BRANCH  22  27
HETATM   27  C   UNL     1      -6.207  -0.885 -33.186  1.00  0.00     0.057 A 
HETATM   28  C   UNL     1      -5.835  -1.529 -34.504  1.00  0.00     0.013 A 
HETATM   29  C   UNL     1      -4.789  -1.348 -33.459  1.00  0.00     0.013 A 
ENDBRANCH  22  27
ENDBRANCH  19  20
ENDBRANCH  18  19
ENDBRANCH   1  18
TORSDOF 6
ENDMDL
MODEL 10
REMARK VINA RESULT:      -7.0      3.860      4.530
REMARK  6 active torsions:
REMARK  status: ('A' for Active; 'I' for Inactive)
REMARK    1  A    between atoms: C_2  and  N_3 
REMARK    2  A    between atoms: C_4  and  S_5 
REMARK    3  A    between atoms: S_5  and  C_6 
REMARK    4  A    between atoms: C_6  and  C_7 
REMARK       I    between atoms: C_7  and  N_8 
REMARK    5  A    between atoms: N_8  and  C_9 
REMARK    6  A    between atoms: C_23  and  C_24 
ROOT
HETATM    1  C   UNL     1      -6.216   3.701 -32.003  1.00  0.00     0.231 C 
HETATM    2  N   UNL     1      -6.489   2.804 -33.024  1.00  0.00    -0.325 N 
HETATM    3  O   UNL     1      -7.008   4.018 -31.119  1.00  0.00    -0.272 OA
HETATM    4  H   UNL     1      -5.697   2.218 -33.295  1.00  0.00     0.169 HD
ENDROOT
BRANCH   2   5
HETATM    5  C   UNL     1      -7.764   2.227 -33.214  1.00  0.00     0.054 A 
HETATM    6  C   UNL     1      -8.183   1.025 -32.572  1.00  0.00     0.040 A 
HETATM    7 BR   UNL     1      -7.141   0.167 -31.225  1.00  0.00    -0.049 Br
HETATM    8  C   UNL     1      -9.463   0.493 -32.791  1.00  0.00     0.053 A 
HETATM    9  C   UNL     1     -10.287   1.193 -33.638  1.00  0.00     0.064 A 
HETATM   10  C   UNL     1      -9.895   2.385 -34.242  1.00  0.00     0.065 A 
HETATM   11  N   UNL     1     -11.590   0.919 -34.039  1.00  0.00    -0.306 N 
HETATM   12  N   UNL     1     -10.953   2.837 -35.023  1.00  0.00    -0.306 N 
HETATM   13  C   UNL     1      -8.654   2.939 -34.036  1.00  0.00     0.063 A 
HETATM   14  C   UNL     1     -12.018   1.933 -34.907  1.00  0.00     0.325 A 
HETATM   15  H   UNL     1     -10.980   3.667 -35.593  1.00  0.00     0.170 HD
HETATM   16  O   UNL     1     -13.103   2.012 -35.454  1.00  0.00    -0.247 OA
HETATM   17  H   UNL     1     -12.159   0.132 -33.773  1.00  0.00     0.170 HD
ENDBRANCH   2   5
BRANCH   1  18
HETATM   18  C   UNL     1      -4.828   4.317 -32.069  1.00  0.00     0.185 C 
BRANCH  18  19
HETATM   19  S   UNL     1      -4.721   5.689 -33.258  1.00  0.00    -0.081 SA
BRANCH  19  20
HETATM   20  C   UNL     1      -3.373   6.531 -32.588  1.00  0.00     0.192 A 
HETATM   21  N   UNL     1      -2.081   6.092 -32.615  1.00  0.00    -0.311 N 
HETATM   22  C   UNL     1      -1.413   6.901 -31.727  1.00  0.00     0.135 A 
HETATM   23  N   UNL     1      -2.242   7.817 -31.268  1.00  0.00    -0.134 NA
HETATM   24  N   UNL     1      -3.476   7.587 -31.816  1.00  0.00    -0.123 NA
BRANCH  21  25
HETATM   25  C   UNL     1      -1.525   4.992 -33.370  1.00  0.00     0.128 C 
HETATM   26  C   UNL     1      -1.334   5.325 -34.840  1.00  0.00     0.027 C 
ENDBRANCH  21  25
BRANCH  22  27
HETATM   27  C   UNL     1       0.035   6.766 -31.273  1.00  0.00     0.057 A 
HETATM   28  C   UNL     1       0.416   7.298 -29.908  1.00  0.00     0.013 A 
HETATM   29  C   UNL     1       0.314   5.827 -30.115  1.00  0.00     0.013 A 
ENDBRANCH  22  27
ENDBRANCH  19  20
ENDBRANCH  18  19
ENDBRANCH   1  18
TORSDOF 6
ENDMDL
