MODEL 1
REMARK VINA RESULT:      -9.0      0.000      0.000
REMARK  6 active torsions:
REMARK  status: ('A' for Active; 'I' for Inactive)
REMARK    1  A    between atoms: O_2  and  C_3 
REMARK    2  A    between atoms: C_5  and  N_6 
REMARK    3  A    between atoms: C_7  and  C_9 
REMARK    4  A    between atoms: C_7  and  O_8 
REMARK       I    between atoms: C_9  and  N_10 
REMARK    5  A    between atoms: N_10  and  C_11 
REMARK    6  A    between atoms: C_11  and  C_12 
ROOT
HETATM    1  N   UNL     1      -7.789   2.057 -31.698  1.00  0.00    -0.254 N 
HETATM    2  C   UNL     1      -8.698   1.122 -32.386  1.00  0.00     0.256 C 
HETATM    3  C   UNL     1     -10.035   1.699 -32.809  1.00  0.00     0.034 A 
HETATM    4  C   UNL     1     -10.387   2.967 -32.379  1.00  0.00     0.048 A 
HETATM    5  N   UNL     1      -9.510   3.664 -31.569  1.00  0.00    -0.308 N 
HETATM    6  C   UNL     1      -8.266   3.262 -31.199  1.00  0.00     0.330 C 
HETATM    7  O   UNL     1      -7.670   4.004 -30.417  1.00  0.00    -0.246 OA
HETATM    8  C   UNL     1     -10.966   0.982 -33.586  1.00  0.00     0.015 A 
HETATM    9  C   UNL     1     -12.193   1.549 -33.940  1.00  0.00     0.001 A 
HETATM   10  C   UNL     1     -12.516   2.832 -33.508  1.00  0.00     0.002 A 
HETATM   11  C   UNL     1     -11.615   3.541 -32.718  1.00  0.00     0.030 A 
HETATM   12  H   UNL     1      -9.774   4.569 -31.200  1.00  0.00     0.170 HD
ENDROOT
BRANCH   2  13
HETATM   13  C   UNL     1      -8.004   0.533 -33.696  1.00  0.00     0.279 C 
HETATM   14  N   UNL     1      -7.631  -0.796 -33.557  1.00  0.00    -0.352 N 
HETATM   15  H   UNL     1      -7.948  -1.269 -32.715  1.00  0.00     0.162 HD
HETATM   16  O   UNL     1      -7.831   1.167 -34.735  1.00  0.00    -0.268 OA
BRANCH  14  17
HETATM   17  C   UNL     1      -7.129  -1.580 -34.657  1.00  0.00     0.163 C 
BRANCH  17  18
HETATM   18  C   UNL     1      -5.900  -2.353 -34.253  1.00  0.00    -0.019 A 
HETATM   19  C   UNL     1      -5.680  -3.684 -34.639  1.00  0.00     0.042 A 
HETATM   20 CL   UNL     1      -6.817  -4.548 -35.614  1.00  0.00    -0.084 Cl
HETATM   21  C   UNL     1      -4.527  -4.364 -34.228  1.00  0.00     0.024 A 
HETATM   22  C   UNL     1      -3.584  -3.724 -33.426  1.00  0.00     0.002 A 
HETATM   23  C   UNL     1      -3.793  -2.407 -33.027  1.00  0.00     0.001 A 
HETATM   24  C   UNL     1      -4.944  -1.727 -33.433  1.00  0.00     0.010 A 
ENDBRANCH  17  18
ENDBRANCH  14  17
ENDBRANCH   2  13
BRANCH   2  25
HETATM   25  O   UNL     1      -9.033   0.099 -31.442  1.00  0.00    -0.359 OA
HETATM   26  H   UNL     1      -8.571   0.380 -30.634  1.00  0.00     0.213 HD
ENDBRANCH   2  25
BRANCH   1  27
HETATM   27  C   UNL     1      -6.393   1.695 -31.491  1.00  0.00     0.045 A 
HETATM   28  C   UNL     1      -5.366   2.367 -32.178  1.00  0.00     0.066 A 
HETATM   29  C   UNL     1      -4.012   2.052 -31.995  1.00  0.00     0.070 A 
HETATM   30  C   UNL     1      -3.657   1.019 -31.137  1.00  0.00     0.037 A 
HETATM   31  C   UNL     1      -4.653   0.321 -30.458  1.00  0.00     0.005 A 
HETATM   32  C   UNL     1      -6.001   0.657 -30.631  1.00  0.00     0.030 A 
BRANCH  29  33
HETATM   33  O   UNL     1      -3.140   2.807 -32.733  1.00  0.00    -0.356 OA
HETATM   34  C   UNL     1      -2.793   4.076 -32.193  1.00  0.00     0.210 C 
ENDBRANCH  29  33
ENDBRANCH   1  27
TORSDOF 6
ENDMDL
MODEL 2
REMARK VINA RESULT:      -8.9      2.311      6.281
REMARK  6 active torsions:
REMARK  status: ('A' for Active; 'I' for Inactive)
REMARK    1  A    between atoms: O_2  and  C_3 
REMARK    2  A    between atoms: C_5  and  N_6 
REMARK    3  A    between atoms: C_7  and  C_9 
REMARK    4  A    between atoms: C_7  and  O_8 
REMARK       I    between atoms: C_9  and  N_10 
REMARK    5  A    between atoms: N_10  and  C_11 
REMARK    6  A    between atoms: C_11  and  C_12 
ROOT
HETATM    1  N   UNL     1      -5.290   0.588 -33.036  1.00  0.00    -0.254 N 
HETATM    2  C   UNL     1      -6.380  -0.126 -33.727  1.00  0.00     0.256 C 
HETATM    3  C   UNL     1      -6.107  -1.582 -34.052  1.00  0.00     0.034 A 
HETATM    4  C   UNL     1      -4.833  -2.088 -33.857  1.00  0.00     0.048 A 
HETATM    5  N   UNL     1      -3.847  -1.245 -33.380  1.00  0.00    -0.308 N 
HETATM    6  C   UNL     1      -4.012   0.047 -32.994  1.00  0.00     0.330 C 
HETATM    7  O   UNL     1      -2.988   0.644 -32.658  1.00  0.00    -0.246 OA
HETATM    8  C   UNL     1      -7.084  -2.440 -34.594  1.00  0.00     0.015 A 
HETATM    9  C   UNL     1      -6.783  -3.771 -34.892  1.00  0.00     0.001 A 
HETATM   10  C   UNL     1      -5.499  -4.260 -34.672  1.00  0.00     0.002 A 
HETATM   11  C   UNL     1      -4.518  -3.415 -34.160  1.00  0.00     0.030 A 
HETATM   12  H   UNL     1      -2.897  -1.582 -33.283  1.00  0.00     0.170 HD
ENDROOT
BRANCH   2  13
HETATM   13  C   UNL     1      -7.715  -0.080 -32.857  1.00  0.00     0.279 C 
HETATM   14  N   UNL     1      -8.824   0.314 -33.591  1.00  0.00    -0.352 N 
HETATM   15  H   UNL     1      -8.695   0.398 -34.596  1.00  0.00     0.162 HD
HETATM   16  O   UNL     1      -7.779  -0.380 -31.666  1.00  0.00    -0.268 OA
BRANCH  14  17
HETATM   17  C   UNL     1     -10.162   0.279 -33.055  1.00  0.00     0.163 C 
BRANCH  17  18
HETATM   18  C   UNL     1     -11.072   1.209 -33.814  1.00  0.00    -0.019 A 
HETATM   19  C   UNL     1     -12.420   0.913 -34.069  1.00  0.00     0.042 A 
HETATM   20 CL   UNL     1     -13.144  -0.561 -33.529  1.00  0.00    -0.084 Cl
HETATM   21  C   UNL     1     -13.222   1.805 -34.789  1.00  0.00     0.024 A 
HETATM   22  C   UNL     1     -12.688   3.002 -35.265  1.00  0.00     0.002 A 
HETATM   23  C   UNL     1     -11.350   3.305 -35.028  1.00  0.00     0.001 A 
HETATM   24  C   UNL     1     -10.547   2.415 -34.313  1.00  0.00     0.010 A 
ENDBRANCH  17  18
ENDBRANCH  14  17
ENDBRANCH   2  13
BRANCH   2  25
HETATM   25  O   UNL     1      -6.542   0.502 -35.004  1.00  0.00    -0.359 OA
HETATM   26  H   UNL     1      -6.452   1.448 -34.801  1.00  0.00     0.213 HD
ENDBRANCH   2  25
BRANCH   1  27
HETATM   27  C   UNL     1      -5.539   1.894 -32.440  1.00  0.00     0.045 A 
HETATM   28  C   UNL     1      -5.975   2.974 -33.229  1.00  0.00     0.066 A 
HETATM   29  C   UNL     1      -6.236   4.240 -32.687  1.00  0.00     0.070 A 
HETATM   30  C   UNL     1      -6.026   4.463 -31.332  1.00  0.00     0.037 A 
HETATM   31  C   UNL     1      -5.574   3.420 -30.528  1.00  0.00     0.005 A 
HETATM   32  C   UNL     1      -5.338   2.152 -31.075  1.00  0.00     0.030 A 
BRANCH  29  33
HETATM   33  O   UNL     1      -6.661   5.177 -33.590  1.00  0.00    -0.356 OA
HETATM   34  C   UNL     1      -8.063   5.243 -33.816  1.00  0.00     0.210 C 
ENDBRANCH  29  33
ENDBRANCH   1  27
TORSDOF 6
ENDMDL
MODEL 3
REMARK VINA RESULT:      -8.4      2.692      4.903
REMARK  6 active torsions:
REMARK  status: ('A' for Active; 'I' for Inactive)
REMARK    1  A    between atoms: O_2  and  C_3 
REMARK    2  A    between atoms: C_5  and  N_6 
REMARK    3  A    between atoms: C_7  and  C_9 
REMARK    4  A    between atoms: C_7  and  O_8 
REMARK       I    between atoms: C_9  and  N_10 
REMARK    5  A    between atoms: N_10  and  C_11 
REMARK    6  A    between atoms: C_11  and  C_12 
ROOT
HETATM    1  N   UNL     1      -8.995   0.874 -33.143  1.00  0.00    -0.254 N 
HETATM    2  C   UNL     1      -9.037   2.069 -34.006  1.00  0.00     0.256 C 
HETATM    3  C   UNL     1     -10.423   2.594 -34.332  1.00  0.00     0.034 A 
HETATM    4  C   UNL     1     -11.529   1.843 -33.970  1.00  0.00     0.048 A 
HETATM    5  N   UNL     1     -11.333   0.634 -33.330  1.00  0.00    -0.308 N 
HETATM    6  C   UNL     1     -10.140   0.118 -32.933  1.00  0.00     0.330 C 
HETATM    7  O   UNL     1     -10.179  -1.008 -32.435  1.00  0.00    -0.246 OA
HETATM    8  C   UNL     1     -10.639   3.795 -35.035  1.00  0.00     0.015 A 
HETATM    9  C   UNL     1     -11.934   4.232 -35.326  1.00  0.00     0.001 A 
HETATM   10  C   UNL     1     -13.030   3.467 -34.937  1.00  0.00     0.002 A 
HETATM   11  C   UNL     1     -12.828   2.265 -34.264  1.00  0.00     0.030 A 
HETATM   12  H   UNL     1     -12.127   0.046 -33.107  1.00  0.00     0.170 HD
ENDROOT
BRANCH   2  13
HETATM   13  C   UNL     1      -8.226   3.268 -33.337  1.00  0.00     0.279 C 
HETATM   14  N   UNL     1      -7.094   3.621 -34.056  1.00  0.00    -0.352 N 
HETATM   15  H   UNL     1      -6.982   3.183 -34.967  1.00  0.00     0.162 HD
HETATM   16  O   UNL     1      -8.564   3.846 -32.306  1.00  0.00    -0.268 OA
BRANCH  14  17
HETATM   17  C   UNL     1      -6.293   4.774 -33.729  1.00  0.00     0.163 C 
BRANCH  17  18
HETATM   18  C   UNL     1      -5.002   4.366 -33.069  1.00  0.00    -0.019 A 
HETATM   19  C   UNL     1      -3.748   4.569 -33.665  1.00  0.00     0.042 A 
HETATM   20 CL   UNL     1      -3.589   5.309 -35.219  1.00  0.00    -0.084 Cl
HETATM   21  C   UNL     1      -2.576   4.162 -33.017  1.00  0.00     0.024 A 
HETATM   22  C   UNL     1      -2.644   3.543 -31.769  1.00  0.00     0.002 A 
HETATM   23  C   UNL     1      -3.881   3.326 -31.170  1.00  0.00     0.001 A 
HETATM   24  C   UNL     1      -5.052   3.729 -31.816  1.00  0.00     0.010 A 
ENDBRANCH  17  18
ENDBRANCH  14  17
ENDBRANCH   2  13
BRANCH   2  25
HETATM   25  O   UNL     1      -8.492   1.686 -35.273  1.00  0.00    -0.359 OA
HETATM   26  H   UNL     1      -7.552   1.537 -35.076  1.00  0.00     0.213 HD
ENDBRANCH   2  25
BRANCH   1  27
HETATM   27  C   UNL     1      -7.733   0.449 -32.551  1.00  0.00     0.045 A 
HETATM   28  C   UNL     1      -6.725  -0.129 -33.342  1.00  0.00     0.066 A 
HETATM   29  C   UNL     1      -5.495  -0.538 -32.807  1.00  0.00     0.070 A 
HETATM   30  C   UNL     1      -5.262  -0.408 -31.444  1.00  0.00     0.037 A 
HETATM   31  C   UNL     1      -6.249   0.142 -30.630  1.00  0.00     0.005 A 
HETATM   32  C   UNL     1      -7.466   0.568 -31.177  1.00  0.00     0.030 A 
BRANCH  29  33
HETATM   33  O   UNL     1      -4.621  -1.073 -33.715  1.00  0.00    -0.356 OA
HETATM   34  C   UNL     1      -4.846  -2.427 -34.084  1.00  0.00     0.210 C 
ENDBRANCH  29  33
ENDBRANCH   1  27
TORSDOF 6
ENDMDL
MODEL 4
REMARK VINA RESULT:      -8.4      3.042      6.949
REMARK  6 active torsions:
REMARK  status: ('A' for Active; 'I' for Inactive)
REMARK    1  A    between atoms: O_2  and  C_3 
REMARK    2  A    between atoms: C_5  and  N_6 
REMARK    3  A    between atoms: C_7  and  C_9 
REMARK    4  A    between atoms: C_7  and  O_8 
REMARK       I    between atoms: C_9  and  N_10 
REMARK    5  A    between atoms: N_10  and  C_11 
REMARK    6  A    between atoms: C_11  and  C_12 
ROOT
HETATM    1  N   UNL     1      -6.298   0.152 -33.686  1.00  0.00    -0.254 N 
HETATM    2  C   UNL     1      -5.337  -0.453 -32.745  1.00  0.00     0.256 C 
HETATM    3  C   UNL     1      -4.800  -1.815 -33.141  1.00  0.00     0.034 A 
HETATM    4  C   UNL     1      -5.360  -2.470 -34.225  1.00  0.00     0.048 A 
HETATM    5  N   UNL     1      -6.398  -1.863 -34.907  1.00  0.00    -0.308 N 
HETATM    6  C   UNL     1      -6.895  -0.621 -34.674  1.00  0.00     0.330 C 
HETATM    7  O   UNL     1      -7.868  -0.292 -35.354  1.00  0.00    -0.246 OA
HETATM    8  C   UNL     1      -3.783  -2.474 -32.424  1.00  0.00     0.015 A 
HETATM    9  C   UNL     1      -3.329  -3.736 -32.817  1.00  0.00     0.001 A 
HETATM   10  C   UNL     1      -3.898  -4.366 -33.920  1.00  0.00     0.002 A 
HETATM   11  C   UNL     1      -4.922  -3.736 -34.622  1.00  0.00     0.030 A 
HETATM   12  H   UNL     1      -6.856  -2.350 -35.667  1.00  0.00     0.170 HD
ENDROOT
BRANCH   2  13
HETATM   13  C   UNL     1      -4.080   0.507 -32.540  1.00  0.00     0.279 C 
HETATM   14  N   UNL     1      -4.293   1.476 -31.571  1.00  0.00    -0.352 N 
HETATM   15  H   UNL     1      -5.147   1.388 -31.024  1.00  0.00     0.162 HD
HETATM   16  O   UNL     1      -3.018   0.401 -33.150  1.00  0.00    -0.268 OA
BRANCH  14  17
HETATM   17  C   UNL     1      -3.249   2.353 -31.106  1.00  0.00     0.163 C 
BRANCH  17  18
HETATM   18  C   UNL     1      -3.327   3.694 -31.788  1.00  0.00    -0.019 A 
HETATM   19  C   UNL     1      -4.202   4.709 -31.368  1.00  0.00     0.042 A 
HETATM   20 CL   UNL     1      -5.269   4.491 -30.026  1.00  0.00    -0.084 Cl
HETATM   21  C   UNL     1      -4.246   5.935 -32.042  1.00  0.00     0.024 A 
HETATM   22  C   UNL     1      -3.421   6.161 -33.143  1.00  0.00     0.002 A 
HETATM   23  C   UNL     1      -2.556   5.161 -33.576  1.00  0.00     0.001 A 
HETATM   24  C   UNL     1      -2.512   3.936 -32.908  1.00  0.00     0.010 A 
ENDBRANCH  17  18
ENDBRANCH  14  17
ENDBRANCH   2  13
BRANCH   2  25
HETATM   25  O   UNL     1      -6.045  -0.689 -31.523  1.00  0.00    -0.359 OA
HETATM   26  H   UNL     1      -6.046  -1.658 -31.449  1.00  0.00     0.213 HD
ENDBRANCH   2  25
BRANCH   1  27
HETATM   27  C   UNL     1      -6.666   1.554 -33.548  1.00  0.00     0.045 A 
HETATM   28  C   UNL     1      -7.703   1.944 -32.682  1.00  0.00     0.066 A 
HETATM   29  C   UNL     1      -8.076   3.286 -32.515  1.00  0.00     0.070 A 
HETATM   30  C   UNL     1      -7.434   4.273 -33.252  1.00  0.00     0.037 A 
HETATM   31  C   UNL     1      -6.417   3.916 -34.134  1.00  0.00     0.005 A 
HETATM   32  C   UNL     1      -6.037   2.577 -34.277  1.00  0.00     0.030 A 
BRANCH  29  33
HETATM   33  O   UNL     1      -9.097   3.494 -31.627  1.00  0.00    -0.356 OA
HETATM   34  C   UNL     1      -8.769   3.373 -30.249  1.00  0.00     0.210 C 
ENDBRANCH  29  33
ENDBRANCH   1  27
TORSDOF 6
ENDMDL
MODEL 5
REMARK VINA RESULT:      -8.1      2.654      6.892
REMARK  6 active torsions:
REMARK  status: ('A' for Active; 'I' for Inactive)
REMARK    1  A    between atoms: O_2  and  C_3 
REMARK    2  A    between atoms: C_5  and  N_6 
REMARK    3  A    between atoms: C_7  and  C_9 
REMARK    4  A    between atoms: C_7  and  O_8 
REMARK       I    between atoms: C_9  and  N_10 
REMARK    5  A    between atoms: N_10  and  C_11 
REMARK    6  A    between atoms: C_11  and  C_12 
ROOT
HETATM    1  N   UNL     1      -7.630   1.284 -33.203  1.00  0.00    -0.254 N 
HETATM    2  C   UNL     1      -6.777   1.312 -32.000  1.00  0.00     0.256 C 
HETATM    3  C   UNL     1      -5.491   0.513 -32.089  1.00  0.00     0.034 A 
HETATM    4  C   UNL     1      -5.286  -0.314 -33.180  1.00  0.00     0.048 A 
HETATM    5  N   UNL     1      -6.267  -0.391 -34.151  1.00  0.00    -0.308 N 
HETATM    6  C   UNL     1      -7.413   0.337 -34.195  1.00  0.00     0.330 C 
HETATM    7  O   UNL     1      -8.188   0.069 -35.115  1.00  0.00    -0.246 OA
HETATM    8  C   UNL     1      -4.507   0.534 -31.081  1.00  0.00     0.015 A 
HETATM    9  C   UNL     1      -3.343  -0.230 -31.199  1.00  0.00     0.001 A 
HETATM   10  C   UNL     1      -3.154  -1.040 -32.314  1.00  0.00     0.002 A 
HETATM   11  C   UNL     1      -4.131  -1.090 -33.305  1.00  0.00     0.030 A 
HETATM   12  H   UNL     1      -6.159  -1.031 -34.928  1.00  0.00     0.170 HD
ENDROOT
BRANCH   2  13
HETATM   13  C   UNL     1      -6.375   2.812 -31.636  1.00  0.00     0.279 C 
HETATM   14  N   UNL     1      -5.533   3.387 -32.576  1.00  0.00    -0.352 N 
HETATM   15  H   UNL     1      -5.377   2.856 -33.429  1.00  0.00     0.162 HD
HETATM   16  O   UNL     1      -6.777   3.418 -30.645  1.00  0.00    -0.268 OA
BRANCH  14  17
HETATM   17  C   UNL     1      -5.164   4.780 -32.539  1.00  0.00     0.163 C 
BRANCH  17  18
HETATM   18  C   UNL     1      -3.667   4.943 -32.565  1.00  0.00    -0.019 A 
HETATM   19  C   UNL     1      -2.949   5.173 -33.748  1.00  0.00     0.042 A 
HETATM   20 CL   UNL     1      -3.737   5.283 -35.283  1.00  0.00    -0.084 Cl
HETATM   21  C   UNL     1      -1.556   5.306 -33.722  1.00  0.00     0.024 A 
HETATM   22  C   UNL     1      -0.864   5.209 -32.516  1.00  0.00     0.002 A 
HETATM   23  C   UNL     1      -1.562   4.972 -31.335  1.00  0.00     0.001 A 
HETATM   24  C   UNL     1      -2.952   4.835 -31.359  1.00  0.00     0.010 A 
ENDBRANCH  17  18
ENDBRANCH  14  17
ENDBRANCH   2  13
BRANCH   2  25
HETATM   25  O   UNL     1      -7.519   0.679 -30.951  1.00  0.00    -0.359 OA
HETATM   26  H   UNL     1      -8.076   1.398 -30.607  1.00  0.00     0.213 HD
ENDBRANCH   2  25
BRANCH   1  27
HETATM   27  C   UNL     1      -8.739   2.220 -33.330  1.00  0.00     0.045 A 
HETATM   28  C   UNL     1      -8.609   3.390 -34.100  1.00  0.00     0.066 A 
HETATM   29  C   UNL     1      -9.659   4.306 -34.253  1.00  0.00     0.070 A 
HETATM   30  C   UNL     1     -10.864   4.084 -33.598  1.00  0.00     0.037 A 
HETATM   31  C   UNL     1     -11.017   2.945 -32.811  1.00  0.00     0.005 A 
HETATM   32  C   UNL     1      -9.970   2.025 -32.683  1.00  0.00     0.030 A 
BRANCH  29  33
HETATM   33  O   UNL     1      -9.371   5.387 -35.042  1.00  0.00    -0.356 OA
HETATM   34  C   UNL     1     -10.285   6.474 -34.980  1.00  0.00     0.210 C 
ENDBRANCH  29  33
ENDBRANCH   1  27
TORSDOF 6
ENDMDL
MODEL 6
REMARK VINA RESULT:      -8.1      2.406      5.889
REMARK  6 active torsions:
REMARK  status: ('A' for Active; 'I' for Inactive)
REMARK    1  A    between atoms: O_2  and  C_3 
REMARK    2  A    between atoms: C_5  and  N_6 
REMARK    3  A    between atoms: C_7  and  C_9 
REMARK    4  A    between atoms: C_7  and  O_8 
REMARK       I    between atoms: C_9  and  N_10 
REMARK    5  A    between atoms: N_10  and  C_11 
REMARK    6  A    between atoms: C_11  and  C_12 
ROOT
HETATM    1  N   UNL     1      -6.380   4.796 -32.520  1.00  0.00    -0.254 N 
HETATM    2  C   UNL     1      -5.156   4.070 -32.911  1.00  0.00     0.256 C 
HETATM    3  C   UNL     1      -3.864   4.858 -32.805  1.00  0.00     0.034 A 
HETATM    4  C   UNL     1      -3.924   6.215 -32.537  1.00  0.00     0.048 A 
HETATM    5  N   UNL     1      -5.162   6.811 -32.383  1.00  0.00    -0.308 N 
HETATM    6  C   UNL     1      -6.364   6.178 -32.388  1.00  0.00     0.330 C 
HETATM    7  O   UNL     1      -7.356   6.903 -32.299  1.00  0.00    -0.246 OA
HETATM    8  C   UNL     1      -2.597   4.281 -33.016  1.00  0.00     0.015 A 
HETATM    9  C   UNL     1      -1.434   5.049 -32.923  1.00  0.00     0.001 A 
HETATM   10  C   UNL     1      -1.520   6.408 -32.636  1.00  0.00     0.002 A 
HETATM   11  C   UNL     1      -2.769   6.996 -32.451  1.00  0.00     0.030 A 
HETATM   12  H   UNL     1      -5.227   7.811 -32.242  1.00  0.00     0.170 HD
ENDROOT
BRANCH   2  13
HETATM   13  C   UNL     1      -4.980   2.757 -32.023  1.00  0.00     0.279 C 
HETATM   14  N   UNL     1      -5.022   1.590 -32.772  1.00  0.00    -0.352 N 
HETATM   15  H   UNL     1      -5.026   1.701 -33.783  1.00  0.00     0.162 HD
HETATM   16  O   UNL     1      -4.803   2.759 -30.807  1.00  0.00    -0.268 OA
BRANCH  14  17
HETATM   17  C   UNL     1      -4.732   0.295 -32.209  1.00  0.00     0.163 C 
BRANCH  17  18
HETATM   18  C   UNL     1      -5.220  -0.808 -33.111  1.00  0.00    -0.019 A 
HETATM   19  C   UNL     1      -6.581  -1.037 -33.363  1.00  0.00     0.042 A 
HETATM   20 CL   UNL     1      -7.815  -0.062 -32.644  1.00  0.00    -0.084 Cl
HETATM   21  C   UNL     1      -6.985  -2.083 -34.200  1.00  0.00     0.024 A 
HETATM   22  C   UNL     1      -6.035  -2.913 -34.794  1.00  0.00     0.002 A 
HETATM   23  C   UNL     1      -4.682  -2.704 -34.547  1.00  0.00     0.001 A 
HETATM   24  C   UNL     1      -4.276  -1.663 -33.709  1.00  0.00     0.010 A 
ENDBRANCH  17  18
ENDBRANCH  14  17
ENDBRANCH   2  13
BRANCH   2  25
HETATM   25  O   UNL     1      -5.279   3.770 -34.306  1.00  0.00    -0.359 OA
HETATM   26  H   UNL     1      -5.580   2.845 -34.309  1.00  0.00     0.213 HD
ENDBRANCH   2  25
BRANCH   1  27
HETATM   27  C   UNL     1      -7.626   4.067 -32.325  1.00  0.00     0.045 A 
HETATM   28  C   UNL     1      -8.388   3.636 -33.425  1.00  0.00     0.066 A 
HETATM   29  C   UNL     1      -9.585   2.923 -33.274  1.00  0.00     0.070 A 
HETATM   30  C   UNL     1     -10.069   2.656 -32.000  1.00  0.00     0.037 A 
HETATM   31  C   UNL     1      -9.348   3.088 -30.889  1.00  0.00     0.005 A 
HETATM   32  C   UNL     1      -8.141   3.780 -31.051  1.00  0.00     0.030 A 
BRANCH  29  33
HETATM   33  O   UNL     1     -10.198   2.570 -34.446  1.00  0.00    -0.356 OA
HETATM   34  C   UNL     1     -11.269   1.640 -34.343  1.00  0.00     0.210 C 
ENDBRANCH  29  33
ENDBRANCH   1  27
TORSDOF 6
ENDMDL
MODEL 7
REMARK VINA RESULT:      -8.0     14.696     17.105
REMARK  6 active torsions:
REMARK  status: ('A' for Active; 'I' for Inactive)
REMARK    1  A    between atoms: O_2  and  C_3 
REMARK    2  A    between atoms: C_5  and  N_6 
REMARK    3  A    between atoms: C_7  and  C_9 
REMARK    4  A    between atoms: C_7  and  O_8 
REMARK       I    between atoms: C_9  and  N_10 
REMARK    5  A    between atoms: N_10  and  C_11 
REMARK    6  A    between atoms: C_11  and  C_12 
ROOT
HETATM    1  N   UNL     1      -3.673 -13.842 -40.479  1.00  0.00    -0.254 N 
HETATM    2  C   UNL     1      -4.339 -13.329 -39.267  1.00  0.00     0.256 C 
HETATM    3  C   UNL     1      -5.822 -13.040 -39.405  1.00  0.00     0.034 A 
HETATM    4  C   UNL     1      -6.403 -13.094 -40.661  1.00  0.00     0.048 A 
HETATM    5  N   UNL     1      -5.610 -13.402 -41.750  1.00  0.00    -0.308 N 
HETATM    6  C   UNL     1      -4.296 -13.746 -41.716  1.00  0.00     0.330 C 
HETATM    7  O   UNL     1      -3.756 -13.920 -42.809  1.00  0.00    -0.246 OA
HETATM    8  C   UNL     1      -6.633 -12.667 -38.316  1.00  0.00     0.015 A 
HETATM    9  C   UNL     1      -7.992 -12.396 -38.493  1.00  0.00     0.001 A 
HETATM   10  C   UNL     1      -8.556 -12.474 -39.763  1.00  0.00     0.002 A 
HETATM   11  C   UNL     1      -7.759 -12.816 -40.852  1.00  0.00     0.030 A 
HETATM   12  H   UNL     1      -6.006 -13.393 -42.682  1.00  0.00     0.170 HD
ENDROOT
BRANCH   2  13
HETATM   13  C   UNL     1      -4.172 -14.360 -38.061  1.00  0.00     0.279 C 
HETATM   14  N   UNL     1      -3.519 -13.809 -36.968  1.00  0.00    -0.352 N 
HETATM   15  H   UNL     1      -3.344 -12.808 -37.003  1.00  0.00     0.162 HD
HETATM   16  O   UNL     1      -4.590 -15.515 -38.072  1.00  0.00    -0.268 OA
BRANCH  14  17
HETATM   17  C   UNL     1      -3.392 -14.501 -35.710  1.00  0.00     0.163 C 
BRANCH  17  18
HETATM   18  C   UNL     1      -4.687 -14.468 -34.942  1.00  0.00    -0.019 A 
HETATM   19  C   UNL     1      -5.384 -15.630 -34.577  1.00  0.00     0.042 A 
HETATM   20 CL   UNL     1      -4.803 -17.205 -34.990  1.00  0.00    -0.084 Cl
HETATM   21  C   UNL     1      -6.590 -15.546 -33.872  1.00  0.00     0.024 A 
HETATM   22  C   UNL     1      -7.116 -14.302 -33.527  1.00  0.00     0.002 A 
HETATM   23  C   UNL     1      -6.441 -13.140 -33.891  1.00  0.00     0.001 A 
HETATM   24  C   UNL     1      -5.239 -13.221 -34.596  1.00  0.00     0.010 A 
ENDBRANCH  17  18
ENDBRANCH  14  17
ENDBRANCH   2  13
BRANCH   2  25
HETATM   25  O   UNL     1      -3.752 -12.056 -38.978  1.00  0.00    -0.359 OA
HETATM   26  H   UNL     1      -2.887 -12.289 -38.599  1.00  0.00     0.213 HD
ENDBRANCH   2  25
BRANCH   1  27
HETATM   27  C   UNL     1      -2.332 -14.403 -40.389  1.00  0.00     0.045 A 
HETATM   28  C   UNL     1      -2.081 -15.732 -40.775  1.00  0.00     0.066 A 
HETATM   29  C   UNL     1      -0.801 -16.301 -40.714  1.00  0.00     0.070 A 
HETATM   30  C   UNL     1       0.260 -15.552 -40.221  1.00  0.00     0.037 A 
HETATM   31  C   UNL     1       0.039 -14.239 -39.811  1.00  0.00     0.005 A 
HETATM   32  C   UNL     1      -1.238 -13.673 -39.898  1.00  0.00     0.030 A 
BRANCH  29  33
HETATM   33  O   UNL     1      -0.727 -17.601 -41.136  1.00  0.00    -0.356 OA
HETATM   34  C   UNL     1      -1.492 -17.935 -42.287  1.00  0.00     0.210 C 
ENDBRANCH  29  33
ENDBRANCH   1  27
TORSDOF 6
ENDMDL
MODEL 8
REMARK VINA RESULT:      -8.0      2.885      6.122
REMARK  6 active torsions:
REMARK  status: ('A' for Active; 'I' for Inactive)
REMARK    1  A    between atoms: O_2  and  C_3 
REMARK    2  A    between atoms: C_5  and  N_6 
REMARK    3  A    between atoms: C_7  and  C_9 
REMARK    4  A    between atoms: C_7  and  O_8 
REMARK       I    between atoms: C_9  and  N_10 
REMARK    5  A    between atoms: N_10  and  C_11 
REMARK    6  A    between atoms: C_11  and  C_12 
ROOT
HETATM    1  N   UNL     1      -5.131   2.387 -32.124  1.00  0.00    -0.254 N 
HETATM    2  C   UNL     1      -6.210   2.082 -33.083  1.00  0.00     0.256 C 
HETATM    3  C   UNL     1      -6.216   0.669 -33.636  1.00  0.00     0.034 A 
HETATM    4  C   UNL     1      -5.144  -0.164 -33.364  1.00  0.00     0.048 A 
HETATM    5  N   UNL     1      -4.097   0.322 -32.604  1.00  0.00    -0.308 N 
HETATM    6  C   UNL     1      -4.036   1.542 -32.008  1.00  0.00     0.330 C 
HETATM    7  O   UNL     1      -2.982   1.805 -31.427  1.00  0.00    -0.246 OA
HETATM    8  C   UNL     1      -7.245   0.176 -34.460  1.00  0.00     0.015 A 
HETATM    9  C   UNL     1      -7.202  -1.129 -34.959  1.00  0.00     0.001 A 
HETATM   10  C   UNL     1      -6.121  -1.952 -34.659  1.00  0.00     0.002 A 
HETATM   11  C   UNL     1      -5.084  -1.467 -33.866  1.00  0.00     0.030 A 
HETATM   12  H   UNL     1      -3.280  -0.253 -32.442  1.00  0.00     0.170 HD
ENDROOT
BRANCH   2  13
HETATM   13  C   UNL     1      -7.636   2.331 -32.413  1.00  0.00     0.279 C 
HETATM   14  N   UNL     1      -8.334   3.374 -33.004  1.00  0.00    -0.352 N 
HETATM   15  H   UNL     1      -7.932   3.764 -33.853  1.00  0.00     0.162 HD
HETATM   16  O   UNL     1      -8.094   1.665 -31.487  1.00  0.00    -0.268 OA
BRANCH  14  17
HETATM   17  C   UNL     1      -9.702   3.680 -32.669  1.00  0.00     0.163 C 
BRANCH  17  18
HETATM   18  C   UNL     1     -10.654   3.019 -33.631  1.00  0.00    -0.019 A 
HETATM   19  C   UNL     1     -11.075   3.628 -34.824  1.00  0.00     0.042 A 
HETATM   20 CL   UNL     1     -10.529   5.204 -35.280  1.00  0.00    -0.084 Cl
HETATM   21  C   UNL     1     -11.971   2.978 -35.679  1.00  0.00     0.024 A 
HETATM   22  C   UNL     1     -12.459   1.713 -35.354  1.00  0.00     0.002 A 
HETATM   23  C   UNL     1     -12.058   1.100 -34.171  1.00  0.00     0.001 A 
HETATM   24  C   UNL     1     -11.167   1.748 -33.313  1.00  0.00     0.010 A 
ENDBRANCH  17  18
ENDBRANCH  14  17
ENDBRANCH   2  13
BRANCH   2  25
HETATM   25  O   UNL     1      -5.995   2.914 -34.228  1.00  0.00    -0.359 OA
HETATM   26  H   UNL     1      -6.728   2.673 -34.820  1.00  0.00     0.213 HD
ENDBRANCH   2  25
BRANCH   1  27
HETATM   27  C   UNL     1      -5.185   3.609 -31.334  1.00  0.00     0.045 A 
HETATM   28  C   UNL     1      -4.796   4.842 -31.886  1.00  0.00     0.066 A 
HETATM   29  C   UNL     1      -4.847   6.039 -31.158  1.00  0.00     0.070 A 
HETATM   30  C   UNL     1      -5.258   6.018 -29.831  1.00  0.00     0.037 A 
HETATM   31  C   UNL     1      -5.629   4.809 -29.249  1.00  0.00     0.005 A 
HETATM   32  C   UNL     1      -5.597   3.623 -29.991  1.00  0.00     0.030 A 
BRANCH  29  33
HETATM   33  O   UNL     1      -4.442   7.151 -31.847  1.00  0.00    -0.356 OA
HETATM   34  C   UNL     1      -3.038   7.326 -31.992  1.00  0.00     0.210 C 
ENDBRANCH  29  33
ENDBRANCH   1  27
TORSDOF 6
ENDMDL
MODEL 9
REMARK VINA RESULT:      -8.0      2.979      5.997
REMARK  6 active torsions:
REMARK  status: ('A' for Active; 'I' for Inactive)
REMARK    1  A    between atoms: O_2  and  C_3 
REMARK    2  A    between atoms: C_5  and  N_6 
REMARK    3  A    between atoms: C_7  and  C_9 
REMARK    4  A    between atoms: C_7  and  O_8 
REMARK       I    between atoms: C_9  and  N_10 
REMARK    5  A    between atoms: N_10  and  C_11 
REMARK    6  A    between atoms: C_11  and  C_12 
ROOT
HETATM    1  N   UNL     1      -7.591   1.415 -32.422  1.00  0.00    -0.254 N 
HETATM    2  C   UNL     1      -7.050   2.786 -32.363  1.00  0.00     0.256 C 
HETATM    3  C   UNL     1      -7.855   3.775 -31.541  1.00  0.00     0.034 A 
HETATM    4  C   UNL     1      -9.099   3.398 -31.066  1.00  0.00     0.048 A 
HETATM    5  N   UNL     1      -9.572   2.134 -31.363  1.00  0.00    -0.308 N 
HETATM    6  C   UNL     1      -8.897   1.159 -32.027  1.00  0.00     0.330 C 
HETATM    7  O   UNL     1      -9.525   0.122 -32.246  1.00  0.00    -0.246 OA
HETATM    8  C   UNL     1      -7.415   5.086 -31.277  1.00  0.00     0.015 A 
HETATM    9  C   UNL     1      -8.197   5.968 -30.527  1.00  0.00     0.001 A 
HETATM   10  C   UNL     1      -9.437   5.560 -30.047  1.00  0.00     0.002 A 
HETATM   11  C   UNL     1      -9.895   4.274 -30.323  1.00  0.00     0.030 A 
HETATM   12  H   UNL     1     -10.502   1.860 -31.072  1.00  0.00     0.170 HD
ENDROOT
BRANCH   2  13
HETATM   13  C   UNL     1      -5.570   2.775 -31.768  1.00  0.00     0.279 C 
HETATM   14  N   UNL     1      -4.602   3.047 -32.724  1.00  0.00    -0.352 N 
HETATM   15  H   UNL     1      -4.939   3.344 -33.637  1.00  0.00     0.162 HD
HETATM   16  O   UNL     1      -5.297   2.572 -30.587  1.00  0.00    -0.268 OA
BRANCH  14  17
HETATM   17  C   UNL     1      -3.214   3.242 -32.390  1.00  0.00     0.163 C 
BRANCH  17  18
HETATM   18  C   UNL     1      -2.736   4.599 -32.839  1.00  0.00    -0.019 A 
HETATM   19  C   UNL     1      -2.975   5.770 -32.103  1.00  0.00     0.042 A 
HETATM   20 CL   UNL     1      -3.850   5.743 -30.612  1.00  0.00    -0.084 Cl
HETATM   21  C   UNL     1      -2.520   7.009 -32.568  1.00  0.00     0.024 A 
HETATM   22  C   UNL     1      -1.824   7.094 -33.773  1.00  0.00     0.002 A 
HETATM   23  C   UNL     1      -1.587   5.942 -34.518  1.00  0.00     0.001 A 
HETATM   24  C   UNL     1      -2.043   4.705 -34.058  1.00  0.00     0.010 A 
ENDBRANCH  17  18
ENDBRANCH  14  17
ENDBRANCH   2  13
BRANCH   2  25
HETATM   25  O   UNL     1      -7.095   3.308 -33.696  1.00  0.00    -0.359 OA
HETATM   26  H   UNL     1      -6.922   2.526 -34.248  1.00  0.00     0.213 HD
ENDBRANCH   2  25
BRANCH   1  27
HETATM   27  C   UNL     1      -6.772   0.332 -32.948  1.00  0.00     0.045 A 
HETATM   28  C   UNL     1      -5.760  -0.252 -32.164  1.00  0.00     0.066 A 
HETATM   29  C   UNL     1      -4.961  -1.303 -32.634  1.00  0.00     0.070 A 
HETATM   30  C   UNL     1      -5.136  -1.772 -33.930  1.00  0.00     0.037 A 
HETATM   31  C   UNL     1      -6.115  -1.200 -34.739  1.00  0.00     0.005 A 
HETATM   32  C   UNL     1      -6.924  -0.166 -34.252  1.00  0.00     0.030 A 
BRANCH  29  33
HETATM   33  O   UNL     1      -4.030  -1.763 -31.742  1.00  0.00    -0.356 OA
HETATM   34  C   UNL     1      -2.705  -1.275 -31.906  1.00  0.00     0.210 C 
ENDBRANCH  29  33
ENDBRANCH   1  27
TORSDOF 6
ENDMDL
MODEL 10
REMARK VINA RESULT:      -7.8      3.241      6.273
REMARK  6 active torsions:
REMARK  status: ('A' for Active; 'I' for Inactive)
REMARK    1  A    between atoms: O_2  and  C_3 
REMARK    2  A    between atoms: C_5  and  N_6 
REMARK    3  A    between atoms: C_7  and  C_9 
REMARK    4  A    between atoms: C_7  and  O_8 
REMARK       I    between atoms: C_9  and  N_10 
REMARK    5  A    between atoms: N_10  and  C_11 
REMARK    6  A    between atoms: C_11  and  C_12 
ROOT
HETATM    1  N   UNL     1      -5.357   3.698 -32.771  1.00  0.00    -0.254 N 
HETATM    2  C   UNL     1      -5.239   3.878 -31.312  1.00  0.00     0.256 C 
HETATM    3  C   UNL     1      -5.180   5.315 -30.830  1.00  0.00     0.034 A 
HETATM    4  C   UNL     1      -5.057   6.332 -31.762  1.00  0.00     0.048 A 
HETATM    5  N   UNL     1      -4.983   6.003 -33.102  1.00  0.00    -0.308 N 
HETATM    6  C   UNL     1      -5.101   4.757 -33.632  1.00  0.00     0.330 C 
HETATM    7  O   UNL     1      -4.940   4.672 -34.850  1.00  0.00    -0.246 OA
HETATM    8  C   UNL     1      -5.195   5.665 -29.466  1.00  0.00     0.015 A 
HETATM    9  C   UNL     1      -5.123   7.002 -29.068  1.00  0.00     0.001 A 
HETATM   10  C   UNL     1      -5.016   8.007 -30.025  1.00  0.00     0.002 A 
HETATM   11  C   UNL     1      -4.975   7.672 -31.376  1.00  0.00     0.030 A 
HETATM   12  H   UNL     1      -4.838   6.728 -33.793  1.00  0.00     0.170 HD
ENDROOT
BRANCH   2  13
HETATM   13  C   UNL     1      -6.464   3.181 -30.565  1.00  0.00     0.279 C 
HETATM   14  N   UNL     1      -7.691   3.718 -30.926  1.00  0.00    -0.352 N 
HETATM   15  H   UNL     1      -7.686   4.380 -31.698  1.00  0.00     0.162 HD
HETATM   16  O   UNL     1      -6.354   2.252 -29.768  1.00  0.00    -0.268 OA
BRANCH  14  17
HETATM   17  C   UNL     1      -8.944   3.147 -30.499  1.00  0.00     0.163 C 
BRANCH  17  18
HETATM   18  C   UNL     1      -9.534   2.273 -31.575  1.00  0.00    -0.019 A 
HETATM   19  C   UNL     1     -10.435   2.755 -32.536  1.00  0.00     0.042 A 
HETATM   20 CL   UNL     1     -10.945   4.407 -32.556  1.00  0.00    -0.084 Cl
HETATM   21  C   UNL     1     -10.965   1.900 -33.509  1.00  0.00     0.024 A 
HETATM   22  C   UNL     1     -10.604   0.553 -33.531  1.00  0.00     0.002 A 
HETATM   23  C   UNL     1      -9.719   0.058 -32.578  1.00  0.00     0.001 A 
HETATM   24  C   UNL     1      -9.191   0.909 -31.604  1.00  0.00     0.010 A 
ENDBRANCH  17  18
ENDBRANCH  14  17
ENDBRANCH   2  13
BRANCH   2  25
HETATM   25  O   UNL     1      -3.979   3.318 -30.926  1.00  0.00    -0.359 OA
HETATM   26  H   UNL     1      -4.162   2.364 -30.882  1.00  0.00     0.213 HD
ENDBRANCH   2  25
BRANCH   1  27
HETATM   27  C   UNL     1      -5.691   2.390 -33.318  1.00  0.00     0.045 A 
HETATM   28  C   UNL     1      -4.934   1.254 -32.982  1.00  0.00     0.066 A 
HETATM   29  C   UNL     1      -5.234  -0.021 -33.480  1.00  0.00     0.070 A 
HETATM   30  C   UNL     1      -6.290  -0.180 -34.368  1.00  0.00     0.037 A 
HETATM   31  C   UNL     1      -7.047   0.929 -34.737  1.00  0.00     0.005 A 
HETATM   32  C   UNL     1      -6.753   2.195 -34.216  1.00  0.00     0.030 A 
BRANCH  29  33
HETATM   33  O   UNL     1      -4.403  -1.020 -33.046  1.00  0.00    -0.356 OA
HETATM   34  C   UNL     1      -3.157  -0.610 -32.500  1.00  0.00     0.210 C 
ENDBRANCH  29  33
ENDBRANCH   1  27
TORSDOF 6
ENDMDL
