MODEL 1
REMARK VINA RESULT:      -9.0      0.000      0.000
REMARK  5 active torsions:
REMARK  status: ('A' for Active; 'I' for Inactive)
REMARK    1  A    between atoms: C_2  and  C_3 
REMARK    2  A    between atoms: C_7  and  N_8 
REMARK    3  A    between atoms: C_13  and  N_14 
REMARK       I    between atoms: N_14  and  C_15 
REMARK    4  A    between atoms: C_15  and  C_16 
REMARK       I    between atoms: C_16  and  N_17 
REMARK    5  A    between atoms: N_17  and  C_18 
ROOT
HETATM    1  N   UNL     1      -8.000   0.064 -33.071  1.00  0.00    -0.045 N 
HETATM    2  N   UNL     1      -8.912   0.426 -34.008  1.00  0.00    -0.156 NA
HETATM    3  C   UNL     1      -9.762   1.219 -33.345  1.00  0.00     0.055 A 
HETATM    4  C   UNL     1     -10.930   1.820 -34.037  1.00  0.00     0.072 C 
HETATM    5  C   UNL     1      -9.389   1.378 -31.983  1.00  0.00     0.079 A 
HETATM    6  C   UNL     1      -8.261   0.611 -31.822  1.00  0.00     0.152 A 
ENDROOT
BRANCH   6   7
HETATM    7  N   UNL     1      -7.445   0.405 -30.719  1.00  0.00    -0.303 N 
HETATM    8  C   UNL     1      -6.601   1.305 -30.016  1.00  0.00     0.315 C 
HETATM    9  O   UNL     1      -5.810   0.812 -29.227  1.00  0.00    -0.262 OA
HETATM   10  H   UNL     1      -7.423  -0.553 -30.355  1.00  0.00     0.171 HD
BRANCH   8  11
HETATM   11  C   UNL     1      -6.631   2.824 -30.221  1.00  0.00     0.310 C 
HETATM   12  N   UNL     1      -5.559   3.307 -30.954  1.00  0.00    -0.348 N 
HETATM   13  H   UNL     1      -4.826   2.641 -31.173  1.00  0.00     0.163 HD
HETATM   14  O   UNL     1      -7.511   3.503 -29.715  1.00  0.00    -0.262 OA
BRANCH  12  15
HETATM   15  C   UNL     1      -5.243   4.725 -31.015  1.00  0.00     0.085 C 
HETATM   16  C   UNL     1      -3.732   4.998 -31.097  1.00  0.00     0.034 C 
HETATM   17  C   UNL     1      -3.080   4.757 -32.477  1.00  0.00    -0.045 C 
HETATM   18  C   UNL     1      -2.874   3.257 -32.758  1.00  0.00     0.015 C 
HETATM   19  C   UNL     1      -1.667   5.388 -32.456  1.00  0.00     0.015 C 
HETATM   20  C   UNL     1      -3.898   5.447 -33.593  1.00  0.00     0.013 C 
HETATM   21  C   UNL     1      -5.425   5.273 -33.553  1.00  0.00    -0.016 C 
HETATM   22  C   UNL     1      -6.005   5.434 -32.139  1.00  0.00     0.029 C 
HETATM   23  C   UNL     1      -5.916   4.019 -34.276  1.00  0.00     0.010 C 
ENDBRANCH  12  15
ENDBRANCH   8  11
ENDBRANCH   6   7
BRANCH   1  24
HETATM   24  C   UNL     1      -6.911  -0.760 -33.396  1.00  0.00     0.732 A 
HETATM   25  N   UNL     1      -7.288  -1.900 -34.034  1.00  0.00    -0.152 N 
HETATM   26  C   UNL     1      -6.365  -2.793 -34.477  1.00  0.00     0.268 A 
HETATM   27  H   UNL     1      -8.268  -2.073 -34.237  1.00  0.00     0.188 HD
HETATM   28  C   UNL     1      -4.947  -2.469 -34.143  1.00  0.00     0.035 A 
HETATM   29  O   UNL     1      -6.684  -3.789 -35.114  1.00  0.00    -0.267 OA
HETATM   30  C   UNL     1      -4.706  -1.315 -33.481  1.00  0.00     0.061 A 
HETATM   31  N   UNL     1      -5.692  -0.422 -33.111  1.00  0.00    -0.067 NA
HETATM   32  C   UNL     1      -3.321  -0.861 -33.089  1.00  0.00     0.072 C 
BRANCH  28  33
HETATM   33  C   UNL     1      -3.921  -3.495 -34.551  1.00  0.00     0.042 C 
HETATM   34  C   UNL     1      -3.666  -4.513 -33.449  1.00  0.00     0.010 C 
ENDBRANCH  28  33
ENDBRANCH   1  24
TORSDOF 5
ENDMDL
MODEL 2
REMARK VINA RESULT:      -8.5      2.967      6.567
REMARK  5 active torsions:
REMARK  status: ('A' for Active; 'I' for Inactive)
REMARK    1  A    between atoms: C_2  and  C_3 
REMARK    2  A    between atoms: C_7  and  N_8 
REMARK    3  A    between atoms: C_13  and  N_14 
REMARK       I    between atoms: N_14  and  C_15 
REMARK    4  A    between atoms: C_15  and  C_16 
REMARK       I    between atoms: C_16  and  N_17 
REMARK    5  A    between atoms: N_17  and  C_18 
ROOT
HETATM    1  N   UNL     1      -3.581   2.213 -31.805  1.00  0.00    -0.045 N 
HETATM    2  N   UNL     1      -3.324   1.104 -32.546  1.00  0.00    -0.156 NA
HETATM    3  C   UNL     1      -4.156   0.182 -32.048  1.00  0.00     0.055 A 
HETATM    4  C   UNL     1      -4.169  -1.198 -32.598  1.00  0.00     0.072 C 
HETATM    5  C   UNL     1      -4.958   0.699 -30.997  1.00  0.00     0.079 A 
HETATM    6  C   UNL     1      -4.560   2.005 -30.843  1.00  0.00     0.152 A 
ENDROOT
BRANCH   6   7
HETATM    7  N   UNL     1      -5.009   3.004 -29.992  1.00  0.00    -0.303 N 
HETATM    8  C   UNL     1      -5.670   4.229 -30.277  1.00  0.00     0.315 C 
HETATM    9  O   UNL     1      -5.744   5.037 -29.363  1.00  0.00    -0.262 OA
HETATM   10  H   UNL     1      -4.822   2.856 -28.995  1.00  0.00     0.171 HD
BRANCH   8  11
HETATM   11  C   UNL     1      -6.257   4.571 -31.650  1.00  0.00     0.310 C 
HETATM   12  N   UNL     1      -6.906   3.508 -32.258  1.00  0.00    -0.348 N 
HETATM   13  H   UNL     1      -6.827   2.609 -31.796  1.00  0.00     0.163 HD
HETATM   14  O   UNL     1      -6.091   5.677 -32.140  1.00  0.00    -0.262 OA
BRANCH  12  15
HETATM   15  C   UNL     1      -7.275   3.532 -33.664  1.00  0.00     0.085 C 
HETATM   16  C   UNL     1      -7.028   2.189 -34.369  1.00  0.00     0.034 C 
HETATM   17  C   UNL     1      -8.064   1.078 -34.080  1.00  0.00    -0.045 C 
HETATM   18  C   UNL     1      -7.850   0.445 -32.693  1.00  0.00     0.015 C 
HETATM   19  C   UNL     1      -7.849  -0.058 -35.108  1.00  0.00     0.015 C 
HETATM   20  C   UNL     1      -9.503   1.617 -34.254  1.00  0.00     0.013 C 
HETATM   21  C   UNL     1      -9.819   2.985 -33.627  1.00  0.00    -0.016 C 
HETATM   22  C   UNL     1      -8.712   4.022 -33.871  1.00  0.00     0.029 C 
HETATM   23  C   UNL     1     -10.267   2.899 -32.167  1.00  0.00     0.010 C 
ENDBRANCH  12  15
ENDBRANCH   8  11
ENDBRANCH   6   7
BRANCH   1  24
HETATM   24  C   UNL     1      -2.913   3.422 -32.051  1.00  0.00     0.732 A 
HETATM   25  N   UNL     1      -3.406   4.083 -33.132  1.00  0.00    -0.152 N 
HETATM   26  C   UNL     1      -2.922   5.301 -33.489  1.00  0.00     0.268 A 
HETATM   27  H   UNL     1      -4.184   3.697 -33.657  1.00  0.00     0.188 HD
HETATM   28  C   UNL     1      -1.780   5.803 -32.669  1.00  0.00     0.035 A 
HETATM   29  O   UNL     1      -3.401   5.940 -34.417  1.00  0.00    -0.267 OA
HETATM   30  C   UNL     1      -1.366   5.038 -31.636  1.00  0.00     0.061 A 
HETATM   31  N   UNL     1      -1.945   3.832 -31.292  1.00  0.00    -0.067 NA
HETATM   32  C   UNL     1      -0.230   5.428 -30.721  1.00  0.00     0.072 C 
BRANCH  28  33
HETATM   33  C   UNL     1      -1.176   7.112 -33.110  1.00  0.00     0.042 C 
HETATM   34  C   UNL     1      -1.750   8.291 -32.337  1.00  0.00     0.010 C 
ENDBRANCH  28  33
ENDBRANCH   1  24
TORSDOF 5
ENDMDL
MODEL 3
REMARK VINA RESULT:      -8.5      3.570      8.394
REMARK  5 active torsions:
REMARK  status: ('A' for Active; 'I' for Inactive)
REMARK    1  A    between atoms: C_2  and  C_3 
REMARK    2  A    between atoms: C_7  and  N_8 
REMARK    3  A    between atoms: C_13  and  N_14 
REMARK       I    between atoms: N_14  and  C_15 
REMARK    4  A    between atoms: C_15  and  C_16 
REMARK       I    between atoms: C_16  and  N_17 
REMARK    5  A    between atoms: N_17  and  C_18 
ROOT
HETATM    1  N   UNL     1      -1.898   5.300 -31.642  1.00  0.00    -0.045 N 
HETATM    2  N   UNL     1      -1.296   5.564 -32.830  1.00  0.00    -0.156 NA
HETATM    3  C   UNL     1      -2.069   4.944 -33.729  1.00  0.00     0.055 A 
HETATM    4  C   UNL     1      -1.730   4.989 -35.174  1.00  0.00     0.072 C 
HETATM    5  C   UNL     1      -3.176   4.292 -33.122  1.00  0.00     0.079 A 
HETATM    6  C   UNL     1      -3.038   4.519 -31.774  1.00  0.00     0.152 A 
ENDROOT
BRANCH   6   7
HETATM    7  N   UNL     1      -3.834   4.151 -30.699  1.00  0.00    -0.303 N 
HETATM    8  C   UNL     1      -5.234   3.927 -30.623  1.00  0.00     0.315 C 
HETATM    9  O   UNL     1      -5.715   3.843 -29.504  1.00  0.00    -0.262 OA
HETATM   10  H   UNL     1      -3.347   4.041 -29.804  1.00  0.00     0.171 HD
BRANCH   8  11
HETATM   11  C   UNL     1      -6.138   3.809 -31.856  1.00  0.00     0.310 C 
HETATM   12  N   UNL     1      -6.313   2.506 -32.294  1.00  0.00    -0.348 N 
HETATM   13  H   UNL     1      -5.748   1.798 -31.838  1.00  0.00     0.163 HD
HETATM   14  O   UNL     1      -6.590   4.808 -32.394  1.00  0.00    -0.262 OA
BRANCH  12  15
HETATM   15  C   UNL     1      -6.884   2.200 -33.595  1.00  0.00     0.085 C 
HETATM   16  C   UNL     1      -6.246   0.967 -34.253  1.00  0.00     0.034 C 
HETATM   17  C   UNL     1      -6.699  -0.401 -33.694  1.00  0.00    -0.045 C 
HETATM   18  C   UNL     1      -6.030  -0.716 -32.343  1.00  0.00     0.015 C 
HETATM   19  C   UNL     1      -6.223  -1.501 -34.674  1.00  0.00     0.015 C 
HETATM   20  C   UNL     1      -8.241  -0.471 -33.606  1.00  0.00     0.013 C 
HETATM   21  C   UNL     1      -8.964   0.749 -33.012  1.00  0.00    -0.016 C 
HETATM   22  C   UNL     1      -8.411   2.083 -33.537  1.00  0.00     0.029 C 
HETATM   23  C   UNL     1      -9.098   0.699 -31.490  1.00  0.00     0.010 C 
ENDBRANCH  12  15
ENDBRANCH   8  11
ENDBRANCH   6   7
BRANCH   1  24
HETATM   24  C   UNL     1      -1.389   5.814 -30.439  1.00  0.00     0.732 A 
HETATM   25  N   UNL     1      -0.293   5.138 -30.003  1.00  0.00    -0.152 N 
HETATM   26  C   UNL     1       0.371   5.529 -28.883  1.00  0.00     0.268 A 
HETATM   27  H   UNL     1       0.078   4.362 -30.541  1.00  0.00     0.188 HD
HETATM   28  C   UNL     1      -0.233   6.678 -28.147  1.00  0.00     0.035 A 
HETATM   29  O   UNL     1       1.399   4.974 -28.516  1.00  0.00    -0.267 OA
HETATM   30  C   UNL     1      -1.340   7.247 -28.673  1.00  0.00     0.061 A 
HETATM   31  N   UNL     1      -1.931   6.834 -29.851  1.00  0.00    -0.067 NA
HETATM   32  C   UNL     1      -2.047   8.420 -28.038  1.00  0.00     0.072 C 
BRANCH  28  33
HETATM   33  C   UNL     1       0.444   7.064 -26.857  1.00  0.00     0.042 C 
HETATM   34  C   UNL     1       1.516   8.123 -27.071  1.00  0.00     0.010 C 
ENDBRANCH  28  33
ENDBRANCH   1  24
TORSDOF 5
ENDMDL
MODEL 4
REMARK VINA RESULT:      -8.4      2.160      3.122
REMARK  5 active torsions:
REMARK  status: ('A' for Active; 'I' for Inactive)
REMARK    1  A    between atoms: C_2  and  C_3 
REMARK    2  A    between atoms: C_7  and  N_8 
REMARK    3  A    between atoms: C_13  and  N_14 
REMARK       I    between atoms: N_14  and  C_15 
REMARK    4  A    between atoms: C_15  and  C_16 
REMARK       I    between atoms: C_16  and  N_17 
REMARK    5  A    between atoms: N_17  and  C_18 
ROOT
HETATM    1  N   UNL     1      -7.181   1.430 -31.453  1.00  0.00    -0.045 N 
HETATM    2  N   UNL     1      -8.492   1.785 -31.442  1.00  0.00    -0.156 NA
HETATM    3  C   UNL     1      -8.547   2.790 -30.560  1.00  0.00     0.055 A 
HETATM    4  C   UNL     1      -9.840   3.455 -30.255  1.00  0.00     0.072 C 
HETATM    5  C   UNL     1      -7.271   3.091 -30.013  1.00  0.00     0.079 A 
HETATM    6  C   UNL     1      -6.406   2.192 -30.588  1.00  0.00     0.152 A 
ENDROOT
BRANCH   6   7
HETATM    7  N   UNL     1      -5.035   2.029 -30.457  1.00  0.00    -0.303 N 
HETATM    8  C   UNL     1      -3.966   2.556 -31.229  1.00  0.00     0.315 C 
HETATM    9  O   UNL     1      -2.863   2.066 -31.044  1.00  0.00    -0.262 OA
HETATM   10  H   UNL     1      -4.732   1.414 -29.695  1.00  0.00     0.171 HD
BRANCH   8  11
HETATM   11  C   UNL     1      -4.145   3.668 -32.269  1.00  0.00     0.310 C 
HETATM   12  N   UNL     1      -3.724   4.912 -31.830  1.00  0.00    -0.348 N 
HETATM   13  H   UNL     1      -3.456   4.979 -30.854  1.00  0.00     0.163 HD
HETATM   14  O   UNL     1      -4.667   3.433 -33.348  1.00  0.00    -0.262 OA
BRANCH  12  15
HETATM   15  C   UNL     1      -4.065   6.136 -32.536  1.00  0.00     0.085 C 
HETATM   16  C   UNL     1      -3.810   7.400 -31.699  1.00  0.00     0.034 C 
HETATM   17  C   UNL     1      -2.333   7.840 -31.581  1.00  0.00    -0.045 C 
HETATM   18  C   UNL     1      -1.555   6.963 -30.583  1.00  0.00     0.015 C 
HETATM   19  C   UNL     1      -2.305   9.275 -31.004  1.00  0.00     0.015 C 
HETATM   20  C   UNL     1      -1.661   7.869 -32.973  1.00  0.00     0.013 C 
HETATM   21  C   UNL     1      -1.912   6.667 -33.898  1.00  0.00    -0.016 C 
HETATM   22  C   UNL     1      -3.382   6.218 -33.905  1.00  0.00     0.029 C 
HETATM   23  C   UNL     1      -0.923   5.519 -33.691  1.00  0.00     0.010 C 
ENDBRANCH  12  15
ENDBRANCH   8  11
ENDBRANCH   6   7
BRANCH   1  24
HETATM   24  C   UNL     1      -6.712   0.408 -32.293  1.00  0.00     0.732 A 
HETATM   25  N   UNL     1      -7.459   0.272 -33.420  1.00  0.00    -0.152 N 
HETATM   26  C   UNL     1      -7.121  -0.630 -34.380  1.00  0.00     0.268 A 
HETATM   27  H   UNL     1      -8.252   0.883 -33.587  1.00  0.00     0.188 HD
HETATM   28  C   UNL     1      -5.943  -1.490 -34.066  1.00  0.00     0.035 A 
HETATM   29  O   UNL     1      -7.743  -0.717 -35.431  1.00  0.00    -0.267 OA
HETATM   30  C   UNL     1      -5.301  -1.271 -32.897  1.00  0.00     0.061 A 
HETATM   31  N   UNL     1      -5.665  -0.294 -31.991  1.00  0.00    -0.067 NA
HETATM   32  C   UNL     1      -4.092  -2.061 -32.458  1.00  0.00     0.072 C 
BRANCH  28  33
HETATM   33  C   UNL     1      -5.613  -2.553 -35.082  1.00  0.00     0.042 C 
HETATM   34  C   UNL     1      -6.446  -3.811 -34.879  1.00  0.00     0.010 C 
ENDBRANCH  28  33
ENDBRANCH   1  24
TORSDOF 5
ENDMDL
MODEL 5
REMARK VINA RESULT:      -8.2      2.920      7.441
REMARK  5 active torsions:
REMARK  status: ('A' for Active; 'I' for Inactive)
REMARK    1  A    between atoms: C_2  and  C_3 
REMARK    2  A    between atoms: C_7  and  N_8 
REMARK    3  A    between atoms: C_13  and  N_14 
REMARK       I    between atoms: N_14  and  C_15 
REMARK    4  A    between atoms: C_15  and  C_16 
REMARK       I    between atoms: C_16  and  N_17 
REMARK    5  A    between atoms: N_17  and  C_18 
ROOT
HETATM    1  N   UNL     1      -5.249   6.102 -30.501  1.00  0.00    -0.045 N 
HETATM    2  N   UNL     1      -5.928   6.155 -29.326  1.00  0.00    -0.156 NA
HETATM    3  C   UNL     1      -7.214   6.122 -29.693  1.00  0.00     0.055 A 
HETATM    4  C   UNL     1      -8.291   6.174 -28.671  1.00  0.00     0.072 C 
HETATM    5  C   UNL     1      -7.365   6.035 -31.102  1.00  0.00     0.079 A 
HETATM    6  C   UNL     1      -6.087   6.040 -31.607  1.00  0.00     0.152 A 
ENDROOT
BRANCH   6   7
HETATM    7  N   UNL     1      -5.617   5.947 -32.909  1.00  0.00    -0.303 N 
HETATM    8  C   UNL     1      -5.766   4.913 -33.870  1.00  0.00     0.315 C 
HETATM    9  O   UNL     1      -5.053   4.978 -34.860  1.00  0.00    -0.262 OA
HETATM   10  H   UNL     1      -5.052   6.738 -33.235  1.00  0.00     0.171 HD
BRANCH   8  11
HETATM   11  C   UNL     1      -6.742   3.743 -33.707  1.00  0.00     0.310 C 
HETATM   12  N   UNL     1      -6.131   2.556 -33.335  1.00  0.00    -0.348 N 
HETATM   13  H   UNL     1      -5.117   2.556 -33.323  1.00  0.00     0.163 HD
HETATM   14  O   UNL     1      -7.931   3.886 -33.948  1.00  0.00    -0.262 OA
BRANCH  12  15
HETATM   15  C   UNL     1      -6.819   1.278 -33.407  1.00  0.00     0.085 C 
HETATM   16  C   UNL     1      -5.905   0.131 -33.867  1.00  0.00     0.034 C 
HETATM   17  C   UNL     1      -4.927  -0.415 -32.802  1.00  0.00    -0.045 C 
HETATM   18  C   UNL     1      -3.726   0.524 -32.593  1.00  0.00     0.015 C 
HETATM   19  C   UNL     1      -4.343  -1.749 -33.327  1.00  0.00     0.015 C 
HETATM   20  C   UNL     1      -5.672  -0.707 -31.478  1.00  0.00     0.013 C 
HETATM   21  C   UNL     1      -6.652   0.366 -30.975  1.00  0.00    -0.016 C 
HETATM   22  C   UNL     1      -7.535   0.938 -32.096  1.00  0.00     0.029 C 
HETATM   23  C   UNL     1      -5.992   1.439 -30.109  1.00  0.00     0.010 C 
ENDBRANCH  12  15
ENDBRANCH   8  11
ENDBRANCH   6   7
BRANCH   1  24
HETATM   24  C   UNL     1      -3.846   6.087 -30.531  1.00  0.00     0.732 A 
HETATM   25  N   UNL     1      -3.293   6.671 -29.435  1.00  0.00    -0.152 N 
HETATM   26  C   UNL     1      -1.945   6.699 -29.262  1.00  0.00     0.268 A 
HETATM   27  H   UNL     1      -3.884   7.047 -28.701  1.00  0.00     0.188 HD
HETATM   28  C   UNL     1      -1.142   6.125 -30.382  1.00  0.00     0.035 A 
HETATM   29  O   UNL     1      -1.434   7.158 -28.248  1.00  0.00    -0.267 OA
HETATM   30  C   UNL     1      -1.814   5.598 -31.429  1.00  0.00     0.061 A 
HETATM   31  N   UNL     1      -3.192   5.551 -31.513  1.00  0.00    -0.067 NA
HETATM   32  C   UNL     1      -1.129   4.979 -32.623  1.00  0.00     0.072 C 
BRANCH  28  33
HETATM   33  C   UNL     1       0.355   6.230 -30.242  1.00  0.00     0.042 C 
HETATM   34  C   UNL     1       0.959   4.972 -29.635  1.00  0.00     0.010 C 
ENDBRANCH  28  33
ENDBRANCH   1  24
TORSDOF 5
ENDMDL
MODEL 6
REMARK VINA RESULT:      -8.1      3.484      8.396
REMARK  5 active torsions:
REMARK  status: ('A' for Active; 'I' for Inactive)
REMARK    1  A    between atoms: C_2  and  C_3 
REMARK    2  A    between atoms: C_7  and  N_8 
REMARK    3  A    between atoms: C_13  and  N_14 
REMARK       I    between atoms: N_14  and  C_15 
REMARK    4  A    between atoms: C_15  and  C_16 
REMARK       I    between atoms: C_16  and  N_17 
REMARK    5  A    between atoms: N_17  and  C_18 
ROOT
HETATM    1  N   UNL     1      -4.096   6.742 -30.146  1.00  0.00    -0.045 N 
HETATM    2  N   UNL     1      -4.887   7.842 -30.237  1.00  0.00    -0.156 NA
HETATM    3  C   UNL     1      -6.053   7.365 -30.687  1.00  0.00     0.055 A 
HETATM    4  C   UNL     1      -7.198   8.280 -30.933  1.00  0.00     0.072 C 
HETATM    5  C   UNL     1      -6.019   5.957 -30.873  1.00  0.00     0.079 A 
HETATM    6  C   UNL     1      -4.743   5.576 -30.535  1.00  0.00     0.152 A 
ENDROOT
BRANCH   6   7
HETATM    7  N   UNL     1      -4.141   4.327 -30.493  1.00  0.00    -0.303 N 
HETATM    8  C   UNL     1      -4.319   3.191 -31.327  1.00  0.00     0.315 C 
HETATM    9  O   UNL     1      -3.841   2.140 -30.930  1.00  0.00    -0.262 OA
HETATM   10  H   UNL     1      -3.473   4.180 -29.730  1.00  0.00     0.171 HD
BRANCH   8  11
HETATM   11  C   UNL     1      -5.083   3.231 -32.656  1.00  0.00     0.310 C 
HETATM   12  N   UNL     1      -6.234   2.460 -32.658  1.00  0.00    -0.348 N 
HETATM   13  H   UNL     1      -6.386   1.874 -31.843  1.00  0.00     0.163 HD
HETATM   14  O   UNL     1      -4.643   3.855 -33.608  1.00  0.00    -0.262 OA
BRANCH  12  15
HETATM   15  C   UNL     1      -6.939   2.129 -33.885  1.00  0.00     0.085 C 
HETATM   16  C   UNL     1      -6.446   0.821 -34.524  1.00  0.00     0.034 C 
HETATM   17  C   UNL     1      -6.937  -0.481 -33.851  1.00  0.00    -0.045 C 
HETATM   18  C   UNL     1      -6.172  -0.773 -32.547  1.00  0.00     0.015 C 
HETATM   19  C   UNL     1      -6.625  -1.660 -34.804  1.00  0.00     0.015 C 
HETATM   20  C   UNL     1      -8.466  -0.436 -33.628  1.00  0.00     0.013 C 
HETATM   21  C   UNL     1      -9.051   0.862 -33.044  1.00  0.00    -0.016 C 
HETATM   22  C   UNL     1      -8.459   2.124 -33.690  1.00  0.00     0.029 C 
HETATM   23  C   UNL     1      -9.050   0.898 -31.516  1.00  0.00     0.010 C 
ENDBRANCH  12  15
ENDBRANCH   8  11
ENDBRANCH   6   7
BRANCH   1  24
HETATM   24  C   UNL     1      -2.777   6.832 -29.674  1.00  0.00     0.732 A 
HETATM   25  N   UNL     1      -2.713   7.006 -28.327  1.00  0.00    -0.152 N 
HETATM   26  C   UNL     1      -1.517   7.057 -27.684  1.00  0.00     0.268 A 
HETATM   27  H   UNL     1      -3.564   7.046 -27.774  1.00  0.00     0.188 HD
HETATM   28  C   UNL     1      -0.312   6.991 -28.562  1.00  0.00     0.035 A 
HETATM   29  O   UNL     1      -1.444   7.144 -26.464  1.00  0.00    -0.267 OA
HETATM   30  C   UNL     1      -0.512   6.843 -29.890  1.00  0.00     0.061 A 
HETATM   31  N   UNL     1      -1.760   6.739 -30.472  1.00  0.00    -0.067 NA
HETATM   32  C   UNL     1       0.615   6.753 -30.890  1.00  0.00     0.072 C 
BRANCH  28  33
HETATM   33  C   UNL     1       1.018   7.135 -27.869  1.00  0.00     0.042 C 
HETATM   34  C   UNL     1       1.447   8.592 -27.762  1.00  0.00     0.010 C 
ENDBRANCH  28  33
ENDBRANCH   1  24
TORSDOF 5
ENDMDL
MODEL 7
REMARK VINA RESULT:      -8.1      3.524      8.437
REMARK  5 active torsions:
REMARK  status: ('A' for Active; 'I' for Inactive)
REMARK    1  A    between atoms: C_2  and  C_3 
REMARK    2  A    between atoms: C_7  and  N_8 
REMARK    3  A    between atoms: C_13  and  N_14 
REMARK       I    between atoms: N_14  and  C_15 
REMARK    4  A    between atoms: C_15  and  C_16 
REMARK       I    between atoms: C_16  and  N_17 
REMARK    5  A    between atoms: N_17  and  C_18 
ROOT
HETATM    1  N   UNL     1      -4.155   6.781 -30.011  1.00  0.00    -0.045 N 
HETATM    2  N   UNL     1      -5.144   7.510 -29.433  1.00  0.00    -0.156 NA
HETATM    3  C   UNL     1      -6.246   7.145 -30.097  1.00  0.00     0.055 A 
HETATM    4  C   UNL     1      -7.564   7.742 -29.759  1.00  0.00     0.072 C 
HETATM    5  C   UNL     1      -5.970   6.172 -31.095  1.00  0.00     0.079 A 
HETATM    6  C   UNL     1      -4.614   5.963 -31.035  1.00  0.00     0.152 A 
ENDROOT
BRANCH   6   7
HETATM    7  N   UNL     1      -3.788   5.106 -31.747  1.00  0.00    -0.303 N 
HETATM    8  C   UNL     1      -3.684   3.690 -31.716  1.00  0.00     0.315 C 
HETATM    9  O   UNL     1      -2.711   3.200 -32.271  1.00  0.00    -0.262 OA
HETATM   10  H   UNL     1      -3.127   5.556 -32.389  1.00  0.00     0.171 HD
BRANCH   8  11
HETATM   11  C   UNL     1      -4.703   2.784 -31.018  1.00  0.00     0.310 C 
HETATM   12  N   UNL     1      -5.129   1.721 -31.798  1.00  0.00    -0.348 N 
HETATM   13  H   UNL     1      -4.819   1.719 -32.764  1.00  0.00     0.163 HD
HETATM   14  O   UNL     1      -5.110   3.052 -29.898  1.00  0.00    -0.262 OA
BRANCH  12  15
HETATM   15  C   UNL     1      -6.290   0.920 -31.445  1.00  0.00     0.085 C 
HETATM   16  C   UNL     1      -7.542   1.293 -32.255  1.00  0.00     0.034 C 
HETATM   17  C   UNL     1      -7.580   0.770 -33.709  1.00  0.00    -0.045 C 
HETATM   18  C   UNL     1      -6.674   1.598 -34.637  1.00  0.00     0.015 C 
HETATM   19  C   UNL     1      -9.021   0.949 -34.244  1.00  0.00     0.015 C 
HETATM   20  C   UNL     1      -7.235  -0.736 -33.755  1.00  0.00     0.013 C 
HETATM   21  C   UNL     1      -6.028  -1.204 -32.924  1.00  0.00    -0.016 C 
HETATM   22  C   UNL     1      -5.995  -0.581 -31.520  1.00  0.00     0.029 C 
HETATM   23  C   UNL     1      -4.698  -1.104 -33.670  1.00  0.00     0.010 C 
ENDBRANCH  12  15
ENDBRANCH   8  11
ENDBRANCH   6   7
BRANCH   1  24
HETATM   24  C   UNL     1      -2.829   6.868 -29.560  1.00  0.00     0.732 A 
HETATM   25  N   UNL     1      -2.742   6.999 -28.210  1.00  0.00    -0.152 N 
HETATM   26  C   UNL     1      -1.536   7.040 -27.586  1.00  0.00     0.268 A 
HETATM   27  H   UNL     1      -3.583   7.014 -27.641  1.00  0.00     0.188 HD
HETATM   28  C   UNL     1      -0.346   7.012 -28.487  1.00  0.00     0.035 A 
HETATM   29  O   UNL     1      -1.441   7.089 -26.366  1.00  0.00    -0.267 OA
HETATM   30  C   UNL     1      -0.569   6.905 -29.815  1.00  0.00     0.061 A 
HETATM   31  N   UNL     1      -1.826   6.809 -30.379  1.00  0.00    -0.067 NA
HETATM   32  C   UNL     1       0.541   6.857 -30.837  1.00  0.00     0.072 C 
BRANCH  28  33
HETATM   33  C   UNL     1       0.995   7.147 -27.813  1.00  0.00     0.042 C 
HETATM   34  C   UNL     1       1.454   8.597 -27.745  1.00  0.00     0.010 C 
ENDBRANCH  28  33
ENDBRANCH   1  24
TORSDOF 5
ENDMDL
MODEL 8
REMARK VINA RESULT:      -8.1      2.585      4.035
REMARK  5 active torsions:
REMARK  status: ('A' for Active; 'I' for Inactive)
REMARK    1  A    between atoms: C_2  and  C_3 
REMARK    2  A    between atoms: C_7  and  N_8 
REMARK    3  A    between atoms: C_13  and  N_14 
REMARK       I    between atoms: N_14  and  C_15 
REMARK    4  A    between atoms: C_15  and  C_16 
REMARK       I    between atoms: C_16  and  N_17 
REMARK    5  A    between atoms: N_17  and  C_18 
ROOT
HETATM    1  N   UNL     1     -10.883   1.161 -33.949  1.00  0.00    -0.045 N 
HETATM    2  N   UNL     1     -11.875   0.310 -33.582  1.00  0.00    -0.156 NA
HETATM    3  C   UNL     1     -12.996   0.940 -33.950  1.00  0.00     0.055 A 
HETATM    4  C   UNL     1     -14.324   0.323 -33.704  1.00  0.00     0.072 C 
HETATM    5  C   UNL     1     -12.727   2.191 -34.567  1.00  0.00     0.079 A 
HETATM    6  C   UNL     1     -11.360   2.324 -34.541  1.00  0.00     0.152 A 
ENDROOT
BRANCH   6   7
HETATM    7  N   UNL     1     -10.528   3.323 -35.024  1.00  0.00    -0.303 N 
HETATM    8  C   UNL     1      -9.860   4.375 -34.343  1.00  0.00     0.315 C 
HETATM    9  O   UNL     1      -9.380   5.259 -35.036  1.00  0.00    -0.262 OA
HETATM   10  H   UNL     1     -10.380   3.326 -36.038  1.00  0.00     0.171 HD
BRANCH   8  11
HETATM   11  C   UNL     1      -9.740   4.450 -32.817  1.00  0.00     0.310 C 
HETATM   12  N   UNL     1      -8.500   4.885 -32.377  1.00  0.00    -0.348 N 
HETATM   13  H   UNL     1      -7.784   4.994 -33.087  1.00  0.00     0.163 HD
HETATM   14  O   UNL     1     -10.664   4.095 -32.102  1.00  0.00    -0.262 OA
BRANCH  12  15
HETATM   15  C   UNL     1      -8.084   4.753 -30.991  1.00  0.00     0.085 C 
HETATM   16  C   UNL     1      -7.141   3.561 -30.760  1.00  0.00     0.034 C 
HETATM   17  C   UNL     1      -5.678   3.765 -31.217  1.00  0.00    -0.045 C 
HETATM   18  C   UNL     1      -5.535   3.645 -32.745  1.00  0.00     0.015 C 
HETATM   19  C   UNL     1      -4.825   2.622 -30.615  1.00  0.00     0.015 C 
HETATM   20  C   UNL     1      -5.124   5.107 -30.688  1.00  0.00     0.013 C 
HETATM   21  C   UNL     1      -6.030   6.343 -30.826  1.00  0.00    -0.016 C 
HETATM   22  C   UNL     1      -7.491   6.056 -30.445  1.00  0.00     0.029 C 
HETATM   23  C   UNL     1      -5.878   7.064 -32.166  1.00  0.00     0.010 C 
ENDBRANCH  12  15
ENDBRANCH   8  11
ENDBRANCH   6   7
BRANCH   1  24
HETATM   24  C   UNL     1      -9.533   0.835 -33.750  1.00  0.00     0.732 A 
HETATM   25  N   UNL     1      -8.829   0.787 -34.912  1.00  0.00    -0.152 N 
HETATM   26  C   UNL     1      -7.492   0.542 -34.911  1.00  0.00     0.268 A 
HETATM   27  H   UNL     1      -9.285   0.988 -35.796  1.00  0.00     0.188 HD
HETATM   28  C   UNL     1      -6.893   0.256 -33.574  1.00  0.00     0.035 A 
HETATM   29  O   UNL     1      -6.831   0.564 -35.942  1.00  0.00    -0.267 OA
HETATM   30  C   UNL     1      -7.708   0.310 -32.498  1.00  0.00     0.061 A 
HETATM   31  N   UNL     1      -9.051   0.624 -32.566  1.00  0.00    -0.067 NA
HETATM   32  C   UNL     1      -7.232   0.052 -31.088  1.00  0.00     0.072 C 
BRANCH  28  33
HETATM   33  C   UNL     1      -5.429  -0.104 -33.571  1.00  0.00     0.042 C 
HETATM   34  C   UNL     1      -5.213  -1.603 -33.725  1.00  0.00     0.010 C 
ENDBRANCH  28  33
ENDBRANCH   1  24
TORSDOF 5
ENDMDL
MODEL 9
REMARK VINA RESULT:      -7.9      4.284      7.395
REMARK  5 active torsions:
REMARK  status: ('A' for Active; 'I' for Inactive)
REMARK    1  A    between atoms: C_2  and  C_3 
REMARK    2  A    between atoms: C_7  and  N_8 
REMARK    3  A    between atoms: C_13  and  N_14 
REMARK       I    between atoms: N_14  and  C_15 
REMARK    4  A    between atoms: C_15  and  C_16 
REMARK       I    between atoms: C_16  and  N_17 
REMARK    5  A    between atoms: N_17  and  C_18 
ROOT
HETATM    1  N   UNL     1     -11.871   5.950 -34.704  1.00  0.00    -0.045 N 
HETATM    2  N   UNL     1     -12.201   6.567 -35.868  1.00  0.00    -0.156 NA
HETATM    3  C   UNL     1     -11.470   7.688 -35.859  1.00  0.00     0.055 A 
HETATM    4  C   UNL     1     -11.561   8.656 -36.981  1.00  0.00     0.072 C 
HETATM    5  C   UNL     1     -10.659   7.786 -34.697  1.00  0.00     0.079 A 
HETATM    6  C   UNL     1     -10.945   6.665 -33.956  1.00  0.00     0.152 A 
ENDROOT
BRANCH   6   7
HETATM    7  N   UNL     1     -10.437   6.213 -32.747  1.00  0.00    -0.303 N 
HETATM    8  C   UNL     1      -9.512   5.172 -32.468  1.00  0.00     0.315 C 
HETATM    9  O   UNL     1      -9.414   4.824 -31.301  1.00  0.00    -0.262 OA
HETATM   10  H   UNL     1     -10.794   6.685 -31.911  1.00  0.00     0.171 HD
BRANCH   8  11
HETATM   11  C   UNL     1      -8.672   4.478 -33.546  1.00  0.00     0.310 C 
HETATM   12  N   UNL     1      -8.829   3.101 -33.571  1.00  0.00    -0.348 N 
HETATM   13  H   UNL     1      -9.377   2.697 -32.820  1.00  0.00     0.163 HD
HETATM   14  O   UNL     1      -7.911   5.120 -34.253  1.00  0.00    -0.262 OA
BRANCH  12  15
HETATM   15  C   UNL     1      -7.923   2.235 -34.308  1.00  0.00     0.085 C 
HETATM   16  C   UNL     1      -6.560   2.069 -33.617  1.00  0.00     0.034 C 
HETATM   17  C   UNL     1      -6.538   1.116 -32.400  1.00  0.00    -0.045 C 
HETATM   18  C   UNL     1      -7.146   1.774 -31.148  1.00  0.00     0.015 C 
HETATM   19  C   UNL     1      -5.059   0.819 -32.052  1.00  0.00     0.015 C 
HETATM   20  C   UNL     1      -7.228  -0.224 -32.744  1.00  0.00     0.013 C 
HETATM   21  C   UNL     1      -8.571  -0.149 -33.489  1.00  0.00    -0.016 C 
HETATM   22  C   UNL     1      -8.562   0.880 -34.631  1.00  0.00     0.029 C 
HETATM   23  C   UNL     1      -9.779  -0.021 -32.560  1.00  0.00     0.010 C 
ENDBRANCH  12  15
ENDBRANCH   8  11
ENDBRANCH   6   7
BRANCH   1  24
HETATM   24  C   UNL     1     -12.422   4.707 -34.358  1.00  0.00     0.732 A 
HETATM   25  N   UNL     1     -12.201   3.755 -35.304  1.00  0.00    -0.152 N 
HETATM   26  C   UNL     1     -12.612   2.473 -35.116  1.00  0.00     0.268 A 
HETATM   27  H   UNL     1     -11.675   3.978 -36.143  1.00  0.00     0.188 HD
HETATM   28  C   UNL     1     -13.376   2.221 -33.859  1.00  0.00     0.035 A 
HETATM   29  O   UNL     1     -12.360   1.589 -35.926  1.00  0.00    -0.267 OA
HETATM   30  C   UNL     1     -13.550   3.260 -33.013  1.00  0.00     0.061 A 
HETATM   31  N   UNL     1     -13.053   4.528 -33.240  1.00  0.00    -0.067 NA
HETATM   32  C   UNL     1     -14.295   3.144 -31.705  1.00  0.00     0.072 C 
BRANCH  28  33
HETATM   33  C   UNL     1     -13.913   0.824 -33.683  1.00  0.00     0.042 C 
HETATM   34  C   UNL     1     -15.248   0.635 -34.389  1.00  0.00     0.010 C 
ENDBRANCH  28  33
ENDBRANCH   1  24
TORSDOF 5
ENDMDL
MODEL 10
REMARK VINA RESULT:      -7.8      2.261      5.016
REMARK  5 active torsions:
REMARK  status: ('A' for Active; 'I' for Inactive)
REMARK    1  A    between atoms: C_2  and  C_3 
REMARK    2  A    between atoms: C_7  and  N_8 
REMARK    3  A    between atoms: C_13  and  N_14 
REMARK       I    between atoms: N_14  and  C_15 
REMARK    4  A    between atoms: C_15  and  C_16 
REMARK       I    between atoms: C_16  and  N_17 
REMARK    5  A    between atoms: N_17  and  C_18 
ROOT
HETATM    1  N   UNL     1      -7.748   0.935 -32.888  1.00  0.00    -0.045 N 
HETATM    2  N   UNL     1      -6.942   0.191 -33.689  1.00  0.00    -0.156 NA
HETATM    3  C   UNL     1      -5.868  -0.054 -32.929  1.00  0.00     0.055 A 
HETATM    4  C   UNL     1      -4.732  -0.847 -33.464  1.00  0.00     0.072 C 
HETATM    5  C   UNL     1      -5.987   0.519 -31.635  1.00  0.00     0.079 A 
HETATM    6  C   UNL     1      -7.199   1.168 -31.634  1.00  0.00     0.152 A 
ENDROOT
BRANCH   6   7
HETATM    7  N   UNL     1      -7.856   1.876 -30.639  1.00  0.00    -0.303 N 
HETATM    8  C   UNL     1      -7.847   3.264 -30.337  1.00  0.00     0.315 C 
HETATM    9  O   UNL     1      -8.326   3.594 -29.263  1.00  0.00    -0.262 OA
HETATM   10  H   UNL     1      -8.428   1.316 -29.999  1.00  0.00     0.171 HD
BRANCH   8  11
HETATM   11  C   UNL     1      -7.258   4.327 -31.271  1.00  0.00     0.310 C 
HETATM   12  N   UNL     1      -5.893   4.509 -31.114  1.00  0.00    -0.348 N 
HETATM   13  H   UNL     1      -5.459   4.018 -30.340  1.00  0.00     0.163 HD
HETATM   14  O   UNL     1      -7.979   4.963 -32.023  1.00  0.00    -0.262 OA
BRANCH  12  15
HETATM   15  C   UNL     1      -5.197   5.651 -31.683  1.00  0.00     0.085 C 
HETATM   16  C   UNL     1      -3.674   5.581 -31.489  1.00  0.00     0.034 C 
HETATM   17  C   UNL     1      -2.923   4.610 -32.429  1.00  0.00    -0.045 C 
HETATM   18  C   UNL     1      -3.095   3.144 -31.992  1.00  0.00     0.015 C 
HETATM   19  C   UNL     1      -1.409   4.915 -32.321  1.00  0.00     0.015 C 
HETATM   20  C   UNL     1      -3.353   4.831 -33.897  1.00  0.00     0.013 C 
HETATM   21  C   UNL     1      -4.859   4.971 -34.172  1.00  0.00    -0.016 C 
HETATM   22  C   UNL     1      -5.569   5.875 -33.152  1.00  0.00     0.029 C 
HETATM   23  C   UNL     1      -5.565   3.634 -34.400  1.00  0.00     0.010 C 
ENDBRANCH  12  15
ENDBRANCH   8  11
ENDBRANCH   6   7
BRANCH   1  24
HETATM   24  C   UNL     1      -9.007   1.372 -33.328  1.00  0.00     0.732 A 
HETATM   25  N   UNL     1      -8.976   2.635 -33.831  1.00  0.00    -0.152 N 
HETATM   26  C   UNL     1     -10.091   3.206 -34.358  1.00  0.00     0.268 A 
HETATM   27  H   UNL     1      -8.103   3.150 -33.870  1.00  0.00     0.188 HD
HETATM   28  C   UNL     1     -11.336   2.387 -34.267  1.00  0.00     0.035 A 
HETATM   29  O   UNL     1     -10.065   4.314 -34.878  1.00  0.00    -0.267 OA
HETATM   30  C   UNL     1     -11.237   1.156 -33.719  1.00  0.00     0.061 A 
HETATM   31  N   UNL     1     -10.055   0.614 -33.255  1.00  0.00    -0.067 NA
HETATM   32  C   UNL     1     -12.413   0.220 -33.573  1.00  0.00     0.072 C 
BRANCH  28  33
HETATM   33  C   UNL     1     -12.596   3.045 -34.767  1.00  0.00     0.042 C 
HETATM   34  C   UNL     1     -13.327   3.790 -33.659  1.00  0.00     0.010 C 
ENDBRANCH  28  33
ENDBRANCH   1  24
TORSDOF 5
ENDMDL
