MODEL 1
REMARK VINA RESULT:      -8.5      0.000      0.000
REMARK  8 active torsions:
REMARK  status: ('A' for Active; 'I' for Inactive)
REMARK    1  A    between atoms: C_2  and  N_3 
REMARK    2  A    between atoms: N_3  and  N_4 
REMARK       I    between atoms: N_4  and  C_5 
REMARK    3  A    between atoms: C_5  and  C_6 
REMARK       I    between atoms: C_6  and  N_7 
REMARK    4  A    between atoms: N_7  and  C_8 
REMARK    5  A    between atoms: C_8  and  C_9 
REMARK    6  A    between atoms: C_17  and  C_18 
REMARK       I    between atoms: C_18  and  N_19 
REMARK    7  A    between atoms: N_19  and  C_20 
REMARK    8  A    between atoms: C_21  and  O_22 
ROOT
HETATM    1  N   UNL     1      -6.745   2.177 -29.663  1.00  0.00    -0.302 N 
HETATM    2  H   UNL     1      -6.353   1.730 -28.825  1.00  0.00     0.186 HD
ENDROOT
BRANCH   1   3
HETATM    3  C   UNL     1      -6.172   3.394 -29.987  1.00  0.00     0.027 C 
HETATM    4  C   UNL     1      -7.049   4.583 -29.637  1.00  0.00     0.070 C 
HETATM    5  C   UNL     1      -4.993   3.652 -30.591  1.00  0.00     0.100 C 
BRANCH   5   6
HETATM    6  C   UNL     1      -4.003   2.677 -31.127  1.00  0.00     0.247 C 
HETATM    7  N   UNL     1      -3.004   3.143 -31.936  1.00  0.00    -0.321 N 
HETATM    8  H   UNL     1      -2.595   2.408 -32.505  1.00  0.00     0.169 HD
HETATM    9  O   UNL     1      -4.128   1.461 -30.983  1.00  0.00    -0.268 OA
BRANCH   7  10
HETATM   10  C   UNL     1      -2.451   4.421 -32.130  1.00  0.00     0.070 A 
HETATM   11  C   UNL     1      -2.964   5.207 -33.176  1.00  0.00     0.095 A 
HETATM   12  C   UNL     1      -2.410   6.449 -33.486  1.00  0.00     0.041 A 
HETATM   13  C   UNL     1      -1.343   6.933 -32.732  1.00  0.00     0.026 A 
HETATM   14  C   UNL     1      -0.826   6.160 -31.694  1.00  0.00     0.036 A 
HETATM   15 CL   UNL     1       0.512   6.747 -30.784  1.00  0.00    -0.084 Cl
HETATM   16  C   UNL     1      -1.367   4.905 -31.395  1.00  0.00     0.056 A 
BRANCH  11  17
HETATM   17  O   UNL     1      -4.018   4.779 -33.946  1.00  0.00    -0.354 OA
HETATM   18  C   UNL     1      -3.853   5.182 -35.308  1.00  0.00     0.210 C 
ENDBRANCH  11  17
ENDBRANCH   7  10
ENDBRANCH   5   6
ENDBRANCH   1   3
BRANCH   1  19
HETATM   19  N   UNL     1      -7.131   1.233 -30.619  1.00  0.00    -0.262 N 
HETATM   20  C   UNL     1      -8.353   1.420 -31.233  1.00  0.00     0.327 C 
HETATM   21  O   UNL     1      -9.216   2.216 -30.875  1.00  0.00    -0.261 OA
HETATM   22  H   UNL     1      -6.380   0.737 -31.115  1.00  0.00     0.190 HD
BRANCH  20  23
HETATM   23  C   UNL     1      -8.582   0.536 -32.474  1.00  0.00     0.311 C 
HETATM   24  N   UNL     1      -7.512   0.521 -33.338  1.00  0.00    -0.349 N 
HETATM   25  H   UNL     1      -6.671   1.016 -33.052  1.00  0.00     0.163 HD
HETATM   26  O   UNL     1      -9.627  -0.078 -32.629  1.00  0.00    -0.262 OA
BRANCH  24  27
HETATM   27  C   UNL     1      -7.505  -0.299 -34.520  1.00  0.00     0.161 C 
BRANCH  27  28
HETATM   28  C   UNL     1      -6.472  -1.389 -34.419  1.00  0.00    -0.041 A 
HETATM   29  C   UNL     1      -6.738  -2.676 -34.904  1.00  0.00     0.009 A 
HETATM   30  C   UNL     1      -5.778  -3.685 -34.797  1.00  0.00     0.001 A 
HETATM   31  C   UNL     1      -4.548  -3.419 -34.199  1.00  0.00     0.000 A 
HETATM   32  C   UNL     1      -4.275  -2.144 -33.706  1.00  0.00     0.001 A 
HETATM   33  C   UNL     1      -5.232  -1.135 -33.815  1.00  0.00     0.009 A 
ENDBRANCH  27  28
ENDBRANCH  24  27
ENDBRANCH  20  23
ENDBRANCH   1  19
TORSDOF 8
ENDMDL
MODEL 2
REMARK VINA RESULT:      -8.2      3.368      8.910
REMARK  8 active torsions:
REMARK  status: ('A' for Active; 'I' for Inactive)
REMARK    1  A    between atoms: C_2  and  N_3 
REMARK    2  A    between atoms: N_3  and  N_4 
REMARK       I    between atoms: N_4  and  C_5 
REMARK    3  A    between atoms: C_5  and  C_6 
REMARK       I    between atoms: C_6  and  N_7 
REMARK    4  A    between atoms: N_7  and  C_8 
REMARK    5  A    between atoms: C_8  and  C_9 
REMARK    6  A    between atoms: C_17  and  C_18 
REMARK       I    between atoms: C_18  and  N_19 
REMARK    7  A    between atoms: N_19  and  C_20 
REMARK    8  A    between atoms: C_21  and  O_22 
ROOT
HETATM    1  N   UNL     1      -4.586   2.844 -31.245  1.00  0.00    -0.302 N 
HETATM    2  H   UNL     1      -5.011   3.055 -32.156  1.00  0.00     0.186 HD
ENDROOT
BRANCH   1   3
HETATM    3  C   UNL     1      -5.044   1.679 -30.654  1.00  0.00     0.027 C 
HETATM    4  C   UNL     1      -6.293   1.882 -29.815  1.00  0.00     0.070 C 
HETATM    5  C   UNL     1      -4.519   0.437 -30.692  1.00  0.00     0.100 C 
BRANCH   5   6
HETATM    6  C   UNL     1      -3.257  -0.009 -31.344  1.00  0.00     0.247 C 
HETATM    7  N   UNL     1      -3.337  -0.917 -32.363  1.00  0.00    -0.321 N 
HETATM    8  H   UNL     1      -2.457  -1.401 -32.518  1.00  0.00     0.169 HD
HETATM    9  O   UNL     1      -2.146   0.302 -30.916  1.00  0.00    -0.268 OA
BRANCH   7  10
HETATM   10  C   UNL     1      -4.386  -1.305 -33.216  1.00  0.00     0.070 A 
HETATM   11  C   UNL     1      -4.439  -2.649 -33.623  1.00  0.00     0.095 A 
HETATM   12  C   UNL     1      -5.398  -3.091 -34.535  1.00  0.00     0.041 A 
HETATM   13  C   UNL     1      -6.335  -2.190 -35.038  1.00  0.00     0.026 A 
HETATM   14  C   UNL     1      -6.287  -0.855 -34.642  1.00  0.00     0.036 A 
HETATM   15 CL   UNL     1      -7.428   0.262 -35.288  1.00  0.00    -0.084 Cl
HETATM   16  C   UNL     1      -5.315  -0.405 -33.743  1.00  0.00     0.056 A 
BRANCH  11  17
HETATM   17  O   UNL     1      -3.543  -3.578 -33.152  1.00  0.00    -0.354 OA
HETATM   18  C   UNL     1      -3.804  -4.869 -33.711  1.00  0.00     0.210 C 
ENDBRANCH  11  17
ENDBRANCH   7  10
ENDBRANCH   5   6
ENDBRANCH   1   3
BRANCH   1  19
HETATM   19  N   UNL     1      -3.253   3.259 -31.188  1.00  0.00    -0.262 N 
HETATM   20  C   UNL     1      -2.834   4.169 -32.136  1.00  0.00     0.327 C 
HETATM   21  O   UNL     1      -3.461   4.491 -33.141  1.00  0.00    -0.261 OA
HETATM   22  H   UNL     1      -2.794   3.230 -30.269  1.00  0.00     0.190 HD
BRANCH  20  23
HETATM   23  C   UNL     1      -1.464   4.810 -31.840  1.00  0.00     0.311 C 
HETATM   24  N   UNL     1      -1.158   4.848 -30.499  1.00  0.00    -0.349 N 
HETATM   25  H   UNL     1      -1.806   4.397 -29.858  1.00  0.00     0.163 HD
HETATM   26  O   UNL     1      -0.752   5.225 -32.742  1.00  0.00    -0.262 OA
BRANCH  24  27
HETATM   27  C   UNL     1       0.105   5.345 -30.025  1.00  0.00     0.161 C 
BRANCH  27  28
HETATM   28  C   UNL     1      -0.063   6.654 -29.302  1.00  0.00    -0.041 A 
HETATM   29  C   UNL     1       0.820   7.027 -28.280  1.00  0.00     0.009 A 
HETATM   30  C   UNL     1       0.651   8.239 -27.606  1.00  0.00     0.001 A 
HETATM   31  C   UNL     1      -0.404   9.084 -27.942  1.00  0.00     0.000 A 
HETATM   32  C   UNL     1      -1.294   8.720 -28.951  1.00  0.00     0.001 A 
HETATM   33  C   UNL     1      -1.125   7.512 -29.627  1.00  0.00     0.009 A 
ENDBRANCH  27  28
ENDBRANCH  24  27
ENDBRANCH  20  23
ENDBRANCH   1  19
TORSDOF 8
ENDMDL
MODEL 3
REMARK VINA RESULT:      -8.1      4.246      6.614
REMARK  8 active torsions:
REMARK  status: ('A' for Active; 'I' for Inactive)
REMARK    1  A    between atoms: C_2  and  N_3 
REMARK    2  A    between atoms: N_3  and  N_4 
REMARK       I    between atoms: N_4  and  C_5 
REMARK    3  A    between atoms: C_5  and  C_6 
REMARK       I    between atoms: C_6  and  N_7 
REMARK    4  A    between atoms: N_7  and  C_8 
REMARK    5  A    between atoms: C_8  and  C_9 
REMARK    6  A    between atoms: C_17  and  C_18 
REMARK       I    between atoms: C_18  and  N_19 
REMARK    7  A    between atoms: N_19  and  C_20 
REMARK    8  A    between atoms: C_21  and  O_22 
ROOT
HETATM    1  N   UNL     1      -6.955   2.367 -29.731  1.00  0.00    -0.302 N 
HETATM    2  H   UNL     1      -6.666   2.713 -28.808  1.00  0.00     0.186 HD
ENDROOT
BRANCH   1   3
HETATM    3  C   UNL     1      -8.028   3.042 -30.288  1.00  0.00     0.027 C 
HETATM    4  C   UNL     1      -8.277   4.399 -29.657  1.00  0.00     0.070 C 
HETATM    5  C   UNL     1      -8.877   2.646 -31.259  1.00  0.00     0.100 C 
BRANCH   5   6
HETATM    6  C   UNL     1      -8.921   1.334 -31.963  1.00  0.00     0.247 C 
HETATM    7  N   UNL     1      -9.877   1.142 -32.922  1.00  0.00    -0.321 N 
HETATM    8  H   UNL     1     -10.047   0.157 -33.104  1.00  0.00     0.169 HD
HETATM    9  O   UNL     1      -8.224   0.378 -31.623  1.00  0.00    -0.268 OA
BRANCH   7  10
HETATM   10  C   UNL     1     -10.656   2.030 -33.684  1.00  0.00     0.070 A 
HETATM   11  C   UNL     1     -11.982   1.662 -33.970  1.00  0.00     0.095 A 
HETATM   12  C   UNL     1     -12.789   2.449 -34.792  1.00  0.00     0.041 A 
HETATM   13  C   UNL     1     -12.282   3.633 -35.323  1.00  0.00     0.026 A 
HETATM   14  C   UNL     1     -10.968   4.005 -35.047  1.00  0.00     0.036 A 
HETATM   15 CL   UNL     1     -10.335   5.453 -35.729  1.00  0.00    -0.084 Cl
HETATM   16  C   UNL     1     -10.150   3.207 -34.240  1.00  0.00     0.056 A 
BRANCH  11  17
HETATM   17  O   UNL     1     -12.531   0.509 -33.467  1.00  0.00    -0.354 OA
HETATM   18  C   UNL     1     -13.774   0.211 -34.110  1.00  0.00     0.210 C 
ENDBRANCH  11  17
ENDBRANCH   7  10
ENDBRANCH   5   6
ENDBRANCH   1   3
BRANCH   1  19
HETATM   19  N   UNL     1      -5.864   1.914 -30.478  1.00  0.00    -0.262 N 
HETATM   20  C   UNL     1      -5.315   0.700 -30.120  1.00  0.00     0.327 C 
HETATM   21  O   UNL     1      -5.563   0.082 -29.089  1.00  0.00    -0.261 OA
HETATM   22  H   UNL     1      -5.797   2.239 -31.450  1.00  0.00     0.190 HD
BRANCH  20  23
HETATM   23  C   UNL     1      -4.330   0.119 -31.153  1.00  0.00     0.311 C 
HETATM   24  N   UNL     1      -4.953  -0.469 -32.230  1.00  0.00    -0.349 N 
HETATM   25  H   UNL     1      -5.966  -0.400 -32.281  1.00  0.00     0.163 HD
HETATM   26  O   UNL     1      -3.122   0.201 -30.990  1.00  0.00    -0.262 OA
BRANCH  24  27
HETATM   27  C   UNL     1      -4.205  -1.007 -33.334  1.00  0.00     0.161 C 
BRANCH  27  28
HETATM   28  C   UNL     1      -4.842  -2.266 -33.859  1.00  0.00    -0.041 A 
HETATM   29  C   UNL     1      -4.132  -3.474 -33.882  1.00  0.00     0.009 A 
HETATM   30  C   UNL     1      -4.727  -4.635 -34.381  1.00  0.00     0.001 A 
HETATM   31  C   UNL     1      -6.032  -4.598 -34.868  1.00  0.00     0.000 A 
HETATM   32  C   UNL     1      -6.745  -3.401 -34.858  1.00  0.00     0.001 A 
HETATM   33  C   UNL     1      -6.154  -2.241 -34.358  1.00  0.00     0.009 A 
ENDBRANCH  27  28
ENDBRANCH  24  27
ENDBRANCH  20  23
ENDBRANCH   1  19
TORSDOF 8
ENDMDL
MODEL 4
REMARK VINA RESULT:      -8.1      3.145      7.006
REMARK  8 active torsions:
REMARK  status: ('A' for Active; 'I' for Inactive)
REMARK    1  A    between atoms: C_2  and  N_3 
REMARK    2  A    between atoms: N_3  and  N_4 
REMARK       I    between atoms: N_4  and  C_5 
REMARK    3  A    between atoms: C_5  and  C_6 
REMARK       I    between atoms: C_6  and  N_7 
REMARK    4  A    between atoms: N_7  and  C_8 
REMARK    5  A    between atoms: C_8  and  C_9 
REMARK    6  A    between atoms: C_17  and  C_18 
REMARK       I    between atoms: C_18  and  N_19 
REMARK    7  A    between atoms: N_19  and  C_20 
REMARK    8  A    between atoms: C_21  and  O_22 
ROOT
HETATM    1  N   UNL     1      -8.713   0.693 -31.260  1.00  0.00    -0.302 N 
HETATM    2  H   UNL     1      -9.373   0.341 -30.555  1.00  0.00     0.186 HD
ENDROOT
BRANCH   1   3
HETATM    3  C   UNL     1      -9.045   0.376 -32.566  1.00  0.00     0.027 C 
HETATM    4  C   UNL     1     -10.258  -0.529 -32.676  1.00  0.00     0.070 C 
HETATM    5  C   UNL     1      -8.425   0.722 -33.714  1.00  0.00     0.100 C 
BRANCH   5   6
HETATM    6  C   UNL     1      -7.169   1.504 -33.881  1.00  0.00     0.247 C 
HETATM    7  N   UNL     1      -5.974   0.853 -33.744  1.00  0.00    -0.321 N 
HETATM    8  H   UNL     1      -5.208   1.490 -33.545  1.00  0.00     0.169 HD
HETATM    9  O   UNL     1      -7.164   2.728 -34.001  1.00  0.00    -0.268 OA
BRANCH   7  10
HETATM   10  C   UNL     1      -5.613  -0.505 -33.819  1.00  0.00     0.070 A 
HETATM   11  C   UNL     1      -4.353  -0.878 -33.320  1.00  0.00     0.095 A 
HETATM   12  C   UNL     1      -3.888  -2.188 -33.437  1.00  0.00     0.041 A 
HETATM   13  C   UNL     1      -4.694  -3.152 -34.039  1.00  0.00     0.026 A 
HETATM   14  C   UNL     1      -5.944  -2.790 -34.539  1.00  0.00     0.036 A 
HETATM   15 CL   UNL     1      -6.925  -3.977 -35.310  1.00  0.00    -0.084 Cl
HETATM   16  C   UNL     1      -6.404  -1.473 -34.441  1.00  0.00     0.056 A 
BRANCH  11  17
HETATM   17  O   UNL     1      -3.523   0.032 -32.713  1.00  0.00    -0.354 OA
HETATM   18  C   UNL     1      -3.099  -0.439 -31.430  1.00  0.00     0.210 C 
ENDBRANCH  11  17
ENDBRANCH   7  10
ENDBRANCH   5   6
ENDBRANCH   1   3
BRANCH   1  19
HETATM   19  N   UNL     1      -8.164   1.922 -30.886  1.00  0.00    -0.262 N 
HETATM   20  C   UNL     1      -6.827   1.939 -30.546  1.00  0.00     0.327 C 
HETATM   21  O   UNL     1      -6.130   0.948 -30.346  1.00  0.00    -0.261 OA
HETATM   22  H   UNL     1      -8.604   2.767 -31.272  1.00  0.00     0.190 HD
BRANCH  20  23
HETATM   23  C   UNL     1      -6.216   3.350 -30.442  1.00  0.00     0.311 C 
HETATM   24  N   UNL     1      -5.528   3.731 -31.571  1.00  0.00    -0.349 N 
HETATM   25  H   UNL     1      -5.551   3.101 -32.369  1.00  0.00     0.163 HD
HETATM   26  O   UNL     1      -6.359   4.028 -29.436  1.00  0.00    -0.262 OA
BRANCH  24  27
HETATM   27  C   UNL     1      -4.944   5.039 -31.695  1.00  0.00     0.161 C 
BRANCH  27  28
HETATM   28  C   UNL     1      -3.915   5.073 -32.793  1.00  0.00    -0.041 A 
HETATM   29  C   UNL     1      -2.551   4.941 -32.502  1.00  0.00     0.009 A 
HETATM   30  C   UNL     1      -1.602   4.984 -33.526  1.00  0.00     0.001 A 
HETATM   31  C   UNL     1      -2.006   5.167 -34.847  1.00  0.00     0.000 A 
HETATM   32  C   UNL     1      -3.360   5.307 -35.148  1.00  0.00     0.001 A 
HETATM   33  C   UNL     1      -4.309   5.262 -34.127  1.00  0.00     0.009 A 
ENDBRANCH  27  28
ENDBRANCH  24  27
ENDBRANCH  20  23
ENDBRANCH   1  19
TORSDOF 8
ENDMDL
MODEL 5
REMARK VINA RESULT:      -8.0      3.911      9.565
REMARK  8 active torsions:
REMARK  status: ('A' for Active; 'I' for Inactive)
REMARK    1  A    between atoms: C_2  and  N_3 
REMARK    2  A    between atoms: N_3  and  N_4 
REMARK       I    between atoms: N_4  and  C_5 
REMARK    3  A    between atoms: C_5  and  C_6 
REMARK       I    between atoms: C_6  and  N_7 
REMARK    4  A    between atoms: N_7  and  C_8 
REMARK    5  A    between atoms: C_8  and  C_9 
REMARK    6  A    between atoms: C_17  and  C_18 
REMARK       I    between atoms: C_18  and  N_19 
REMARK    7  A    between atoms: N_19  and  C_20 
REMARK    8  A    between atoms: C_21  and  O_22 
ROOT
HETATM    1  N   UNL     1      -1.925   5.204 -33.405  1.00  0.00    -0.302 N 
HETATM    2  H   UNL     1      -1.099   4.593 -33.407  1.00  0.00     0.186 HD
ENDROOT
BRANCH   1   3
HETATM    3  C   UNL     1      -3.096   4.589 -33.814  1.00  0.00     0.027 C 
HETATM    4  C   UNL     1      -3.731   5.250 -35.024  1.00  0.00     0.070 C 
HETATM    5  C   UNL     1      -3.746   3.539 -33.269  1.00  0.00     0.100 C 
BRANCH   5   6
HETATM    6  C   UNL     1      -3.400   2.785 -32.032  1.00  0.00     0.247 C 
HETATM    7  N   UNL     1      -4.172   1.710 -31.689  1.00  0.00    -0.321 N 
HETATM    8  H   UNL     1      -4.084   1.470 -30.706  1.00  0.00     0.169 HD
HETATM    9  O   UNL     1      -2.540   3.171 -31.242  1.00  0.00    -0.268 OA
BRANCH   7  10
HETATM   10  C   UNL     1      -5.050   0.892 -32.423  1.00  0.00     0.070 A 
HETATM   11  C   UNL     1      -4.521  -0.257 -33.036  1.00  0.00     0.095 A 
HETATM   12  C   UNL     1      -5.309  -1.069 -33.851  1.00  0.00     0.041 A 
HETATM   13  C   UNL     1      -6.651  -0.751 -34.047  1.00  0.00     0.026 A 
HETATM   14  C   UNL     1      -7.184   0.388 -33.446  1.00  0.00     0.036 A 
HETATM   15 CL   UNL     1      -8.835   0.795 -33.713  1.00  0.00    -0.084 Cl
HETATM   16  C   UNL     1      -6.391   1.215 -32.644  1.00  0.00     0.056 A 
BRANCH  11  17
HETATM   17  O   UNL     1      -3.206  -0.618 -32.870  1.00  0.00    -0.354 OA
HETATM   18  C   UNL     1      -3.087  -1.707 -31.950  1.00  0.00     0.210 C 
ENDBRANCH  11  17
ENDBRANCH   7  10
ENDBRANCH   5   6
ENDBRANCH   1   3
BRANCH   1  19
HETATM   19  N   UNL     1      -1.872   6.140 -32.370  1.00  0.00    -0.262 N 
HETATM   20  C   UNL     1      -1.788   7.471 -32.725  1.00  0.00     0.327 C 
HETATM   21  O   UNL     1      -1.551   7.893 -33.854  1.00  0.00    -0.261 OA
HETATM   22  H   UNL     1      -2.311   5.876 -31.479  1.00  0.00     0.190 HD
BRANCH  20  23
HETATM   23  C   UNL     1      -2.039   8.456 -31.567  1.00  0.00     0.311 C 
HETATM   24  N   UNL     1      -2.133   7.841 -30.340  1.00  0.00    -0.349 N 
HETATM   25  H   UNL     1      -1.958   6.840 -30.302  1.00  0.00     0.163 HD
HETATM   26  O   UNL     1      -2.133   9.657 -31.767  1.00  0.00    -0.262 OA
BRANCH  24  27
HETATM   27  C   UNL     1      -2.296   8.596 -29.126  1.00  0.00     0.161 C 
BRANCH  27  28
HETATM   28  C   UNL     1      -0.979   8.794 -28.427  1.00  0.00    -0.041 A 
HETATM   29  C   UNL     1      -0.804   9.838 -27.509  1.00  0.00     0.009 A 
HETATM   30  C   UNL     1       0.426  10.022 -26.873  1.00  0.00     0.001 A 
HETATM   31  C   UNL     1       1.492   9.170 -27.152  1.00  0.00     0.000 A 
HETATM   32  C   UNL     1       1.333   8.133 -28.070  1.00  0.00     0.001 A 
HETATM   33  C   UNL     1       0.104   7.947 -28.705  1.00  0.00     0.009 A 
ENDBRANCH  27  28
ENDBRANCH  24  27
ENDBRANCH  20  23
ENDBRANCH   1  19
TORSDOF 8
ENDMDL
MODEL 6
REMARK VINA RESULT:      -8.0      3.867      9.378
REMARK  8 active torsions:
REMARK  status: ('A' for Active; 'I' for Inactive)
REMARK    1  A    between atoms: C_2  and  N_3 
REMARK    2  A    between atoms: N_3  and  N_4 
REMARK       I    between atoms: N_4  and  C_5 
REMARK    3  A    between atoms: C_5  and  C_6 
REMARK       I    between atoms: C_6  and  N_7 
REMARK    4  A    between atoms: N_7  and  C_8 
REMARK    5  A    between atoms: C_8  and  C_9 
REMARK    6  A    between atoms: C_17  and  C_18 
REMARK       I    between atoms: C_18  and  N_19 
REMARK    7  A    between atoms: N_19  and  C_20 
REMARK    8  A    between atoms: C_21  and  O_22 
ROOT
HETATM    1  N   UNL     1      -1.980   5.166 -33.419  1.00  0.00    -0.302 N 
HETATM    2  H   UNL     1      -1.141   4.577 -33.493  1.00  0.00     0.186 HD
ENDROOT
BRANCH   1   3
HETATM    3  C   UNL     1      -3.164   4.521 -33.731  1.00  0.00     0.027 C 
HETATM    4  C   UNL     1      -3.915   5.167 -34.882  1.00  0.00     0.070 C 
HETATM    5  C   UNL     1      -3.740   3.454 -33.139  1.00  0.00     0.100 C 
BRANCH   5   6
HETATM    6  C   UNL     1      -3.273   2.707 -31.938  1.00  0.00     0.247 C 
HETATM    7  N   UNL     1      -3.922   1.553 -31.597  1.00  0.00    -0.321 N 
HETATM    8  H   UNL     1      -3.772   1.299 -30.625  1.00  0.00     0.169 HD
HETATM    9  O   UNL     1      -2.423   3.156 -31.170  1.00  0.00    -0.268 OA
BRANCH   7  10
HETATM   10  C   UNL     1      -4.746   0.672 -32.320  1.00  0.00     0.070 A 
HETATM   11  C   UNL     1      -6.137   0.859 -32.242  1.00  0.00     0.095 A 
HETATM   12  C   UNL     1      -7.021  -0.025 -32.860  1.00  0.00     0.041 A 
HETATM   13  C   UNL     1      -6.519  -1.102 -33.589  1.00  0.00     0.026 A 
HETATM   14  C   UNL     1      -5.142  -1.297 -33.669  1.00  0.00     0.036 A 
HETATM   15 CL   UNL     1      -4.526  -2.645 -34.545  1.00  0.00    -0.084 Cl
HETATM   16  C   UNL     1      -4.253  -0.423 -33.033  1.00  0.00     0.056 A 
BRANCH  11  17
HETATM   17  O   UNL     1      -6.682   1.907 -31.542  1.00  0.00    -0.354 OA
HETATM   18  C   UNL     1      -7.373   2.802 -32.418  1.00  0.00     0.210 C 
ENDBRANCH  11  17
ENDBRANCH   7  10
ENDBRANCH   5   6
ENDBRANCH   1   3
BRANCH   1  19
HETATM   19  N   UNL     1      -1.865   6.101 -32.388  1.00  0.00    -0.262 N 
HETATM   20  C   UNL     1      -1.732   7.426 -32.748  1.00  0.00     0.327 C 
HETATM   21  O   UNL     1      -1.500   7.836 -33.882  1.00  0.00    -0.261 OA
HETATM   22  H   UNL     1      -2.296   5.857 -31.487  1.00  0.00     0.190 HD
BRANCH  20  23
HETATM   23  C   UNL     1      -1.916   8.422 -31.587  1.00  0.00     0.311 C 
HETATM   24  N   UNL     1      -1.790   7.842 -30.346  1.00  0.00    -0.349 N 
HETATM   25  H   UNL     1      -1.521   6.862 -30.311  1.00  0.00     0.163 HD
HETATM   26  O   UNL     1      -2.145   9.603 -31.798  1.00  0.00    -0.262 OA
BRANCH  24  27
HETATM   27  C   UNL     1      -1.859   8.619 -29.137  1.00  0.00     0.161 C 
BRANCH  27  28
HETATM   28  C   UNL     1      -0.636   8.412 -28.287  1.00  0.00    -0.041 A 
HETATM   29  C   UNL     1      -0.107   9.462 -27.523  1.00  0.00     0.009 A 
HETATM   30  C   UNL     1       1.036   9.264 -26.745  1.00  0.00     0.001 A 
HETATM   31  C   UNL     1       1.664   8.021 -26.727  1.00  0.00     0.000 A 
HETATM   32  C   UNL     1       1.152   6.971 -27.488  1.00  0.00     0.001 A 
HETATM   33  C   UNL     1       0.009   7.166 -28.264  1.00  0.00     0.009 A 
ENDBRANCH  27  28
ENDBRANCH  24  27
ENDBRANCH  20  23
ENDBRANCH   1  19
TORSDOF 8
ENDMDL
MODEL 7
REMARK VINA RESULT:      -8.0      3.875      9.474
REMARK  8 active torsions:
REMARK  status: ('A' for Active; 'I' for Inactive)
REMARK    1  A    between atoms: C_2  and  N_3 
REMARK    2  A    between atoms: N_3  and  N_4 
REMARK       I    between atoms: N_4  and  C_5 
REMARK    3  A    between atoms: C_5  and  C_6 
REMARK       I    between atoms: C_6  and  N_7 
REMARK    4  A    between atoms: N_7  and  C_8 
REMARK    5  A    between atoms: C_8  and  C_9 
REMARK    6  A    between atoms: C_17  and  C_18 
REMARK       I    between atoms: C_18  and  N_19 
REMARK    7  A    between atoms: N_19  and  C_20 
REMARK    8  A    between atoms: C_21  and  O_22 
ROOT
HETATM    1  N   UNL     1      -4.075   4.921 -31.649  1.00  0.00    -0.302 N 
HETATM    2  H   UNL     1      -4.231   5.929 -31.770  1.00  0.00     0.186 HD
ENDROOT
BRANCH   1   3
HETATM    3  C   UNL     1      -4.624   4.130 -32.643  1.00  0.00     0.027 C 
HETATM    4  C   UNL     1      -4.730   4.835 -33.983  1.00  0.00     0.070 C 
HETATM    5  C   UNL     1      -5.098   2.869 -32.568  1.00  0.00     0.100 C 
BRANCH   5   6
HETATM    6  C   UNL     1      -5.211   1.998 -31.365  1.00  0.00     0.247 C 
HETATM    7  N   UNL     1      -5.784   0.765 -31.505  1.00  0.00    -0.321 N 
HETATM    8  H   UNL     1      -6.115   0.391 -30.620  1.00  0.00     0.169 HD
HETATM    9  O   UNL     1      -4.935   2.396 -30.234  1.00  0.00    -0.268 OA
BRANCH   7  10
HETATM   10  C   UNL     1      -6.003  -0.064 -32.620  1.00  0.00     0.070 A 
HETATM   11  C   UNL     1      -7.229   0.054 -33.295  1.00  0.00     0.095 A 
HETATM   12  C   UNL     1      -7.555  -0.793 -34.355  1.00  0.00     0.041 A 
HETATM   13  C   UNL     1      -6.641  -1.760 -34.769  1.00  0.00     0.026 A 
HETATM   14  C   UNL     1      -5.423  -1.886 -34.102  1.00  0.00     0.036 A 
HETATM   15 CL   UNL     1      -4.308  -3.101 -34.596  1.00  0.00    -0.084 Cl
HETATM   16  C   UNL     1      -5.102  -1.051 -33.026  1.00  0.00     0.056 A 
BRANCH  11  17
HETATM   17  O   UNL     1      -8.162   0.993 -32.932  1.00  0.00    -0.354 OA
HETATM   18  C   UNL     1      -8.522   1.815 -34.046  1.00  0.00     0.210 C 
ENDBRANCH  11  17
ENDBRANCH   7  10
ENDBRANCH   5   6
ENDBRANCH   1   3
BRANCH   1  19
HETATM   19  N   UNL     1      -2.836   4.658 -31.058  1.00  0.00    -0.262 N 
HETATM   20  C   UNL     1      -1.774   5.455 -31.435  1.00  0.00     0.327 C 
HETATM   21  O   UNL     1      -1.770   6.232 -32.386  1.00  0.00    -0.261 OA
HETATM   22  H   UNL     1      -2.846   4.229 -30.124  1.00  0.00     0.190 HD
BRANCH  20  23
HETATM   23  C   UNL     1      -0.529   5.320 -30.539  1.00  0.00     0.311 C 
HETATM   24  N   UNL     1      -0.645   5.984 -29.340  1.00  0.00    -0.349 N 
HETATM   25  H   UNL     1      -1.539   6.422 -29.132  1.00  0.00     0.163 HD
HETATM   26  O   UNL     1       0.442   4.671 -30.899  1.00  0.00    -0.262 OA
BRANCH  24  27
HETATM   27  C   UNL     1       0.385   5.921 -28.337  1.00  0.00     0.161 C 
BRANCH  27  28
HETATM   28  C   UNL     1       0.604   7.266 -27.699  1.00  0.00    -0.041 A 
HETATM   29  C   UNL     1       1.618   7.453 -26.750  1.00  0.00     0.009 A 
HETATM   30  C   UNL     1       1.808   8.702 -26.154  1.00  0.00     0.001 A 
HETATM   31  C   UNL     1       0.983   9.772 -26.495  1.00  0.00     0.000 A 
HETATM   32  C   UNL     1      -0.034   9.597 -27.431  1.00  0.00     0.001 A 
HETATM   33  C   UNL     1      -0.224   8.350 -28.030  1.00  0.00     0.009 A 
ENDBRANCH  27  28
ENDBRANCH  24  27
ENDBRANCH  20  23
ENDBRANCH   1  19
TORSDOF 8
ENDMDL
MODEL 8
REMARK VINA RESULT:      -7.9      3.506      5.514
REMARK  8 active torsions:
REMARK  status: ('A' for Active; 'I' for Inactive)
REMARK    1  A    between atoms: C_2  and  N_3 
REMARK    2  A    between atoms: N_3  and  N_4 
REMARK       I    between atoms: N_4  and  C_5 
REMARK    3  A    between atoms: C_5  and  C_6 
REMARK       I    between atoms: C_6  and  N_7 
REMARK    4  A    between atoms: N_7  and  C_8 
REMARK    5  A    between atoms: C_8  and  C_9 
REMARK    6  A    between atoms: C_17  and  C_18 
REMARK       I    between atoms: C_18  and  N_19 
REMARK    7  A    between atoms: N_19  and  C_20 
REMARK    8  A    between atoms: C_21  and  O_22 
ROOT
HETATM    1  N   UNL     1      -4.525   4.193 -30.497  1.00  0.00    -0.302 N 
HETATM    2  H   UNL     1      -3.754   4.716 -30.930  1.00  0.00     0.186 HD
ENDROOT
BRANCH   1   3
HETATM    3  C   UNL     1      -5.751   4.836 -30.538  1.00  0.00     0.027 C 
HETATM    4  C   UNL     1      -6.432   4.917 -29.184  1.00  0.00     0.070 C 
HETATM    5  C   UNL     1      -6.414   5.346 -31.596  1.00  0.00     0.100 C 
BRANCH   5   6
HETATM    6  C   UNL     1      -6.025   5.305 -33.033  1.00  0.00     0.247 C 
HETATM    7  N   UNL     1      -6.617   4.374 -33.841  1.00  0.00    -0.321 N 
HETATM    8  H   UNL     1      -6.077   4.195 -34.683  1.00  0.00     0.169 HD
HETATM    9  O   UNL     1      -5.100   5.978 -33.486  1.00  0.00    -0.268 OA
BRANCH   7  10
HETATM   10  C   UNL     1      -7.804   3.629 -33.727  1.00  0.00     0.070 A 
HETATM   11  C   UNL     1      -9.004   4.241 -34.129  1.00  0.00     0.095 A 
HETATM   12  C   UNL     1     -10.232   3.600 -33.966  1.00  0.00     0.041 A 
HETATM   13  C   UNL     1     -10.272   2.320 -33.416  1.00  0.00     0.026 A 
HETATM   14  C   UNL     1      -9.087   1.707 -33.013  1.00  0.00     0.036 A 
HETATM   15 CL   UNL     1      -9.142   0.138 -32.306  1.00  0.00    -0.084 Cl
HETATM   16  C   UNL     1      -7.856   2.356 -33.156  1.00  0.00     0.056 A 
BRANCH  11  17
HETATM   17  O   UNL     1      -9.019   5.498 -34.681  1.00  0.00    -0.354 OA
HETATM   18  C   UNL     1      -9.697   6.424 -33.827  1.00  0.00     0.210 C 
ENDBRANCH  11  17
ENDBRANCH   7  10
ENDBRANCH   5   6
ENDBRANCH   1   3
BRANCH   1  19
HETATM   19  N   UNL     1      -4.377   2.815 -30.673  1.00  0.00    -0.262 N 
HETATM   20  C   UNL     1      -3.662   2.392 -31.774  1.00  0.00     0.327 C 
HETATM   21  O   UNL     1      -3.322   3.100 -32.718  1.00  0.00    -0.261 OA
HETATM   22  H   UNL     1      -4.407   2.231 -29.828  1.00  0.00     0.190 HD
BRANCH  20  23
HETATM   23  C   UNL     1      -3.278   0.900 -31.748  1.00  0.00     0.311 C 
HETATM   24  N   UNL     1      -3.811   0.181 -32.793  1.00  0.00    -0.349 N 
HETATM   25  H   UNL     1      -4.327   0.696 -33.501  1.00  0.00     0.163 HD
HETATM   26  O   UNL     1      -2.563   0.446 -30.867  1.00  0.00    -0.262 OA
BRANCH  24  27
HETATM   27  C   UNL     1      -3.511  -1.213 -32.982  1.00  0.00     0.161 C 
BRANCH  27  28
HETATM   28  C   UNL     1      -4.664  -1.934 -33.626  1.00  0.00    -0.041 A 
HETATM   29  C   UNL     1      -5.943  -1.361 -33.655  1.00  0.00     0.009 A 
HETATM   30  C   UNL     1      -7.010  -2.042 -34.246  1.00  0.00     0.001 A 
HETATM   31  C   UNL     1      -6.812  -3.301 -34.806  1.00  0.00     0.000 A 
HETATM   32  C   UNL     1      -5.547  -3.885 -34.777  1.00  0.00     0.001 A 
HETATM   33  C   UNL     1      -4.479  -3.206 -34.190  1.00  0.00     0.009 A 
ENDBRANCH  27  28
ENDBRANCH  24  27
ENDBRANCH  20  23
ENDBRANCH   1  19
TORSDOF 8
ENDMDL
MODEL 9
REMARK VINA RESULT:      -7.8      1.616      2.322
REMARK  8 active torsions:
REMARK  status: ('A' for Active; 'I' for Inactive)
REMARK    1  A    between atoms: C_2  and  N_3 
REMARK    2  A    between atoms: N_3  and  N_4 
REMARK       I    between atoms: N_4  and  C_5 
REMARK    3  A    between atoms: C_5  and  C_6 
REMARK       I    between atoms: C_6  and  N_7 
REMARK    4  A    between atoms: N_7  and  C_8 
REMARK    5  A    between atoms: C_8  and  C_9 
REMARK    6  A    between atoms: C_17  and  C_18 
REMARK       I    between atoms: C_18  and  N_19 
REMARK    7  A    between atoms: N_19  and  C_20 
REMARK    8  A    between atoms: C_21  and  O_22 
ROOT
HETATM    1  N   UNL     1      -6.878   3.397 -30.471  1.00  0.00    -0.302 N 
HETATM    2  H   UNL     1      -6.031   3.277 -29.902  1.00  0.00     0.186 HD
ENDROOT
BRANCH   1   3
HETATM    3  C   UNL     1      -7.060   4.675 -30.970  1.00  0.00     0.027 C 
HETATM    4  C   UNL     1      -7.443   5.687 -29.906  1.00  0.00     0.070 C 
HETATM    5  C   UNL     1      -6.982   5.115 -32.243  1.00  0.00     0.100 C 
BRANCH   5   6
HETATM    6  C   UNL     1      -6.731   4.320 -33.478  1.00  0.00     0.247 C 
HETATM    7  N   UNL     1      -5.464   4.298 -33.991  1.00  0.00    -0.321 N 
HETATM    8  H   UNL     1      -5.449   4.027 -34.970  1.00  0.00     0.169 HD
HETATM    9  O   UNL     1      -7.639   3.798 -34.123  1.00  0.00    -0.268 OA
BRANCH   7  10
HETATM   10  C   UNL     1      -4.204   4.579 -33.434  1.00  0.00     0.070 A 
HETATM   11  C   UNL     1      -3.702   3.694 -32.465  1.00  0.00     0.095 A 
HETATM   12  C   UNL     1      -2.500   3.951 -31.804  1.00  0.00     0.041 A 
HETATM   13  C   UNL     1      -1.771   5.094 -32.124  1.00  0.00     0.026 A 
HETATM   14  C   UNL     1      -2.262   5.979 -33.082  1.00  0.00     0.036 A 
HETATM   15 CL   UNL     1      -1.373   7.406 -33.454  1.00  0.00    -0.084 Cl
HETATM   16  C   UNL     1      -3.477   5.734 -33.732  1.00  0.00     0.056 A 
BRANCH  11  17
HETATM   17  O   UNL     1      -4.379   2.551 -32.117  1.00  0.00    -0.354 OA
HETATM   18  C   UNL     1      -3.474   1.536 -31.671  1.00  0.00     0.210 C 
ENDBRANCH  11  17
ENDBRANCH   7  10
ENDBRANCH   5   6
ENDBRANCH   1   3
BRANCH   1  19
HETATM   19  N   UNL     1      -7.180   2.241 -31.196  1.00  0.00    -0.262 N 
HETATM   20  C   UNL     1      -8.514   1.914 -31.336  1.00  0.00     0.327 C 
HETATM   21  O   UNL     1      -9.442   2.425 -30.716  1.00  0.00    -0.261 OA
HETATM   22  H   UNL     1      -6.505   1.950 -31.914  1.00  0.00     0.190 HD
BRANCH  20  23
HETATM   23  C   UNL     1      -8.793   0.821 -32.385  1.00  0.00     0.311 C 
HETATM   24  N   UNL     1      -7.842   0.762 -33.378  1.00  0.00    -0.349 N 
HETATM   25  H   UNL     1      -7.033   1.371 -33.289  1.00  0.00     0.163 HD
HETATM   26  O   UNL     1      -9.774   0.098 -32.299  1.00  0.00    -0.262 OA
BRANCH  24  27
HETATM   27  C   UNL     1      -7.889  -0.237 -34.412  1.00  0.00     0.161 C 
BRANCH  27  28
HETATM   28  C   UNL     1      -6.694  -1.150 -34.340  1.00  0.00    -0.041 A 
HETATM   29  C   UNL     1      -6.776  -2.475 -34.788  1.00  0.00     0.009 A 
HETATM   30  C   UNL     1      -5.665  -3.318 -34.708  1.00  0.00     0.001 A 
HETATM   31  C   UNL     1      -4.467  -2.849 -34.174  1.00  0.00     0.000 A 
HETATM   32  C   UNL     1      -4.376  -1.535 -33.717  1.00  0.00     0.001 A 
HETATM   33  C   UNL     1      -5.484  -0.690 -33.799  1.00  0.00     0.009 A 
ENDBRANCH  27  28
ENDBRANCH  24  27
ENDBRANCH  20  23
ENDBRANCH   1  19
TORSDOF 8
ENDMDL
MODEL 10
REMARK VINA RESULT:      -7.8     16.076     18.309
REMARK  8 active torsions:
REMARK  status: ('A' for Active; 'I' for Inactive)
REMARK    1  A    between atoms: C_2  and  N_3 
REMARK    2  A    between atoms: N_3  and  N_4 
REMARK       I    between atoms: N_4  and  C_5 
REMARK    3  A    between atoms: C_5  and  C_6 
REMARK       I    between atoms: C_6  and  N_7 
REMARK    4  A    between atoms: N_7  and  C_8 
REMARK    5  A    between atoms: C_8  and  C_9 
REMARK    6  A    between atoms: C_17  and  C_18 
REMARK       I    between atoms: C_18  and  N_19 
REMARK    7  A    between atoms: N_19  and  C_20 
REMARK    8  A    between atoms: C_21  and  O_22 
ROOT
HETATM    1  N   UNL     1      -0.665 -13.882 -39.967  1.00  0.00    -0.302 N 
HETATM    2  H   UNL     1       0.198 -13.453 -40.324  1.00  0.00     0.186 HD
ENDROOT
BRANCH   1   3
HETATM    3  C   UNL     1      -0.707 -14.034 -38.592  1.00  0.00     0.027 C 
HETATM    4  C   UNL     1       0.177 -15.158 -38.085  1.00  0.00     0.070 C 
HETATM    5  C   UNL     1      -1.439 -13.361 -37.680  1.00  0.00     0.100 C 
BRANCH   5   6
HETATM    6  C   UNL     1      -2.453 -12.297 -37.917  1.00  0.00     0.247 C 
HETATM    7  N   UNL     1      -3.751 -12.544 -37.564  1.00  0.00    -0.321 N 
HETATM    8  H   UNL     1      -4.405 -11.934 -38.045  1.00  0.00     0.169 HD
HETATM    9  O   UNL     1      -2.196 -11.267 -38.539  1.00  0.00    -0.268 OA
BRANCH   7  10
HETATM   10  C   UNL     1      -4.340 -13.468 -36.682  1.00  0.00     0.070 A 
HETATM   11  C   UNL     1      -4.768 -14.699 -37.209  1.00  0.00     0.095 A 
HETATM   12  C   UNL     1      -5.438 -15.630 -36.417  1.00  0.00     0.041 A 
HETATM   13  C   UNL     1      -5.671 -15.348 -35.072  1.00  0.00     0.026 A 
HETATM   14  C   UNL     1      -5.253 -14.129 -34.542  1.00  0.00     0.036 A 
HETATM   15 CL   UNL     1      -5.569 -13.771 -32.888  1.00  0.00    -0.084 Cl
HETATM   16  C   UNL     1      -4.598 -13.185 -35.339  1.00  0.00     0.056 A 
BRANCH  11  17
HETATM   17  O   UNL     1      -4.558 -15.028 -38.526  1.00  0.00    -0.354 OA
HETATM   18  C   UNL     1      -3.711 -16.176 -38.637  1.00  0.00     0.210 C 
ENDBRANCH  11  17
ENDBRANCH   7  10
ENDBRANCH   5   6
ENDBRANCH   1   3
BRANCH   1  19
HETATM   19  N   UNL     1      -1.776 -13.518 -40.732  1.00  0.00    -0.262 N 
HETATM   20  C   UNL     1      -2.327 -14.485 -41.548  1.00  0.00     0.327 C 
HETATM   21  O   UNL     1      -1.812 -15.567 -41.817  1.00  0.00    -0.261 OA
HETATM   22  H   UNL     1      -2.368 -12.761 -40.366  1.00  0.00     0.190 HD
BRANCH  20  23
HETATM   23  C   UNL     1      -3.709 -14.121 -42.123  1.00  0.00     0.311 C 
HETATM   24  N   UNL     1      -4.593 -13.666 -41.172  1.00  0.00    -0.349 N 
HETATM   25  H   UNL     1      -4.241 -13.545 -40.225  1.00  0.00     0.163 HD
HETATM   26  O   UNL     1      -3.948 -14.237 -43.315  1.00  0.00    -0.262 OA
BRANCH  24  27
HETATM   27  C   UNL     1      -5.912 -13.211 -41.521  1.00  0.00     0.161 C 
BRANCH  27  28
HETATM   28  C   UNL     1      -6.856 -13.336 -40.356  1.00  0.00    -0.041 A 
HETATM   29  C   UNL     1      -6.851 -12.389 -39.323  1.00  0.00     0.009 A 
HETATM   30  C   UNL     1      -7.723 -12.519 -38.240  1.00  0.00     0.001 A 
HETATM   31  C   UNL     1      -8.602 -13.598 -38.175  1.00  0.00     0.000 A 
HETATM   32  C   UNL     1      -8.611 -14.551 -39.192  1.00  0.00     0.001 A 
HETATM   33  C   UNL     1      -7.742 -14.422 -40.276  1.00  0.00     0.009 A 
ENDBRANCH  27  28
ENDBRANCH  24  27
ENDBRANCH  20  23
ENDBRANCH   1  19
TORSDOF 8
ENDMDL
