MODEL 1
REMARK VINA RESULT:      -7.9      0.000      0.000
REMARK  10 active torsions:
REMARK  status: ('A' for Active; 'I' for Inactive)
REMARK    1  A    between atoms: O_2  and  C_3 
REMARK    2  A    between atoms: C_3  and  C_4 
REMARK    3  A    between atoms: C_11  and  N_12 
REMARK    4  A    between atoms: N_12  and  C_13 
REMARK    5  A    between atoms: C_13  and  N_14 
REMARK    6  A    between atoms: N_14  and  N_15 
REMARK       I    between atoms: N_15  and  C_16 
REMARK    7  A    between atoms: C_16  and  C_17 
REMARK    8  A    between atoms: C_17  and  S_18 
REMARK    9  A    between atoms: S_18  and  C_19 
REMARK   10  A    between atoms: C_19  and  C_20 
ROOT
HETATM    1  C   UNL     1      -8.612   1.174 -31.864  1.00  0.00     0.191 C 
HETATM    2  S   UNL     1      -9.951   0.562 -32.668  1.00  0.00    -0.039 SA
ENDROOT
BRANCH   1   3
HETATM    3  N   UNL     1      -8.332   2.503 -32.016  1.00  0.00    -0.332 N 
HETATM    4  H   UNL     1      -9.154   3.087 -31.891  1.00  0.00     0.168 HD
BRANCH   3   5
HETATM    5  C   UNL     1      -7.182   3.170 -32.494  1.00  0.00     0.035 A 
HETATM    6  C   UNL     1      -6.537   4.026 -31.590  1.00  0.00     0.049 A 
HETATM    7  C   UNL     1      -5.430   4.794 -32.015  1.00  0.00     0.020 A 
HETATM    8  S   UNL     1      -4.531   5.910 -31.072  1.00  0.00    -0.082 SA
HETATM    9  C   UNL     1      -4.941   4.721 -33.318  1.00  0.00     0.004 A 
HETATM   10  C   UNL     1      -3.508   6.345 -32.377  1.00  0.00     0.103 A 
HETATM   11  C   UNL     1      -3.824   5.614 -33.506  1.00  0.00     0.068 A 
HETATM   12 CL   UNL     1      -3.027   5.727 -35.028  1.00  0.00    -0.082 Cl
HETATM   13  C   UNL     1      -5.602   3.843 -34.212  1.00  0.00     0.017 A 
HETATM   14  C   UNL     1      -6.716   3.096 -33.801  1.00  0.00     0.030 A 
BRANCH  10  15
HETATM   15  C   UNL     1      -2.479   7.364 -32.229  1.00  0.00     0.301 C 
HETATM   16  O   UNL     1      -2.678   8.551 -31.999  1.00  0.00    -0.259 OA
BRANCH  15  17
HETATM   17  O   UNL     1      -1.225   6.831 -32.360  1.00  0.00    -0.322 OA
HETATM   18  C   UNL     1      -0.403   6.971 -31.201  1.00  0.00     0.213 C 
ENDBRANCH  15  17
ENDBRANCH  10  15
ENDBRANCH   3   5
ENDBRANCH   1   3
BRANCH   1  19
HETATM   19  N   UNL     1      -7.785   0.437 -31.065  1.00  0.00    -0.274 N 
HETATM   20  H   UNL     1      -8.187  -0.164 -30.345  1.00  0.00     0.189 HD
BRANCH  19  21
HETATM   21  N   UNL     1      -6.480   0.100 -31.458  1.00  0.00    -0.267 N 
HETATM   22  C   UNL     1      -5.463   0.416 -30.574  1.00  0.00     0.245 C 
HETATM   23  O   UNL     1      -5.671   0.708 -29.396  1.00  0.00    -0.271 OA
HETATM   24  H   UNL     1      -6.303   0.132 -32.461  1.00  0.00     0.190 HD
BRANCH  22  25
HETATM   25  C   UNL     1      -4.077   0.385 -31.187  1.00  0.00     0.178 C 
BRANCH  25  26
HETATM   26  S   UNL     1      -3.683  -1.324 -31.668  1.00  0.00    -0.155 SA
BRANCH  26  27
HETATM   27  C   UNL     1      -3.998  -1.191 -33.453  1.00  0.00     0.114 C 
BRANCH  27  28
HETATM   28  C   UNL     1      -4.733  -2.404 -33.973  1.00  0.00    -0.032 A 
HETATM   29  C   UNL     1      -5.981  -2.337 -34.616  1.00  0.00     0.018 A 
HETATM   30 BR   UNL     1      -6.903  -0.696 -34.885  1.00  0.00    -0.051 Br
HETATM   31  C   UNL     1      -6.600  -3.499 -35.094  1.00  0.00     0.019 A 
HETATM   32  C   UNL     1      -5.981  -4.739 -34.942  1.00  0.00     0.001 A 
HETATM   33  C   UNL     1      -4.741  -4.822 -34.317  1.00  0.00     0.001 A 
HETATM   34  C   UNL     1      -4.122  -3.666 -33.840  1.00  0.00     0.009 A 
ENDBRANCH  27  28
ENDBRANCH  26  27
ENDBRANCH  25  26
ENDBRANCH  22  25
ENDBRANCH  19  21
ENDBRANCH   1  19
TORSDOF 10
ENDMDL
MODEL 2
REMARK VINA RESULT:      -7.8      3.494      7.360
REMARK  10 active torsions:
REMARK  status: ('A' for Active; 'I' for Inactive)
REMARK    1  A    between atoms: O_2  and  C_3 
REMARK    2  A    between atoms: C_3  and  C_4 
REMARK    3  A    between atoms: C_11  and  N_12 
REMARK    4  A    between atoms: N_12  and  C_13 
REMARK    5  A    between atoms: C_13  and  N_14 
REMARK    6  A    between atoms: N_14  and  N_15 
REMARK       I    between atoms: N_15  and  C_16 
REMARK    7  A    between atoms: C_16  and  C_17 
REMARK    8  A    between atoms: C_17  and  S_18 
REMARK    9  A    between atoms: S_18  and  C_19 
REMARK   10  A    between atoms: C_19  and  C_20 
ROOT
HETATM    1  C   UNL     1      -2.755   4.548 -31.307  1.00  0.00     0.191 C 
HETATM    2  S   UNL     1      -1.566   4.954 -32.418  1.00  0.00    -0.039 SA
ENDROOT
BRANCH   1   3
HETATM    3  N   UNL     1      -3.085   3.228 -31.182  1.00  0.00    -0.332 N 
HETATM    4  H   UNL     1      -2.482   2.741 -30.526  1.00  0.00     0.168 HD
BRANCH   3   5
HETATM    5  C   UNL     1      -3.960   2.406 -31.927  1.00  0.00     0.035 A 
HETATM    6  C   UNL     1      -3.690   1.030 -31.909  1.00  0.00     0.049 A 
HETATM    7  C   UNL     1      -4.465   0.149 -32.695  1.00  0.00     0.020 A 
HETATM    8  S   UNL     1      -4.274  -1.550 -32.826  1.00  0.00    -0.082 SA
HETATM    9  C   UNL     1      -5.514   0.605 -33.492  1.00  0.00     0.004 A 
HETATM   10  C   UNL     1      -5.544  -1.708 -33.967  1.00  0.00     0.103 A 
HETATM   11  C   UNL     1      -6.133  -0.482 -34.209  1.00  0.00     0.068 A 
HETATM   12 CL   UNL     1      -7.457  -0.201 -35.273  1.00  0.00    -0.082 Cl
HETATM   13  C   UNL     1      -5.775   1.998 -33.488  1.00  0.00     0.017 A 
HETATM   14  C   UNL     1      -4.992   2.878 -32.727  1.00  0.00     0.030 A 
BRANCH  10  15
HETATM   15  C   UNL     1      -5.881  -2.996 -34.555  1.00  0.00     0.301 C 
HETATM   16  O   UNL     1      -7.014  -3.396 -34.795  1.00  0.00    -0.259 OA
BRANCH  15  17
HETATM   17  O   UNL     1      -4.758  -3.727 -34.836  1.00  0.00    -0.322 OA
HETATM   18  C   UNL     1      -4.789  -5.065 -34.339  1.00  0.00     0.213 C 
ENDBRANCH  15  17
ENDBRANCH  10  15
ENDBRANCH   3   5
ENDBRANCH   1   3
BRANCH   1  19
HETATM   19  N   UNL     1      -3.413   5.446 -30.515  1.00  0.00    -0.274 N 
HETATM   20  H   UNL     1      -3.193   6.440 -30.591  1.00  0.00     0.189 HD
BRANCH  19  21
HETATM   21  N   UNL     1      -4.666   5.159 -29.949  1.00  0.00    -0.267 N 
HETATM   22  C   UNL     1      -5.766   5.761 -30.535  1.00  0.00     0.245 C 
HETATM   23  O   UNL     1      -5.724   6.285 -31.649  1.00  0.00    -0.271 OA
HETATM   24  H   UNL     1      -4.662   4.985 -28.945  1.00  0.00     0.190 HD
BRANCH  22  25
HETATM   25  C   UNL     1      -7.017   5.729 -29.680  1.00  0.00     0.178 C 
BRANCH  25  26
HETATM   26  S   UNL     1      -7.767   4.076 -29.793  1.00  0.00    -0.155 SA
BRANCH  26  27
HETATM   27  C   UNL     1      -8.591   4.253 -31.404  1.00  0.00     0.114 C 
BRANCH  27  28
HETATM   28  C   UNL     1      -9.053   2.917 -31.935  1.00  0.00    -0.032 A 
HETATM   29  C   UNL     1      -9.889   2.775 -33.056  1.00  0.00     0.018 A 
HETATM   30 BR   UNL     1     -10.555   4.269 -34.026  1.00  0.00    -0.051 Br
HETATM   31  C   UNL     1     -10.264   1.505 -33.509  1.00  0.00     0.019 A 
HETATM   32  C   UNL     1      -9.808   0.361 -32.856  1.00  0.00     0.001 A 
HETATM   33  C   UNL     1      -8.972   0.482 -31.750  1.00  0.00     0.001 A 
HETATM   34  C   UNL     1      -8.596   1.747 -31.296  1.00  0.00     0.009 A 
ENDBRANCH  27  28
ENDBRANCH  26  27
ENDBRANCH  25  26
ENDBRANCH  22  25
ENDBRANCH  19  21
ENDBRANCH   1  19
TORSDOF 10
ENDMDL
MODEL 3
REMARK VINA RESULT:      -7.7      3.772      8.526
REMARK  10 active torsions:
REMARK  status: ('A' for Active; 'I' for Inactive)
REMARK    1  A    between atoms: O_2  and  C_3 
REMARK    2  A    between atoms: C_3  and  C_4 
REMARK    3  A    between atoms: C_11  and  N_12 
REMARK    4  A    between atoms: N_12  and  C_13 
REMARK    5  A    between atoms: C_13  and  N_14 
REMARK    6  A    between atoms: N_14  and  N_15 
REMARK       I    between atoms: N_15  and  C_16 
REMARK    7  A    between atoms: C_16  and  C_17 
REMARK    8  A    between atoms: C_17  and  S_18 
REMARK    9  A    between atoms: S_18  and  C_19 
REMARK   10  A    between atoms: C_19  and  C_20 
ROOT
HETATM    1  C   UNL     1      -5.241   4.735 -29.669  1.00  0.00     0.191 C 
HETATM    2  S   UNL     1      -6.447   5.470 -28.764  1.00  0.00    -0.039 SA
ENDROOT
BRANCH   1   3
HETATM    3  N   UNL     1      -5.270   3.373 -29.780  1.00  0.00    -0.332 N 
HETATM    4  H   UNL     1      -4.759   2.915 -29.032  1.00  0.00     0.168 HD
BRANCH   3   5
HETATM    5  C   UNL     1      -5.705   2.527 -30.824  1.00  0.00     0.035 A 
HETATM    6  C   UNL     1      -5.077   1.276 -30.915  1.00  0.00     0.049 A 
HETATM    7  C   UNL     1      -5.394   0.405 -31.981  1.00  0.00     0.020 A 
HETATM    8  S   UNL     1      -4.718  -1.144 -32.277  1.00  0.00    -0.082 SA
HETATM    9  C   UNL     1      -6.332   0.744 -32.954  1.00  0.00     0.004 A 
HETATM   10  C   UNL     1      -5.622  -1.375 -33.716  1.00  0.00     0.103 A 
HETATM   11  C   UNL     1      -6.460  -0.299 -33.941  1.00  0.00     0.068 A 
HETATM   12 CL   UNL     1      -7.551  -0.140 -35.263  1.00  0.00    -0.082 Cl
HETATM   13  C   UNL     1      -6.960   2.009 -32.837  1.00  0.00     0.017 A 
HETATM   14  C   UNL     1      -6.632   2.886 -31.794  1.00  0.00     0.030 A 
BRANCH  10  15
HETATM   15  C   UNL     1      -5.457  -2.569 -34.533  1.00  0.00     0.301 C 
HETATM   16  O   UNL     1      -4.397  -2.984 -34.984  1.00  0.00    -0.259 OA
BRANCH  15  17
HETATM   17  O   UNL     1      -6.652  -3.206 -34.733  1.00  0.00    -0.322 OA
HETATM   18  C   UNL     1      -6.533  -4.510 -35.305  1.00  0.00     0.213 C 
ENDBRANCH  15  17
ENDBRANCH  10  15
ENDBRANCH   3   5
ENDBRANCH   1   3
BRANCH   1  19
HETATM   19  N   UNL     1      -4.236   5.404 -30.308  1.00  0.00    -0.274 N 
HETATM   20  H   UNL     1      -3.310   5.446 -29.881  1.00  0.00     0.189 HD
BRANCH  19  21
HETATM   21  N   UNL     1      -4.262   5.636 -31.693  1.00  0.00    -0.267 N 
HETATM   22  C   UNL     1      -3.392   4.886 -32.465  1.00  0.00     0.245 C 
HETATM   23  O   UNL     1      -2.829   3.876 -32.044  1.00  0.00    -0.271 OA
HETATM   24  H   UNL     1      -4.489   6.590 -31.972  1.00  0.00     0.190 HD
BRANCH  22  25
HETATM   25  C   UNL     1      -3.186   5.427 -33.867  1.00  0.00     0.178 C 
BRANCH  25  26
HETATM   26  S   UNL     1      -1.414   5.760 -34.116  1.00  0.00    -0.155 SA
BRANCH  26  27
HETATM   27  C   UNL     1      -1.249   7.209 -33.030  1.00  0.00     0.114 C 
BRANCH  27  28
HETATM   28  C   UNL     1      -0.754   6.814 -31.659  1.00  0.00    -0.032 A 
HETATM   29  C   UNL     1      -1.141   7.469 -30.477  1.00  0.00     0.018 A 
HETATM   30 BR   UNL     1      -2.327   8.954 -30.476  1.00  0.00    -0.051 Br
HETATM   31  C   UNL     1      -0.660   7.039 -29.234  1.00  0.00     0.019 A 
HETATM   32  C   UNL     1       0.206   5.950 -29.153  1.00  0.00     0.001 A 
HETATM   33  C   UNL     1       0.593   5.285 -30.312  1.00  0.00     0.001 A 
HETATM   34  C   UNL     1       0.115   5.711 -31.552  1.00  0.00     0.009 A 
ENDBRANCH  27  28
ENDBRANCH  26  27
ENDBRANCH  25  26
ENDBRANCH  22  25
ENDBRANCH  19  21
ENDBRANCH   1  19
TORSDOF 10
ENDMDL
MODEL 4
REMARK VINA RESULT:      -7.7      3.717      8.509
REMARK  10 active torsions:
REMARK  status: ('A' for Active; 'I' for Inactive)
REMARK    1  A    between atoms: O_2  and  C_3 
REMARK    2  A    between atoms: C_3  and  C_4 
REMARK    3  A    between atoms: C_11  and  N_12 
REMARK    4  A    between atoms: N_12  and  C_13 
REMARK    5  A    between atoms: C_13  and  N_14 
REMARK    6  A    between atoms: N_14  and  N_15 
REMARK       I    between atoms: N_15  and  C_16 
REMARK    7  A    between atoms: C_16  and  C_17 
REMARK    8  A    between atoms: C_17  and  S_18 
REMARK    9  A    between atoms: S_18  and  C_19 
REMARK   10  A    between atoms: C_19  and  C_20 
ROOT
HETATM    1  C   UNL     1      -7.278   4.203 -29.445  1.00  0.00     0.191 C 
HETATM    2  S   UNL     1      -7.397   5.050 -30.888  1.00  0.00    -0.039 SA
ENDROOT
BRANCH   1   3
HETATM    3  N   UNL     1      -7.375   2.841 -29.497  1.00  0.00    -0.332 N 
HETATM    4  H   UNL     1      -7.997   2.472 -28.784  1.00  0.00     0.168 HD
BRANCH   3   5
HETATM    5  C   UNL     1      -6.635   1.876 -30.216  1.00  0.00     0.035 A 
HETATM    6  C   UNL     1      -7.250   1.342 -31.358  1.00  0.00     0.049 A 
HETATM    7  C   UNL     1      -6.614   0.311 -32.084  1.00  0.00     0.020 A 
HETATM    8  S   UNL     1      -7.214  -0.483 -33.481  1.00  0.00    -0.082 SA
HETATM    9  C   UNL     1      -5.370  -0.193 -31.708  1.00  0.00     0.004 A 
HETATM   10  C   UNL     1      -5.863  -1.533 -33.589  1.00  0.00     0.103 A 
HETATM   11  C   UNL     1      -4.947  -1.249 -32.594  1.00  0.00     0.068 A 
HETATM   12 CL   UNL     1      -3.443  -2.054 -32.358  1.00  0.00    -0.082 Cl
HETATM   13  C   UNL     1      -4.763   0.367 -30.557  1.00  0.00     0.017 A 
HETATM   14  C   UNL     1      -5.402   1.374 -29.819  1.00  0.00     0.030 A 
BRANCH  10  15
HETATM   15  C   UNL     1      -5.781  -2.562 -34.615  1.00  0.00     0.301 C 
HETATM   16  O   UNL     1      -4.825  -2.754 -35.357  1.00  0.00    -0.259 OA
BRANCH  15  17
HETATM   17  O   UNL     1      -6.915  -3.326 -34.650  1.00  0.00    -0.322 OA
HETATM   18  C   UNL     1      -6.755  -4.587 -35.302  1.00  0.00     0.213 C 
ENDBRANCH  15  17
ENDBRANCH  10  15
ENDBRANCH   3   5
ENDBRANCH   1   3
BRANCH   1  19
HETATM   19  N   UNL     1      -7.086   4.781 -28.222  1.00  0.00    -0.274 N 
HETATM   20  H   UNL     1      -7.792   4.664 -27.494  1.00  0.00     0.189 HD
BRANCH  19  21
HETATM   21  N   UNL     1      -5.807   5.128 -27.757  1.00  0.00    -0.267 N 
HETATM   22  C   UNL     1      -5.583   6.469 -27.498  1.00  0.00     0.245 C 
HETATM   23  O   UNL     1      -6.495   7.289 -27.391  1.00  0.00    -0.271 OA
HETATM   24  H   UNL     1      -5.044   4.547 -28.103  1.00  0.00     0.190 HD
BRANCH  22  25
HETATM   25  C   UNL     1      -4.118   6.838 -27.370  1.00  0.00     0.178 C 
BRANCH  25  26
HETATM   26  S   UNL     1      -3.669   7.953 -28.736  1.00  0.00    -0.155 SA
BRANCH  26  27
HETATM   27  C   UNL     1      -3.552   6.724 -30.071  1.00  0.00     0.114 C 
BRANCH  27  28
HETATM   28  C   UNL     1      -2.114   6.443 -30.435  1.00  0.00    -0.032 A 
HETATM   29  C   UNL     1      -1.714   5.353 -31.227  1.00  0.00     0.018 A 
HETATM   30 BR   UNL     1      -2.951   4.085 -31.917  1.00  0.00    -0.051 Br
HETATM   31  C   UNL     1      -0.364   5.160 -31.545  1.00  0.00     0.019 A 
HETATM   32  C   UNL     1       0.602   6.053 -31.084  1.00  0.00     0.001 A 
HETATM   33  C   UNL     1       0.223   7.143 -30.307  1.00  0.00     0.001 A 
HETATM   34  C   UNL     1      -1.122   7.338 -29.988  1.00  0.00     0.009 A 
ENDBRANCH  27  28
ENDBRANCH  26  27
ENDBRANCH  25  26
ENDBRANCH  22  25
ENDBRANCH  19  21
ENDBRANCH   1  19
TORSDOF 10
ENDMDL
MODEL 5
REMARK VINA RESULT:      -7.5      4.271      7.396
REMARK  10 active torsions:
REMARK  status: ('A' for Active; 'I' for Inactive)
REMARK    1  A    between atoms: O_2  and  C_3 
REMARK    2  A    between atoms: C_3  and  C_4 
REMARK    3  A    between atoms: C_11  and  N_12 
REMARK    4  A    between atoms: N_12  and  C_13 
REMARK    5  A    between atoms: C_13  and  N_14 
REMARK    6  A    between atoms: N_14  and  N_15 
REMARK       I    between atoms: N_15  and  C_16 
REMARK    7  A    between atoms: C_16  and  C_17 
REMARK    8  A    between atoms: C_17  and  S_18 
REMARK    9  A    between atoms: S_18  and  C_19 
REMARK   10  A    between atoms: C_19  and  C_20 
ROOT
HETATM    1  C   UNL     1     -12.669   1.418 -33.697  1.00  0.00     0.191 C 
HETATM    2  S   UNL     1     -13.409  -0.087 -33.705  1.00  0.00    -0.039 SA
ENDROOT
BRANCH   1   3
HETATM    3  N   UNL     1     -11.389   1.499 -34.170  1.00  0.00    -0.332 N 
HETATM    4  H   UNL     1     -11.357   1.753 -35.153  1.00  0.00     0.168 HD
BRANCH   3   5
HETATM    5  C   UNL     1     -10.154   1.113 -33.603  1.00  0.00     0.035 A 
HETATM    6  C   UNL     1      -9.177   0.646 -34.494  1.00  0.00     0.049 A 
HETATM    7  C   UNL     1      -7.946   0.161 -34.000  1.00  0.00     0.020 A 
HETATM    8  S   UNL     1      -6.646  -0.473 -34.923  1.00  0.00    -0.082 SA
HETATM    9  C   UNL     1      -7.658   0.141 -32.636  1.00  0.00     0.004 A 
HETATM   10  C   UNL     1      -5.699  -0.821 -33.537  1.00  0.00     0.103 A 
HETATM   11  C   UNL     1      -6.352  -0.417 -32.388  1.00  0.00     0.068 A 
HETATM   12 CL   UNL     1      -5.741  -0.564 -30.785  1.00  0.00    -0.082 Cl
HETATM   13  C   UNL     1      -8.656   0.626 -31.755  1.00  0.00     0.017 A 
HETATM   14  C   UNL     1      -9.888   1.087 -32.239  1.00  0.00     0.030 A 
BRANCH  10  15
HETATM   15  C   UNL     1      -4.398  -1.464 -33.649  1.00  0.00     0.301 C 
HETATM   16  O   UNL     1      -3.393  -1.154 -33.021  1.00  0.00    -0.259 OA
BRANCH  15  17
HETATM   17  O   UNL     1      -4.426  -2.497 -34.546  1.00  0.00    -0.322 OA
HETATM   18  C   UNL     1      -4.083  -3.768 -33.990  1.00  0.00     0.213 C 
ENDBRANCH  15  17
ENDBRANCH  10  15
ENDBRANCH   3   5
ENDBRANCH   1   3
BRANCH   1  19
HETATM   19  N   UNL     1     -13.258   2.568 -33.255  1.00  0.00    -0.274 N 
HETATM   20  H   UNL     1     -14.172   2.837 -33.621  1.00  0.00     0.189 HD
BRANCH  19  21
HETATM   21  N   UNL     1     -12.918   3.151 -32.023  1.00  0.00    -0.267 N 
HETATM   22  C   UNL     1     -11.947   4.137 -32.050  1.00  0.00     0.245 C 
HETATM   23  O   UNL     1     -11.592   4.695 -33.088  1.00  0.00    -0.271 OA
HETATM   24  H   UNL     1     -12.990   2.536 -31.214  1.00  0.00     0.190 HD
BRANCH  22  25
HETATM   25  C   UNL     1     -11.354   4.458 -30.692  1.00  0.00     0.178 C 
BRANCH  25  26
HETATM   26  S   UNL     1      -9.922   5.558 -30.918  1.00  0.00    -0.155 SA
BRANCH  26  27
HETATM   27  C   UNL     1      -8.603   4.394 -30.462  1.00  0.00     0.114 C 
BRANCH  27  28
HETATM   28  C   UNL     1      -7.725   4.066 -31.646  1.00  0.00    -0.032 A 
HETATM   29  C   UNL     1      -6.442   3.506 -31.529  1.00  0.00     0.018 A 
HETATM   30 BR   UNL     1      -5.650   3.116 -29.845  1.00  0.00    -0.051 Br
HETATM   31  C   UNL     1      -5.688   3.205 -32.669  1.00  0.00     0.019 A 
HETATM   32  C   UNL     1      -6.204   3.454 -33.940  1.00  0.00     0.001 A 
HETATM   33  C   UNL     1      -7.477   3.999 -34.075  1.00  0.00     0.001 A 
HETATM   34  C   UNL     1      -8.231   4.299 -32.940  1.00  0.00     0.009 A 
ENDBRANCH  27  28
ENDBRANCH  26  27
ENDBRANCH  25  26
ENDBRANCH  22  25
ENDBRANCH  19  21
ENDBRANCH   1  19
TORSDOF 10
ENDMDL
MODEL 6
REMARK VINA RESULT:      -7.5      3.787      8.559
REMARK  10 active torsions:
REMARK  status: ('A' for Active; 'I' for Inactive)
REMARK    1  A    between atoms: O_2  and  C_3 
REMARK    2  A    between atoms: C_3  and  C_4 
REMARK    3  A    between atoms: C_11  and  N_12 
REMARK    4  A    between atoms: N_12  and  C_13 
REMARK    5  A    between atoms: C_13  and  N_14 
REMARK    6  A    between atoms: N_14  and  N_15 
REMARK       I    between atoms: N_15  and  C_16 
REMARK    7  A    between atoms: C_16  and  C_17 
REMARK    8  A    between atoms: C_17  and  S_18 
REMARK    9  A    between atoms: S_18  and  C_19 
REMARK   10  A    between atoms: C_19  and  C_20 
ROOT
HETATM    1  C   UNL     1      -7.128   4.648 -31.896  1.00  0.00     0.191 C 
HETATM    2  S   UNL     1      -8.688   4.548 -31.288  1.00  0.00    -0.039 SA
ENDROOT
BRANCH   1   3
HETATM    3  N   UNL     1      -6.149   3.941 -31.257  1.00  0.00    -0.332 N 
HETATM    4  H   UNL     1      -5.676   4.492 -30.547  1.00  0.00     0.168 HD
BRANCH   3   5
HETATM    5  C   UNL     1      -5.568   2.684 -31.536  1.00  0.00     0.035 A 
HETATM    6  C   UNL     1      -6.103   1.976 -32.622  1.00  0.00     0.049 A 
HETATM    7  C   UNL     1      -5.635   0.676 -32.916  1.00  0.00     0.020 A 
HETATM    8  S   UNL     1      -6.179  -0.351 -34.177  1.00  0.00    -0.082 SA
HETATM    9  C   UNL     1      -4.636   0.066 -32.159  1.00  0.00     0.004 A 
HETATM   10  C   UNL     1      -5.136  -1.633 -33.722  1.00  0.00     0.103 A 
HETATM   11  C   UNL     1      -4.352  -1.261 -32.646  1.00  0.00     0.068 A 
HETATM   12 CL   UNL     1      -3.158  -2.245 -31.891  1.00  0.00    -0.082 Cl
HETATM   13  C   UNL     1      -4.104   0.802 -31.072  1.00  0.00     0.017 A 
HETATM   14  C   UNL     1      -4.581   2.084 -30.763  1.00  0.00     0.030 A 
BRANCH  10  15
HETATM   15  C   UNL     1      -5.148  -2.907 -34.423  1.00  0.00     0.301 C 
HETATM   16  O   UNL     1      -4.160  -3.512 -34.821  1.00  0.00    -0.259 OA
BRANCH  15  17
HETATM   17  O   UNL     1      -6.423  -3.381 -34.580  1.00  0.00    -0.322 OA
HETATM   18  C   UNL     1      -6.524  -4.530 -35.421  1.00  0.00     0.213 C 
ENDBRANCH  15  17
ENDBRANCH  10  15
ENDBRANCH   3   5
ENDBRANCH   1   3
BRANCH   1  19
HETATM   19  N   UNL     1      -6.770   5.385 -32.990  1.00  0.00    -0.274 N 
HETATM   20  H   UNL     1      -7.489   5.874 -33.523  1.00  0.00     0.189 HD
BRANCH  19  21
HETATM   21  N   UNL     1      -5.467   5.882 -33.156  1.00  0.00    -0.267 N 
HETATM   22  C   UNL     1      -4.686   5.268 -34.120  1.00  0.00     0.245 C 
HETATM   23  O   UNL     1      -5.155   4.531 -34.988  1.00  0.00    -0.271 OA
HETATM   24  H   UNL     1      -5.030   6.251 -32.313  1.00  0.00     0.190 HD
BRANCH  22  25
HETATM   25  C   UNL     1      -3.206   5.572 -34.003  1.00  0.00     0.178 C 
BRANCH  25  26
HETATM   26  S   UNL     1      -2.556   4.776 -32.502  1.00  0.00    -0.155 SA
BRANCH  26  27
HETATM   27  C   UNL     1      -0.877   5.472 -32.522  1.00  0.00     0.114 C 
BRANCH  27  28
HETATM   28  C   UNL     1      -0.466   5.954 -31.151  1.00  0.00    -0.032 A 
HETATM   29  C   UNL     1      -0.852   7.196 -30.618  1.00  0.00     0.018 A 
HETATM   30 BR   UNL     1      -1.930   8.429 -31.584  1.00  0.00    -0.051 Br
HETATM   31  C   UNL     1      -0.454   7.575 -29.331  1.00  0.00     0.019 A 
HETATM   32  C   UNL     1       0.330   6.720 -28.557  1.00  0.00     0.001 A 
HETATM   33  C   UNL     1       0.714   5.483 -29.065  1.00  0.00     0.001 A 
HETATM   34  C   UNL     1       0.318   5.103 -30.348  1.00  0.00     0.009 A 
ENDBRANCH  27  28
ENDBRANCH  26  27
ENDBRANCH  25  26
ENDBRANCH  22  25
ENDBRANCH  19  21
ENDBRANCH   1  19
TORSDOF 10
ENDMDL
MODEL 7
REMARK VINA RESULT:      -7.5      4.067      6.531
REMARK  10 active torsions:
REMARK  status: ('A' for Active; 'I' for Inactive)
REMARK    1  A    between atoms: O_2  and  C_3 
REMARK    2  A    between atoms: C_3  and  C_4 
REMARK    3  A    between atoms: C_11  and  N_12 
REMARK    4  A    between atoms: N_12  and  C_13 
REMARK    5  A    between atoms: C_13  and  N_14 
REMARK    6  A    between atoms: N_14  and  N_15 
REMARK       I    between atoms: N_15  and  C_16 
REMARK    7  A    between atoms: C_16  and  C_17 
REMARK    8  A    between atoms: C_17  and  S_18 
REMARK    9  A    between atoms: S_18  and  C_19 
REMARK   10  A    between atoms: C_19  and  C_20 
ROOT
HETATM    1  C   UNL     1      -5.616   5.019 -30.848  1.00  0.00     0.191 C 
HETATM    2  S   UNL     1      -5.250   6.253 -31.924  1.00  0.00    -0.039 SA
ENDROOT
BRANCH   1   3
HETATM    3  N   UNL     1      -6.934   4.728 -30.638  1.00  0.00    -0.332 N 
HETATM    4  H   UNL     1      -7.287   5.138 -29.778  1.00  0.00     0.168 HD
BRANCH   3   5
HETATM    5  C   UNL     1      -7.809   3.826 -31.284  1.00  0.00     0.035 A 
HETATM    6  C   UNL     1      -8.680   4.376 -32.236  1.00  0.00     0.049 A 
HETATM    7  C   UNL     1      -9.644   3.556 -32.865  1.00  0.00     0.020 A 
HETATM    8  S   UNL     1     -10.807   4.045 -34.027  1.00  0.00    -0.082 SA
HETATM    9  C   UNL     1      -9.752   2.197 -32.578  1.00  0.00     0.004 A 
HETATM   10  C   UNL     1     -11.500   2.482 -34.141  1.00  0.00     0.103 A 
HETATM   11  C   UNL     1     -10.821   1.590 -33.332  1.00  0.00     0.068 A 
HETATM   12 CL   UNL     1     -11.180  -0.086 -33.169  1.00  0.00    -0.082 Cl
HETATM   13  C   UNL     1      -8.856   1.661 -31.620  1.00  0.00     0.017 A 
HETATM   14  C   UNL     1      -7.914   2.476 -30.976  1.00  0.00     0.030 A 
BRANCH  10  15
HETATM   15  C   UNL     1     -12.652   2.222 -34.991  1.00  0.00     0.301 C 
HETATM   16  O   UNL     1     -12.652   2.239 -36.217  1.00  0.00    -0.259 OA
BRANCH  15  17
HETATM   17  O   UNL     1     -13.765   1.929 -34.251  1.00  0.00    -0.322 OA
HETATM   18  C   UNL     1     -13.989   2.813 -33.152  1.00  0.00     0.213 C 
ENDBRANCH  15  17
ENDBRANCH  10  15
ENDBRANCH   3   5
ENDBRANCH   1   3
BRANCH   1  19
HETATM   19  N   UNL     1      -4.686   4.282 -30.172  1.00  0.00    -0.274 N 
HETATM   20  H   UNL     1      -4.443   4.536 -29.213  1.00  0.00     0.189 HD
BRANCH  19  21
HETATM   21  N   UNL     1      -4.387   2.957 -30.527  1.00  0.00    -0.267 N 
HETATM   22  C   UNL     1      -3.312   2.769 -31.379  1.00  0.00     0.245 C 
HETATM   23  O   UNL     1      -2.475   3.645 -31.599  1.00  0.00    -0.271 OA
HETATM   24  H   UNL     1      -5.187   2.327 -30.579  1.00  0.00     0.190 HD
BRANCH  22  25
HETATM   25  C   UNL     1      -3.265   1.398 -32.023  1.00  0.00     0.178 C 
BRANCH  25  26
HETATM   26  S   UNL     1      -4.153   0.216 -30.962  1.00  0.00    -0.155 SA
BRANCH  26  27
HETATM   27  C   UNL     1      -3.948  -1.278 -31.977  1.00  0.00     0.114 C 
BRANCH  27  28
HETATM   28  C   UNL     1      -5.042  -1.395 -33.011  1.00  0.00    -0.032 A 
HETATM   29  C   UNL     1      -5.135  -2.458 -33.925  1.00  0.00     0.018 A 
HETATM   30 BR   UNL     1      -3.864  -3.871 -33.977  1.00  0.00    -0.051 Br
HETATM   31  C   UNL     1      -6.188  -2.517 -34.845  1.00  0.00     0.019 A 
HETATM   32  C   UNL     1      -7.164  -1.523 -34.862  1.00  0.00     0.001 A 
HETATM   33  C   UNL     1      -7.094  -0.467 -33.958  1.00  0.00     0.001 A 
HETATM   34  C   UNL     1      -6.045  -0.406 -33.039  1.00  0.00     0.009 A 
ENDBRANCH  27  28
ENDBRANCH  26  27
ENDBRANCH  25  26
ENDBRANCH  22  25
ENDBRANCH  19  21
ENDBRANCH   1  19
TORSDOF 10
ENDMDL
MODEL 8
REMARK VINA RESULT:      -7.5      1.820      2.216
REMARK  10 active torsions:
REMARK  status: ('A' for Active; 'I' for Inactive)
REMARK    1  A    between atoms: O_2  and  C_3 
REMARK    2  A    between atoms: C_3  and  C_4 
REMARK    3  A    between atoms: C_11  and  N_12 
REMARK    4  A    between atoms: N_12  and  C_13 
REMARK    5  A    between atoms: C_13  and  N_14 
REMARK    6  A    between atoms: N_14  and  N_15 
REMARK       I    between atoms: N_15  and  C_16 
REMARK    7  A    between atoms: C_16  and  C_17 
REMARK    8  A    between atoms: C_17  and  S_18 
REMARK    9  A    between atoms: S_18  and  C_19 
REMARK   10  A    between atoms: C_19  and  C_20 
ROOT
HETATM    1  C   UNL     1      -9.508   2.419 -32.598  1.00  0.00     0.191 C 
HETATM    2  S   UNL     1     -10.888   2.014 -33.461  1.00  0.00    -0.039 SA
ENDROOT
BRANCH   1   3
HETATM    3  N   UNL     1      -8.661   3.339 -33.149  1.00  0.00    -0.332 N 
HETATM    4  H   UNL     1      -8.794   3.434 -34.151  1.00  0.00     0.168 HD
BRANCH   3   5
HETATM    5  C   UNL     1      -7.537   4.013 -32.619  1.00  0.00     0.035 A 
HETATM    6  C   UNL     1      -6.284   3.609 -33.102  1.00  0.00     0.049 A 
HETATM    7  C   UNL     1      -5.107   4.174 -32.563  1.00  0.00     0.020 A 
HETATM    8  S   UNL     1      -3.492   3.794 -32.999  1.00  0.00    -0.082 SA
HETATM    9  C   UNL     1      -5.148   5.142 -31.561  1.00  0.00     0.004 A 
HETATM   10  C   UNL     1      -2.819   4.869 -31.846  1.00  0.00     0.103 A 
HETATM   11  C   UNL     1      -3.819   5.541 -31.168  1.00  0.00     0.068 A 
HETATM   12 CL   UNL     1      -3.575   6.726 -29.943  1.00  0.00    -0.082 Cl
HETATM   13  C   UNL     1      -6.424   5.541 -31.095  1.00  0.00     0.017 A 
HETATM   14  C   UNL     1      -7.595   4.967 -31.611  1.00  0.00     0.030 A 
BRANCH  10  15
HETATM   15  C   UNL     1      -1.380   4.988 -31.668  1.00  0.00     0.301 C 
HETATM   16  O   UNL     1      -0.742   4.560 -30.713  1.00  0.00    -0.259 OA
BRANCH  15  17
HETATM   17  O   UNL     1      -0.796   5.634 -32.723  1.00  0.00    -0.322 OA
HETATM   18  C   UNL     1      -1.328   6.933 -32.985  1.00  0.00     0.213 C 
ENDBRANCH  15  17
ENDBRANCH  10  15
ENDBRANCH   3   5
ENDBRANCH   1   3
BRANCH   1  19
HETATM   19  N   UNL     1      -9.175   1.896 -31.380  1.00  0.00    -0.274 N 
HETATM   20  H   UNL     1      -9.720   2.154 -30.557  1.00  0.00     0.189 HD
BRANCH  19  21
HETATM   21  N   UNL     1      -8.447   0.702 -31.259  1.00  0.00    -0.267 N 
HETATM   22  C   UNL     1      -7.149   0.811 -30.791  1.00  0.00     0.245 C 
HETATM   23  O   UNL     1      -6.723   1.824 -30.237  1.00  0.00    -0.271 OA
HETATM   24  H   UNL     1      -8.679  -0.023 -31.937  1.00  0.00     0.190 HD
BRANCH  22  25
HETATM   25  C   UNL     1      -6.298  -0.421 -31.034  1.00  0.00     0.178 C 
BRANCH  25  26
HETATM   26  S   UNL     1      -4.607   0.104 -31.453  1.00  0.00    -0.155 SA
BRANCH  26  27
HETATM   27  C   UNL     1      -4.773   0.157 -33.263  1.00  0.00     0.114 C 
BRANCH  27  28
HETATM   28  C   UNL     1      -5.175  -1.189 -33.818  1.00  0.00    -0.032 A 
HETATM   29  C   UNL     1      -6.365  -1.409 -34.531  1.00  0.00     0.018 A 
HETATM   30 BR   UNL     1      -7.628  -0.026 -34.860  1.00  0.00    -0.051 Br
HETATM   31  C   UNL     1      -6.669  -2.679 -35.037  1.00  0.00     0.019 A 
HETATM   32  C   UNL     1      -5.788  -3.741 -34.845  1.00  0.00     0.001 A 
HETATM   33  C   UNL     1      -4.600  -3.539 -34.149  1.00  0.00     0.001 A 
HETATM   34  C   UNL     1      -4.295  -2.275 -33.643  1.00  0.00     0.009 A 
ENDBRANCH  27  28
ENDBRANCH  26  27
ENDBRANCH  25  26
ENDBRANCH  22  25
ENDBRANCH  19  21
ENDBRANCH   1  19
TORSDOF 10
ENDMDL
MODEL 9
REMARK VINA RESULT:      -7.5      4.577      6.368
REMARK  10 active torsions:
REMARK  status: ('A' for Active; 'I' for Inactive)
REMARK    1  A    between atoms: O_2  and  C_3 
REMARK    2  A    between atoms: C_3  and  C_4 
REMARK    3  A    between atoms: C_11  and  N_12 
REMARK    4  A    between atoms: N_12  and  C_13 
REMARK    5  A    between atoms: C_13  and  N_14 
REMARK    6  A    between atoms: N_14  and  N_15 
REMARK       I    between atoms: N_15  and  C_16 
REMARK    7  A    between atoms: C_16  and  C_17 
REMARK    8  A    between atoms: C_17  and  S_18 
REMARK    9  A    between atoms: S_18  and  C_19 
REMARK   10  A    between atoms: C_19  and  C_20 
ROOT
HETATM    1  C   UNL     1      -1.857   5.440 -32.642  1.00  0.00     0.191 C 
HETATM    2  S   UNL     1      -2.205   5.263 -34.273  1.00  0.00    -0.039 SA
ENDROOT
BRANCH   1   3
HETATM    3  N   UNL     1      -1.549   6.693 -32.190  1.00  0.00    -0.332 N 
HETATM    4  H   UNL     1      -1.619   7.394 -32.921  1.00  0.00     0.168 HD
BRANCH   3   5
HETATM    5  C   UNL     1      -0.980   7.138 -30.976  1.00  0.00     0.035 A 
HETATM    6  C   UNL     1      -1.743   8.044 -30.224  1.00  0.00     0.049 A 
HETATM    7  C   UNL     1      -1.210   8.601 -29.041  1.00  0.00     0.020 A 
HETATM    8  S   UNL     1      -1.972   9.738 -28.007  1.00  0.00    -0.082 SA
HETATM    9  C   UNL     1       0.062   8.267 -28.579  1.00  0.00     0.004 A 
HETATM   10  C   UNL     1      -0.622   9.840 -26.956  1.00  0.00     0.103 A 
HETATM   11  C   UNL     1       0.381   8.982 -27.368  1.00  0.00     0.068 A 
HETATM   12 CL   UNL     1       1.896   8.762 -26.581  1.00  0.00    -0.082 Cl
HETATM   13  C   UNL     1       0.811   7.343 -29.349  1.00  0.00     0.017 A 
HETATM   14  C   UNL     1       0.295   6.805 -30.537  1.00  0.00     0.030 A 
BRANCH  10  15
HETATM   15  C   UNL     1      -0.615  10.742 -25.814  1.00  0.00     0.301 C 
HETATM   16  O   UNL     1       0.246  11.580 -25.571  1.00  0.00    -0.259 OA
BRANCH  15  17
HETATM   17  O   UNL     1      -1.718  10.559 -25.025  1.00  0.00    -0.322 OA
HETATM   18  C   UNL     1      -1.649   9.413 -24.175  1.00  0.00     0.213 C 
ENDBRANCH  15  17
ENDBRANCH  10  15
ENDBRANCH   3   5
ENDBRANCH   1   3
BRANCH   1  19
HETATM   19  N   UNL     1      -1.865   4.420 -31.733  1.00  0.00    -0.274 N 
HETATM   20  H   UNL     1      -1.008   4.190 -31.229  1.00  0.00     0.189 HD
BRANCH  19  21
HETATM   21  N   UNL     1      -3.050   3.981 -31.120  1.00  0.00    -0.267 N 
HETATM   22  C   UNL     1      -3.643   2.850 -31.655  1.00  0.00     0.245 C 
HETATM   23  O   UNL     1      -3.056   2.090 -32.424  1.00  0.00    -0.271 OA
HETATM   24  H   UNL     1      -3.633   4.714 -30.720  1.00  0.00     0.190 HD
BRANCH  22  25
HETATM   25  C   UNL     1      -5.081   2.642 -31.220  1.00  0.00     0.178 C 
BRANCH  25  26
HETATM   26  S   UNL     1      -5.976   1.768 -32.542  1.00  0.00    -0.155 SA
BRANCH  26  27
HETATM   27  C   UNL     1      -5.977   0.099 -31.820  1.00  0.00     0.114 C 
BRANCH  27  28
HETATM   28  C   UNL     1      -5.777  -0.958 -32.879  1.00  0.00    -0.032 A 
HETATM   29  C   UNL     1      -4.571  -1.656 -33.059  1.00  0.00     0.018 A 
HETATM   30 BR   UNL     1      -3.034  -1.329 -31.989  1.00  0.00    -0.051 Br
HETATM   31  C   UNL     1      -4.458  -2.641 -34.048  1.00  0.00     0.019 A 
HETATM   32  C   UNL     1      -5.545  -2.945 -34.865  1.00  0.00     0.001 A 
HETATM   33  C   UNL     1      -6.749  -2.270 -34.696  1.00  0.00     0.001 A 
HETATM   34  C   UNL     1      -6.865  -1.288 -33.711  1.00  0.00     0.009 A 
ENDBRANCH  27  28
ENDBRANCH  26  27
ENDBRANCH  25  26
ENDBRANCH  22  25
ENDBRANCH  19  21
ENDBRANCH   1  19
TORSDOF 10
ENDMDL
MODEL 10
REMARK VINA RESULT:      -7.4      2.646      3.214
REMARK  10 active torsions:
REMARK  status: ('A' for Active; 'I' for Inactive)
REMARK    1  A    between atoms: O_2  and  C_3 
REMARK    2  A    between atoms: C_3  and  C_4 
REMARK    3  A    between atoms: C_11  and  N_12 
REMARK    4  A    between atoms: N_12  and  C_13 
REMARK    5  A    between atoms: C_13  and  N_14 
REMARK    6  A    between atoms: N_14  and  N_15 
REMARK       I    between atoms: N_15  and  C_16 
REMARK    7  A    between atoms: C_16  and  C_17 
REMARK    8  A    between atoms: C_17  and  S_18 
REMARK    9  A    between atoms: S_18  and  C_19 
REMARK   10  A    between atoms: C_19  and  C_20 
ROOT
HETATM    1  C   UNL     1      -9.613   3.298 -30.826  1.00  0.00     0.191 C 
HETATM    2  S   UNL     1     -10.655   4.301 -31.675  1.00  0.00    -0.039 SA
ENDROOT
BRANCH   1   3
HETATM    3  N   UNL     1      -8.708   3.884 -29.986  1.00  0.00    -0.332 N 
HETATM    4  H   UNL     1      -9.061   3.970 -29.038  1.00  0.00     0.168 HD
BRANCH   3   5
HETATM    5  C   UNL     1      -7.487   4.549 -30.241  1.00  0.00     0.035 A 
HETATM    6  C   UNL     1      -6.458   3.773 -30.794  1.00  0.00     0.049 A 
HETATM    7  C   UNL     1      -5.181   4.339 -31.001  1.00  0.00     0.020 A 
HETATM    8  S   UNL     1      -3.797   3.550 -31.636  1.00  0.00    -0.082 SA
HETATM    9  C   UNL     1      -4.906   5.668 -30.682  1.00  0.00     0.004 A 
HETATM   10  C   UNL     1      -2.802   4.935 -31.462  1.00  0.00     0.103 A 
HETATM   11  C   UNL     1      -3.532   5.998 -30.965  1.00  0.00     0.068 A 
HETATM   12 CL   UNL     1      -2.919   7.578 -30.662  1.00  0.00    -0.082 Cl
HETATM   13  C   UNL     1      -5.963   6.436 -30.133  1.00  0.00     0.017 A 
HETATM   14  C   UNL     1      -7.226   5.871 -29.904  1.00  0.00     0.030 A 
BRANCH  10  15
HETATM   15  C   UNL     1      -1.388   4.902 -31.807  1.00  0.00     0.301 C 
HETATM   16  O   UNL     1      -0.902   5.294 -32.862  1.00  0.00    -0.259 OA
BRANCH  15  17
HETATM   17  O   UNL     1      -0.636   4.387 -30.787  1.00  0.00    -0.322 OA
HETATM   18  C   UNL     1       0.229   5.333 -30.158  1.00  0.00     0.213 C 
ENDBRANCH  15  17
ENDBRANCH  10  15
ENDBRANCH   3   5
ENDBRANCH   1   3
BRANCH   1  19
HETATM   19  N   UNL     1      -9.610   1.934 -30.912  1.00  0.00    -0.274 N 
HETATM   20  H   UNL     1     -10.460   1.415 -30.689  1.00  0.00     0.189 HD
BRANCH  19  21
HETATM   21  N   UNL     1      -8.684   1.243 -31.710  1.00  0.00    -0.267 N 
HETATM   22  C   UNL     1      -9.171   0.670 -32.872  1.00  0.00     0.245 C 
HETATM   23  O   UNL     1     -10.264   0.967 -33.354  1.00  0.00    -0.271 OA
HETATM   24  H   UNL     1      -7.924   0.789 -31.204  1.00  0.00     0.190 HD
BRANCH  22  25
HETATM   25  C   UNL     1      -8.247  -0.362 -33.488  1.00  0.00     0.178 C 
BRANCH  25  26
HETATM   26  S   UNL     1      -6.672  -0.362 -32.577  1.00  0.00    -0.155 SA
BRANCH  26  27
HETATM   27  C   UNL     1      -5.546  -0.686 -33.967  1.00  0.00     0.114 C 
BRANCH  27  28
HETATM   28  C   UNL     1      -5.111  -2.132 -33.996  1.00  0.00    -0.032 A 
HETATM   29  C   UNL     1      -4.055  -2.639 -33.220  1.00  0.00     0.018 A 
HETATM   30 BR   UNL     1      -3.032  -1.544 -32.050  1.00  0.00    -0.051 Br
HETATM   31  C   UNL     1      -3.716  -3.996 -33.278  1.00  0.00     0.019 A 
HETATM   32  C   UNL     1      -4.426  -4.864 -34.105  1.00  0.00     0.001 A 
HETATM   33  C   UNL     1      -5.480  -4.381 -34.874  1.00  0.00     0.001 A 
HETATM   34  C   UNL     1      -5.821  -3.029 -34.818  1.00  0.00     0.009 A 
ENDBRANCH  27  28
ENDBRANCH  26  27
ENDBRANCH  25  26
ENDBRANCH  22  25
ENDBRANCH  19  21
ENDBRANCH   1  19
TORSDOF 10
ENDMDL
