MODEL 1
REMARK VINA RESULT:      -8.7      0.000      0.000
REMARK  5 active torsions:
REMARK  status: ('A' for Active; 'I' for Inactive)
REMARK    1  A    between atoms: O_2  and  C_3 
REMARK    2  A    between atoms: C_5  and  C_6 
REMARK    3  A    between atoms: C_6  and  C_7 
REMARK       I    between atoms: C_7  and  N_8 
REMARK    4  A    between atoms: N_11  and  C_12 
REMARK    5  A    between atoms: C_16  and  C_17 
ROOT
HETATM    1  C   UNL     1      -7.964   0.979 -33.867  1.00  0.00     0.224 C 
HETATM    2  N   UNL     1      -7.369   2.031 -33.193  1.00  0.00    -0.349 N 
HETATM    3  C   UNL     1      -6.848   2.000 -31.824  1.00  0.00     0.145 C 
HETATM    4  C   UNL     1      -5.506   2.749 -31.702  1.00  0.00     0.144 C 
HETATM    5  N   UNL     1      -5.566   4.111 -32.291  1.00  0.00    -0.363 N 
HETATM    6  C   UNL     1      -6.126   4.126 -33.670  1.00  0.00     0.144 C 
HETATM    7  C   UNL     1      -7.466   3.381 -33.751  1.00  0.00     0.145 C 
HETATM    8  O   UNL     1      -8.512   1.137 -34.962  1.00  0.00    -0.273 OA
ENDROOT
BRANCH   5   9
HETATM    9  C   UNL     1      -4.525   4.970 -32.041  1.00  0.00     0.122 A 
HETATM   10  N   UNL     1      -4.067   5.880 -32.957  1.00  0.00    -0.262 N 
HETATM   11  H   UNL     1      -4.396   6.021 -33.902  1.00  0.00     0.191 HD
HETATM   12  N   UNL     1      -3.053   6.646 -32.524  1.00  0.00    -0.173 NA
HETATM   13  C   UNL     1      -2.793   6.191 -31.287  1.00  0.00     0.090 A 
HETATM   14  C   UNL     1      -3.683   5.129 -30.961  1.00  0.00     0.084 A 
BRANCH  13  15
HETATM   15  C   UNL     1      -1.722   6.768 -30.463  1.00  0.00    -0.005 A 
HETATM   16  C   UNL     1      -0.371   6.615 -30.811  1.00  0.00     0.015 A 
HETATM   17  C   UNL     1       0.640   7.171 -30.019  1.00  0.00     0.024 A 
HETATM   18  C   UNL     1       0.309   7.884 -28.869  1.00  0.00     0.034 A 
HETATM   19 CL   UNL     1       1.553   8.566 -27.897  1.00  0.00    -0.084 Cl
HETATM   20  C   UNL     1      -1.024   8.046 -28.505  1.00  0.00     0.024 A 
HETATM   21  C   UNL     1      -2.033   7.490 -29.298  1.00  0.00     0.015 A 
ENDBRANCH  13  15
ENDBRANCH   5   9
BRANCH   1  22
HETATM   22  C   UNL     1      -7.926  -0.410 -33.243  1.00  0.00     0.141 C 
BRANCH  22  23
HETATM   23  C   UNL     1      -6.696  -1.214 -33.599  1.00  0.00    -0.047 A 
HETATM   24  C   UNL     1      -5.516  -1.106 -32.842  1.00  0.00     0.044 A 
HETATM   25  C   UNL     1      -4.392  -1.873 -33.155  1.00  0.00     0.068 A 
HETATM   26  C   UNL     1      -4.456  -2.772 -34.220  1.00  0.00     0.037 A 
HETATM   27  C   UNL     1      -5.626  -2.910 -34.965  1.00  0.00     0.003 A 
HETATM   28  C   UNL     1      -6.744  -2.138 -34.653  1.00  0.00     0.007 A 
BRANCH  25  29
HETATM   29  O   UNL     1      -3.190  -1.842 -32.501  1.00  0.00    -0.356 OA
HETATM   30  C   UNL     1      -2.924  -0.696 -31.702  1.00  0.00     0.210 C 
ENDBRANCH  25  29
ENDBRANCH  22  23
ENDBRANCH   1  22
TORSDOF 5
ENDMDL
MODEL 2
REMARK VINA RESULT:      -8.7      4.782     10.037
REMARK  5 active torsions:
REMARK  status: ('A' for Active; 'I' for Inactive)
REMARK    1  A    between atoms: O_2  and  C_3 
REMARK    2  A    between atoms: C_5  and  C_6 
REMARK    3  A    between atoms: C_6  and  C_7 
REMARK       I    between atoms: C_7  and  N_8 
REMARK    4  A    between atoms: N_11  and  C_12 
REMARK    5  A    between atoms: C_16  and  C_17 
ROOT
HETATM    1  C   UNL     1      -3.154   7.552 -30.056  1.00  0.00     0.224 C 
HETATM    2  N   UNL     1      -3.484   6.455 -30.834  1.00  0.00    -0.349 N 
HETATM    3  C   UNL     1      -2.740   5.960 -31.994  1.00  0.00     0.145 C 
HETATM    4  C   UNL     1      -2.651   4.420 -32.006  1.00  0.00     0.144 C 
HETATM    5  N   UNL     1      -3.980   3.779 -31.827  1.00  0.00    -0.363 N 
HETATM    6  C   UNL     1      -4.734   4.317 -30.662  1.00  0.00     0.144 C 
HETATM    7  C   UNL     1      -4.809   5.851 -30.688  1.00  0.00     0.145 C 
HETATM    8  O   UNL     1      -3.921   7.989 -29.192  1.00  0.00    -0.273 OA
ENDROOT
BRANCH   5   9
HETATM    9  C   UNL     1      -4.083   2.430 -32.055  1.00  0.00     0.122 A 
HETATM   10  N   UNL     1      -3.350   1.495 -31.374  1.00  0.00    -0.262 N 
HETATM   11  H   UNL     1      -2.649   1.661 -30.664  1.00  0.00     0.191 HD
HETATM   12  N   UNL     1      -3.601   0.224 -31.723  1.00  0.00    -0.173 NA
HETATM   13  C   UNL     1      -4.503   0.321 -32.714  1.00  0.00     0.090 A 
HETATM   14  C   UNL     1      -4.812   1.688 -32.961  1.00  0.00     0.084 A 
BRANCH  13  15
HETATM   15  C   UNL     1      -5.037  -0.870 -33.389  1.00  0.00    -0.005 A 
HETATM   16  C   UNL     1      -4.214  -1.967 -33.692  1.00  0.00     0.015 A 
HETATM   17  C   UNL     1      -4.735  -3.097 -34.334  1.00  0.00     0.024 A 
HETATM   18  C   UNL     1      -6.083  -3.139 -34.681  1.00  0.00     0.034 A 
HETATM   19 CL   UNL     1      -6.720  -4.528 -35.470  1.00  0.00    -0.084 Cl
HETATM   20  C   UNL     1      -6.915  -2.062 -34.392  1.00  0.00     0.024 A 
HETATM   21  C   UNL     1      -6.393  -0.934 -33.751  1.00  0.00     0.015 A 
ENDBRANCH  13  15
ENDBRANCH   5   9
BRANCH   1  22
HETATM   22  C   UNL     1      -1.804   8.223 -30.266  1.00  0.00     0.141 C 
BRANCH  22  23
HETATM   23  C   UNL     1      -0.760   7.849 -29.238  1.00  0.00    -0.047 A 
HETATM   24  C   UNL     1      -0.412   8.735 -28.203  1.00  0.00     0.044 A 
HETATM   25  C   UNL     1       0.530   8.374 -27.238  1.00  0.00     0.068 A 
HETATM   26  C   UNL     1       1.112   7.107 -27.294  1.00  0.00     0.037 A 
HETATM   27  C   UNL     1       0.759   6.207 -28.299  1.00  0.00     0.003 A 
HETATM   28  C   UNL     1      -0.177   6.574 -29.264  1.00  0.00     0.007 A 
BRANCH  25  29
HETATM   29  O   UNL     1       0.955   9.155 -26.198  1.00  0.00    -0.356 OA
HETATM   30  C   UNL     1       2.120   8.723 -25.506  1.00  0.00     0.210 C 
ENDBRANCH  25  29
ENDBRANCH  22  23
ENDBRANCH   1  22
TORSDOF 5
ENDMDL
MODEL 3
REMARK VINA RESULT:      -8.7      6.101      9.193
REMARK  5 active torsions:
REMARK  status: ('A' for Active; 'I' for Inactive)
REMARK    1  A    between atoms: O_2  and  C_3 
REMARK    2  A    between atoms: C_5  and  C_6 
REMARK    3  A    between atoms: C_6  and  C_7 
REMARK       I    between atoms: C_7  and  N_8 
REMARK    4  A    between atoms: N_11  and  C_12 
REMARK    5  A    between atoms: C_16  and  C_17 
ROOT
HETATM    1  C   UNL     1      -4.552   0.170 -32.032  1.00  0.00     0.224 C 
HETATM    2  N   UNL     1      -5.663   0.875 -32.462  1.00  0.00    -0.349 N 
HETATM    3  C   UNL     1      -5.991   1.213 -33.849  1.00  0.00     0.145 C 
HETATM    4  C   UNL     1      -7.494   1.032 -34.145  1.00  0.00     0.144 C 
HETATM    5  N   UNL     1      -8.350   1.714 -33.141  1.00  0.00    -0.363 N 
HETATM    6  C   UNL     1      -7.982   1.383 -31.738  1.00  0.00     0.144 C 
HETATM    7  C   UNL     1      -6.482   1.583 -31.478  1.00  0.00     0.145 C 
HETATM    8  O   UNL     1      -4.275   0.063 -30.833  1.00  0.00    -0.273 OA
ENDROOT
BRANCH   5   9
HETATM    9  C   UNL     1      -9.691   1.837 -33.412  1.00  0.00     0.122 A 
HETATM   10  N   UNL     1     -10.204   1.822 -34.682  1.00  0.00    -0.262 N 
HETATM   11  H   UNL     1      -9.693   1.748 -35.551  1.00  0.00     0.191 HD
HETATM   12  N   UNL     1     -11.539   1.936 -34.746  1.00  0.00    -0.173 NA
HETATM   13  C   UNL     1     -11.926   2.084 -33.468  1.00  0.00     0.090 A 
HETATM   14  C   UNL     1     -10.792   2.047 -32.609  1.00  0.00     0.084 A 
BRANCH  13  15
HETATM   15  C   UNL     1     -13.339   2.256 -33.104  1.00  0.00    -0.005 A 
HETATM   16  C   UNL     1     -13.763   3.341 -32.320  1.00  0.00     0.015 A 
HETATM   17  C   UNL     1     -15.112   3.495 -31.982  1.00  0.00     0.024 A 
HETATM   18  C   UNL     1     -16.050   2.564 -32.423  1.00  0.00     0.034 A 
HETATM   19 CL   UNL     1     -17.707   2.756 -32.005  1.00  0.00    -0.084 Cl
HETATM   20  C   UNL     1     -15.650   1.481 -33.199  1.00  0.00     0.024 A 
HETATM   21  C   UNL     1     -14.301   1.329 -33.537  1.00  0.00     0.015 A 
ENDBRANCH  13  15
ENDBRANCH   5   9
BRANCH   1  22
HETATM   22  C   UNL     1      -3.660  -0.502 -33.067  1.00  0.00     0.141 C 
BRANCH  22  23
HETATM   23  C   UNL     1      -3.782  -2.008 -33.105  1.00  0.00    -0.047 A 
HETATM   24  C   UNL     1      -4.521  -2.650 -34.116  1.00  0.00     0.044 A 
HETATM   25  C   UNL     1      -4.606  -4.042 -34.165  1.00  0.00     0.068 A 
HETATM   26  C   UNL     1      -3.928  -4.801 -33.210  1.00  0.00     0.037 A 
HETATM   27  C   UNL     1      -3.172  -4.181 -32.217  1.00  0.00     0.003 A 
HETATM   28  C   UNL     1      -3.095  -2.790 -32.167  1.00  0.00     0.007 A 
BRANCH  25  29
HETATM   29  O   UNL     1      -5.303  -4.773 -35.089  1.00  0.00    -0.356 OA
HETATM   30  C   UNL     1      -6.680  -4.456 -35.251  1.00  0.00     0.210 C 
ENDBRANCH  25  29
ENDBRANCH  22  23
ENDBRANCH   1  22
TORSDOF 5
ENDMDL
MODEL 4
REMARK VINA RESULT:      -8.6      4.406      9.695
REMARK  5 active torsions:
REMARK  status: ('A' for Active; 'I' for Inactive)
REMARK    1  A    between atoms: O_2  and  C_3 
REMARK    2  A    between atoms: C_5  and  C_6 
REMARK    3  A    between atoms: C_6  and  C_7 
REMARK       I    between atoms: C_7  and  N_8 
REMARK    4  A    between atoms: N_11  and  C_12 
REMARK    5  A    between atoms: C_16  and  C_17 
ROOT
HETATM    1  C   UNL     1      -4.125   7.409 -29.364  1.00  0.00     0.224 C 
HETATM    2  N   UNL     1      -4.412   6.367 -30.229  1.00  0.00    -0.349 N 
HETATM    3  C   UNL     1      -3.891   6.201 -31.588  1.00  0.00     0.145 C 
HETATM    4  C   UNL     1      -3.506   4.736 -31.881  1.00  0.00     0.144 C 
HETATM    5  N   UNL     1      -4.597   3.789 -31.536  1.00  0.00    -0.363 N 
HETATM    6  C   UNL     1      -5.134   3.994 -30.163  1.00  0.00     0.144 C 
HETATM    7  C   UNL     1      -5.515   5.460 -29.910  1.00  0.00     0.145 C 
HETATM    8  O   UNL     1      -4.728   7.550 -28.296  1.00  0.00    -0.273 OA
ENDROOT
BRANCH   5   9
HETATM    9  C   UNL     1      -4.484   2.489 -31.964  1.00  0.00     0.122 A 
HETATM   10  N   UNL     1      -3.368   1.725 -31.755  1.00  0.00    -0.262 N 
HETATM   11  H   UNL     1      -2.506   2.004 -31.304  1.00  0.00     0.191 HD
HETATM   12  N   UNL     1      -3.451   0.473 -32.230  1.00  0.00    -0.173 NA
HETATM   13  C   UNL     1      -4.655   0.418 -32.824  1.00  0.00     0.090 A 
HETATM   14  C   UNL     1      -5.320   1.670 -32.693  1.00  0.00     0.084 A 
BRANCH  13  15
HETATM   15  C   UNL     1      -5.131  -0.802 -33.490  1.00  0.00    -0.005 A 
HETATM   16  C   UNL     1      -6.475  -0.946 -33.872  1.00  0.00     0.015 A 
HETATM   17  C   UNL     1      -6.917  -2.112 -34.507  1.00  0.00     0.024 A 
HETATM   18  C   UNL     1      -6.020  -3.146 -34.765  1.00  0.00     0.034 A 
HETATM   19 CL   UNL     1      -6.565  -4.578 -35.546  1.00  0.00    -0.084 Cl
HETATM   20  C   UNL     1      -4.684  -3.024 -34.394  1.00  0.00     0.024 A 
HETATM   21  C   UNL     1      -4.244  -1.857 -33.759  1.00  0.00     0.015 A 
ENDBRANCH  13  15
ENDBRANCH   5   9
BRANCH   1  22
HETATM   22  C   UNL     1      -3.026   8.395 -29.738  1.00  0.00     0.141 C 
BRANCH  22  23
HETATM   23  C   UNL     1      -1.707   8.143 -29.045  1.00  0.00    -0.047 A 
HETATM   24  C   UNL     1      -1.016   6.930 -29.221  1.00  0.00     0.044 A 
HETATM   25  C   UNL     1       0.217   6.713 -28.604  1.00  0.00     0.068 A 
HETATM   26  C   UNL     1       0.776   7.726 -27.823  1.00  0.00     0.037 A 
HETATM   27  C   UNL     1       0.117   8.943 -27.660  1.00  0.00     0.003 A 
HETATM   28  C   UNL     1      -1.118   9.153 -28.272  1.00  0.00     0.007 A 
BRANCH  25  29
HETATM   29  O   UNL     1       0.970   5.574 -28.691  1.00  0.00    -0.356 OA
HETATM   30  C   UNL     1       0.693   4.704 -29.782  1.00  0.00     0.210 C 
ENDBRANCH  25  29
ENDBRANCH  22  23
ENDBRANCH   1  22
TORSDOF 5
ENDMDL
MODEL 5
REMARK VINA RESULT:      -8.6      1.033      1.988
REMARK  5 active torsions:
REMARK  status: ('A' for Active; 'I' for Inactive)
REMARK    1  A    between atoms: O_2  and  C_3 
REMARK    2  A    between atoms: C_5  and  C_6 
REMARK    3  A    between atoms: C_6  and  C_7 
REMARK       I    between atoms: C_7  and  N_8 
REMARK    4  A    between atoms: N_11  and  C_12 
REMARK    5  A    between atoms: C_16  and  C_17 
ROOT
HETATM    1  C   UNL     1      -8.003   1.411 -33.504  1.00  0.00     0.224 C 
HETATM    2  N   UNL     1      -7.428   2.479 -32.837  1.00  0.00    -0.349 N 
HETATM    3  C   UNL     1      -6.953   2.481 -31.451  1.00  0.00     0.145 C 
HETATM    4  C   UNL     1      -5.613   3.230 -31.304  1.00  0.00     0.144 C 
HETATM    5  N   UNL     1      -5.651   4.578 -31.928  1.00  0.00    -0.363 N 
HETATM    6  C   UNL     1      -6.166   4.560 -33.324  1.00  0.00     0.144 C 
HETATM    7  C   UNL     1      -7.504   3.814 -33.431  1.00  0.00     0.145 C 
HETATM    8  O   UNL     1      -8.515   1.542 -34.620  1.00  0.00    -0.273 OA
ENDROOT
BRANCH   5   9
HETATM    9  C   UNL     1      -4.617   5.442 -31.665  1.00  0.00     0.122 A 
HETATM   10  N   UNL     1      -4.250   6.453 -32.513  1.00  0.00    -0.262 N 
HETATM   11  H   UNL     1      -4.652   6.677 -33.413  1.00  0.00     0.191 HD
HETATM   12  N   UNL     1      -3.228   7.205 -32.076  1.00  0.00    -0.173 NA
HETATM   13  C   UNL     1      -2.867   6.637 -30.913  1.00  0.00     0.090 A 
HETATM   14  C   UNL     1      -3.703   5.519 -30.636  1.00  0.00     0.084 A 
BRANCH  13  15
HETATM   15  C   UNL     1      -1.754   7.164 -30.111  1.00  0.00    -0.005 A 
HETATM   16  C   UNL     1      -1.958   8.171 -29.154  1.00  0.00     0.015 A 
HETATM   17  C   UNL     1      -0.890   8.663 -28.395  1.00  0.00     0.024 A 
HETATM   18  C   UNL     1       0.392   8.155 -28.587  1.00  0.00     0.034 A 
HETATM   19 CL   UNL     1       1.702   8.762 -27.653  1.00  0.00    -0.084 Cl
HETATM   20  C   UNL     1       0.616   7.158 -29.532  1.00  0.00     0.024 A 
HETATM   21  C   UNL     1      -0.452   6.667 -30.290  1.00  0.00     0.015 A 
ENDBRANCH  13  15
ENDBRANCH   5   9
BRANCH   1  22
HETATM   22  C   UNL     1      -7.988   0.038 -32.846  1.00  0.00     0.141 C 
BRANCH  22  23
HETATM   23  C   UNL     1      -6.775  -0.798 -33.186  1.00  0.00    -0.047 A 
HETATM   24  C   UNL     1      -6.836  -1.793 -34.178  1.00  0.00     0.044 A 
HETATM   25  C   UNL     1      -5.706  -2.542 -34.510  1.00  0.00     0.068 A 
HETATM   26  C   UNL     1      -4.499  -2.279 -33.861  1.00  0.00     0.037 A 
HETATM   27  C   UNL     1      -4.416  -1.279 -32.894  1.00  0.00     0.003 A 
HETATM   28  C   UNL     1      -5.548  -0.538 -32.560  1.00  0.00     0.007 A 
BRANCH  25  29
HETATM   29  O   UNL     1      -5.649  -3.540 -35.445  1.00  0.00    -0.356 OA
HETATM   30  C   UNL     1      -6.654  -4.544 -35.373  1.00  0.00     0.210 C 
ENDBRANCH  25  29
ENDBRANCH  22  23
ENDBRANCH   1  22
TORSDOF 5
ENDMDL
MODEL 6
REMARK VINA RESULT:      -8.5      4.567     10.241
REMARK  5 active torsions:
REMARK  status: ('A' for Active; 'I' for Inactive)
REMARK    1  A    between atoms: O_2  and  C_3 
REMARK    2  A    between atoms: C_5  and  C_6 
REMARK    3  A    between atoms: C_6  and  C_7 
REMARK       I    between atoms: C_7  and  N_8 
REMARK    4  A    between atoms: N_11  and  C_12 
REMARK    5  A    between atoms: C_16  and  C_17 
ROOT
HETATM    1  C   UNL     1      -1.758   7.349 -31.620  1.00  0.00     0.224 C 
HETATM    2  N   UNL     1      -2.378   6.130 -31.407  1.00  0.00    -0.349 N 
HETATM    3  C   UNL     1      -3.622   5.908 -30.665  1.00  0.00     0.145 C 
HETATM    4  C   UNL     1      -4.535   4.882 -31.367  1.00  0.00     0.144 C 
HETATM    5  N   UNL     1      -3.811   3.631 -31.713  1.00  0.00    -0.363 N 
HETATM    6  C   UNL     1      -2.535   3.878 -32.439  1.00  0.00     0.144 C 
HETATM    7  C   UNL     1      -1.650   4.897 -31.708  1.00  0.00     0.145 C 
HETATM    8  O   UNL     1      -0.633   7.425 -32.123  1.00  0.00    -0.273 OA
ENDROOT
BRANCH   5   9
HETATM    9  C   UNL     1      -4.550   2.548 -32.120  1.00  0.00     0.122 A 
HETATM   10  N   UNL     1      -5.903   2.452 -31.936  1.00  0.00    -0.262 N 
HETATM   11  H   UNL     1      -6.511   3.116 -31.475  1.00  0.00     0.191 HD
HETATM   12  N   UNL     1      -6.454   1.327 -32.418  1.00  0.00    -0.173 NA
HETATM   13  C   UNL     1      -5.415   0.623 -32.898  1.00  0.00     0.090 A 
HETATM   14  C   UNL     1      -4.206   1.350 -32.710  1.00  0.00     0.084 A 
BRANCH  13  15
HETATM   15  C   UNL     1      -5.597  -0.700 -33.510  1.00  0.00    -0.005 A 
HETATM   16  C   UNL     1      -6.869  -1.160 -33.889  1.00  0.00     0.015 A 
HETATM   17  C   UNL     1      -7.029  -2.421 -34.473  1.00  0.00     0.024 A 
HETATM   18  C   UNL     1      -5.919  -3.236 -34.683  1.00  0.00     0.034 A 
HETATM   19 CL   UNL     1      -6.119  -4.786 -35.401  1.00  0.00    -0.084 Cl
HETATM   20  C   UNL     1      -4.650  -2.800 -34.313  1.00  0.00     0.024 A 
HETATM   21  C   UNL     1      -4.492  -1.539 -33.729  1.00  0.00     0.015 A 
ENDBRANCH  13  15
ENDBRANCH   5   9
BRANCH   1  22
HETATM   22  C   UNL     1      -2.493   8.626 -31.234  1.00  0.00     0.141 C 
BRANCH  22  23
HETATM   23  C   UNL     1      -2.053   9.219 -29.915  1.00  0.00    -0.047 A 
HETATM   24  C   UNL     1      -1.305   8.462 -28.994  1.00  0.00     0.044 A 
HETATM   25  C   UNL     1      -0.875   9.023 -27.790  1.00  0.00     0.068 A 
HETATM   26  C   UNL     1      -1.174  10.357 -27.514  1.00  0.00     0.037 A 
HETATM   27  C   UNL     1      -1.892  11.128 -28.427  1.00  0.00     0.003 A 
HETATM   28  C   UNL     1      -2.326  10.563 -29.625  1.00  0.00     0.007 A 
BRANCH  25  29
HETATM   29  O   UNL     1      -0.157   8.382 -26.817  1.00  0.00    -0.356 OA
HETATM   30  C   UNL     1      -0.246   6.963 -26.783  1.00  0.00     0.210 C 
ENDBRANCH  25  29
ENDBRANCH  22  23
ENDBRANCH   1  22
TORSDOF 5
ENDMDL
MODEL 7
REMARK VINA RESULT:      -8.4      5.016      9.642
REMARK  5 active torsions:
REMARK  status: ('A' for Active; 'I' for Inactive)
REMARK    1  A    between atoms: O_2  and  C_3 
REMARK    2  A    between atoms: C_5  and  C_6 
REMARK    3  A    between atoms: C_6  and  C_7 
REMARK       I    between atoms: C_7  and  N_8 
REMARK    4  A    between atoms: N_11  and  C_12 
REMARK    5  A    between atoms: C_16  and  C_17 
ROOT
HETATM    1  C   UNL     1      -1.462   6.594 -33.529  1.00  0.00     0.224 C 
HETATM    2  N   UNL     1      -2.351   5.540 -33.651  1.00  0.00    -0.349 N 
HETATM    3  C   UNL     1      -2.222   4.220 -33.026  1.00  0.00     0.145 C 
HETATM    4  C   UNL     1      -3.570   3.710 -32.476  1.00  0.00     0.144 C 
HETATM    5  N   UNL     1      -4.656   3.794 -33.486  1.00  0.00    -0.363 N 
HETATM    6  C   UNL     1      -4.752   5.131 -34.131  1.00  0.00     0.144 C 
HETATM    7  C   UNL     1      -3.395   5.602 -34.674  1.00  0.00     0.145 C 
HETATM    8  O   UNL     1      -1.571   7.616 -34.213  1.00  0.00    -0.273 OA
ENDROOT
BRANCH   5   9
HETATM    9  C   UNL     1      -5.842   3.157 -33.213  1.00  0.00     0.122 A 
HETATM   10  N   UNL     1      -6.052   2.415 -32.081  1.00  0.00    -0.262 N 
HETATM   11  H   UNL     1      -5.391   2.221 -31.341  1.00  0.00     0.191 HD
HETATM   12  N   UNL     1      -7.280   1.884 -31.981  1.00  0.00    -0.173 NA
HETATM   13  C   UNL     1      -7.896   2.246 -33.119  1.00  0.00     0.090 A 
HETATM   14  C   UNL     1      -7.018   3.027 -33.922  1.00  0.00     0.084 A 
BRANCH  13  15
HETATM   15  C   UNL     1      -9.280   1.846 -33.407  1.00  0.00    -0.005 A 
HETATM   16  C   UNL     1      -9.801   0.630 -32.936  1.00  0.00     0.015 A 
HETATM   17  C   UNL     1     -11.121   0.260 -33.217  1.00  0.00     0.024 A 
HETATM   18  C   UNL     1     -11.933   1.102 -33.973  1.00  0.00     0.034 A 
HETATM   19 CL   UNL     1     -13.555   0.645 -34.315  1.00  0.00    -0.084 Cl
HETATM   20  C   UNL     1     -11.436   2.311 -34.450  1.00  0.00     0.024 A 
HETATM   21  C   UNL     1     -10.116   2.679 -34.169  1.00  0.00     0.015 A 
ENDBRANCH  13  15
ENDBRANCH   5   9
BRANCH   1  22
HETATM   22  C   UNL     1      -0.332   6.490 -32.514  1.00  0.00     0.141 C 
BRANCH  22  23
HETATM   23  C   UNL     1      -0.737   6.834 -31.099  1.00  0.00    -0.047 A 
HETATM   24  C   UNL     1      -0.085   6.253 -29.997  1.00  0.00     0.044 A 
HETATM   25  C   UNL     1      -0.441   6.597 -28.692  1.00  0.00     0.068 A 
HETATM   26  C   UNL     1      -1.442   7.547 -28.487  1.00  0.00     0.037 A 
HETATM   27  C   UNL     1      -2.080   8.152 -29.568  1.00  0.00     0.003 A 
HETATM   28  C   UNL     1      -1.726   7.801 -30.870  1.00  0.00     0.007 A 
BRANCH  25  29
HETATM   29  O   UNL     1       0.111   6.088 -27.547  1.00  0.00    -0.356 OA
HETATM   30  C   UNL     1      -0.681   6.156 -26.368  1.00  0.00     0.210 C 
ENDBRANCH  25  29
ENDBRANCH  22  23
ENDBRANCH   1  22
TORSDOF 5
ENDMDL
MODEL 8
REMARK VINA RESULT:      -8.2      6.348      9.611
REMARK  5 active torsions:
REMARK  status: ('A' for Active; 'I' for Inactive)
REMARK    1  A    between atoms: O_2  and  C_3 
REMARK    2  A    between atoms: C_5  and  C_6 
REMARK    3  A    between atoms: C_6  and  C_7 
REMARK       I    between atoms: C_7  and  N_8 
REMARK    4  A    between atoms: N_11  and  C_12 
REMARK    5  A    between atoms: C_16  and  C_17 
ROOT
HETATM    1  C   UNL     1      -5.962   0.791 -32.522  1.00  0.00     0.224 C 
HETATM    2  N   UNL     1      -7.173   1.440 -32.694  1.00  0.00    -0.349 N 
HETATM    3  C   UNL     1      -7.752   1.870 -33.970  1.00  0.00     0.145 C 
HETATM    4  C   UNL     1      -9.268   1.595 -34.035  1.00  0.00     0.144 C 
HETATM    5  N   UNL     1      -9.986   2.116 -32.843  1.00  0.00    -0.363 N 
HETATM    6  C   UNL     1      -9.365   1.694 -31.558  1.00  0.00     0.144 C 
HETATM    7  C   UNL     1      -7.859   1.991 -31.525  1.00  0.00     0.145 C 
HETATM    8  O   UNL     1      -5.481   0.603 -31.401  1.00  0.00    -0.273 OA
ENDROOT
BRANCH   5   9
HETATM    9  C   UNL     1     -11.358   2.154 -32.880  1.00  0.00     0.122 A 
HETATM   10  N   UNL     1     -12.115   1.242 -33.565  1.00  0.00    -0.262 N 
HETATM   11  H   UNL     1     -11.787   0.471 -34.132  1.00  0.00     0.191 HD
HETATM   12  N   UNL     1     -13.440   1.431 -33.469  1.00  0.00    -0.173 NA
HETATM   13  C   UNL     1     -13.567   2.546 -32.729  1.00  0.00     0.090 A 
HETATM   14  C   UNL     1     -12.283   3.035 -32.360  1.00  0.00     0.084 A 
BRANCH  13  15
HETATM   15  C   UNL     1     -14.885   3.106 -32.400  1.00  0.00    -0.005 A 
HETATM   16  C   UNL     1     -15.048   4.474 -32.128  1.00  0.00     0.015 A 
HETATM   17  C   UNL     1     -16.308   4.997 -31.817  1.00  0.00     0.024 A 
HETATM   18  C   UNL     1     -17.418   4.156 -31.772  1.00  0.00     0.034 A 
HETATM   19 CL   UNL     1     -18.965   4.801 -31.390  1.00  0.00    -0.084 Cl
HETATM   20  C   UNL     1     -17.278   2.797 -32.037  1.00  0.00     0.024 A 
HETATM   21  C   UNL     1     -16.017   2.276 -32.347  1.00  0.00     0.015 A 
ENDBRANCH  13  15
ENDBRANCH   5   9
BRANCH   1  22
HETATM   22  C   UNL     1      -5.216   0.286 -33.750  1.00  0.00     0.141 C 
BRANCH  22  23
HETATM   23  C   UNL     1      -5.493  -1.160 -34.091  1.00  0.00    -0.047 A 
HETATM   24  C   UNL     1      -4.461  -2.116 -34.087  1.00  0.00     0.044 A 
HETATM   25  C   UNL     1      -4.726  -3.456 -34.372  1.00  0.00     0.068 A 
HETATM   26  C   UNL     1      -6.037  -3.849 -34.641  1.00  0.00     0.037 A 
HETATM   27  C   UNL     1      -7.075  -2.919 -34.624  1.00  0.00     0.003 A 
HETATM   28  C   UNL     1      -6.806  -1.581 -34.346  1.00  0.00     0.007 A 
BRANCH  25  29
HETATM   29  O   UNL     1      -3.804  -4.467 -34.411  1.00  0.00    -0.356 OA
HETATM   30  C   UNL     1      -3.237  -4.866 -33.169  1.00  0.00     0.210 C 
ENDBRANCH  25  29
ENDBRANCH  22  23
ENDBRANCH   1  22
TORSDOF 5
ENDMDL
MODEL 9
REMARK VINA RESULT:      -8.0      6.938     10.264
REMARK  5 active torsions:
REMARK  status: ('A' for Active; 'I' for Inactive)
REMARK    1  A    between atoms: O_2  and  C_3 
REMARK    2  A    between atoms: C_5  and  C_6 
REMARK    3  A    between atoms: C_6  and  C_7 
REMARK       I    between atoms: C_7  and  N_8 
REMARK    4  A    between atoms: N_11  and  C_12 
REMARK    5  A    between atoms: C_16  and  C_17 
ROOT
HETATM    1  C   UNL     1     -12.518   5.837 -34.604  1.00  0.00     0.224 C 
HETATM    2  N   UNL     1     -11.633   4.791 -34.799  1.00  0.00    -0.349 N 
HETATM    3  C   UNL     1     -10.234   4.906 -35.220  1.00  0.00     0.145 C 
HETATM    4  C   UNL     1      -9.317   3.941 -34.441  1.00  0.00     0.144 C 
HETATM    5  N   UNL     1      -9.833   2.548 -34.446  1.00  0.00    -0.363 N 
HETATM    6  C   UNL     1     -11.264   2.455 -34.046  1.00  0.00     0.144 C 
HETATM    7  C   UNL     1     -12.146   3.421 -34.848  1.00  0.00     0.145 C 
HETATM    8  O   UNL     1     -13.719   5.640 -34.399  1.00  0.00    -0.273 OA
ENDROOT
BRANCH   5   9
HETATM    9  C   UNL     1      -9.003   1.550 -34.000  1.00  0.00     0.122 A 
HETATM   10  N   UNL     1      -8.870   1.221 -32.677  1.00  0.00    -0.262 N 
HETATM   11  H   UNL     1      -9.319   1.661 -31.885  1.00  0.00     0.191 HD
HETATM   12  N   UNL     1      -8.026   0.205 -32.437  1.00  0.00    -0.173 NA
HETATM   13  C   UNL     1      -7.540  -0.121 -33.646  1.00  0.00     0.090 A 
HETATM   14  C   UNL     1      -8.116   0.714 -34.645  1.00  0.00     0.084 A 
BRANCH  13  15
HETATM   15  C   UNL     1      -6.557  -1.199 -33.816  1.00  0.00    -0.005 A 
HETATM   16  C   UNL     1      -6.865  -2.360 -34.544  1.00  0.00     0.015 A 
HETATM   17  C   UNL     1      -5.920  -3.379 -34.701  1.00  0.00     0.024 A 
HETATM   18  C   UNL     1      -4.656  -3.249 -34.129  1.00  0.00     0.034 A 
HETATM   19 CL   UNL     1      -3.496  -4.503 -34.324  1.00  0.00    -0.084 Cl
HETATM   20  C   UNL     1      -4.330  -2.108 -33.403  1.00  0.00     0.024 A 
HETATM   21  C   UNL     1      -5.277  -1.090 -33.247  1.00  0.00     0.015 A 
ENDBRANCH  13  15
ENDBRANCH   5   9
BRANCH   1  22
HETATM   22  C   UNL     1     -11.988   7.264 -34.630  1.00  0.00     0.141 C 
BRANCH  22  23
HETATM   23  C   UNL     1     -11.965   7.891 -36.005  1.00  0.00    -0.047 A 
HETATM   24  C   UNL     1     -10.779   8.432 -36.534  1.00  0.00     0.044 A 
HETATM   25  C   UNL     1     -10.754   8.982 -37.817  1.00  0.00     0.068 A 
HETATM   26  C   UNL     1     -11.919   8.972 -38.586  1.00  0.00     0.037 A 
HETATM   27  C   UNL     1     -13.095   8.417 -38.086  1.00  0.00     0.003 A 
HETATM   28  C   UNL     1     -13.118   7.874 -36.802  1.00  0.00     0.007 A 
BRANCH  25  29
HETATM   29  O   UNL     1      -9.668   9.547 -38.429  1.00  0.00    -0.356 OA
HETATM   30  C   UNL     1      -9.142  10.729 -37.838  1.00  0.00     0.210 C 
ENDBRANCH  25  29
ENDBRANCH  22  23
ENDBRANCH   1  22
TORSDOF 5
ENDMDL
MODEL 10
REMARK VINA RESULT:      -8.0      5.448      7.939
REMARK  5 active torsions:
REMARK  status: ('A' for Active; 'I' for Inactive)
REMARK    1  A    between atoms: O_2  and  C_3 
REMARK    2  A    between atoms: C_5  and  C_6 
REMARK    3  A    between atoms: C_6  and  C_7 
REMARK       I    between atoms: C_7  and  N_8 
REMARK    4  A    between atoms: N_11  and  C_12 
REMARK    5  A    between atoms: C_16  and  C_17 
ROOT
HETATM    1  C   UNL     1      -4.587   0.415 -31.116  1.00  0.00     0.224 C 
HETATM    2  N   UNL     1      -5.386   1.406 -31.659  1.00  0.00    -0.349 N 
HETATM    3  C   UNL     1      -5.129   2.147 -32.897  1.00  0.00     0.145 C 
HETATM    4  C   UNL     1      -6.412   2.339 -33.730  1.00  0.00     0.144 C 
HETATM    5  N   UNL     1      -7.530   2.890 -32.922  1.00  0.00    -0.363 N 
HETATM    6  C   UNL     1      -7.756   2.144 -31.654  1.00  0.00     0.144 C 
HETATM    7  C   UNL     1      -6.460   1.980 -30.847  1.00  0.00     0.145 C 
HETATM    8  O   UNL     1      -4.801  -0.047 -29.992  1.00  0.00    -0.273 OA
ENDROOT
BRANCH   5   9
HETATM    9  C   UNL     1      -8.649   3.333 -33.583  1.00  0.00     0.122 A 
HETATM   10  N   UNL     1      -9.624   2.494 -34.051  1.00  0.00    -0.262 N 
HETATM   11  H   UNL     1      -9.643   1.484 -34.002  1.00  0.00     0.191 HD
HETATM   12  N   UNL     1     -10.651   3.112 -34.654  1.00  0.00    -0.173 NA
HETATM   13  C   UNL     1     -10.320   4.414 -34.631  1.00  0.00     0.090 A 
HETATM   14  C   UNL     1      -9.063   4.585 -33.985  1.00  0.00     0.084 A 
BRANCH  13  15
HETATM   15  C   UNL     1     -11.191   5.442 -35.215  1.00  0.00    -0.005 A 
HETATM   16  C   UNL     1     -12.540   5.177 -35.503  1.00  0.00     0.015 A 
HETATM   17  C   UNL     1     -13.361   6.166 -36.058  1.00  0.00     0.024 A 
HETATM   18  C   UNL     1     -12.841   7.428 -36.331  1.00  0.00     0.034 A 
HETATM   19 CL   UNL     1     -13.852   8.641 -37.013  1.00  0.00    -0.084 Cl
HETATM   20  C   UNL     1     -11.507   7.711 -36.055  1.00  0.00     0.024 A 
HETATM   21  C   UNL     1     -10.687   6.722 -35.500  1.00  0.00     0.015 A 
ENDBRANCH  13  15
ENDBRANCH   5   9
BRANCH   1  22
HETATM   22  C   UNL     1      -3.424  -0.124 -31.938  1.00  0.00     0.141 C 
BRANCH  22  23
HETATM   23  C   UNL     1      -3.662  -1.500 -32.518  1.00  0.00    -0.047 A 
HETATM   24  C   UNL     1      -4.426  -1.672 -33.686  1.00  0.00     0.044 A 
HETATM   25  C   UNL     1      -4.618  -2.940 -34.235  1.00  0.00     0.068 A 
HETATM   26  C   UNL     1      -4.022  -4.045 -33.625  1.00  0.00     0.037 A 
HETATM   27  C   UNL     1      -3.240  -3.889 -32.481  1.00  0.00     0.003 A 
HETATM   28  C   UNL     1      -3.057  -2.621 -31.932  1.00  0.00     0.007 A 
BRANCH  25  29
HETATM   29  O   UNL     1      -5.350  -3.229 -35.355  1.00  0.00    -0.356 OA
HETATM   30  C   UNL     1      -6.141  -4.410 -35.317  1.00  0.00     0.210 C 
ENDBRANCH  25  29
ENDBRANCH  22  23
ENDBRANCH   1  22
TORSDOF 5
ENDMDL
