MODEL 1
REMARK VINA RESULT:      -9.4      0.000      0.000
REMARK  5 active torsions:
REMARK  status: ('A' for Active; 'I' for Inactive)
REMARK    1  A    between atoms: C_9  and  C_10 
REMARK       I    between atoms: C_10  and  N_11 
REMARK    2  A    between atoms: N_11  and  C_12 
REMARK    3  A    between atoms: C_12  and  C_13 
REMARK    4  A    between atoms: C_16  and  O_17 
REMARK    5  A    between atoms: O_17  and  C_18 
ROOT
HETATM    1  C   UNL     1      -4.742   0.585 -32.787  1.00  0.00     0.273 C 
HETATM    2  N   UNL     1      -4.005   1.682 -32.400  1.00  0.00    -0.351 N 
HETATM    3  O   UNL     1      -5.865   0.671 -33.275  1.00  0.00    -0.266 OA
HETATM    4  H   UNL     1      -3.127   1.478 -31.930  1.00  0.00     0.163 HD
ENDROOT
BRANCH   2   5
HETATM    5  C   UNL     1      -4.561   3.007 -32.415  1.00  0.00     0.163 C 
BRANCH   5   6
HETATM    6  C   UNL     1      -3.492   4.051 -32.322  1.00  0.00    -0.023 A 
HETATM    7  C   UNL     1      -3.499   4.996 -31.300  1.00  0.00     0.128 A 
HETATM    8  N   UNL     1      -2.556   5.953 -31.142  1.00  0.00    -0.236 NA
HETATM    9  C   UNL     1      -1.553   5.971 -32.044  1.00  0.00     0.164 A 
HETATM   10  C   UNL     1      -1.450   5.074 -33.094  1.00  0.00     0.059 A 
HETATM   11  C   UNL     1      -2.430   4.094 -33.227  1.00  0.00     0.014 A 
BRANCH   9  12
HETATM   12  O   UNL     1      -0.562   6.927 -31.960  1.00  0.00    -0.329 OA
BRANCH  12  13
HETATM   13  C   UNL     1       0.366   6.728 -30.899  1.00  0.00     0.130 C 
HETATM   14  C   UNL     1      -0.130   7.484 -29.668  1.00  0.00     0.032 C 
HETATM   15  C   UNL     1       0.638   6.833 -28.533  1.00  0.00     0.002 C 
HETATM   16  C   UNL     1       0.684   5.354 -28.902  1.00  0.00     0.002 C 
HETATM   17  C   UNL     1       0.408   5.279 -30.405  1.00  0.00     0.032 C 
ENDBRANCH  12  13
ENDBRANCH   9  12
ENDBRANCH   5   6
ENDBRANCH   2   5
BRANCH   1  18
HETATM   18  C   UNL     1      -4.054  -0.692 -32.537  1.00  0.00     0.157 A 
HETATM   19  C   UNL     1      -4.315  -1.951 -33.154  1.00  0.00     0.029 A 
HETATM   20  C   UNL     1      -5.206  -2.439 -34.131  1.00  0.00     0.023 A 
HETATM   21  C   UNL     1      -3.415  -2.833 -32.570  1.00  0.00     0.063 A 
HETATM   22  C   UNL     1      -5.163  -3.796 -34.492  1.00  0.00    -0.061 A 
HETATM   23  C   UNL     1      -6.106  -4.339 -35.527  1.00  0.00     0.048 C 
HETATM   24  C   UNL     1      -4.241  -4.651 -33.875  1.00  0.00     0.009 A 
HETATM   25  C   UNL     1      -3.348  -4.189 -32.901  1.00  0.00     0.032 A 
HETATM   26  N   UNL     1      -2.700  -2.082 -31.679  1.00  0.00    -0.277 N 
HETATM   27  H   UNL     1      -1.952  -2.398 -31.072  1.00  0.00     0.189 HD
HETATM   28  N   UNL     1      -3.058  -0.786 -31.628  1.00  0.00    -0.168 NA
ENDBRANCH   1  18
TORSDOF 5
ENDMDL
MODEL 2
REMARK VINA RESULT:      -9.4      1.611      2.410
REMARK  5 active torsions:
REMARK  status: ('A' for Active; 'I' for Inactive)
REMARK    1  A    between atoms: C_9  and  C_10 
REMARK       I    between atoms: C_10  and  N_11 
REMARK    2  A    between atoms: N_11  and  C_12 
REMARK    3  A    between atoms: C_12  and  C_13 
REMARK    4  A    between atoms: C_16  and  O_17 
REMARK    5  A    between atoms: O_17  and  C_18 
ROOT
HETATM    1  C   UNL     1      -4.131   2.334 -31.424  1.00  0.00     0.273 C 
HETATM    2  N   UNL     1      -3.567   3.230 -32.304  1.00  0.00    -0.351 N 
HETATM    3  O   UNL     1      -4.919   2.666 -30.544  1.00  0.00    -0.266 OA
HETATM    4  H   UNL     1      -2.863   2.846 -32.931  1.00  0.00     0.163 HD
ENDROOT
BRANCH   2   5
HETATM    5  C   UNL     1      -3.760   4.647 -32.165  1.00  0.00     0.163 C 
BRANCH   5   6
HETATM    6  C   UNL     1      -2.555   5.309 -31.571  1.00  0.00    -0.023 A 
HETATM    7  C   UNL     1      -2.685   6.353 -30.660  1.00  0.00     0.128 A 
HETATM    8  N   UNL     1      -1.645   6.982 -30.069  1.00  0.00    -0.236 NA
HETATM    9  C   UNL     1      -0.410   6.550 -30.397  1.00  0.00     0.164 A 
HETATM   10  C   UNL     1      -0.171   5.516 -31.288  1.00  0.00     0.059 A 
HETATM   11  C   UNL     1      -1.261   4.881 -31.875  1.00  0.00     0.014 A 
BRANCH   9  12
HETATM   12  O   UNL     1       0.705   7.151 -29.850  1.00  0.00    -0.329 OA
BRANCH  12  13
HETATM   13  C   UNL     1       0.514   7.669 -28.538  1.00  0.00     0.130 C 
HETATM   14  C   UNL     1       0.799   6.560 -27.527  1.00  0.00     0.032 C 
HETATM   15  C   UNL     1       1.027   7.322 -26.235  1.00  0.00     0.002 C 
HETATM   16  C   UNL     1       1.793   8.571 -26.660  1.00  0.00     0.002 C 
HETATM   17  C   UNL     1       1.545   8.736 -28.160  1.00  0.00     0.032 C 
ENDBRANCH  12  13
ENDBRANCH   9  12
ENDBRANCH   5   6
ENDBRANCH   2   5
BRANCH   1  18
HETATM   18  C   UNL     1      -3.676   0.950 -31.636  1.00  0.00     0.157 A 
HETATM   19  C   UNL     1      -4.274  -0.039 -32.471  1.00  0.00     0.029 A 
HETATM   20  C   UNL     1      -5.387  -0.103 -33.333  1.00  0.00     0.023 A 
HETATM   21  C   UNL     1      -3.483  -1.171 -32.314  1.00  0.00     0.063 A 
HETATM   22  C   UNL     1      -5.670  -1.301 -34.012  1.00  0.00    -0.061 A 
HETATM   23  C   UNL     1      -6.852  -1.394 -34.932  1.00  0.00     0.048 C 
HETATM   24  C   UNL     1      -4.848  -2.419 -33.821  1.00  0.00     0.009 A 
HETATM   25  C   UNL     1      -3.738  -2.378 -32.969  1.00  0.00     0.032 A 
HETATM   26  N   UNL     1      -2.502  -0.806 -31.434  1.00  0.00    -0.277 N 
HETATM   27  H   UNL     1      -1.745  -1.384 -31.088  1.00  0.00     0.189 HD
HETATM   28  N   UNL     1      -2.587   0.464 -31.000  1.00  0.00    -0.168 NA
ENDBRANCH   1  18
TORSDOF 5
ENDMDL
MODEL 3
REMARK VINA RESULT:      -9.2      1.788      9.653
REMARK  5 active torsions:
REMARK  status: ('A' for Active; 'I' for Inactive)
REMARK    1  A    between atoms: C_9  and  C_10 
REMARK       I    between atoms: C_10  and  N_11 
REMARK    2  A    between atoms: N_11  and  C_12 
REMARK    3  A    between atoms: C_12  and  C_13 
REMARK    4  A    between atoms: C_16  and  O_17 
REMARK    5  A    between atoms: O_17  and  C_18 
ROOT
HETATM    1  C   UNL     1      -1.438   5.504 -31.517  1.00  0.00     0.273 C 
HETATM    2  N   UNL     1      -2.670   4.955 -31.240  1.00  0.00    -0.351 N 
HETATM    3  O   UNL     1      -1.129   5.928 -32.626  1.00  0.00    -0.266 OA
HETATM    4  H   UNL     1      -2.776   4.560 -30.308  1.00  0.00     0.163 HD
ENDROOT
BRANCH   2   5
HETATM    5  C   UNL     1      -3.640   4.717 -32.274  1.00  0.00     0.163 C 
BRANCH   5   6
HETATM    6  C   UNL     1      -4.087   3.287 -32.286  1.00  0.00    -0.023 A 
HETATM    7  C   UNL     1      -5.261   2.909 -32.929  1.00  0.00     0.128 A 
HETATM    8  N   UNL     1      -5.715   1.637 -32.999  1.00  0.00    -0.236 NA
HETATM    9  C   UNL     1      -4.962   0.691 -32.401  1.00  0.00     0.164 A 
HETATM   10  C   UNL     1      -3.775   0.961 -31.740  1.00  0.00     0.059 A 
HETATM   11  C   UNL     1      -3.328   2.278 -31.691  1.00  0.00     0.014 A 
BRANCH   9  12
HETATM   12  O   UNL     1      -5.365  -0.628 -32.413  1.00  0.00    -0.329 OA
BRANCH  12  13
HETATM   13  C   UNL     1      -5.552  -1.179 -33.713  1.00  0.00     0.130 C 
HETATM   14  C   UNL     1      -4.604  -2.365 -33.883  1.00  0.00     0.032 C 
HETATM   15  C   UNL     1      -5.209  -3.123 -35.050  1.00  0.00     0.002 C 
HETATM   16  C   UNL     1      -6.715  -3.011 -34.838  1.00  0.00     0.002 C 
HETATM   17  C   UNL     1      -6.928  -1.824 -33.897  1.00  0.00     0.032 C 
ENDBRANCH  12  13
ENDBRANCH   9  12
ENDBRANCH   5   6
ENDBRANCH   2   5
BRANCH   1  18
HETATM   18  C   UNL     1      -0.532   5.508 -30.357  1.00  0.00     0.157 A 
HETATM   19  C   UNL     1      -0.365   6.546 -29.393  1.00  0.00     0.029 A 
HETATM   20  C   UNL     1      -0.922   7.821 -29.166  1.00  0.00     0.023 A 
HETATM   21  C   UNL     1       0.607   6.075 -28.520  1.00  0.00     0.063 A 
HETATM   22  C   UNL     1      -0.486   8.581 -28.068  1.00  0.00    -0.061 A 
HETATM   23  C   UNL     1      -1.061   9.944 -27.808  1.00  0.00     0.048 C 
HETATM   24  C   UNL     1       0.500   8.069 -27.214  1.00  0.00     0.009 A 
HETATM   25  C   UNL     1       1.066   6.806 -27.421  1.00  0.00     0.032 A 
HETATM   26  N   UNL     1       0.947   4.838 -28.992  1.00  0.00    -0.277 N 
HETATM   27  H   UNL     1       1.630   4.199 -28.600  1.00  0.00     0.189 HD
HETATM   28  N   UNL     1       0.284   4.462 -30.100  1.00  0.00    -0.168 NA
ENDBRANCH   1  18
TORSDOF 5
ENDMDL
MODEL 4
REMARK VINA RESULT:      -9.1      2.225      3.090
REMARK  5 active torsions:
REMARK  status: ('A' for Active; 'I' for Inactive)
REMARK    1  A    between atoms: C_9  and  C_10 
REMARK       I    between atoms: C_10  and  N_11 
REMARK    2  A    between atoms: N_11  and  C_12 
REMARK    3  A    between atoms: C_12  and  C_13 
REMARK    4  A    between atoms: C_16  and  O_17 
REMARK    5  A    between atoms: O_17  and  C_18 
ROOT
HETATM    1  C   UNL     1      -6.933   2.375 -33.684  1.00  0.00     0.273 C 
HETATM    2  N   UNL     1      -6.046   3.203 -34.335  1.00  0.00    -0.351 N 
HETATM    3  O   UNL     1      -7.631   2.747 -32.745  1.00  0.00    -0.266 OA
HETATM    4  H   UNL     1      -5.463   2.756 -35.039  1.00  0.00     0.163 HD
ENDROOT
BRANCH   2   5
HETATM    5  C   UNL     1      -5.775   4.535 -33.867  1.00  0.00     0.163 C 
BRANCH   5   6
HETATM    6  C   UNL     1      -4.398   4.643 -33.288  1.00  0.00    -0.023 A 
HETATM    7  C   UNL     1      -3.577   5.725 -33.586  1.00  0.00     0.128 A 
HETATM    8  N   UNL     1      -2.333   5.899 -33.084  1.00  0.00    -0.236 NA
HETATM    9  C   UNL     1      -1.883   4.948 -32.239  1.00  0.00     0.164 A 
HETATM   10  C   UNL     1      -2.622   3.836 -31.873  1.00  0.00     0.059 A 
HETATM   11  C   UNL     1      -3.902   3.687 -32.398  1.00  0.00     0.014 A 
BRANCH   9  12
HETATM   12  O   UNL     1      -0.618   5.044 -31.698  1.00  0.00    -0.329 OA
BRANCH  12  13
HETATM   13  C   UNL     1      -0.575   5.592 -30.384  1.00  0.00     0.130 C 
HETATM   14  C   UNL     1       0.610   4.981 -29.638  1.00  0.00     0.032 C 
HETATM   15  C   UNL     1       0.828   5.950 -28.490  1.00  0.00     0.002 C 
HETATM   16  C   UNL     1       0.571   7.325 -29.097  1.00  0.00     0.002 C 
HETATM   17  C   UNL     1      -0.244   7.086 -30.370  1.00  0.00     0.032 C 
ENDBRANCH  12  13
ENDBRANCH   9  12
ENDBRANCH   5   6
ENDBRANCH   2   5
BRANCH   1  18
HETATM   18  C   UNL     1      -6.942   1.003 -34.216  1.00  0.00     0.157 A 
HETATM   19  C   UNL     1      -6.040  -0.055 -33.897  1.00  0.00     0.029 A 
HETATM   20  C   UNL     1      -4.924  -0.218 -33.051  1.00  0.00     0.023 A 
HETATM   21  C   UNL     1      -6.460  -1.132 -34.667  1.00  0.00     0.063 A 
HETATM   22  C   UNL     1      -4.267  -1.459 -33.005  1.00  0.00    -0.061 A 
HETATM   23  C   UNL     1      -3.073  -1.656 -32.115  1.00  0.00     0.048 C 
HETATM   24  C   UNL     1      -4.722  -2.518 -33.801  1.00  0.00     0.009 A 
HETATM   25  C   UNL     1      -5.827  -2.378 -34.648  1.00  0.00     0.032 A 
HETATM   26  N   UNL     1      -7.541  -0.675 -35.368  1.00  0.00    -0.277 N 
HETATM   27  H   UNL     1      -8.103  -1.194 -36.033  1.00  0.00     0.189 HD
HETATM   28  N   UNL     1      -7.860   0.609 -35.126  1.00  0.00    -0.168 NA
ENDBRANCH   1  18
TORSDOF 5
ENDMDL
MODEL 5
REMARK VINA RESULT:      -9.0      2.925      9.357
REMARK  5 active torsions:
REMARK  status: ('A' for Active; 'I' for Inactive)
REMARK    1  A    between atoms: C_9  and  C_10 
REMARK       I    between atoms: C_10  and  N_11 
REMARK    2  A    between atoms: N_11  and  C_12 
REMARK    3  A    between atoms: C_12  and  C_13 
REMARK    4  A    between atoms: C_16  and  O_17 
REMARK    5  A    between atoms: O_17  and  C_18 
ROOT
HETATM    1  C   UNL     1      -5.576   4.839 -33.639  1.00  0.00     0.273 C 
HETATM    2  N   UNL     1      -5.511   3.851 -32.683  1.00  0.00    -0.351 N 
HETATM    3  O   UNL     1      -6.623   5.181 -34.179  1.00  0.00    -0.266 OA
HETATM    4  H   UNL     1      -4.575   3.599 -32.374  1.00  0.00     0.163 HD
ENDROOT
BRANCH   2   5
HETATM    5  C   UNL     1      -6.656   3.050 -32.348  1.00  0.00     0.163 C 
BRANCH   5   6
HETATM    6  C   UNL     1      -6.623   1.725 -33.046  1.00  0.00    -0.023 A 
HETATM    7  C   UNL     1      -6.849   1.630 -34.415  1.00  0.00     0.128 A 
HETATM    8  N   UNL     1      -6.813   0.473 -35.114  1.00  0.00    -0.236 NA
HETATM    9  C   UNL     1      -6.537  -0.648 -34.417  1.00  0.00     0.164 A 
HETATM   10  C   UNL     1      -6.291  -0.662 -33.054  1.00  0.00     0.059 A 
HETATM   11  C   UNL     1      -6.326   0.545 -32.361  1.00  0.00     0.014 A 
BRANCH   9  12
HETATM   12  O   UNL     1      -6.499  -1.871 -35.054  1.00  0.00    -0.329 OA
BRANCH  12  13
HETATM   13  C   UNL     1      -5.885  -2.912 -34.303  1.00  0.00     0.130 C 
HETATM   14  C   UNL     1      -6.113  -4.238 -35.027  1.00  0.00     0.032 C 
HETATM   15  C   UNL     1      -5.056  -5.145 -34.423  1.00  0.00     0.002 C 
HETATM   16  C   UNL     1      -3.837  -4.246 -34.248  1.00  0.00     0.002 C 
HETATM   17  C   UNL     1      -4.358  -2.808 -34.273  1.00  0.00     0.032 C 
ENDBRANCH  12  13
ENDBRANCH   9  12
ENDBRANCH   5   6
ENDBRANCH   2   5
BRANCH   1  18
HETATM   18  C   UNL     1      -4.263   5.425 -33.956  1.00  0.00     0.157 A 
HETATM   19  C   UNL     1      -3.371   6.086 -33.061  1.00  0.00     0.029 A 
HETATM   20  C   UNL     1      -3.361   6.406 -31.688  1.00  0.00     0.023 A 
HETATM   21  C   UNL     1      -2.287   6.463 -33.844  1.00  0.00     0.063 A 
HETATM   22  C   UNL     1      -2.262   7.094 -31.145  1.00  0.00    -0.061 A 
HETATM   23  C   UNL     1      -2.231   7.449 -29.687  1.00  0.00     0.048 C 
HETATM   24  C   UNL     1      -1.192   7.458 -31.972  1.00  0.00     0.009 A 
HETATM   25  C   UNL     1      -1.181   7.150 -33.338  1.00  0.00     0.032 A 
HETATM   26  N   UNL     1      -2.582   6.023 -35.104  1.00  0.00    -0.277 N 
HETATM   27  H   UNL     1      -2.013   6.124 -35.937  1.00  0.00     0.189 HD
HETATM   28  N   UNL     1      -3.766   5.395 -35.213  1.00  0.00    -0.168 NA
ENDBRANCH   1  18
TORSDOF 5
ENDMDL
MODEL 6
REMARK VINA RESULT:      -8.8      2.440      8.831
REMARK  5 active torsions:
REMARK  status: ('A' for Active; 'I' for Inactive)
REMARK    1  A    between atoms: C_9  and  C_10 
REMARK       I    between atoms: C_10  and  N_11 
REMARK    2  A    between atoms: N_11  and  C_12 
REMARK    3  A    between atoms: C_12  and  C_13 
REMARK    4  A    between atoms: C_16  and  O_17 
REMARK    5  A    between atoms: O_17  and  C_18 
ROOT
HETATM    1  C   UNL     1      -5.163   4.742 -30.678  1.00  0.00     0.273 C 
HETATM    2  N   UNL     1      -4.814   3.589 -30.012  1.00  0.00    -0.351 N 
HETATM    3  O   UNL     1      -6.265   4.911 -31.192  1.00  0.00    -0.266 OA
HETATM    4  H   UNL     1      -3.845   3.534 -29.706  1.00  0.00     0.163 HD
ENDROOT
BRANCH   2   5
HETATM    5  C   UNL     1      -5.677   2.440 -29.990  1.00  0.00     0.163 C 
BRANCH   5   6
HETATM    6  C   UNL     1      -5.260   1.422 -31.007  1.00  0.00    -0.023 A 
HETATM    7  C   UNL     1      -6.206   0.679 -31.708  1.00  0.00     0.128 A 
HETATM    8  N   UNL     1      -5.904  -0.240 -32.653  1.00  0.00    -0.236 NA
HETATM    9  C   UNL     1      -4.595  -0.429 -32.918  1.00  0.00     0.164 A 
HETATM   10  C   UNL     1      -3.576   0.261 -32.282  1.00  0.00     0.059 A 
HETATM   11  C   UNL     1      -3.916   1.207 -31.320  1.00  0.00     0.014 A 
BRANCH   9  12
HETATM   12  O   UNL     1      -4.204  -1.361 -33.857  1.00  0.00    -0.329 OA
BRANCH  12  13
HETATM   13  C   UNL     1      -4.843  -2.627 -33.737  1.00  0.00     0.130 C 
HETATM   14  C   UNL     1      -5.564  -2.938 -35.047  1.00  0.00     0.032 C 
HETATM   15  C   UNL     1      -5.780  -4.439 -34.973  1.00  0.00     0.002 C 
HETATM   16  C   UNL     1      -4.506  -4.975 -34.328  1.00  0.00     0.002 C 
HETATM   17  C   UNL     1      -3.852  -3.788 -33.619  1.00  0.00     0.032 C 
ENDBRANCH  12  13
ENDBRANCH   9  12
ENDBRANCH   5   6
ENDBRANCH   2   5
BRANCH   1  18
HETATM   18  C   UNL     1      -4.077   5.735 -30.726  1.00  0.00     0.157 A 
HETATM   19  C   UNL     1      -3.105   5.906 -31.755  1.00  0.00     0.029 A 
HETATM   20  C   UNL     1      -2.816   5.294 -32.992  1.00  0.00     0.023 A 
HETATM   21  C   UNL     1      -2.303   6.955 -31.324  1.00  0.00     0.063 A 
HETATM   22  C   UNL     1      -1.732   5.757 -33.757  1.00  0.00    -0.061 A 
HETATM   23  C   UNL     1      -1.403   5.118 -35.075  1.00  0.00     0.048 C 
HETATM   24  C   UNL     1      -0.947   6.815 -33.282  1.00  0.00     0.009 A 
HETATM   25  C   UNL     1      -1.215   7.437 -32.057  1.00  0.00     0.032 A 
HETATM   26  N   UNL     1      -2.821   7.333 -30.117  1.00  0.00    -0.277 N 
HETATM   27  H   UNL     1      -2.486   8.073 -29.511  1.00  0.00     0.189 HD
HETATM   28  N   UNL     1      -3.890   6.618 -29.720  1.00  0.00    -0.168 NA
ENDBRANCH   1  18
TORSDOF 5
ENDMDL
MODEL 7
REMARK VINA RESULT:      -8.7      2.197      9.465
REMARK  5 active torsions:
REMARK  status: ('A' for Active; 'I' for Inactive)
REMARK    1  A    between atoms: C_9  and  C_10 
REMARK       I    between atoms: C_10  and  N_11 
REMARK    2  A    between atoms: N_11  and  C_12 
REMARK    3  A    between atoms: C_12  and  C_13 
REMARK    4  A    between atoms: C_16  and  O_17 
REMARK    5  A    between atoms: O_17  and  C_18 
ROOT
HETATM    1  C   UNL     1      -3.830   4.729 -31.356  1.00  0.00     0.273 C 
HETATM    2  N   UNL     1      -4.117   3.614 -30.601  1.00  0.00    -0.351 N 
HETATM    3  O   UNL     1      -4.678   5.334 -32.005  1.00  0.00    -0.266 OA
HETATM    4  H   UNL     1      -3.315   3.151 -30.179  1.00  0.00     0.163 HD
ENDROOT
BRANCH   2   5
HETATM    5  C   UNL     1      -5.415   2.997 -30.628  1.00  0.00     0.163 C 
BRANCH   5   6
HETATM    6  C   UNL     1      -5.493   1.933 -31.678  1.00  0.00    -0.023 A 
HETATM    7  C   UNL     1      -6.189   2.144 -32.865  1.00  0.00     0.128 A 
HETATM    8  N   UNL     1      -6.285   1.238 -33.864  1.00  0.00    -0.236 NA
HETATM    9  C   UNL     1      -5.654   0.060 -33.676  1.00  0.00     0.164 A 
HETATM   10  C   UNL     1      -4.931  -0.249 -32.535  1.00  0.00     0.059 A 
HETATM   11  C   UNL     1      -4.842   0.707 -31.527  1.00  0.00     0.014 A 
BRANCH   9  12
HETATM   12  O   UNL     1      -5.718  -0.923 -34.641  1.00  0.00    -0.329 OA
BRANCH  12  13
HETATM   13  C   UNL     1      -5.790  -2.250 -34.131  1.00  0.00     0.130 C 
HETATM   14  C   UNL     1      -6.922  -2.987 -34.845  1.00  0.00     0.032 C 
HETATM   15  C   UNL     1      -6.600  -4.447 -34.583  1.00  0.00     0.002 C 
HETATM   16  C   UNL     1      -5.080  -4.524 -34.678  1.00  0.00     0.002 C 
HETATM   17  C   UNL     1      -4.565  -3.096 -34.489  1.00  0.00     0.032 C 
ENDBRANCH  12  13
ENDBRANCH   9  12
ENDBRANCH   5   6
ENDBRANCH   2   5
BRANCH   1  18
HETATM   18  C   UNL     1      -2.407   5.103 -31.320  1.00  0.00     0.157 A 
HETATM   19  C   UNL     1      -1.795   6.105 -30.510  1.00  0.00     0.029 A 
HETATM   20  C   UNL     1      -2.227   7.025 -29.533  1.00  0.00     0.023 A 
HETATM   21  C   UNL     1      -0.451   6.078 -30.856  1.00  0.00     0.063 A 
HETATM   22  C   UNL     1      -1.294   7.887 -28.933  1.00  0.00    -0.061 A 
HETATM   23  C   UNL     1      -1.731   8.878 -27.893  1.00  0.00     0.048 C 
HETATM   24  C   UNL     1       0.053   7.828 -29.314  1.00  0.00     0.009 A 
HETATM   25  C   UNL     1       0.503   6.923 -30.283  1.00  0.00     0.032 A 
HETATM   26  N   UNL     1      -0.343   5.104 -31.809  1.00  0.00    -0.277 N 
HETATM   27  H   UNL     1       0.499   4.808 -32.290  1.00  0.00     0.189 HD
HETATM   28  N   UNL     1      -1.501   4.495 -32.118  1.00  0.00    -0.168 NA
ENDBRANCH   1  18
TORSDOF 5
ENDMDL
MODEL 8
REMARK VINA RESULT:      -8.7      4.673      8.125
REMARK  5 active torsions:
REMARK  status: ('A' for Active; 'I' for Inactive)
REMARK    1  A    between atoms: C_9  and  C_10 
REMARK       I    between atoms: C_10  and  N_11 
REMARK    2  A    between atoms: N_11  and  C_12 
REMARK    3  A    between atoms: C_12  and  C_13 
REMARK    4  A    between atoms: C_16  and  O_17 
REMARK    5  A    between atoms: O_17  and  C_18 
ROOT
HETATM    1  C   UNL     1      -4.281   0.890 -32.197  1.00  0.00     0.273 C 
HETATM    2  N   UNL     1      -5.542   0.976 -31.651  1.00  0.00    -0.351 N 
HETATM    3  O   UNL     1      -3.698   1.851 -32.688  1.00  0.00    -0.266 OA
HETATM    4  H   UNL     1      -5.954   0.094 -31.354  1.00  0.00     0.163 HD
ENDROOT
BRANCH   2   5
HETATM    5  C   UNL     1      -6.323   2.179 -31.741  1.00  0.00     0.163 C 
BRANCH   5   6
HETATM    6  C   UNL     1      -7.602   1.948 -32.484  1.00  0.00    -0.023 A 
HETATM    7  C   UNL     1      -8.131   0.668 -32.622  1.00  0.00     0.128 A 
HETATM    8  N   UNL     1      -9.290   0.388 -33.260  1.00  0.00    -0.236 NA
HETATM    9  C   UNL     1      -9.960   1.433 -33.787  1.00  0.00     0.164 A 
HETATM   10  C   UNL     1      -9.524   2.745 -33.701  1.00  0.00     0.059 A 
HETATM   11  C   UNL     1      -8.332   3.005 -33.031  1.00  0.00     0.014 A 
BRANCH   9  12
HETATM   12  O   UNL     1     -11.142   1.229 -34.468  1.00  0.00    -0.329 OA
BRANCH  12  13
HETATM   13  C   UNL     1     -12.299   1.162 -33.641  1.00  0.00     0.130 C 
HETATM   14  C   UNL     1     -13.231   2.316 -34.009  1.00  0.00     0.032 C 
HETATM   15  C   UNL     1     -14.565   1.875 -33.435  1.00  0.00     0.002 C 
HETATM   16  C   UNL     1     -14.612   0.373 -33.689  1.00  0.00     0.002 C 
HETATM   17  C   UNL     1     -13.165  -0.068 -33.921  1.00  0.00     0.032 C 
ENDBRANCH  12  13
ENDBRANCH   9  12
ENDBRANCH   5   6
ENDBRANCH   2   5
BRANCH   1  18
HETATM   18  C   UNL     1      -3.721  -0.470 -32.148  1.00  0.00     0.157 A 
HETATM   19  C   UNL     1      -4.159  -1.614 -32.879  1.00  0.00     0.029 A 
HETATM   20  C   UNL     1      -5.163  -1.889 -33.830  1.00  0.00     0.023 A 
HETATM   21  C   UNL     1      -3.322  -2.645 -32.472  1.00  0.00     0.063 A 
HETATM   22  C   UNL     1      -5.293  -3.191 -34.342  1.00  0.00    -0.061 A 
HETATM   23  C   UNL     1      -6.358  -3.508 -35.352  1.00  0.00     0.048 C 
HETATM   24  C   UNL     1      -4.430  -4.202 -33.901  1.00  0.00     0.009 A 
HETATM   25  C   UNL     1      -3.426  -3.951 -32.958  1.00  0.00     0.032 A 
HETATM   26  N   UNL     1      -2.470  -2.081 -31.564  1.00  0.00    -0.277 N 
HETATM   27  H   UNL     1      -1.721  -2.542 -31.059  1.00  0.00     0.189 HD
HETATM   28  N   UNL     1      -2.681  -0.772 -31.339  1.00  0.00    -0.168 NA
ENDBRANCH   1  18
TORSDOF 5
ENDMDL
MODEL 9
REMARK VINA RESULT:      -8.7      4.454      7.516
REMARK  5 active torsions:
REMARK  status: ('A' for Active; 'I' for Inactive)
REMARK    1  A    between atoms: C_9  and  C_10 
REMARK       I    between atoms: C_10  and  N_11 
REMARK    2  A    between atoms: N_11  and  C_12 
REMARK    3  A    between atoms: C_12  and  C_13 
REMARK    4  A    between atoms: C_16  and  O_17 
REMARK    5  A    between atoms: O_17  and  C_18 
ROOT
HETATM    1  C   UNL     1      -4.176   1.997 -31.103  1.00  0.00     0.273 C 
HETATM    2  N   UNL     1      -5.311   1.958 -30.324  1.00  0.00    -0.351 N 
HETATM    3  O   UNL     1      -3.641   3.044 -31.454  1.00  0.00    -0.266 OA
HETATM    4  H   UNL     1      -5.708   1.033 -30.172  1.00  0.00     0.163 HD
ENDROOT
BRANCH   2   5
HETATM    5  C   UNL     1      -6.030   3.153 -29.979  1.00  0.00     0.163 C 
BRANCH   5   6
HETATM    6  C   UNL     1      -7.396   3.168 -30.593  1.00  0.00    -0.023 A 
HETATM    7  C   UNL     1      -8.163   4.328 -30.609  1.00  0.00     0.128 A 
HETATM    8  N   UNL     1      -9.394   4.420 -31.163  1.00  0.00    -0.236 NA
HETATM    9  C   UNL     1      -9.886   3.302 -31.734  1.00  0.00     0.164 A 
HETATM   10  C   UNL     1      -9.202   2.098 -31.778  1.00  0.00     0.059 A 
HETATM   11  C   UNL     1      -7.934   2.035 -31.207  1.00  0.00     0.014 A 
BRANCH   9  12
HETATM   12  O   UNL     1     -11.141   3.310 -32.307  1.00  0.00    -0.329 OA
BRANCH  12  13
HETATM   13  C   UNL     1     -11.210   2.702 -33.592  1.00  0.00     0.130 C 
HETATM   14  C   UNL     1     -12.374   1.713 -33.604  1.00  0.00     0.032 C 
HETATM   15  C   UNL     1     -12.633   1.507 -35.085  1.00  0.00     0.002 C 
HETATM   16  C   UNL     1     -12.427   2.884 -35.704  1.00  0.00     0.002 C 
HETATM   17  C   UNL     1     -11.597   3.686 -34.699  1.00  0.00     0.032 C 
ENDBRANCH  12  13
ENDBRANCH   9  12
ENDBRANCH   5   6
ENDBRANCH   2   5
BRANCH   1  18
HETATM   18  C   UNL     1      -3.689   0.661 -31.484  1.00  0.00     0.157 A 
HETATM   19  C   UNL     1      -4.306  -0.264 -32.377  1.00  0.00     0.029 A 
HETATM   20  C   UNL     1      -5.471  -0.287 -33.170  1.00  0.00     0.023 A 
HETATM   21  C   UNL     1      -3.468  -1.371 -32.387  1.00  0.00     0.063 A 
HETATM   22  C   UNL     1      -5.757  -1.421 -33.949  1.00  0.00    -0.061 A 
HETATM   23  C   UNL     1      -6.994  -1.470 -34.798  1.00  0.00     0.048 C 
HETATM   24  C   UNL     1      -4.886  -2.518 -33.926  1.00  0.00     0.009 A 
HETATM   25  C   UNL     1      -3.723  -2.517 -33.145  1.00  0.00     0.032 A 
HETATM   26  N   UNL     1      -2.444  -1.056 -31.537  1.00  0.00    -0.277 N 
HETATM   27  H   UNL     1      -1.646  -1.634 -31.300  1.00  0.00     0.189 HD
HETATM   28  N   UNL     1      -2.544   0.159 -30.971  1.00  0.00    -0.168 NA
ENDBRANCH   1  18
TORSDOF 5
ENDMDL
MODEL 10
REMARK VINA RESULT:      -8.6      2.436      3.348
REMARK  5 active torsions:
REMARK  status: ('A' for Active; 'I' for Inactive)
REMARK    1  A    between atoms: C_9  and  C_10 
REMARK       I    between atoms: C_10  and  N_11 
REMARK    2  A    between atoms: N_11  and  C_12 
REMARK    3  A    between atoms: C_12  and  C_13 
REMARK    4  A    between atoms: C_16  and  O_17 
REMARK    5  A    between atoms: O_17  and  C_18 
ROOT
HETATM    1  C   UNL     1      -7.352   1.763 -34.229  1.00  0.00     0.273 C 
HETATM    2  N   UNL     1      -6.340   2.697 -34.227  1.00  0.00    -0.351 N 
HETATM    3  O   UNL     1      -8.536   2.060 -34.106  1.00  0.00    -0.266 OA
HETATM    4  H   UNL     1      -5.395   2.321 -34.249  1.00  0.00     0.163 HD
ENDROOT
BRANCH   2   5
HETATM    5  C   UNL     1      -6.593   4.083 -33.942  1.00  0.00     0.163 C 
BRANCH   5   6
HETATM    6  C   UNL     1      -5.338   4.897 -34.021  1.00  0.00    -0.023 A 
HETATM    7  C   UNL     1      -5.067   5.890 -33.085  1.00  0.00     0.128 A 
HETATM    8  N   UNL     1      -3.947   6.648 -33.082  1.00  0.00    -0.236 NA
HETATM    9  C   UNL     1      -3.049   6.405 -34.059  1.00  0.00     0.164 A 
HETATM   10  C   UNL     1      -3.220   5.437 -35.035  1.00  0.00     0.059 A 
HETATM   11  C   UNL     1      -4.378   4.666 -35.008  1.00  0.00     0.014 A 
BRANCH   9  12
HETATM   12  O   UNL     1      -1.888   7.147 -34.135  1.00  0.00    -0.329 OA
BRANCH  12  13
HETATM   13  C   UNL     1      -0.833   6.684 -33.300  1.00  0.00     0.130 C 
HETATM   14  C   UNL     1      -0.825   7.512 -32.016  1.00  0.00     0.032 C 
HETATM   15  C   UNL     1      -0.021   6.652 -31.058  1.00  0.00     0.002 C 
HETATM   16  C   UNL     1      -0.448   5.224 -31.378  1.00  0.00     0.002 C 
HETATM   17  C   UNL     1      -1.062   5.263 -32.778  1.00  0.00     0.032 C 
ENDBRANCH  12  13
ENDBRANCH   9  12
ENDBRANCH   5   6
ENDBRANCH   2   5
BRANCH   1  18
HETATM   18  C   UNL     1      -6.865   0.382 -34.373  1.00  0.00     0.157 A 
HETATM   19  C   UNL     1      -5.756  -0.219 -33.706  1.00  0.00     0.029 A 
HETATM   20  C   UNL     1      -4.799   0.190 -32.755  1.00  0.00     0.023 A 
HETATM   21  C   UNL     1      -5.704  -1.519 -34.192  1.00  0.00     0.063 A 
HETATM   22  C   UNL     1      -3.820  -0.721 -32.322  1.00  0.00    -0.061 A 
HETATM   23  C   UNL     1      -2.788  -0.306 -31.314  1.00  0.00     0.048 C 
HETATM   24  C   UNL     1      -3.802  -2.022 -32.841  1.00  0.00     0.009 A 
HETATM   25  C   UNL     1      -4.743  -2.449 -33.786  1.00  0.00     0.032 A 
HETATM   26  N   UNL     1      -6.739  -1.615 -35.079  1.00  0.00    -0.277 N 
HETATM   27  H   UNL     1      -7.004  -2.426 -35.626  1.00  0.00     0.189 HD
HETATM   28  N   UNL     1      -7.460  -0.488 -35.218  1.00  0.00    -0.168 NA
ENDBRANCH   1  18
TORSDOF 5
ENDMDL
