MODEL 1
REMARK VINA RESULT:      -8.8      0.000      0.000
REMARK  6 active torsions:
REMARK  status: ('A' for Active; 'I' for Inactive)
REMARK    1  A    between atoms: C_4  and  C_5 
REMARK    2  A    between atoms: C_5  and  O_6 
REMARK    3  A    between atoms: O_6  and  C_7 
REMARK    4  A    between atoms: C_10  and  C_11 
REMARK    5  A    between atoms: C_17  and  C_18 
REMARK    6  A    between atoms: C_27  and  N_28 
ROOT
HETATM    1  C   UNL     1      -6.599   3.235 -30.398  1.00  0.00     0.072 A 
HETATM    2  N   UNL     1      -6.696   3.704 -29.105  1.00  0.00    -0.274 N 
HETATM    3  H   UNL     1      -6.221   3.349 -28.282  1.00  0.00     0.189 HD
HETATM    4  N   UNL     1      -7.530   4.755 -28.961  1.00  0.00    -0.148 NA
HETATM    5  C   UNL     1      -7.957   4.950 -30.202  1.00  0.00     0.199 A 
HETATM    6  C   UNL     1      -7.439   4.052 -31.137  1.00  0.00     0.040 A 
HETATM    7  C   UNL     1      -7.847   4.123 -32.565  1.00  0.00     0.106 A 
HETATM    8  C   UNL     1      -8.810   5.282 -32.801  1.00  0.00     0.081 A 
HETATM    9  C   UNL     1      -9.205   5.515 -34.151  1.00  0.00     0.100 C 
HETATM   10  N   UNL     1      -9.522   5.695 -35.253  1.00  0.00    -0.191 NA
HETATM   11  C   UNL     1      -9.243   6.097 -31.803  1.00  0.00     0.140 A 
HETATM   12  O   UNL     1      -8.838   5.930 -30.471  1.00  0.00    -0.277 OA
ENDROOT
BRANCH   7  13
HETATM   13  C   UNL     1      -8.445   2.767 -32.913  1.00  0.00    -0.041 A 
HETATM   14  C   UNL     1      -9.611   2.275 -32.309  1.00  0.00     0.027 A 
HETATM   15  C   UNL     1     -10.088   1.029 -32.690  1.00  0.00     0.116 A 
HETATM   16  N   UNL     1      -9.504   0.253 -33.626  1.00  0.00    -0.273 NA
HETATM   17  C   UNL     1      -8.391   0.744 -34.209  1.00  0.00     0.116 A 
HETATM   18  C   UNL     1      -7.835   1.974 -33.896  1.00  0.00     0.027 A 
ENDBRANCH   7  13
BRANCH  11  19
HETATM   19  N   UNL     1     -10.105   7.160 -31.966  1.00  0.00    -0.282 NA
HETATM   20  H   UNL     1     -11.030   6.934 -32.322  1.00  0.00     0.126 HD
HETATM   21  H   UNL     1     -10.126   7.763 -31.146  1.00  0.00     0.126 HD
ENDBRANCH  11  19
BRANCH   1  22
HETATM   22  C   UNL     1      -5.806   2.075 -30.773  1.00  0.00    -0.007 A 
HETATM   23  C   UNL     1      -6.352   0.789 -30.686  1.00  0.00     0.016 A 
HETATM   24  C   UNL     1      -5.631  -0.315 -31.144  1.00  0.00     0.037 A 
HETATM   25  C   UNL     1      -4.370  -0.137 -31.708  1.00  0.00     0.069 A 
HETATM   26  C   UNL     1      -3.790   1.130 -31.744  1.00  0.00     0.037 A 
HETATM   27  C   UNL     1      -4.511   2.235 -31.282  1.00  0.00     0.016 A 
BRANCH  25  28
HETATM   28  O   UNL     1      -3.754  -1.261 -32.181  1.00  0.00    -0.347 OA
BRANCH  28  29
HETATM   29  C   UNL     1      -3.766  -1.358 -33.611  1.00  0.00     0.214 C 
BRANCH  29  30
HETATM   30  C   UNL     1      -4.667  -2.495 -34.032  1.00  0.00    -0.034 A 
HETATM   31  C   UNL     1      -6.002  -2.246 -34.384  1.00  0.00     0.009 A 
HETATM   32  C   UNL     1      -6.837  -3.290 -34.788  1.00  0.00     0.001 A 
HETATM   33  C   UNL     1      -6.345  -4.592 -34.851  1.00  0.00     0.000 A 
HETATM   34  C   UNL     1      -5.019  -4.851 -34.514  1.00  0.00     0.001 A 
HETATM   35  C   UNL     1      -4.182  -3.808 -34.111  1.00  0.00     0.009 A 
ENDBRANCH  29  30
ENDBRANCH  28  29
ENDBRANCH  25  28
ENDBRANCH   1  22
TORSDOF 6
ENDMDL
MODEL 2
REMARK VINA RESULT:      -8.7      4.131      7.393
REMARK  6 active torsions:
REMARK  status: ('A' for Active; 'I' for Inactive)
REMARK    1  A    between atoms: C_4  and  C_5 
REMARK    2  A    between atoms: C_5  and  O_6 
REMARK    3  A    between atoms: O_6  and  C_7 
REMARK    4  A    between atoms: C_10  and  C_11 
REMARK    5  A    between atoms: C_17  and  C_18 
REMARK    6  A    between atoms: C_27  and  N_28 
ROOT
HETATM    1  C   UNL     1      -6.280   3.606 -32.949  1.00  0.00     0.072 A 
HETATM    2  N   UNL     1      -7.225   4.462 -32.424  1.00  0.00    -0.274 N 
HETATM    3  H   UNL     1      -7.115   5.449 -32.213  1.00  0.00     0.189 HD
HETATM    4  N   UNL     1      -8.417   3.882 -32.175  1.00  0.00    -0.148 NA
HETATM    5  C   UNL     1      -8.210   2.631 -32.565  1.00  0.00     0.199 A 
HETATM    6  C   UNL     1      -6.921   2.382 -33.042  1.00  0.00     0.040 A 
HETATM    7  C   UNL     1      -6.527   1.019 -33.488  1.00  0.00     0.106 A 
HETATM    8  C   UNL     1      -7.698   0.049 -33.379  1.00  0.00     0.081 A 
HETATM    9  C   UNL     1      -7.475  -1.274 -33.865  1.00  0.00     0.100 C 
HETATM   10  N   UNL     1      -7.282  -2.347 -34.260  1.00  0.00    -0.191 NA
HETATM   11  C   UNL     1      -8.916   0.412 -32.899  1.00  0.00     0.140 A 
HETATM   12  O   UNL     1      -9.189   1.715 -32.459  1.00  0.00    -0.277 OA
ENDROOT
BRANCH   7  13
HETATM   13  C   UNL     1      -5.332   0.613 -32.636  1.00  0.00    -0.041 A 
HETATM   14  C   UNL     1      -5.350   0.657 -31.235  1.00  0.00     0.027 A 
HETATM   15  C   UNL     1      -4.217   0.265 -30.537  1.00  0.00     0.116 A 
HETATM   16  N   UNL     1      -3.085  -0.174 -31.126  1.00  0.00    -0.273 NA
HETATM   17  C   UNL     1      -3.085  -0.223 -32.473  1.00  0.00     0.116 A 
HETATM   18  C   UNL     1      -4.165   0.149 -33.259  1.00  0.00     0.027 A 
ENDBRANCH   7  13
BRANCH  11  19
HETATM   19  N   UNL     1     -10.007  -0.424 -32.789  1.00  0.00    -0.282 NA
HETATM   20  H   UNL     1      -9.815  -1.364 -32.452  1.00  0.00     0.126 HD
HETATM   21  H   UNL     1     -10.784   0.025 -32.309  1.00  0.00     0.126 HD
ENDBRANCH  11  19
BRANCH   1  22
HETATM   22  C   UNL     1      -4.911   4.002 -33.239  1.00  0.00    -0.007 A 
HETATM   23  C   UNL     1      -4.622   4.758 -34.381  1.00  0.00     0.016 A 
HETATM   24  C   UNL     1      -3.327   5.228 -34.606  1.00  0.00     0.037 A 
HETATM   25  C   UNL     1      -2.320   4.962 -33.682  1.00  0.00     0.069 A 
HETATM   26  C   UNL     1      -2.580   4.160 -32.572  1.00  0.00     0.037 A 
HETATM   27  C   UNL     1      -3.877   3.687 -32.349  1.00  0.00     0.016 A 
BRANCH  25  28
HETATM   28  O   UNL     1      -1.095   5.504 -33.948  1.00  0.00    -0.347 OA
BRANCH  28  29
HETATM   29  C   UNL     1      -1.040   6.921 -33.738  1.00  0.00     0.214 C 
BRANCH  29  30
HETATM   30  C   UNL     1      -0.923   7.209 -32.259  1.00  0.00    -0.034 A 
HETATM   31  C   UNL     1       0.161   6.707 -31.525  1.00  0.00     0.009 A 
HETATM   32  C   UNL     1       0.283   6.981 -30.162  1.00  0.00     0.001 A 
HETATM   33  C   UNL     1      -0.673   7.765 -29.519  1.00  0.00     0.000 A 
HETATM   34  C   UNL     1      -1.750   8.277 -30.239  1.00  0.00     0.001 A 
HETATM   35  C   UNL     1      -1.873   8.005 -31.604  1.00  0.00     0.009 A 
ENDBRANCH  29  30
ENDBRANCH  28  29
ENDBRANCH  25  28
ENDBRANCH   1  22
TORSDOF 6
ENDMDL
MODEL 3
REMARK VINA RESULT:      -8.6      3.081      4.909
REMARK  6 active torsions:
REMARK  status: ('A' for Active; 'I' for Inactive)
REMARK    1  A    between atoms: C_4  and  C_5 
REMARK    2  A    between atoms: C_5  and  O_6 
REMARK    3  A    between atoms: O_6  and  C_7 
REMARK    4  A    between atoms: C_10  and  C_11 
REMARK    5  A    between atoms: C_17  and  C_18 
REMARK    6  A    between atoms: C_27  and  N_28 
ROOT
HETATM    1  C   UNL     1     -11.795   1.195 -33.381  1.00  0.00     0.072 A 
HETATM    2  N   UNL     1     -12.734   0.342 -33.922  1.00  0.00    -0.274 N 
HETATM    3  H   UNL     1     -12.575  -0.572 -34.332  1.00  0.00     0.189 HD
HETATM    4  N   UNL     1     -13.996   0.817 -33.882  1.00  0.00    -0.148 NA
HETATM    5  C   UNL     1     -13.838   1.995 -33.293  1.00  0.00     0.199 A 
HETATM    6  C   UNL     1     -12.516   2.301 -32.965  1.00  0.00     0.040 A 
HETATM    7  C   UNL     1     -12.174   3.600 -32.326  1.00  0.00     0.106 A 
HETATM    8  C   UNL     1     -13.426   4.434 -32.078  1.00  0.00     0.081 A 
HETATM    9  C   UNL     1     -13.242   5.666 -31.383  1.00  0.00     0.100 C 
HETATM   10  N   UNL     1     -13.082   6.668 -30.820  1.00  0.00    -0.191 NA
HETATM   11  C   UNL     1     -14.670   4.024 -32.441  1.00  0.00     0.140 A 
HETATM   12  O   UNL     1     -14.897   2.797 -33.081  1.00  0.00    -0.277 OA
ENDROOT
BRANCH   7  13
HETATM   13  C   UNL     1     -11.171   4.284 -33.244  1.00  0.00    -0.041 A 
HETATM   14  C   UNL     1      -9.850   4.554 -32.858  1.00  0.00     0.027 A 
HETATM   15  C   UNL     1      -9.002   5.178 -33.761  1.00  0.00     0.116 A 
HETATM   16  N   UNL     1      -9.365   5.537 -35.010  1.00  0.00    -0.273 NA
HETATM   17  C   UNL     1     -10.633   5.261 -35.373  1.00  0.00     0.116 A 
HETATM   18  C   UNL     1     -11.556   4.643 -34.544  1.00  0.00     0.027 A 
ENDBRANCH   7  13
BRANCH  11  19
HETATM   19  N   UNL     1     -15.832   4.736 -32.232  1.00  0.00    -0.282 NA
HETATM   20  H   UNL     1     -16.645   4.424 -32.757  1.00  0.00     0.126 HD
HETATM   21  H   UNL     1     -16.022   4.874 -31.242  1.00  0.00     0.126 HD
ENDBRANCH  11  19
BRANCH   1  22
HETATM   22  C   UNL     1     -10.368   0.913 -33.371  1.00  0.00    -0.007 A 
HETATM   23  C   UNL     1      -9.766   0.364 -32.232  1.00  0.00     0.016 A 
HETATM   24  C   UNL     1      -8.420  -0.004 -32.256  1.00  0.00     0.037 A 
HETATM   25  C   UNL     1      -7.674   0.156 -33.421  1.00  0.00     0.069 A 
HETATM   26  C   UNL     1      -8.245   0.757 -34.542  1.00  0.00     0.037 A 
HETATM   27  C   UNL     1      -9.593   1.129 -34.517  1.00  0.00     0.016 A 
BRANCH  25  28
HETATM   28  O   UNL     1      -6.380  -0.279 -33.378  1.00  0.00    -0.347 OA
BRANCH  28  29
HETATM   29  C   UNL     1      -5.897  -0.755 -34.640  1.00  0.00     0.214 C 
BRANCH  29  30
HETATM   30  C   UNL     1      -5.639  -2.242 -34.555  1.00  0.00    -0.034 A 
HETATM   31  C   UNL     1      -6.654  -3.155 -34.880  1.00  0.00     0.009 A 
HETATM   32  C   UNL     1      -6.419  -4.529 -34.817  1.00  0.00     0.001 A 
HETATM   33  C   UNL     1      -5.167  -5.007 -34.435  1.00  0.00     0.000 A 
HETATM   34  C   UNL     1      -4.148  -4.111 -34.118  1.00  0.00     0.001 A 
HETATM   35  C   UNL     1      -4.381  -2.735 -34.182  1.00  0.00     0.009 A 
ENDBRANCH  29  30
ENDBRANCH  28  29
ENDBRANCH  25  28
ENDBRANCH   1  22
TORSDOF 6
ENDMDL
MODEL 4
REMARK VINA RESULT:      -8.4      3.419      6.715
REMARK  6 active torsions:
REMARK  status: ('A' for Active; 'I' for Inactive)
REMARK    1  A    between atoms: C_4  and  C_5 
REMARK    2  A    between atoms: C_5  and  O_6 
REMARK    3  A    between atoms: O_6  and  C_7 
REMARK    4  A    between atoms: C_10  and  C_11 
REMARK    5  A    between atoms: C_17  and  C_18 
REMARK    6  A    between atoms: C_27  and  N_28 
ROOT
HETATM    1  C   UNL     1      -5.777   1.348 -32.209  1.00  0.00     0.072 A 
HETATM    2  N   UNL     1      -5.241   0.498 -31.265  1.00  0.00    -0.274 N 
HETATM    3  H   UNL     1      -5.648  -0.358 -30.903  1.00  0.00     0.189 HD
HETATM    4  N   UNL     1      -4.038   0.886 -30.794  1.00  0.00    -0.148 NA
HETATM    5  C   UNL     1      -3.815   2.005 -31.470  1.00  0.00     0.199 A 
HETATM    6  C   UNL     1      -4.841   2.359 -32.350  1.00  0.00     0.040 A 
HETATM    7  C   UNL     1      -4.751   3.605 -33.158  1.00  0.00     0.106 A 
HETATM    8  C   UNL     1      -3.434   4.328 -32.902  1.00  0.00     0.081 A 
HETATM    9  C   UNL     1      -3.185   5.492 -33.688  1.00  0.00     0.100 C 
HETATM   10  N   UNL     1      -2.994   6.439 -34.330  1.00  0.00    -0.191 NA
HETATM   11  C   UNL     1      -2.505   3.880 -32.018  1.00  0.00     0.140 A 
HETATM   12  O   UNL     1      -2.691   2.713 -31.264  1.00  0.00    -0.277 OA
ENDROOT
BRANCH   7  13
HETATM   13  C   UNL     1      -5.973   4.441 -32.801  1.00  0.00    -0.041 A 
HETATM   14  C   UNL     1      -6.983   4.740 -33.726  1.00  0.00     0.027 A 
HETATM   15  C   UNL     1      -8.064   5.506 -33.313  1.00  0.00     0.116 A 
HETATM   16  N   UNL     1      -8.216   5.979 -32.059  1.00  0.00    -0.273 NA
HETATM   17  C   UNL     1      -7.244   5.674 -31.176  1.00  0.00     0.116 A 
HETATM   18  C   UNL     1      -6.125   4.918 -31.491  1.00  0.00     0.027 A 
ENDBRANCH   7  13
BRANCH  11  19
HETATM   19  N   UNL     1      -1.297   4.492 -31.758  1.00  0.00    -0.282 NA
HETATM   20  H   UNL     1      -1.340   5.349 -31.212  1.00  0.00     0.126 HD
HETATM   21  H   UNL     1      -0.601   3.832 -31.416  1.00  0.00     0.126 HD
ENDBRANCH  11  19
BRANCH   1  22
HETATM   22  C   UNL     1      -7.088   1.157 -32.807  1.00  0.00    -0.007 A 
HETATM   23  C   UNL     1      -8.246   1.481 -32.089  1.00  0.00     0.016 A 
HETATM   24  C   UNL     1      -9.499   1.398 -32.698  1.00  0.00     0.037 A 
HETATM   25  C   UNL     1      -9.601   1.011 -34.031  1.00  0.00     0.069 A 
HETATM   26  C   UNL     1      -8.463   0.627 -34.739  1.00  0.00     0.037 A 
HETATM   27  C   UNL     1      -7.208   0.707 -34.128  1.00  0.00     0.016 A 
BRANCH  25  28
HETATM   28  O   UNL     1     -10.857   1.008 -34.568  1.00  0.00    -0.347 OA
BRANCH  28  29
HETATM   29  C   UNL     1     -11.516   2.278 -34.481  1.00  0.00     0.214 C 
BRANCH  29  30
HETATM   30  C   UNL     1     -12.904   2.089 -33.915  1.00  0.00    -0.034 A 
HETATM   31  C   UNL     1     -13.786   1.166 -34.497  1.00  0.00     0.009 A 
HETATM   32  C   UNL     1     -15.064   0.976 -33.970  1.00  0.00     0.001 A 
HETATM   33  C   UNL     1     -15.474   1.701 -32.853  1.00  0.00     0.000 A 
HETATM   34  C   UNL     1     -14.606   2.615 -32.261  1.00  0.00     0.001 A 
HETATM   35  C   UNL     1     -13.325   2.805 -32.785  1.00  0.00     0.009 A 
ENDBRANCH  29  30
ENDBRANCH  28  29
ENDBRANCH  25  28
ENDBRANCH   1  22
TORSDOF 6
ENDMDL
MODEL 5
REMARK VINA RESULT:      -8.4     15.745     18.428
REMARK  6 active torsions:
REMARK  status: ('A' for Active; 'I' for Inactive)
REMARK    1  A    between atoms: C_4  and  C_5 
REMARK    2  A    between atoms: C_5  and  O_6 
REMARK    3  A    between atoms: O_6  and  C_7 
REMARK    4  A    between atoms: C_10  and  C_11 
REMARK    5  A    between atoms: C_17  and  C_18 
REMARK    6  A    between atoms: C_27  and  N_28 
ROOT
HETATM    1  C   UNL     1      -8.876 -12.746 -40.014  1.00  0.00     0.072 A 
HETATM    2  N   UNL     1      -9.915 -11.860 -39.822  1.00  0.00    -0.274 N 
HETATM    3  H   UNL     1      -9.861 -10.914 -39.459  1.00  0.00     0.189 HD
HETATM    4  N   UNL     1     -11.124 -12.346 -40.170  1.00  0.00    -0.148 NA
HETATM    5  C   UNL     1     -10.828 -13.566 -40.597  1.00  0.00     0.199 A 
HETATM    6  C   UNL     1      -9.472 -13.888 -40.523  1.00  0.00     0.040 A 
HETATM    7  C   UNL     1      -8.987 -15.232 -40.937  1.00  0.00     0.106 A 
HETATM    8  C   UNL     1     -10.136 -16.092 -41.453  1.00  0.00     0.081 A 
HETATM    9  C   UNL     1      -9.787 -17.375 -41.969  1.00  0.00     0.100 C 
HETATM   10  N   UNL     1      -9.493 -18.418 -42.384  1.00  0.00    -0.191 NA
HETATM   11  C   UNL     1     -11.425 -15.663 -41.480  1.00  0.00     0.140 A 
HETATM   12  O   UNL     1     -11.800 -14.390 -41.028  1.00  0.00    -0.277 OA
ENDROOT
BRANCH   7  13
HETATM   13  C   UNL     1      -8.286 -15.833 -39.726  1.00  0.00    -0.041 A 
HETATM   14  C   UNL     1      -8.966 -16.170 -38.547  1.00  0.00     0.027 A 
HETATM   15  C   UNL     1      -8.248 -16.716 -37.493  1.00  0.00     0.116 A 
HETATM   16  N   UNL     1      -6.922 -16.960 -37.532  1.00  0.00    -0.273 NA
HETATM   17  C   UNL     1      -6.283 -16.643 -38.676  1.00  0.00     0.116 A 
HETATM   18  C   UNL     1      -6.909 -16.092 -39.783  1.00  0.00     0.027 A 
ENDBRANCH   7  13
BRANCH  11  19
HETATM   19  N   UNL     1     -12.495 -16.398 -41.944  1.00  0.00    -0.282 NA
HETATM   20  H   UNL     1     -12.266 -17.212 -42.508  1.00  0.00     0.126 HD
HETATM   21  H   UNL     1     -13.170 -16.596 -41.207  1.00  0.00     0.126 HD
ENDBRANCH  11  19
BRANCH   1  22
HETATM   22  C   UNL     1      -7.497 -12.456 -39.653  1.00  0.00    -0.007 A 
HETATM   23  C   UNL     1      -7.066 -12.617 -38.331  1.00  0.00     0.016 A 
HETATM   24  C   UNL     1      -5.720 -12.440 -38.003  1.00  0.00     0.037 A 
HETATM   25  C   UNL     1      -4.798 -12.123 -38.997  1.00  0.00     0.069 A 
HETATM   26  C   UNL     1      -5.224 -11.901 -40.305  1.00  0.00     0.037 A 
HETATM   27  C   UNL     1      -6.572 -12.074 -40.632  1.00  0.00     0.016 A 
BRANCH  25  28
HETATM   28  O   UNL     1      -3.493 -12.022 -38.603  1.00  0.00    -0.347 OA
BRANCH  28  29
HETATM   29  C   UNL     1      -3.019 -13.178 -37.901  1.00  0.00     0.214 C 
BRANCH  29  30
HETATM   30  C   UNL     1      -1.787 -13.717 -38.591  1.00  0.00    -0.034 A 
HETATM   31  C   UNL     1      -1.741 -13.804 -39.990  1.00  0.00     0.009 A 
HETATM   32  C   UNL     1      -0.601 -14.287 -40.634  1.00  0.00     0.001 A 
HETATM   33  C   UNL     1       0.508 -14.683 -39.888  1.00  0.00     0.000 A 
HETATM   34  C   UNL     1       0.478 -14.593 -38.499  1.00  0.00     0.001 A 
HETATM   35  C   UNL     1      -0.661 -14.108 -37.852  1.00  0.00     0.009 A 
ENDBRANCH  29  30
ENDBRANCH  28  29
ENDBRANCH  25  28
ENDBRANCH   1  22
TORSDOF 6
ENDMDL
MODEL 6
REMARK VINA RESULT:      -8.3      4.518      6.173
REMARK  6 active torsions:
REMARK  status: ('A' for Active; 'I' for Inactive)
REMARK    1  A    between atoms: C_4  and  C_5 
REMARK    2  A    between atoms: C_5  and  O_6 
REMARK    3  A    between atoms: O_6  and  C_7 
REMARK    4  A    between atoms: C_10  and  C_11 
REMARK    5  A    between atoms: C_17  and  C_18 
REMARK    6  A    between atoms: C_27  and  N_28 
ROOT
HETATM    1  C   UNL     1      -5.024   6.065 -30.603  1.00  0.00     0.072 A 
HETATM    2  N   UNL     1      -6.131   6.819 -30.274  1.00  0.00    -0.274 N 
HETATM    3  H   UNL     1      -7.103   6.609 -30.474  1.00  0.00     0.189 HD
HETATM    4  N   UNL     1      -5.843   7.960 -29.614  1.00  0.00    -0.148 NA
HETATM    5  C   UNL     1      -4.521   7.909 -29.521  1.00  0.00     0.199 A 
HETATM    6  C   UNL     1      -3.946   6.782 -30.113  1.00  0.00     0.040 A 
HETATM    7  C   UNL     1      -2.470   6.598 -30.117  1.00  0.00     0.106 A 
HETATM    8  C   UNL     1      -1.774   7.739 -29.384  1.00  0.00     0.081 A 
HETATM    9  C   UNL     1      -0.360   7.632 -29.238  1.00  0.00     0.100 C 
HETATM   10  N   UNL     1       0.791   7.537 -29.127  1.00  0.00    -0.191 NA
HETATM   11  C   UNL     1      -2.447   8.788 -28.842  1.00  0.00     0.140 A 
HETATM   12  O   UNL     1      -3.843   8.903 -28.922  1.00  0.00    -0.277 OA
ENDROOT
BRANCH   7  13
HETATM   13  C   UNL     1      -2.053   6.481 -31.577  1.00  0.00    -0.041 A 
HETATM   14  C   UNL     1      -1.568   5.290 -32.134  1.00  0.00     0.027 A 
HETATM   15  C   UNL     1      -1.214   5.272 -33.475  1.00  0.00     0.116 A 
HETATM   16  N   UNL     1      -1.319   6.338 -34.295  1.00  0.00    -0.273 NA
HETATM   17  C   UNL     1      -1.798   7.474 -33.750  1.00  0.00     0.116 A 
HETATM   18  C   UNL     1      -2.176   7.594 -32.422  1.00  0.00     0.027 A 
ENDBRANCH   7  13
BRANCH  11  19
HETATM   19  N   UNL     1      -1.867   9.838 -28.164  1.00  0.00    -0.282 NA
HETATM   20  H   UNL     1      -1.161  10.362 -28.674  1.00  0.00     0.126 HD
HETATM   21  H   UNL     1      -2.561  10.431 -27.713  1.00  0.00     0.126 HD
ENDBRANCH  11  19
BRANCH   1  22
HETATM   22  C   UNL     1      -5.094   4.829 -31.366  1.00  0.00    -0.007 A 
HETATM   23  C   UNL     1      -5.047   3.592 -30.711  1.00  0.00     0.016 A 
HETATM   24  C   UNL     1      -5.218   2.408 -31.430  1.00  0.00     0.037 A 
HETATM   25  C   UNL     1      -5.458   2.454 -32.800  1.00  0.00     0.069 A 
HETATM   26  C   UNL     1      -5.446   3.674 -33.474  1.00  0.00     0.037 A 
HETATM   27  C   UNL     1      -5.271   4.860 -32.755  1.00  0.00     0.016 A 
BRANCH  25  28
HETATM   28  O   UNL     1      -5.670   1.255 -33.420  1.00  0.00    -0.347 OA
BRANCH  28  29
HETATM   29  C   UNL     1      -5.022   0.154 -32.769  1.00  0.00     0.214 C 
BRANCH  29  30
HETATM   30  C   UNL     1      -5.317  -1.123 -33.521  1.00  0.00    -0.034 A 
HETATM   31  C   UNL     1      -4.281  -2.016 -33.831  1.00  0.00     0.009 A 
HETATM   32  C   UNL     1      -4.548  -3.204 -34.513  1.00  0.00     0.001 A 
HETATM   33  C   UNL     1      -5.854  -3.516 -34.887  1.00  0.00     0.000 A 
HETATM   34  C   UNL     1      -6.893  -2.642 -34.577  1.00  0.00     0.001 A 
HETATM   35  C   UNL     1      -6.628  -1.453 -33.893  1.00  0.00     0.009 A 
ENDBRANCH  29  30
ENDBRANCH  28  29
ENDBRANCH  25  28
ENDBRANCH   1  22
TORSDOF 6
ENDMDL
MODEL 7
REMARK VINA RESULT:      -8.2      2.316      3.932
REMARK  6 active torsions:
REMARK  status: ('A' for Active; 'I' for Inactive)
REMARK    1  A    between atoms: C_4  and  C_5 
REMARK    2  A    between atoms: C_5  and  O_6 
REMARK    3  A    between atoms: O_6  and  C_7 
REMARK    4  A    between atoms: C_10  and  C_11 
REMARK    5  A    between atoms: C_17  and  C_18 
REMARK    6  A    between atoms: C_27  and  N_28 
ROOT
HETATM    1  C   UNL     1      -7.494   2.725 -30.739  1.00  0.00     0.072 A 
HETATM    2  N   UNL     1      -8.872   2.667 -30.732  1.00  0.00    -0.274 N 
HETATM    3  H   UNL     1      -9.462   1.965 -31.165  1.00  0.00     0.189 HD
HETATM    4  N   UNL     1      -9.462   3.679 -30.063  1.00  0.00    -0.148 NA
HETATM    5  C   UNL     1      -8.422   4.382 -29.635  1.00  0.00     0.199 A 
HETATM    6  C   UNL     1      -7.182   3.866 -30.017  1.00  0.00     0.040 A 
HETATM    7  C   UNL     1      -5.922   4.559 -29.639  1.00  0.00     0.106 A 
HETATM    8  C   UNL     1      -6.211   5.796 -28.795  1.00  0.00     0.081 A 
HETATM    9  C   UNL     1      -5.078   6.499 -28.290  1.00  0.00     0.100 C 
HETATM   10  N   UNL     1      -4.149   7.066 -27.885  1.00  0.00    -0.191 NA
HETATM   11  C   UNL     1      -7.470   6.199 -28.483  1.00  0.00     0.140 A 
HETATM   12  O   UNL     1      -8.608   5.505 -28.919  1.00  0.00    -0.277 OA
ENDROOT
BRANCH   7  13
HETATM   13  C   UNL     1      -5.195   4.877 -30.938  1.00  0.00    -0.041 A 
HETATM   14  C   UNL     1      -3.955   4.314 -31.271  1.00  0.00     0.027 A 
HETATM   15  C   UNL     1      -3.365   4.657 -32.479  1.00  0.00     0.116 A 
HETATM   16  N   UNL     1      -3.920   5.498 -33.375  1.00  0.00    -0.273 NA
HETATM   17  C   UNL     1      -5.119   6.023 -33.049  1.00  0.00     0.116 A 
HETATM   18  C   UNL     1      -5.787   5.745 -31.867  1.00  0.00     0.027 A 
ENDBRANCH   7  13
BRANCH  11  19
HETATM   19  N   UNL     1      -7.783   7.302 -27.718  1.00  0.00    -0.282 NA
HETATM   20  H   UNL     1      -8.221   7.112 -26.820  1.00  0.00     0.126 HD
HETATM   21  H   UNL     1      -7.005   7.956 -27.656  1.00  0.00     0.126 HD
ENDBRANCH  11  19
BRANCH   1  22
HETATM   22  C   UNL     1      -6.655   1.773 -31.448  1.00  0.00    -0.007 A 
HETATM   23  C   UNL     1      -6.460   1.896 -32.829  1.00  0.00     0.016 A 
HETATM   24  C   UNL     1      -5.573   1.047 -33.493  1.00  0.00     0.037 A 
HETATM   25  C   UNL     1      -4.862   0.085 -32.779  1.00  0.00     0.069 A 
HETATM   26  C   UNL     1      -5.093  -0.088 -31.415  1.00  0.00     0.037 A 
HETATM   27  C   UNL     1      -5.983   0.760 -30.750  1.00  0.00     0.016 A 
BRANCH  25  28
HETATM   28  O   UNL     1      -3.974  -0.667 -33.493  1.00  0.00    -0.347 OA
BRANCH  28  29
HETATM   29  C   UNL     1      -3.800  -1.991 -32.973  1.00  0.00     0.214 C 
BRANCH  29  30
HETATM   30  C   UNL     1      -4.656  -2.959 -33.757  1.00  0.00    -0.034 A 
HETATM   31  C   UNL     1      -5.866  -2.532 -34.326  1.00  0.00     0.009 A 
HETATM   32  C   UNL     1      -6.654  -3.416 -35.064  1.00  0.00     0.001 A 
HETATM   33  C   UNL     1      -6.241  -4.735 -35.246  1.00  0.00     0.000 A 
HETATM   34  C   UNL     1      -5.038  -5.168 -34.694  1.00  0.00     0.001 A 
HETATM   35  C   UNL     1      -4.246  -4.284 -33.957  1.00  0.00     0.009 A 
ENDBRANCH  29  30
ENDBRANCH  28  29
ENDBRANCH  25  28
ENDBRANCH   1  22
TORSDOF 6
ENDMDL
MODEL 8
REMARK VINA RESULT:      -8.0      2.669      3.766
REMARK  6 active torsions:
REMARK  status: ('A' for Active; 'I' for Inactive)
REMARK    1  A    between atoms: C_4  and  C_5 
REMARK    2  A    between atoms: C_5  and  O_6 
REMARK    3  A    between atoms: O_6  and  C_7 
REMARK    4  A    between atoms: C_10  and  C_11 
REMARK    5  A    between atoms: C_17  and  C_18 
REMARK    6  A    between atoms: C_27  and  N_28 
ROOT
HETATM    1  C   UNL     1      -9.796   4.027 -32.265  1.00  0.00     0.072 A 
HETATM    2  N   UNL     1      -9.554   4.548 -31.012  1.00  0.00    -0.274 N 
HETATM    3  H   UNL     1      -8.892   4.211 -30.320  1.00  0.00     0.189 HD
HETATM    4  N   UNL     1     -10.304   5.628 -30.710  1.00  0.00    -0.148 NA
HETATM    5  C   UNL     1     -11.027   5.788 -31.810  1.00  0.00     0.199 A 
HETATM    6  C   UNL     1     -10.779   4.839 -32.805  1.00  0.00     0.040 A 
HETATM    7  C   UNL     1     -11.534   4.868 -34.086  1.00  0.00     0.106 A 
HETATM    8  C   UNL     1     -12.503   6.044 -34.123  1.00  0.00     0.081 A 
HETATM    9  C   UNL     1     -13.222   6.237 -35.340  1.00  0.00     0.100 C 
HETATM   10  N   UNL     1     -13.804   6.384 -36.333  1.00  0.00    -0.191 NA
HETATM   11  C   UNL     1     -12.655   6.909 -33.086  1.00  0.00     0.140 A 
HETATM   12  O   UNL     1     -11.929   6.782 -31.893  1.00  0.00    -0.277 OA
ENDROOT
BRANCH   7  13
HETATM   13  C   UNL     1     -12.226   3.517 -34.212  1.00  0.00    -0.041 A 
HETATM   14  C   UNL     1     -11.928   2.605 -35.233  1.00  0.00     0.027 A 
HETATM   15  C   UNL     1     -12.606   1.395 -35.270  1.00  0.00     0.116 A 
HETATM   16  N   UNL     1     -13.536   1.026 -34.366  1.00  0.00    -0.273 NA
HETATM   17  C   UNL     1     -13.804   1.907 -33.381  1.00  0.00     0.116 A 
HETATM   18  C   UNL     1     -13.185   3.141 -33.260  1.00  0.00     0.027 A 
ENDBRANCH   7  13
BRANCH  11  19
HETATM   19  N   UNL     1     -13.509   7.991 -33.074  1.00  0.00    -0.282 NA
HETATM   20  H   UNL     1     -13.157   8.841 -33.506  1.00  0.00     0.126 HD
HETATM   21  H   UNL     1     -14.446   7.740 -33.383  1.00  0.00     0.126 HD
ENDBRANCH  11  19
BRANCH   1  22
HETATM   22  C   UNL     1      -9.145   2.831 -32.776  1.00  0.00    -0.007 A 
HETATM   23  C   UNL     1      -9.597   1.563 -32.390  1.00  0.00     0.016 A 
HETATM   24  C   UNL     1      -9.043   0.415 -32.959  1.00  0.00     0.037 A 
HETATM   25  C   UNL     1      -8.050   0.528 -33.929  1.00  0.00     0.069 A 
HETATM   26  C   UNL     1      -7.549   1.781 -34.277  1.00  0.00     0.037 A 
HETATM   27  C   UNL     1      -8.102   2.931 -33.705  1.00  0.00     0.016 A 
BRANCH  25  28
HETATM   28  O   UNL     1      -7.600  -0.640 -34.476  1.00  0.00    -0.347 OA
BRANCH  28  29
HETATM   29  C   UNL     1      -6.174  -0.777 -34.436  1.00  0.00     0.214 C 
BRANCH  29  30
HETATM   30  C   UNL     1      -5.806  -2.242 -34.474  1.00  0.00    -0.034 A 
HETATM   31  C   UNL     1      -4.509  -2.654 -34.131  1.00  0.00     0.009 A 
HETATM   32  C   UNL     1      -4.166  -4.007 -34.150  1.00  0.00     0.001 A 
HETATM   33  C   UNL     1      -5.115  -4.963 -34.505  1.00  0.00     0.000 A 
HETATM   34  C   UNL     1      -6.408  -4.568 -34.840  1.00  0.00     0.001 A 
HETATM   35  C   UNL     1      -6.754  -3.215 -34.820  1.00  0.00     0.009 A 
ENDBRANCH  29  30
ENDBRANCH  28  29
ENDBRANCH  25  28
ENDBRANCH   1  22
TORSDOF 6
ENDMDL
MODEL 9
REMARK VINA RESULT:      -7.8      3.191      4.708
REMARK  6 active torsions:
REMARK  status: ('A' for Active; 'I' for Inactive)
REMARK    1  A    between atoms: C_4  and  C_5 
REMARK    2  A    between atoms: C_5  and  O_6 
REMARK    3  A    between atoms: O_6  and  C_7 
REMARK    4  A    between atoms: C_10  and  C_11 
REMARK    5  A    between atoms: C_17  and  C_18 
REMARK    6  A    between atoms: C_27  and  N_28 
ROOT
HETATM    1  C   UNL     1      -6.893   4.933 -31.532  1.00  0.00     0.072 A 
HETATM    2  N   UNL     1      -8.104   5.538 -31.792  1.00  0.00    -0.274 N 
HETATM    3  H   UNL     1      -8.940   5.108 -32.174  1.00  0.00     0.189 HD
HETATM    4  N   UNL     1      -8.138   6.853 -31.492  1.00  0.00    -0.148 NA
HETATM    5  C   UNL     1      -6.916   7.070 -31.024  1.00  0.00     0.199 A 
HETATM    6  C   UNL     1      -6.091   5.943 -31.027  1.00  0.00     0.040 A 
HETATM    7  C   UNL     1      -4.682   6.034 -30.560  1.00  0.00     0.106 A 
HETATM    8  C   UNL     1      -4.354   7.443 -30.081  1.00  0.00     0.081 A 
HETATM    9  C   UNL     1      -3.057   7.639 -29.520  1.00  0.00     0.100 C 
HETATM   10  N   UNL     1      -1.999   7.788 -29.068  1.00  0.00    -0.191 NA
HETATM   11  C   UNL     1      -5.249   8.465 -30.125  1.00  0.00     0.140 A 
HETATM   12  O   UNL     1      -6.550   8.300 -30.622  1.00  0.00    -0.277 OA
ENDROOT
BRANCH   7  13
HETATM   13  C   UNL     1      -3.810   5.579 -31.723  1.00  0.00    -0.041 A 
HETATM   14  C   UNL     1      -3.025   4.418 -31.673  1.00  0.00     0.027 A 
HETATM   15  C   UNL     1      -2.263   4.076 -32.781  1.00  0.00     0.116 A 
HETATM   16  N   UNL     1      -2.237   4.789 -33.925  1.00  0.00    -0.273 NA
HETATM   17  C   UNL     1      -3.006   5.896 -33.965  1.00  0.00     0.116 A 
HETATM   18  C   UNL     1      -3.800   6.323 -32.911  1.00  0.00     0.027 A 
ENDBRANCH   7  13
BRANCH  11  19
HETATM   19  N   UNL     1      -5.005   9.752 -29.697  1.00  0.00    -0.282 NA
HETATM   20  H   UNL     1      -5.821  10.351 -29.599  1.00  0.00     0.126 HD
HETATM   21  H   UNL     1      -4.391   9.774 -28.885  1.00  0.00     0.126 HD
ENDBRANCH  11  19
BRANCH   1  22
HETATM   22  C   UNL     1      -6.612   3.538 -31.833  1.00  0.00    -0.007 A 
HETATM   23  C   UNL     1      -6.761   2.559 -30.843  1.00  0.00     0.016 A 
HETATM   24  C   UNL     1      -6.594   1.210 -31.157  1.00  0.00     0.037 A 
HETATM   25  C   UNL     1      -6.297   0.830 -32.463  1.00  0.00     0.069 A 
HETATM   26  C   UNL     1      -6.086   1.797 -33.444  1.00  0.00     0.037 A 
HETATM   27  C   UNL     1      -6.250   3.149 -33.129  1.00  0.00     0.016 A 
BRANCH  25  28
HETATM   28  O   UNL     1      -6.205  -0.513 -32.698  1.00  0.00    -0.347 OA
BRANCH  28  29
HETATM   29  C   UNL     1      -6.336  -0.860 -34.082  1.00  0.00     0.214 C 
BRANCH  29  30
HETATM   30  C   UNL     1      -5.893  -2.290 -34.289  1.00  0.00    -0.034 A 
HETATM   31  C   UNL     1      -4.580  -2.676 -33.980  1.00  0.00     0.009 A 
HETATM   32  C   UNL     1      -4.169  -3.998 -34.154  1.00  0.00     0.001 A 
HETATM   33  C   UNL     1      -5.066  -4.951 -34.633  1.00  0.00     0.000 A 
HETATM   34  C   UNL     1      -6.375  -4.583 -34.935  1.00  0.00     0.001 A 
HETATM   35  C   UNL     1      -6.789  -3.260 -34.760  1.00  0.00     0.009 A 
ENDBRANCH  29  30
ENDBRANCH  28  29
ENDBRANCH  25  28
ENDBRANCH   1  22
TORSDOF 6
ENDMDL
MODEL 10
REMARK VINA RESULT:      -7.8      1.581      2.331
REMARK  6 active torsions:
REMARK  status: ('A' for Active; 'I' for Inactive)
REMARK    1  A    between atoms: C_4  and  C_5 
REMARK    2  A    between atoms: C_5  and  O_6 
REMARK    3  A    between atoms: O_6  and  C_7 
REMARK    4  A    between atoms: C_10  and  C_11 
REMARK    5  A    between atoms: C_17  and  C_18 
REMARK    6  A    between atoms: C_27  and  N_28 
ROOT
HETATM    1  C   UNL     1      -5.625   4.250 -29.517  1.00  0.00     0.072 A 
HETATM    2  N   UNL     1      -5.253   4.579 -28.230  1.00  0.00    -0.274 N 
HETATM    3  H   UNL     1      -4.640   4.058 -27.612  1.00  0.00     0.189 HD
HETATM    4  N   UNL     1      -5.788   5.733 -27.780  1.00  0.00    -0.148 NA
HETATM    5  C   UNL     1      -6.506   6.137 -28.819  1.00  0.00     0.199 A 
HETATM    6  C   UNL     1      -6.464   5.276 -29.917  1.00  0.00     0.040 A 
HETATM    7  C   UNL     1      -7.244   5.577 -31.148  1.00  0.00     0.106 A 
HETATM    8  C   UNL     1      -7.988   6.901 -31.013  1.00  0.00     0.081 A 
HETATM    9  C   UNL     1      -8.700   7.350 -32.165  1.00  0.00     0.100 C 
HETATM   10  N   UNL     1      -9.279   7.705 -33.106  1.00  0.00    -0.191 NA
HETATM   11  C   UNL     1      -7.948   7.659 -29.886  1.00  0.00     0.140 A 
HETATM   12  O   UNL     1      -7.219   7.276 -28.752  1.00  0.00    -0.277 OA
ENDROOT
BRANCH   7  13
HETATM   13  C   UNL     1      -8.169   4.390 -31.377  1.00  0.00    -0.041 A 
HETATM   14  C   UNL     1      -9.169   4.022 -30.465  1.00  0.00     0.027 A 
HETATM   15  C   UNL     1      -9.970   2.928 -30.756  1.00  0.00     0.116 A 
HETATM   16  N   UNL     1      -9.859   2.190 -31.880  1.00  0.00    -0.273 NA
HETATM   17  C   UNL     1      -8.902   2.562 -32.754  1.00  0.00     0.116 A 
HETATM   18  C   UNL     1      -8.051   3.638 -32.554  1.00  0.00     0.027 A 
ENDBRANCH   7  13
BRANCH  11  19
HETATM   19  N   UNL     1      -8.595   8.864 -29.718  1.00  0.00    -0.282 NA
HETATM   20  H   UNL     1      -9.606   8.846 -29.827  1.00  0.00     0.126 HD
HETATM   21  H   UNL     1      -8.291   9.346 -28.874  1.00  0.00     0.126 HD
ENDBRANCH  11  19
BRANCH   1  22
HETATM   22  C   UNL     1      -5.215   3.023 -30.181  1.00  0.00    -0.007 A 
HETATM   23  C   UNL     1      -4.099   3.019 -31.027  1.00  0.00     0.016 A 
HETATM   24  C   UNL     1      -3.642   1.823 -31.583  1.00  0.00     0.037 A 
HETATM   25  C   UNL     1      -4.284   0.624 -31.281  1.00  0.00     0.069 A 
HETATM   26  C   UNL     1      -5.431   0.624 -30.489  1.00  0.00     0.037 A 
HETATM   27  C   UNL     1      -5.891   1.822 -29.935  1.00  0.00     0.016 A 
BRANCH  25  28
HETATM   28  O   UNL     1      -3.741  -0.507 -31.820  1.00  0.00    -0.347 OA
BRANCH  28  29
HETATM   29  C   UNL     1      -3.707  -0.496 -33.253  1.00  0.00     0.214 C 
BRANCH  29  30
HETATM   30  C   UNL     1      -4.762  -1.435 -33.791  1.00  0.00    -0.034 A 
HETATM   31  C   UNL     1      -4.414  -2.732 -34.196  1.00  0.00     0.009 A 
HETATM   32  C   UNL     1      -5.386  -3.609 -34.680  1.00  0.00     0.001 A 
HETATM   33  C   UNL     1      -6.716  -3.202 -34.759  1.00  0.00     0.000 A 
HETATM   34  C   UNL     1      -7.076  -1.920 -34.352  1.00  0.00     0.001 A 
HETATM   35  C   UNL     1      -6.105  -1.041 -33.865  1.00  0.00     0.009 A 
ENDBRANCH  29  30
ENDBRANCH  28  29
ENDBRANCH  25  28
ENDBRANCH   1  22
TORSDOF 6
ENDMDL
