MODEL 1
REMARK VINA RESULT:      -9.4      0.000      0.000
REMARK  7 active torsions:
REMARK  status: ('A' for Active; 'I' for Inactive)
REMARK    1  A    between atoms: O_2  and  C_3 
REMARK    2  A    between atoms: C_4  and  O_5 
REMARK    3  A    between atoms: C_8  and  C_9 
REMARK    4  A    between atoms: N_10  and  N_11 
REMARK    5  A    between atoms: C_22  and  C_23 
REMARK       I    between atoms: C_23  and  N_24 
REMARK    6  A    between atoms: N_24  and  C_25 
REMARK    7  A    between atoms: C_32  and  N_33 
ROOT
HETATM    1  N   UNL     1      -7.166   3.294 -31.327  1.00  0.00    -0.197 N 
HETATM    2  C   UNL     1      -6.154   3.786 -32.129  1.00  0.00     0.183 A 
HETATM    3  C   UNL     1      -6.747   4.299 -33.271  1.00  0.00     0.125 A 
HETATM    4  N   UNL     1      -6.005   4.784 -34.305  1.00  0.00    -0.242 NA
HETATM    5  C   UNL     1      -4.677   4.736 -34.110  1.00  0.00     0.086 A 
HETATM    6  C   UNL     1      -4.091   4.194 -32.934  1.00  0.00     0.088 A 
HETATM    7  N   UNL     1      -4.818   3.697 -31.919  1.00  0.00    -0.225 NA
HETATM    8  C   UNL     1      -3.851   5.230 -35.111  1.00  0.00     0.034 A 
HETATM    9  C   UNL     1      -2.461   5.195 -34.993  1.00  0.00     0.002 A 
HETATM   10  C   UNL     1      -1.887   4.654 -33.852  1.00  0.00     0.002 A 
HETATM   11  C   UNL     1      -2.707   4.161 -32.835  1.00  0.00     0.034 A 
HETATM   12  C   UNL     1      -8.154   4.154 -33.164  1.00  0.00     0.110 C 
HETATM   13  C   UNL     1      -8.392   3.614 -31.910  1.00  0.00     0.143 C 
ENDROOT
BRANCH   1  14
HETATM   14  N   UNL     1      -6.989   2.623 -30.147  1.00  0.00    -0.176 NA
HETATM   15  C   UNL     1      -6.866   1.329 -30.226  1.00  0.00     0.150 C 
BRANCH  15  16
HETATM   16  C   UNL     1      -6.716   0.455 -31.414  1.00  0.00    -0.014 A 
HETATM   17  C   UNL     1      -5.449  -0.064 -31.693  1.00  0.00     0.052 A 
HETATM   18  C   UNL     1      -5.255  -0.862 -32.826  1.00  0.00     0.102 A 
HETATM   19  C   UNL     1      -6.337  -1.117 -33.696  1.00  0.00     0.101 A 
HETATM   20  C   UNL     1      -7.598  -0.580 -33.411  1.00  0.00     0.040 A 
HETATM   21  C   UNL     1      -7.786   0.215 -32.278  1.00  0.00     0.016 A 
BRANCH  18  22
HETATM   22  O   UNL     1      -4.052  -1.417 -33.186  1.00  0.00    -0.353 OA
HETATM   23  C   UNL     1      -3.411  -2.272 -32.250  1.00  0.00     0.210 C 
ENDBRANCH  18  22
BRANCH  19  24
HETATM   24  O   UNL     1      -6.058  -1.903 -34.787  1.00  0.00    -0.353 OA
HETATM   25  C   UNL     1      -6.562  -3.231 -34.787  1.00  0.00     0.210 C 
ENDBRANCH  19  24
ENDBRANCH  15  16
ENDBRANCH   1  14
BRANCH  13  26
HETATM   26  N   UNL     1      -9.567   3.329 -31.289  1.00  0.00    -0.383 N 
HETATM   27  H   UNL     1     -10.218   4.099 -31.111  1.00  0.00     0.157 HD
HETATM   28  H   UNL     1      -9.594   2.598 -30.581  1.00  0.00     0.157 HD
ENDBRANCH  13  26
BRANCH  12  29
HETATM   29  C   UNL     1      -9.163   4.413 -34.181  1.00  0.00     0.258 C 
HETATM   30  N   UNL     1     -10.148   3.444 -34.244  1.00  0.00    -0.352 N 
HETATM   31  H   UNL     1      -9.984   2.628 -33.661  1.00  0.00     0.163 HD
HETATM   32  O   UNL     1      -9.207   5.455 -34.830  1.00  0.00    -0.267 OA
BRANCH  30  33
HETATM   33  C   UNL     1     -11.539   3.841 -34.413  1.00  0.00     0.084 C 
HETATM   34  C   UNL     1     -12.071   3.393 -35.779  1.00  0.00     0.025 C 
HETATM   35  C   UNL     1     -12.217   1.872 -35.890  1.00  0.00     0.002 C 
HETATM   36  C   UNL     1     -13.024   1.280 -34.736  1.00  0.00     0.000 C 
HETATM   37  C   UNL     1     -12.505   1.726 -33.373  1.00  0.00     0.002 C 
HETATM   38  C   UNL     1     -12.405   3.250 -33.284  1.00  0.00     0.025 C 
ENDBRANCH  30  33
ENDBRANCH  12  29
TORSDOF 7
ENDMDL
MODEL 2
REMARK VINA RESULT:      -9.2      1.649      6.163
REMARK  7 active torsions:
REMARK  status: ('A' for Active; 'I' for Inactive)
REMARK    1  A    between atoms: O_2  and  C_3 
REMARK    2  A    between atoms: C_4  and  O_5 
REMARK    3  A    between atoms: C_8  and  C_9 
REMARK    4  A    between atoms: N_10  and  N_11 
REMARK    5  A    between atoms: C_22  and  C_23 
REMARK       I    between atoms: C_23  and  N_24 
REMARK    6  A    between atoms: N_24  and  C_25 
REMARK    7  A    between atoms: C_32  and  N_33 
ROOT
HETATM    1  N   UNL     1      -6.392   3.027 -31.535  1.00  0.00    -0.197 N 
HETATM    2  C   UNL     1      -7.460   3.469 -32.293  1.00  0.00     0.183 A 
HETATM    3  C   UNL     1      -6.941   4.210 -33.341  1.00  0.00     0.125 A 
HETATM    4  N   UNL     1      -7.747   4.860 -34.226  1.00  0.00    -0.242 NA
HETATM    5  C   UNL     1      -9.062   4.701 -34.002  1.00  0.00     0.086 A 
HETATM    6  C   UNL     1      -9.572   3.945 -32.912  1.00  0.00     0.088 A 
HETATM    7  N   UNL     1      -8.780   3.318 -32.026  1.00  0.00    -0.225 NA
HETATM    8  C   UNL     1      -9.953   5.316 -34.873  1.00  0.00     0.034 A 
HETATM    9  C   UNL     1     -11.333   5.218 -34.695  1.00  0.00     0.002 A 
HETATM   10  C   UNL     1     -11.832   4.491 -33.623  1.00  0.00     0.002 A 
HETATM   11  C   UNL     1     -10.947   3.861 -32.745  1.00  0.00     0.034 A 
HETATM   12  C   UNL     1      -5.524   4.204 -33.255  1.00  0.00     0.110 C 
HETATM   13  C   UNL     1      -5.209   3.386 -32.180  1.00  0.00     0.143 C 
ENDROOT
BRANCH   1  14
HETATM   14  N   UNL     1      -6.486   2.336 -30.358  1.00  0.00    -0.176 NA
HETATM   15  C   UNL     1      -6.576   1.041 -30.449  1.00  0.00     0.150 C 
BRANCH  15  16
HETATM   16  C   UNL     1      -6.428   0.153 -31.627  1.00  0.00    -0.014 A 
HETATM   17  C   UNL     1      -5.191  -0.461 -31.835  1.00  0.00     0.052 A 
HETATM   18  C   UNL     1      -4.995  -1.275 -32.956  1.00  0.00     0.102 A 
HETATM   19  C   UNL     1      -6.043  -1.450 -33.885  1.00  0.00     0.101 A 
HETATM   20  C   UNL     1      -7.273  -0.819 -33.670  1.00  0.00     0.040 A 
HETATM   21  C   UNL     1      -7.463  -0.007 -32.549  1.00  0.00     0.016 A 
BRANCH  18  22
HETATM   22  O   UNL     1      -3.819  -1.922 -33.249  1.00  0.00    -0.353 OA
HETATM   23  C   UNL     1      -3.348  -2.890 -32.323  1.00  0.00     0.210 C 
ENDBRANCH  18  22
BRANCH  19  24
HETATM   24  O   UNL     1      -5.765  -2.260 -34.960  1.00  0.00    -0.353 OA
HETATM   25  C   UNL     1      -6.293  -3.578 -34.945  1.00  0.00     0.210 C 
ENDBRANCH  19  24
ENDBRANCH  15  16
ENDBRANCH   1  14
BRANCH  13  26
HETATM   26  N   UNL     1      -3.996   3.001 -31.703  1.00  0.00    -0.383 N 
HETATM   27  H   UNL     1      -3.630   3.478 -30.875  1.00  0.00     0.157 HD
HETATM   28  H   UNL     1      -3.274   2.701 -32.356  1.00  0.00     0.157 HD
ENDBRANCH  13  26
BRANCH  12  29
HETATM   29  C   UNL     1      -4.572   4.967 -34.048  1.00  0.00     0.258 C 
HETATM   30  N   UNL     1      -3.688   5.711 -33.288  1.00  0.00    -0.352 N 
HETATM   31  H   UNL     1      -3.885   5.721 -32.291  1.00  0.00     0.163 HD
HETATM   32  O   UNL     1      -4.480   4.860 -35.268  1.00  0.00    -0.267 OA
BRANCH  30  33
HETATM   33  C   UNL     1      -2.282   5.764 -33.665  1.00  0.00     0.084 C 
HETATM   34  C   UNL     1      -1.815   7.216 -33.821  1.00  0.00     0.025 C 
HETATM   35  C   UNL     1      -1.758   7.968 -32.489  1.00  0.00     0.002 C 
HETATM   36  C   UNL     1      -0.953   7.216 -31.431  1.00  0.00     0.000 C 
HETATM   37  C   UNL     1      -1.407   5.770 -31.273  1.00  0.00     0.002 C 
HETATM   38  C   UNL     1      -1.420   5.037 -32.616  1.00  0.00     0.025 C 
ENDBRANCH  30  33
ENDBRANCH  12  29
TORSDOF 7
ENDMDL
MODEL 3
REMARK VINA RESULT:      -9.1      2.354      5.023
REMARK  7 active torsions:
REMARK  status: ('A' for Active; 'I' for Inactive)
REMARK    1  A    between atoms: O_2  and  C_3 
REMARK    2  A    between atoms: C_4  and  O_5 
REMARK    3  A    between atoms: C_8  and  C_9 
REMARK    4  A    between atoms: N_10  and  N_11 
REMARK    5  A    between atoms: C_22  and  C_23 
REMARK       I    between atoms: C_23  and  N_24 
REMARK    6  A    between atoms: N_24  and  C_25 
REMARK    7  A    between atoms: C_32  and  N_33 
ROOT
HETATM    1  N   UNL     1      -7.215   3.266 -31.455  1.00  0.00    -0.197 N 
HETATM    2  C   UNL     1      -6.965   2.185 -32.279  1.00  0.00     0.183 A 
HETATM    3  C   UNL     1      -7.593   2.436 -33.487  1.00  0.00     0.125 A 
HETATM    4  N   UNL     1      -7.609   1.515 -34.491  1.00  0.00    -0.242 NA
HETATM    5  C   UNL     1      -6.956   0.375 -34.210  1.00  0.00     0.086 A 
HETATM    6  C   UNL     1      -6.329   0.134 -32.958  1.00  0.00     0.088 A 
HETATM    7  N   UNL     1      -6.328   1.033 -31.959  1.00  0.00    -0.225 NA
HETATM    8  C   UNL     1      -6.908  -0.609 -35.190  1.00  0.00     0.034 A 
HETATM    9  C   UNL     1      -6.271  -1.829 -34.968  1.00  0.00     0.002 A 
HETATM   10  C   UNL     1      -5.670  -2.072 -33.740  1.00  0.00     0.002 A 
HETATM   11  C   UNL     1      -5.704  -1.087 -32.750  1.00  0.00     0.034 A 
HETATM   12  C   UNL     1      -8.217   3.710 -33.428  1.00  0.00     0.110 C 
HETATM   13  C   UNL     1      -7.887   4.241 -32.190  1.00  0.00     0.143 C 
ENDROOT
BRANCH   1  14
HETATM   14  N   UNL     1      -6.843   3.365 -30.141  1.00  0.00    -0.176 NA
HETATM   15  C   UNL     1      -5.607   3.700 -29.910  1.00  0.00     0.150 C 
BRANCH  15  16
HETATM   16  C   UNL     1      -4.551   4.161 -30.842  1.00  0.00    -0.014 A 
HETATM   17  C   UNL     1      -4.511   5.519 -31.170  1.00  0.00     0.052 A 
HETATM   18  C   UNL     1      -3.556   5.991 -32.078  1.00  0.00     0.102 A 
HETATM   19  C   UNL     1      -2.654   5.085 -32.678  1.00  0.00     0.101 A 
HETATM   20  C   UNL     1      -2.714   3.726 -32.349  1.00  0.00     0.040 A 
HETATM   21  C   UNL     1      -3.669   3.261 -31.442  1.00  0.00     0.016 A 
BRANCH  18  22
HETATM   22  O   UNL     1      -3.434   7.303 -32.464  1.00  0.00    -0.353 OA
HETATM   23  C   UNL     1      -3.010   8.243 -31.488  1.00  0.00     0.210 C 
ENDBRANCH  18  22
BRANCH  19  24
HETATM   24  O   UNL     1      -1.753   5.630 -33.560  1.00  0.00    -0.353 OA
HETATM   25  C   UNL     1      -1.723   5.103 -34.879  1.00  0.00     0.210 C 
ENDBRANCH  19  24
ENDBRANCH  15  16
ENDBRANCH   1  14
BRANCH  13  26
HETATM   26  N   UNL     1      -8.183   5.455 -31.654  1.00  0.00    -0.383 N 
HETATM   27  H   UNL     1      -9.143   5.800 -31.741  1.00  0.00     0.157 HD
HETATM   28  H   UNL     1      -7.480   6.192 -31.667  1.00  0.00     0.157 HD
ENDBRANCH  13  26
BRANCH  12  29
HETATM   29  C   UNL     1      -9.109   4.320 -34.402  1.00  0.00     0.258 C 
HETATM   30  N   UNL     1     -10.090   3.464 -34.868  1.00  0.00    -0.352 N 
HETATM   31  H   UNL     1      -9.996   2.499 -34.563  1.00  0.00     0.163 HD
HETATM   32  O   UNL     1      -9.073   5.514 -34.687  1.00  0.00    -0.267 OA
BRANCH  30  33
HETATM   33  C   UNL     1     -11.451   3.953 -35.038  1.00  0.00     0.084 C 
HETATM   34  C   UNL     1     -12.274   2.986 -35.897  1.00  0.00     0.025 C 
HETATM   35  C   UNL     1     -12.559   1.658 -35.188  1.00  0.00     0.002 C 
HETATM   36  C   UNL     1     -13.169   1.857 -33.803  1.00  0.00     0.000 C 
HETATM   37  C   UNL     1     -12.360   2.823 -32.944  1.00  0.00     0.002 C 
HETATM   38  C   UNL     1     -12.124   4.151 -33.666  1.00  0.00     0.025 C 
ENDBRANCH  30  33
ENDBRANCH  12  29
TORSDOF 7
ENDMDL
MODEL 4
REMARK VINA RESULT:      -9.1      2.320      5.314
REMARK  7 active torsions:
REMARK  status: ('A' for Active; 'I' for Inactive)
REMARK    1  A    between atoms: O_2  and  C_3 
REMARK    2  A    between atoms: C_4  and  O_5 
REMARK    3  A    between atoms: C_8  and  C_9 
REMARK    4  A    between atoms: N_10  and  N_11 
REMARK    5  A    between atoms: C_22  and  C_23 
REMARK       I    between atoms: C_23  and  N_24 
REMARK    6  A    between atoms: N_24  and  C_25 
REMARK    7  A    between atoms: C_32  and  N_33 
ROOT
HETATM    1  N   UNL     1      -7.175   1.227 -30.922  1.00  0.00    -0.197 N 
HETATM    2  C   UNL     1      -6.764   0.349 -31.908  1.00  0.00     0.183 A 
HETATM    3  C   UNL     1      -7.810   0.224 -32.808  1.00  0.00     0.125 A 
HETATM    4  N   UNL     1      -7.751  -0.643 -33.857  1.00  0.00    -0.242 NA
HETATM    5  C   UNL     1      -6.603  -1.335 -33.943  1.00  0.00     0.086 A 
HETATM    6  C   UNL     1      -5.549  -1.200 -33.000  1.00  0.00     0.088 A 
HETATM    7  N   UNL     1      -5.610  -0.359 -31.954  1.00  0.00    -0.225 NA
HETATM    8  C   UNL     1      -6.456  -2.228 -34.998  1.00  0.00     0.034 A 
HETATM    9  C   UNL     1      -5.304  -3.000 -35.144  1.00  0.00     0.002 A 
HETATM   10  C   UNL     1      -4.279  -2.879 -34.217  1.00  0.00     0.002 A 
HETATM   11  C   UNL     1      -4.411  -1.980 -33.156  1.00  0.00     0.034 A 
HETATM   12  C   UNL     1      -8.877   1.064 -32.395  1.00  0.00     0.110 C 
HETATM   13  C   UNL     1      -8.421   1.743 -31.276  1.00  0.00     0.143 C 
ENDROOT
BRANCH   1  14
HETATM   14  N   UNL     1      -6.463   1.547 -29.798  1.00  0.00    -0.176 NA
HETATM   15  C   UNL     1      -5.484   2.391 -29.950  1.00  0.00     0.150 C 
BRANCH  15  16
HETATM   16  C   UNL     1      -5.099   3.207 -31.125  1.00  0.00    -0.014 A 
HETATM   17  C   UNL     1      -5.876   4.328 -31.430  1.00  0.00     0.052 A 
HETATM   18  C   UNL     1      -5.573   5.104 -32.554  1.00  0.00     0.102 A 
HETATM   19  C   UNL     1      -4.497   4.733 -33.390  1.00  0.00     0.101 A 
HETATM   20  C   UNL     1      -3.735   3.601 -33.080  1.00  0.00     0.040 A 
HETATM   21  C   UNL     1      -4.042   2.831 -31.956  1.00  0.00     0.016 A 
BRANCH  18  22
HETATM   22  O   UNL     1      -6.274   6.220 -32.938  1.00  0.00    -0.353 OA
HETATM   23  C   UNL     1      -6.541   7.205 -31.950  1.00  0.00     0.210 C 
ENDBRANCH  18  22
BRANCH  19  24
HETATM   24  O   UNL     1      -4.272   5.545 -34.475  1.00  0.00    -0.353 OA
HETATM   25  C   UNL     1      -2.944   5.628 -34.971  1.00  0.00     0.210 C 
ENDBRANCH  19  24
ENDBRANCH  15  16
ENDBRANCH   1  14
BRANCH  13  26
HETATM   26  N   UNL     1      -9.028   2.703 -30.530  1.00  0.00    -0.383 N 
HETATM   27  H   UNL     1      -9.687   3.333 -30.996  1.00  0.00     0.157 HD
HETATM   28  H   UNL     1      -8.516   3.139 -29.765  1.00  0.00     0.157 HD
ENDBRANCH  13  26
BRANCH  12  29
HETATM   29  C   UNL     1     -10.221   1.145 -32.947  1.00  0.00     0.258 C 
HETATM   30  N   UNL     1     -10.556   2.404 -33.411  1.00  0.00    -0.352 N 
HETATM   31  H   UNL     1      -9.874   3.130 -33.207  1.00  0.00     0.163 HD
HETATM   32  O   UNL     1     -10.941   0.162 -33.103  1.00  0.00    -0.267 OA
BRANCH  30  33
HETATM   33  C   UNL     1     -11.280   2.540 -34.667  1.00  0.00     0.084 C 
HETATM   34  C   UNL     1     -12.793   2.563 -34.422  1.00  0.00     0.025 C 
HETATM   35  C   UNL     1     -13.260   3.837 -33.711  1.00  0.00     0.002 C 
HETATM   36  C   UNL     1     -12.771   5.105 -34.408  1.00  0.00     0.000 C 
HETATM   37  C   UNL     1     -11.268   5.087 -34.660  1.00  0.00     0.002 C 
HETATM   38  C   UNL     1     -10.839   3.819 -35.403  1.00  0.00     0.025 C 
ENDBRANCH  30  33
ENDBRANCH  12  29
TORSDOF 7
ENDMDL
MODEL 5
REMARK VINA RESULT:      -8.9      2.675      6.015
REMARK  7 active torsions:
REMARK  status: ('A' for Active; 'I' for Inactive)
REMARK    1  A    between atoms: O_2  and  C_3 
REMARK    2  A    between atoms: C_4  and  O_5 
REMARK    3  A    between atoms: C_8  and  C_9 
REMARK    4  A    between atoms: N_10  and  N_11 
REMARK    5  A    between atoms: C_22  and  C_23 
REMARK       I    between atoms: C_23  and  N_24 
REMARK    6  A    between atoms: N_24  and  C_25 
REMARK    7  A    between atoms: C_32  and  N_33 
ROOT
HETATM    1  N   UNL     1      -7.552   4.204 -31.456  1.00  0.00    -0.197 N 
HETATM    2  C   UNL     1      -6.692   4.915 -30.641  1.00  0.00     0.183 A 
HETATM    3  C   UNL     1      -5.678   5.410 -31.444  1.00  0.00     0.125 A 
HETATM    4  N   UNL     1      -4.619   6.087 -30.923  1.00  0.00    -0.242 NA
HETATM    5  C   UNL     1      -4.659   6.243 -29.589  1.00  0.00     0.086 A 
HETATM    6  C   UNL     1      -5.704   5.715 -28.783  1.00  0.00     0.088 A 
HETATM    7  N   UNL     1      -6.741   5.030 -29.292  1.00  0.00    -0.225 NA
HETATM    8  C   UNL     1      -3.623   6.941 -28.980  1.00  0.00     0.034 A 
HETATM    9  C   UNL     1      -3.580   7.125 -27.599  1.00  0.00     0.002 A 
HETATM   10  C   UNL     1      -4.593   6.599 -26.809  1.00  0.00     0.002 A 
HETATM   11  C   UNL     1      -5.644   5.902 -27.409  1.00  0.00     0.034 A 
HETATM   12  C   UNL     1      -5.927   5.029 -32.789  1.00  0.00     0.110 C 
HETATM   13  C   UNL     1      -7.143   4.362 -32.781  1.00  0.00     0.143 C 
ENDROOT
BRANCH   1  14
HETATM   14  N   UNL     1      -8.634   3.482 -31.032  1.00  0.00    -0.176 NA
HETATM   15  C   UNL     1      -8.491   2.189 -30.988  1.00  0.00     0.150 C 
BRANCH  15  16
HETATM   16  C   UNL     1      -7.278   1.356 -31.166  1.00  0.00    -0.014 A 
HETATM   17  C   UNL     1      -7.200   0.544 -32.301  1.00  0.00     0.052 A 
HETATM   18  C   UNL     1      -6.091  -0.289 -32.489  1.00  0.00     0.102 A 
HETATM   19  C   UNL     1      -5.069  -0.323 -31.516  1.00  0.00     0.101 A 
HETATM   20  C   UNL     1      -5.167   0.486 -30.378  1.00  0.00     0.040 A 
HETATM   21  C   UNL     1      -6.276   1.316 -30.196  1.00  0.00     0.016 A 
BRANCH  18  22
HETATM   22  O   UNL     1      -5.921  -1.122 -33.567  1.00  0.00    -0.353 OA
HETATM   23  C   UNL     1      -7.076  -1.737 -34.117  1.00  0.00     0.210 C 
ENDBRANCH  18  22
BRANCH  19  24
HETATM   24  O   UNL     1      -4.020  -1.171 -31.775  1.00  0.00    -0.353 OA
HETATM   25  C   UNL     1      -2.705  -0.665 -31.602  1.00  0.00     0.210 C 
ENDBRANCH  19  24
ENDBRANCH  15  16
ENDBRANCH   1  14
BRANCH  13  26
HETATM   26  N   UNL     1      -7.861   3.843 -33.811  1.00  0.00    -0.383 N 
HETATM   27  H   UNL     1      -8.017   4.429 -34.636  1.00  0.00     0.157 HD
HETATM   28  H   UNL     1      -8.629   3.203 -33.612  1.00  0.00     0.157 HD
ENDBRANCH  13  26
BRANCH  12  29
HETATM   29  C   UNL     1      -5.060   5.196 -33.945  1.00  0.00     0.258 C 
HETATM   30  N   UNL     1      -3.968   6.010 -33.706  1.00  0.00    -0.352 N 
HETATM   31  H   UNL     1      -3.970   6.474 -32.802  1.00  0.00     0.163 HD
HETATM   32  O   UNL     1      -5.213   4.573 -34.992  1.00  0.00    -0.267 OA
BRANCH  30  33
HETATM   33  C   UNL     1      -2.662   5.636 -34.232  1.00  0.00     0.084 C 
HETATM   34  C   UNL     1      -1.671   6.799 -34.104  1.00  0.00     0.025 C 
HETATM   35  C   UNL     1      -1.293   7.101 -32.651  1.00  0.00     0.002 C 
HETATM   36  C   UNL     1      -0.817   5.857 -31.904  1.00  0.00     0.000 C 
HETATM   37  C   UNL     1      -1.794   4.693 -32.030  1.00  0.00     0.002 C 
HETATM   38  C   UNL     1      -2.124   4.395 -33.494  1.00  0.00     0.025 C 
ENDBRANCH  30  33
ENDBRANCH  12  29
TORSDOF 7
ENDMDL
MODEL 6
REMARK VINA RESULT:      -8.7      2.480      6.724
REMARK  7 active torsions:
REMARK  status: ('A' for Active; 'I' for Inactive)
REMARK    1  A    between atoms: O_2  and  C_3 
REMARK    2  A    between atoms: C_4  and  O_5 
REMARK    3  A    between atoms: C_8  and  C_9 
REMARK    4  A    between atoms: N_10  and  N_11 
REMARK    5  A    between atoms: C_22  and  C_23 
REMARK       I    between atoms: C_23  and  N_24 
REMARK    6  A    between atoms: N_24  and  C_25 
REMARK    7  A    between atoms: C_32  and  N_33 
ROOT
HETATM    1  N   UNL     1      -8.918   4.235 -30.382  1.00  0.00    -0.197 N 
HETATM    2  C   UNL     1      -9.727   3.648 -31.336  1.00  0.00     0.183 A 
HETATM    3  C   UNL     1      -9.200   2.397 -31.609  1.00  0.00     0.125 A 
HETATM    4  N   UNL     1      -9.723   1.596 -32.578  1.00  0.00    -0.242 NA
HETATM    5  C   UNL     1     -10.786   2.115 -33.216  1.00  0.00     0.086 A 
HETATM    6  C   UNL     1     -11.302   3.407 -32.927  1.00  0.00     0.088 A 
HETATM    7  N   UNL     1     -10.777   4.208 -31.984  1.00  0.00    -0.225 NA
HETATM    8  C   UNL     1     -11.391   1.351 -34.206  1.00  0.00     0.034 A 
HETATM    9  C   UNL     1     -12.484   1.828 -34.929  1.00  0.00     0.002 A 
HETATM   10  C   UNL     1     -12.982   3.095 -34.658  1.00  0.00     0.002 A 
HETATM   11  C   UNL     1     -12.387   3.869 -33.659  1.00  0.00     0.034 A 
HETATM   12  C   UNL     1      -8.062   2.187 -30.788  1.00  0.00     0.110 C 
HETATM   13  C   UNL     1      -7.966   3.303 -29.970  1.00  0.00     0.143 C 
ENDROOT
BRANCH   1  14
HETATM   14  N   UNL     1      -9.047   5.512 -29.908  1.00  0.00    -0.176 NA
HETATM   15  C   UNL     1      -8.128   6.361 -30.265  1.00  0.00     0.150 C 
BRANCH  15  16
HETATM   16  C   UNL     1      -7.029   6.222 -31.250  1.00  0.00    -0.014 A 
HETATM   17  C   UNL     1      -5.756   6.667 -30.883  1.00  0.00     0.052 A 
HETATM   18  C   UNL     1      -4.699   6.592 -31.796  1.00  0.00     0.102 A 
HETATM   19  C   UNL     1      -4.931   6.089 -33.095  1.00  0.00     0.101 A 
HETATM   20  C   UNL     1      -6.214   5.658 -33.453  1.00  0.00     0.040 A 
HETATM   21  C   UNL     1      -7.266   5.736 -32.536  1.00  0.00     0.016 A 
BRANCH  18  22
HETATM   22  O   UNL     1      -3.416   7.002 -31.533  1.00  0.00    -0.353 OA
HETATM   23  C   UNL     1      -2.631   6.200 -30.662  1.00  0.00     0.210 C 
ENDBRANCH  18  22
BRANCH  19  24
HETATM   24  O   UNL     1      -3.842   6.054 -33.930  1.00  0.00    -0.353 OA
HETATM   25  C   UNL     1      -3.913   5.213 -35.071  1.00  0.00     0.210 C 
ENDBRANCH  19  24
ENDBRANCH  15  16
ENDBRANCH   1  14
BRANCH  13  26
HETATM   26  N   UNL     1      -7.089   3.580 -28.969  1.00  0.00    -0.383 N 
HETATM   27  H   UNL     1      -6.488   2.823 -28.631  1.00  0.00     0.157 HD
HETATM   28  H   UNL     1      -7.350   4.249 -28.248  1.00  0.00     0.157 HD
ENDBRANCH  13  26
BRANCH  12  29
HETATM   29  C   UNL     1      -7.111   1.086 -30.835  1.00  0.00     0.258 C 
HETATM   30  N   UNL     1      -7.400   0.144 -31.805  1.00  0.00    -0.352 N 
HETATM   31  H   UNL     1      -8.290   0.277 -32.278  1.00  0.00     0.163 HD
HETATM   32  O   UNL     1      -6.081   1.063 -30.166  1.00  0.00    -0.267 OA
BRANCH  30  33
HETATM   33  C   UNL     1      -6.323  -0.414 -32.611  1.00  0.00     0.084 C 
HETATM   34  C   UNL     1      -6.871  -1.426 -33.625  1.00  0.00     0.025 C 
HETATM   35  C   UNL     1      -7.709  -0.769 -34.726  1.00  0.00     0.002 C 
HETATM   36  C   UNL     1      -6.974   0.385 -35.405  1.00  0.00     0.000 C 
HETATM   37  C   UNL     1      -6.421   1.393 -34.404  1.00  0.00     0.002 C 
HETATM   38  C   UNL     1      -5.561   0.709 -33.339  1.00  0.00     0.025 C 
ENDBRANCH  30  33
ENDBRANCH  12  29
TORSDOF 7
ENDMDL
MODEL 7
REMARK VINA RESULT:      -8.5      2.593      6.145
REMARK  7 active torsions:
REMARK  status: ('A' for Active; 'I' for Inactive)
REMARK    1  A    between atoms: O_2  and  C_3 
REMARK    2  A    between atoms: C_4  and  O_5 
REMARK    3  A    between atoms: C_8  and  C_9 
REMARK    4  A    between atoms: N_10  and  N_11 
REMARK    5  A    between atoms: C_22  and  C_23 
REMARK       I    between atoms: C_23  and  N_24 
REMARK    6  A    between atoms: N_24  and  C_25 
REMARK    7  A    between atoms: C_32  and  N_33 
ROOT
HETATM    1  N   UNL     1      -7.323   5.255 -30.570  1.00  0.00    -0.197 N 
HETATM    2  C   UNL     1      -8.197   5.037 -31.618  1.00  0.00     0.183 A 
HETATM    3  C   UNL     1      -8.263   3.669 -31.820  1.00  0.00     0.125 A 
HETATM    4  N   UNL     1      -8.979   3.131 -32.846  1.00  0.00    -0.242 NA
HETATM    5  C   UNL     1      -9.615   4.031 -33.613  1.00  0.00     0.086 A 
HETATM    6  C   UNL     1      -9.523   5.432 -33.394  1.00  0.00     0.088 A 
HETATM    7  N   UNL     1      -8.802   5.968 -32.394  1.00  0.00    -0.225 NA
HETATM    8  C   UNL     1     -10.385   3.562 -34.671  1.00  0.00     0.034 A 
HETATM    9  C   UNL     1     -11.057   4.434 -35.527  1.00  0.00     0.002 A 
HETATM   10  C   UNL     1     -10.957   5.803 -35.323  1.00  0.00     0.002 A 
HETATM   11  C   UNL     1     -10.193   6.287 -34.258  1.00  0.00     0.034 A 
HETATM   12  C   UNL     1      -7.442   3.020 -30.861  1.00  0.00     0.110 C 
HETATM   13  C   UNL     1      -6.946   4.021 -30.040  1.00  0.00     0.143 C 
ENDROOT
BRANCH   1  14
HETATM   14  N   UNL     1      -6.914   6.481 -30.118  1.00  0.00    -0.176 NA
HETATM   15  C   UNL     1      -5.711   6.852 -30.449  1.00  0.00     0.150 C 
BRANCH  15  16
HETATM   16  C   UNL     1      -4.745   6.234 -31.388  1.00  0.00    -0.014 A 
HETATM   17  C   UNL     1      -3.619   5.603 -30.852  1.00  0.00     0.052 A 
HETATM   18  C   UNL     1      -2.661   5.041 -31.703  1.00  0.00     0.102 A 
HETATM   19  C   UNL     1      -2.826   5.138 -33.102  1.00  0.00     0.101 A 
HETATM   20  C   UNL     1      -3.952   5.784 -33.626  1.00  0.00     0.040 A 
HETATM   21  C   UNL     1      -4.906   6.342 -32.770  1.00  0.00     0.016 A 
BRANCH  18  22
HETATM   22  O   UNL     1      -1.524   4.402 -31.276  1.00  0.00    -0.353 OA
HETATM   23  C   UNL     1      -0.538   5.178 -30.612  1.00  0.00     0.210 C 
ENDBRANCH  18  22
BRANCH  19  24
HETATM   24  O   UNL     1      -1.837   4.566 -33.865  1.00  0.00    -0.353 OA
HETATM   25  C   UNL     1      -1.271   5.349 -34.905  1.00  0.00     0.210 C 
ENDBRANCH  19  24
ENDBRANCH  15  16
ENDBRANCH   1  14
BRANCH  13  26
HETATM   26  N   UNL     1      -6.156   3.935 -28.937  1.00  0.00    -0.383 N 
HETATM   27  H   UNL     1      -6.375   3.217 -28.241  1.00  0.00     0.157 HD
HETATM   28  H   UNL     1      -5.761   4.785 -28.538  1.00  0.00     0.157 HD
ENDBRANCH  13  26
BRANCH  12  29
HETATM   29  C   UNL     1      -7.091   1.610 -30.786  1.00  0.00     0.258 C 
HETATM   30  N   UNL     1      -7.711   0.831 -31.746  1.00  0.00    -0.352 N 
HETATM   31  H   UNL     1      -8.412   1.315 -32.301  1.00  0.00     0.163 HD
HETATM   32  O   UNL     1      -6.228   1.174 -30.027  1.00  0.00    -0.267 OA
BRANCH  30  33
HETATM   33  C   UNL     1      -6.954  -0.206 -32.432  1.00  0.00     0.084 C 
HETATM   34  C   UNL     1      -7.839  -0.949 -33.439  1.00  0.00     0.025 C 
HETATM   35  C   UNL     1      -8.237  -0.080 -34.636  1.00  0.00     0.002 C 
HETATM   36  C   UNL     1      -7.031   0.576 -35.305  1.00  0.00     0.000 C 
HETATM   37  C   UNL     1      -6.142   1.313 -34.310  1.00  0.00     0.002 C 
HETATM   38  C   UNL     1      -5.734   0.407 -33.146  1.00  0.00     0.025 C 
ENDBRANCH  30  33
ENDBRANCH  12  29
TORSDOF 7
ENDMDL
MODEL 8
REMARK VINA RESULT:      -8.2      3.779      7.182
REMARK  7 active torsions:
REMARK  status: ('A' for Active; 'I' for Inactive)
REMARK    1  A    between atoms: O_2  and  C_3 
REMARK    2  A    between atoms: C_4  and  O_5 
REMARK    3  A    between atoms: C_8  and  C_9 
REMARK    4  A    between atoms: N_10  and  N_11 
REMARK    5  A    between atoms: C_22  and  C_23 
REMARK       I    between atoms: C_23  and  N_24 
REMARK    6  A    between atoms: N_24  and  C_25 
REMARK    7  A    between atoms: C_32  and  N_33 
ROOT
HETATM    1  N   UNL     1      -6.495   5.719 -30.840  1.00  0.00    -0.197 N 
HETATM    2  C   UNL     1      -5.297   5.653 -31.526  1.00  0.00     0.183 A 
HETATM    3  C   UNL     1      -4.294   5.998 -30.636  1.00  0.00     0.125 A 
HETATM    4  N   UNL     1      -2.996   6.113 -31.031  1.00  0.00    -0.242 NA
HETATM    5  C   UNL     1      -2.783   5.847 -32.331  1.00  0.00     0.086 A 
HETATM    6  C   UNL     1      -3.831   5.507 -33.228  1.00  0.00     0.088 A 
HETATM    7  N   UNL     1      -5.116   5.411 -32.847  1.00  0.00    -0.225 NA
HETATM    8  C   UNL     1      -1.481   5.923 -32.809  1.00  0.00     0.034 A 
HETATM    9  C   UNL     1      -1.182   5.684 -34.150  1.00  0.00     0.002 A 
HETATM   10  C   UNL     1      -2.205   5.365 -35.031  1.00  0.00     0.002 A 
HETATM   11  C   UNL     1      -3.517   5.278 -34.561  1.00  0.00     0.034 A 
HETATM   12  C   UNL     1      -4.872   6.251 -29.365  1.00  0.00     0.110 C 
HETATM   13  C   UNL     1      -6.225   5.980 -29.497  1.00  0.00     0.143 C 
ENDROOT
BRANCH   1  14
HETATM   14  N   UNL     1      -7.736   5.537 -31.388  1.00  0.00    -0.176 NA
HETATM   15  C   UNL     1      -8.011   4.342 -31.823  1.00  0.00     0.150 C 
BRANCH  15  16
HETATM   16  C   UNL     1      -7.256   3.074 -31.676  1.00  0.00    -0.014 A 
HETATM   17  C   UNL     1      -6.895   2.387 -32.838  1.00  0.00     0.052 A 
HETATM   18  C   UNL     1      -6.216   1.166 -32.745  1.00  0.00     0.102 A 
HETATM   19  C   UNL     1      -5.924   0.623 -31.475  1.00  0.00     0.101 A 
HETATM   20  C   UNL     1      -6.303   1.317 -30.320  1.00  0.00     0.040 A 
HETATM   21  C   UNL     1      -6.980   2.536 -30.419  1.00  0.00     0.016 A 
BRANCH  18  22
HETATM   22  O   UNL     1      -5.818   0.416 -33.824  1.00  0.00    -0.353 OA
HETATM   23  C   UNL     1      -6.749   0.232 -34.881  1.00  0.00     0.210 C 
ENDBRANCH  18  22
BRANCH  19  24
HETATM   24  O   UNL     1      -5.261  -0.580 -31.473  1.00  0.00    -0.353 OA
HETATM   25  C   UNL     1      -3.863  -0.561 -31.229  1.00  0.00     0.210 C 
ENDBRANCH  19  24
ENDBRANCH  15  16
ENDBRANCH   1  14
BRANCH  13  26
HETATM   26  N   UNL     1      -7.217   6.010 -28.567  1.00  0.00    -0.383 N 
HETATM   27  H   UNL     1      -7.840   5.201 -28.500  1.00  0.00     0.157 HD
HETATM   28  H   UNL     1      -7.670   6.896 -28.350  1.00  0.00     0.157 HD
ENDBRANCH  13  26
BRANCH  12  29
HETATM   29  C   UNL     1      -4.226   6.784 -28.175  1.00  0.00     0.258 C 
HETATM   30  N   UNL     1      -2.845   6.725 -28.219  1.00  0.00    -0.352 N 
HETATM   31  H   UNL     1      -2.464   6.219 -29.014  1.00  0.00     0.163 HD
HETATM   32  O   UNL     1      -4.843   7.349 -27.275  1.00  0.00    -0.267 OA
BRANCH  30  33
HETATM   33  C   UNL     1      -2.060   7.854 -27.741  1.00  0.00     0.084 C 
HETATM   34  C   UNL     1      -1.166   7.437 -26.567  1.00  0.00     0.025 C 
HETATM   35  C   UNL     1      -0.037   6.491 -26.986  1.00  0.00     0.002 C 
HETATM   36  C   UNL     1       0.774   7.037 -28.160  1.00  0.00     0.000 C 
HETATM   37  C   UNL     1      -0.108   7.459 -29.330  1.00  0.00     0.002 C 
HETATM   38  C   UNL     1      -1.203   8.431 -28.884  1.00  0.00     0.025 C 
ENDBRANCH  30  33
ENDBRANCH  12  29
TORSDOF 7
ENDMDL
MODEL 9
REMARK VINA RESULT:      -8.2     16.574     19.915
REMARK  7 active torsions:
REMARK  status: ('A' for Active; 'I' for Inactive)
REMARK    1  A    between atoms: O_2  and  C_3 
REMARK    2  A    between atoms: C_4  and  O_5 
REMARK    3  A    between atoms: C_8  and  C_9 
REMARK    4  A    between atoms: N_10  and  N_11 
REMARK    5  A    between atoms: C_22  and  C_23 
REMARK       I    between atoms: C_23  and  N_24 
REMARK    6  A    between atoms: N_24  and  C_25 
REMARK    7  A    between atoms: C_32  and  N_33 
ROOT
HETATM    1  N   UNL     1      -4.821 -12.785 -40.168  1.00  0.00    -0.197 N 
HETATM    2  C   UNL     1      -4.325 -13.738 -41.038  1.00  0.00     0.183 A 
HETATM    3  C   UNL     1      -3.434 -14.522 -40.324  1.00  0.00     0.125 A 
HETATM    4  N   UNL     1      -2.707 -15.504 -40.925  1.00  0.00    -0.242 NA
HETATM    5  C   UNL     1      -2.943 -15.649 -42.239  1.00  0.00     0.086 A 
HETATM    6  C   UNL     1      -3.853 -14.823 -42.953  1.00  0.00     0.088 A 
HETATM    7  N   UNL     1      -4.560 -13.841 -42.368  1.00  0.00    -0.225 NA
HETATM    8  C   UNL     1      -2.255 -16.643 -42.922  1.00  0.00     0.034 A 
HETATM    9  C   UNL     1      -2.427 -16.842 -44.292  1.00  0.00     0.002 A 
HETATM   10  C   UNL     1      -3.306 -16.028 -44.993  1.00  0.00     0.002 A 
HETATM   11  C   UNL     1      -4.010 -15.029 -44.317  1.00  0.00     0.034 A 
HETATM   12  C   UNL     1      -3.398 -14.072 -38.979  1.00  0.00     0.110 C 
HETATM   13  C   UNL     1      -4.336 -13.056 -38.888  1.00  0.00     0.143 C 
ENDROOT
BRANCH   1  14
HETATM   14  N   UNL     1      -5.662 -11.761 -40.507  1.00  0.00    -0.176 NA
HETATM   15  C   UNL     1      -6.936 -12.028 -40.501  1.00  0.00     0.150 C 
BRANCH  15  16
HETATM   16  C   UNL     1      -7.658 -13.231 -40.023  1.00  0.00    -0.014 A 
HETATM   17  C   UNL     1      -7.945 -14.236 -40.950  1.00  0.00     0.052 A 
HETATM   18  C   UNL     1      -8.660 -15.371 -40.550  1.00  0.00     0.102 A 
HETATM   19  C   UNL     1      -9.110 -15.481 -39.217  1.00  0.00     0.101 A 
HETATM   20  C   UNL     1      -8.826 -14.460 -38.302  1.00  0.00     0.040 A 
HETATM   21  C   UNL     1      -8.111 -13.329 -38.707  1.00  0.00     0.016 A 
BRANCH  18  22
HETATM   22  O   UNL     1      -8.992 -16.412 -41.382  1.00  0.00    -0.353 OA
HETATM   23  C   UNL     1     -10.004 -16.187 -42.352  1.00  0.00     0.210 C 
ENDBRANCH  18  22
BRANCH  19  24
HETATM   24  O   UNL     1      -9.809 -16.623 -38.910  1.00  0.00    -0.353 OA
HETATM   25  C   UNL     1      -9.158 -17.598 -38.109  1.00  0.00     0.210 C 
ENDBRANCH  19  24
ENDBRANCH  15  16
ENDBRANCH   1  14
BRANCH  13  26
HETATM   26  N   UNL     1      -4.734 -12.328 -37.811  1.00  0.00    -0.383 N 
HETATM   27  H   UNL     1      -4.617 -12.738 -36.881  1.00  0.00     0.157 HD
HETATM   28  H   UNL     1      -5.549 -11.721 -37.892  1.00  0.00     0.157 HD
ENDBRANCH  13  26
BRANCH  12  29
HETATM   29  C   UNL     1      -2.503 -14.498 -37.913  1.00  0.00     0.258 C 
HETATM   30  N   UNL     1      -1.312 -15.032 -38.369  1.00  0.00    -0.352 N 
HETATM   31  H   UNL     1      -1.260 -15.164 -39.376  1.00  0.00     0.163 HD
HETATM   32  O   UNL     1      -2.729 -14.285 -36.724  1.00  0.00    -0.267 OA
BRANCH  30  33
HETATM   33  C   UNL     1      -0.064 -14.683 -37.704  1.00  0.00     0.084 C 
HETATM   34  C   UNL     1       0.444 -15.853 -36.853  1.00  0.00     0.025 C 
HETATM   35  C   UNL     1       0.920 -17.038 -37.698  1.00  0.00     0.002 C 
HETATM   36  C   UNL     1       1.930 -16.623 -38.766  1.00  0.00     0.000 C 
HETATM   37  C   UNL     1       1.434 -15.456 -39.613  1.00  0.00     0.002 C 
HETATM   38  C   UNL     1       1.000 -14.276 -38.741  1.00  0.00     0.025 C 
ENDBRANCH  30  33
ENDBRANCH  12  29
TORSDOF 7
ENDMDL
MODEL 10
REMARK VINA RESULT:      -8.1     16.116     18.062
REMARK  7 active torsions:
REMARK  status: ('A' for Active; 'I' for Inactive)
REMARK    1  A    between atoms: O_2  and  C_3 
REMARK    2  A    between atoms: C_4  and  O_5 
REMARK    3  A    between atoms: C_8  and  C_9 
REMARK    4  A    between atoms: N_10  and  N_11 
REMARK    5  A    between atoms: C_22  and  C_23 
REMARK       I    between atoms: C_23  and  N_24 
REMARK    6  A    between atoms: N_24  and  C_25 
REMARK    7  A    between atoms: C_32  and  N_33 
ROOT
HETATM    1  N   UNL     1      -3.904 -12.798 -38.183  1.00  0.00    -0.197 N 
HETATM    2  C   UNL     1      -4.512 -13.315 -37.055  1.00  0.00     0.183 A 
HETATM    3  C   UNL     1      -5.430 -14.261 -37.480  1.00  0.00     0.125 A 
HETATM    4  N   UNL     1      -6.261 -14.895 -36.606  1.00  0.00    -0.242 NA
HETATM    5  C   UNL     1      -6.096 -14.538 -35.322  1.00  0.00     0.086 A 
HETATM    6  C   UNL     1      -5.155 -13.555 -34.910  1.00  0.00     0.088 A 
HETATM    7  N   UNL     1      -4.347 -12.914 -35.771  1.00  0.00    -0.225 NA
HETATM    8  C   UNL     1      -6.892 -15.154 -34.364  1.00  0.00     0.034 A 
HETATM    9  C   UNL     1      -6.797 -14.821 -33.013  1.00  0.00     0.002 A 
HETATM   10  C   UNL     1      -5.889 -13.853 -32.611  1.00  0.00     0.002 A 
HETATM   11  C   UNL     1      -5.077 -13.231 -33.563  1.00  0.00     0.034 A 
HETATM   12  C   UNL     1      -5.370 -14.360 -38.894  1.00  0.00     0.110 C 
HETATM   13  C   UNL     1      -4.350 -13.510 -39.296  1.00  0.00     0.143 C 
ENDROOT
BRANCH   1  14
HETATM   14  N   UNL     1      -2.999 -11.772 -38.197  1.00  0.00    -0.176 NA
HETATM   15  C   UNL     1      -1.741 -12.104 -38.156  1.00  0.00     0.150 C 
BRANCH  15  16
HETATM   16  C   UNL     1      -1.101 -13.437 -38.262  1.00  0.00    -0.014 A 
HETATM   17  C   UNL     1      -0.979 -14.202 -37.100  1.00  0.00     0.052 A 
HETATM   18  C   UNL     1      -0.346 -15.449 -37.146  1.00  0.00     0.102 A 
HETATM   19  C   UNL     1       0.191 -15.915 -38.366  1.00  0.00     0.101 A 
HETATM   20  C   UNL     1       0.073 -15.132 -39.521  1.00  0.00     0.040 A 
HETATM   21  C   UNL     1      -0.561 -13.888 -39.467  1.00  0.00     0.016 A 
BRANCH  18  22
HETATM   22  O   UNL     1      -0.177 -16.274 -36.062  1.00  0.00    -0.353 OA
HETATM   23  C   UNL     1      -0.147 -15.677 -34.774  1.00  0.00     0.210 C 
ENDBRANCH  18  22
BRANCH  19  24
HETATM   24  O   UNL     1       0.801 -17.145 -38.323  1.00  0.00    -0.353 OA
HETATM   25  C   UNL     1       2.194 -17.199 -38.591  1.00  0.00     0.210 C 
ENDBRANCH  19  24
ENDBRANCH  15  16
ENDBRANCH   1  14
BRANCH  13  26
HETATM   26  N   UNL     1      -3.847 -13.274 -40.537  1.00  0.00    -0.383 N 
HETATM   27  H   UNL     1      -2.831 -13.298 -40.658  1.00  0.00     0.157 HD
HETATM   28  H   UNL     1      -4.318 -12.610 -41.148  1.00  0.00     0.157 HD
ENDBRANCH  13  26
BRANCH  12  29
HETATM   29  C   UNL     1      -6.247 -15.109 -39.781  1.00  0.00     0.258 C 
HETATM   30  N   UNL     1      -7.584 -15.032 -39.434  1.00  0.00    -0.352 N 
HETATM   31  H   UNL     1      -7.770 -14.564 -38.551  1.00  0.00     0.163 HD
HETATM   32  O   UNL     1      -5.855 -15.651 -40.811  1.00  0.00    -0.267 OA
BRANCH  30  33
HETATM   33  C   UNL     1      -8.590 -14.863 -40.473  1.00  0.00     0.084 C 
HETATM   34  C   UNL     1      -9.999 -14.849 -39.869  1.00  0.00     0.025 C 
HETATM   35  C   UNL     1     -10.274 -13.596 -39.031  1.00  0.00     0.002 C 
HETATM   36  C   UNL     1      -9.961 -12.309 -39.791  1.00  0.00     0.000 C 
HETATM   37  C   UNL     1      -8.563 -12.317 -40.400  1.00  0.00     0.002 C 
HETATM   38  C   UNL     1      -8.334 -13.563 -41.258  1.00  0.00     0.025 C 
ENDBRANCH  30  33
ENDBRANCH  12  29
TORSDOF 7
ENDMDL
