MODEL 1
REMARK VINA RESULT:      -7.8      0.000      0.000
REMARK  9 active torsions:
REMARK  status: ('A' for Active; 'I' for Inactive)
REMARK    1  A    between atoms: O_2  and  C_3 
REMARK    2  A    between atoms: C_4  and  S_5 
REMARK    3  A    between atoms: S_5  and  N_6 
REMARK    4  A    between atoms: N_6  and  C_7 
REMARK    5  A    between atoms: C_7  and  C_8 
REMARK    6  A    between atoms: C_7  and  C_21 
REMARK       I    between atoms: C_8  and  N_9 
REMARK    7  A    between atoms: N_9  and  C_10 
REMARK    8  A    between atoms: C_21  and  C_22 
REMARK    9  A    between atoms: C_22  and  S_23 
ROOT
HETATM    1  C   UNL     1      -6.701   3.114 -34.092  1.00  0.00     0.165 C 
ENDROOT
BRANCH   1   2
HETATM    2  N   UNL     1      -7.778   3.273 -33.072  1.00  0.00    -0.202 NA
HETATM    3  H   UNL     1      -8.172   2.369 -32.774  1.00  0.00     0.141 HD
BRANCH   2   4
HETATM    4  S   UNL     1      -9.049   4.337 -33.409  1.00  0.00     0.245 S 
HETATM    5  O   UNL     1      -8.579   5.241 -34.436  1.00  0.00    -0.206 OA
HETATM    6  O   UNL     1      -9.540   4.840 -32.145  1.00  0.00    -0.206 OA
BRANCH   4   7
HETATM    7  C   UNL     1     -10.321   3.317 -34.107  1.00  0.00     0.107 A 
HETATM    8  C   UNL     1     -10.616   2.064 -33.553  1.00  0.00     0.091 A 
HETATM    9  C   UNL     1     -11.658   1.316 -34.113  1.00  0.00     0.038 A 
HETATM   10  C   UNL     1     -12.380   1.806 -35.205  1.00  0.00     0.003 A 
HETATM   11  C   UNL     1     -12.073   3.049 -35.751  1.00  0.00     0.002 A 
HETATM   12  C   UNL     1     -11.043   3.809 -35.203  1.00  0.00     0.028 A 
BRANCH   8  13
HETATM   13  O   UNL     1      -9.854   1.647 -32.494  1.00  0.00    -0.354 OA
HETATM   14  C   UNL     1      -9.486   0.272 -32.450  1.00  0.00     0.210 C 
ENDBRANCH   8  13
ENDBRANCH   4   7
ENDBRANCH   2   4
ENDBRANCH   1   2
BRANCH   1  15
HETATM   15  C   UNL     1      -6.599   1.642 -34.502  1.00  0.00     0.254 C 
HETATM   16  N   UNL     1      -5.966   0.831 -33.587  1.00  0.00    -0.156 N 
HETATM   17  H   UNL     1      -5.702   1.160 -32.661  1.00  0.00     0.187 HD
HETATM   18  O   UNL     1      -7.077   1.238 -35.565  1.00  0.00    -0.271 OA
BRANCH  16  19
HETATM   19  C   UNL     1      -5.763  -0.505 -33.817  1.00  0.00     0.708 A 
HETATM   20  N   UNL     1      -4.631  -1.136 -33.623  1.00  0.00    -0.062 NA
HETATM   21  C   UNL     1      -4.878  -2.445 -33.968  1.00  0.00     0.103 A 
HETATM   22  C   UNL     1      -6.184  -2.603 -34.421  1.00  0.00     0.078 A 
HETATM   23  C   UNL     1      -4.034  -3.565 -33.922  1.00  0.00     0.034 A 
HETATM   24  N   UNL     1      -6.729  -1.354 -34.297  1.00  0.00    -0.188 N 
HETATM   25  C   UNL     1      -6.704  -3.819 -34.869  1.00  0.00     0.032 A 
HETATM   26  H   UNL     1      -7.678  -1.073 -34.506  1.00  0.00     0.184 HD
HETATM   27  C   UNL     1      -5.843  -4.920 -34.826  1.00  0.00     0.002 A 
HETATM   28  C   UNL     1      -4.533  -4.801 -34.352  1.00  0.00     0.002 A 
ENDBRANCH  16  19
ENDBRANCH   1  15
BRANCH   1  29
HETATM   29  C   UNL     1      -5.402   3.603 -33.430  1.00  0.00     0.040 C 
BRANCH  29  30
HETATM   30  C   UNL     1      -4.968   5.037 -33.737  1.00  0.00     0.075 C 
BRANCH  30  31
HETATM   31  S   UNL     1      -3.710   5.199 -35.045  1.00  0.00    -0.173 SA
HETATM   32  C   UNL     1      -2.556   6.327 -34.218  1.00  0.00     0.089 C 
ENDBRANCH  30  31
ENDBRANCH  29  30
ENDBRANCH   1  29
TORSDOF 9
ENDMDL
MODEL 2
REMARK VINA RESULT:      -7.7      2.409      6.572
REMARK  9 active torsions:
REMARK  status: ('A' for Active; 'I' for Inactive)
REMARK    1  A    between atoms: O_2  and  C_3 
REMARK    2  A    between atoms: C_4  and  S_5 
REMARK    3  A    between atoms: S_5  and  N_6 
REMARK    4  A    between atoms: N_6  and  C_7 
REMARK    5  A    between atoms: C_7  and  C_8 
REMARK    6  A    between atoms: C_7  and  C_21 
REMARK       I    between atoms: C_8  and  N_9 
REMARK    7  A    between atoms: N_9  and  C_10 
REMARK    8  A    between atoms: C_21  and  C_22 
REMARK    9  A    between atoms: C_22  and  S_23 
ROOT
HETATM    1  C   UNL     1      -5.373   2.592 -32.184  1.00  0.00     0.165 C 
ENDROOT
BRANCH   1   2
HETATM    2  N   UNL     1      -4.625   1.377 -32.620  1.00  0.00    -0.202 NA
HETATM    3  H   UNL     1      -4.896   1.067 -33.564  1.00  0.00     0.141 HD
BRANCH   2   4
HETATM    4  S   UNL     1      -4.605   0.036 -31.590  1.00  0.00     0.245 S 
HETATM    5  O   UNL     1      -5.852   0.052 -30.855  1.00  0.00    -0.206 OA
HETATM    6  O   UNL     1      -3.335   0.039 -30.899  1.00  0.00    -0.206 OA
BRANCH   4   7
HETATM    7  C   UNL     1      -4.619  -1.368 -32.674  1.00  0.00     0.107 A 
HETATM    8  C   UNL     1      -5.515  -1.431 -33.750  1.00  0.00     0.091 A 
HETATM    9  C   UNL     1      -5.457  -2.540 -34.603  1.00  0.00     0.038 A 
HETATM   10  C   UNL     1      -4.531  -3.563 -34.378  1.00  0.00     0.003 A 
HETATM   11  C   UNL     1      -3.651  -3.492 -33.302  1.00  0.00     0.002 A 
HETATM   12  C   UNL     1      -3.691  -2.394 -32.446  1.00  0.00     0.028 A 
BRANCH   8  13
HETATM   13  O   UNL     1      -6.401  -0.397 -33.894  1.00  0.00    -0.354 OA
HETATM   14  C   UNL     1      -6.971  -0.195 -35.183  1.00  0.00     0.210 C 
ENDBRANCH   8  13
ENDBRANCH   4   7
ENDBRANCH   2   4
ENDBRANCH   1   2
BRANCH   1  15
HETATM   15  C   UNL     1      -6.686   2.691 -32.966  1.00  0.00     0.254 C 
HETATM   16  N   UNL     1      -7.756   2.055 -32.378  1.00  0.00    -0.156 N 
HETATM   17  H   UNL     1      -7.707   1.662 -31.442  1.00  0.00     0.187 HD
HETATM   18  O   UNL     1      -6.755   3.319 -34.025  1.00  0.00    -0.271 OA
BRANCH  16  19
HETATM   19  C   UNL     1      -8.994   2.021 -32.967  1.00  0.00     0.708 A 
HETATM   20  N   UNL     1      -9.836   1.021 -32.883  1.00  0.00    -0.062 NA
HETATM   21  C   UNL     1     -10.942   1.413 -33.605  1.00  0.00     0.103 A 
HETATM   22  C   UNL     1     -10.746   2.667 -34.174  1.00  0.00     0.078 A 
HETATM   23  C   UNL     1     -12.158   0.749 -33.823  1.00  0.00     0.034 A 
HETATM   24  N   UNL     1      -9.504   3.038 -33.735  1.00  0.00    -0.188 N 
HETATM   25  C   UNL     1     -11.688   3.302 -34.986  1.00  0.00     0.032 A 
HETATM   26  H   UNL     1      -9.020   3.907 -33.920  1.00  0.00     0.184 HD
HETATM   27  C   UNL     1     -12.889   2.619 -35.200  1.00  0.00     0.002 A 
HETATM   28  C   UNL     1     -13.127   1.367 -34.623  1.00  0.00     0.002 A 
ENDBRANCH  16  19
ENDBRANCH   1  15
BRANCH   1  29
HETATM   29  C   UNL     1      -4.456   3.793 -32.474  1.00  0.00     0.040 C 
BRANCH  29  30
HETATM   30  C   UNL     1      -2.977   3.488 -32.718  1.00  0.00     0.075 C 
BRANCH  30  31
HETATM   31  S   UNL     1      -1.976   4.909 -33.261  1.00  0.00    -0.173 SA
HETATM   32  C   UNL     1      -2.834   5.313 -34.808  1.00  0.00     0.089 C 
ENDBRANCH  30  31
ENDBRANCH  29  30
ENDBRANCH   1  29
TORSDOF 9
ENDMDL
MODEL 3
REMARK VINA RESULT:      -7.6      3.027      7.472
REMARK  9 active torsions:
REMARK  status: ('A' for Active; 'I' for Inactive)
REMARK    1  A    between atoms: O_2  and  C_3 
REMARK    2  A    between atoms: C_4  and  S_5 
REMARK    3  A    between atoms: S_5  and  N_6 
REMARK    4  A    between atoms: N_6  and  C_7 
REMARK    5  A    between atoms: C_7  and  C_8 
REMARK    6  A    between atoms: C_7  and  C_21 
REMARK       I    between atoms: C_8  and  N_9 
REMARK    7  A    between atoms: N_9  and  C_10 
REMARK    8  A    between atoms: C_21  and  C_22 
REMARK    9  A    between atoms: C_22  and  S_23 
ROOT
HETATM    1  C   UNL     1      -7.113   3.133 -31.558  1.00  0.00     0.165 C 
ENDROOT
BRANCH   1   2
HETATM    2  N   UNL     1      -6.815   1.742 -32.006  1.00  0.00    -0.202 NA
HETATM    3  H   UNL     1      -5.891   1.417 -31.688  1.00  0.00     0.141 HD
BRANCH   2   4
HETATM    4  S   UNL     1      -6.986   1.376 -33.648  1.00  0.00     0.245 S 
HETATM    5  O   UNL     1      -6.328   2.433 -34.385  1.00  0.00    -0.206 OA
HETATM    6  O   UNL     1      -8.379   1.065 -33.880  1.00  0.00    -0.206 OA
BRANCH   4   7
HETATM    7  C   UNL     1      -6.061  -0.120 -33.878  1.00  0.00     0.107 A 
HETATM    8  C   UNL     1      -4.780  -0.259 -33.326  1.00  0.00     0.091 A 
HETATM    9  C   UNL     1      -4.108  -1.475 -33.498  1.00  0.00     0.038 A 
HETATM   10  C   UNL     1      -4.700  -2.521 -34.212  1.00  0.00     0.003 A 
HETATM   11  C   UNL     1      -5.970  -2.368 -34.762  1.00  0.00     0.002 A 
HETATM   12  C   UNL     1      -6.655  -1.167 -34.595  1.00  0.00     0.028 A 
BRANCH   8  13
HETATM   13  O   UNL     1      -4.263   0.816 -32.653  1.00  0.00    -0.354 OA
HETATM   14  C   UNL     1      -3.408   0.549 -31.546  1.00  0.00     0.210 C 
ENDBRANCH   8  13
ENDBRANCH   4   7
ENDBRANCH   2   4
ENDBRANCH   1   2
BRANCH   1  15
HETATM   15  C   UNL     1      -5.810   3.831 -31.157  1.00  0.00     0.254 C 
HETATM   16  N   UNL     1      -4.920   4.026 -32.188  1.00  0.00    -0.156 N 
HETATM   17  H   UNL     1      -5.162   3.837 -33.158  1.00  0.00     0.187 HD
HETATM   18  O   UNL     1      -5.611   4.200 -29.997  1.00  0.00    -0.271 OA
BRANCH  16  19
HETATM   19  C   UNL     1      -3.693   4.606 -31.990  1.00  0.00     0.708 A 
HETATM   20  N   UNL     1      -3.264   5.679 -32.607  1.00  0.00    -0.062 NA
HETATM   21  C   UNL     1      -2.004   5.912 -32.101  1.00  0.00     0.103 A 
HETATM   22  C   UNL     1      -1.647   4.930 -31.183  1.00  0.00     0.078 A 
HETATM   23  C   UNL     1      -1.098   6.946 -32.379  1.00  0.00     0.034 A 
HETATM   24  N   UNL     1      -2.750   4.122 -31.119  1.00  0.00    -0.188 N 
HETATM   25  C   UNL     1      -0.412   4.893 -30.533  1.00  0.00     0.032 A 
HETATM   26  H   UNL     1      -2.882   3.306 -30.535  1.00  0.00     0.184 HD
HETATM   27  C   UNL     1       0.482   5.927 -30.832  1.00  0.00     0.002 A 
HETATM   28  C   UNL     1       0.144   6.942 -31.732  1.00  0.00     0.002 A 
ENDBRANCH  16  19
ENDBRANCH   1  15
BRANCH   1  29
HETATM   29  C   UNL     1      -8.072   3.006 -30.361  1.00  0.00     0.040 C 
BRANCH  29  30
HETATM   30  C   UNL     1      -9.569   3.054 -30.669  1.00  0.00     0.075 C 
BRANCH  30  31
HETATM   31  S   UNL     1     -10.018   3.986 -32.168  1.00  0.00    -0.173 SA
HETATM   32  C   UNL     1     -11.354   2.930 -32.794  1.00  0.00     0.089 C 
ENDBRANCH  30  31
ENDBRANCH  29  30
ENDBRANCH   1  29
TORSDOF 9
ENDMDL
MODEL 4
REMARK VINA RESULT:      -7.4      3.572      8.227
REMARK  9 active torsions:
REMARK  status: ('A' for Active; 'I' for Inactive)
REMARK    1  A    between atoms: O_2  and  C_3 
REMARK    2  A    between atoms: C_4  and  S_5 
REMARK    3  A    between atoms: S_5  and  N_6 
REMARK    4  A    between atoms: N_6  and  C_7 
REMARK    5  A    between atoms: C_7  and  C_8 
REMARK    6  A    between atoms: C_7  and  C_21 
REMARK       I    between atoms: C_8  and  N_9 
REMARK    7  A    between atoms: N_9  and  C_10 
REMARK    8  A    between atoms: C_21  and  C_22 
REMARK    9  A    between atoms: C_22  and  S_23 
ROOT
HETATM    1  C   UNL     1      -5.924   1.615 -31.928  1.00  0.00     0.165 C 
ENDROOT
BRANCH   1   2
HETATM    2  N   UNL     1      -5.480   0.217 -31.659  1.00  0.00    -0.202 NA
HETATM    3  H   UNL     1      -5.692  -0.084 -30.697  1.00  0.00     0.141 HD
BRANCH   2   4
HETATM    4  S   UNL     1      -3.882  -0.201 -32.020  1.00  0.00     0.245 S 
HETATM    5  O   UNL     1      -3.175  -0.287 -30.760  1.00  0.00    -0.206 OA
HETATM    6  O   UNL     1      -3.427   0.688 -33.067  1.00  0.00    -0.206 OA
BRANCH   4   7
HETATM    7  C   UNL     1      -3.984  -1.830 -32.712  1.00  0.00     0.107 A 
HETATM    8  C   UNL     1      -4.798  -2.084 -33.825  1.00  0.00     0.091 A 
HETATM    9  C   UNL     1      -4.810  -3.377 -34.361  1.00  0.00     0.038 A 
HETATM   10  C   UNL     1      -4.036  -4.392 -33.792  1.00  0.00     0.003 A 
HETATM   11  C   UNL     1      -3.237  -4.129 -32.682  1.00  0.00     0.002 A 
HETATM   12  C   UNL     1      -3.208  -2.847 -32.139  1.00  0.00     0.028 A 
BRANCH   8  13
HETATM   13  O   UNL     1      -5.538  -1.042 -34.315  1.00  0.00    -0.354 OA
HETATM   14  C   UNL     1      -6.882  -1.314 -34.700  1.00  0.00     0.210 C 
ENDBRANCH   8  13
ENDBRANCH   4   7
ENDBRANCH   2   4
ENDBRANCH   1   2
BRANCH   1  15
HETATM   15  C   UNL     1      -4.956   2.595 -31.259  1.00  0.00     0.254 C 
HETATM   16  N   UNL     1      -4.144   3.289 -32.129  1.00  0.00    -0.156 N 
HETATM   17  H   UNL     1      -4.267   3.246 -33.138  1.00  0.00     0.187 HD
HETATM   18  O   UNL     1      -4.942   2.748 -30.035  1.00  0.00    -0.271 OA
BRANCH  16  19
HETATM   19  C   UNL     1      -3.199   4.179 -31.687  1.00  0.00     0.708 A 
HETATM   20  N   UNL     1      -1.918   4.105 -31.954  1.00  0.00    -0.062 NA
HETATM   21  C   UNL     1      -1.352   5.194 -31.329  1.00  0.00     0.103 A 
HETATM   22  C   UNL     1      -2.311   5.923 -30.632  1.00  0.00     0.078 A 
HETATM   23  C   UNL     1      -0.019   5.629 -31.308  1.00  0.00     0.034 A 
HETATM   24  N   UNL     1      -3.481   5.263 -30.894  1.00  0.00    -0.188 N 
HETATM   25  C   UNL     1      -2.018   7.060 -29.877  1.00  0.00     0.032 A 
HETATM   26  H   UNL     1      -4.410   5.509 -30.579  1.00  0.00     0.184 HD
HETATM   27  C   UNL     1      -0.682   7.471 -29.860  1.00  0.00     0.002 A 
HETATM   28  C   UNL     1       0.302   6.775 -30.570  1.00  0.00     0.002 A 
ENDBRANCH  16  19
ENDBRANCH   1  15
BRANCH   1  29
HETATM   29  C   UNL     1      -7.341   1.741 -31.344  1.00  0.00     0.040 C 
BRANCH  29  30
HETATM   30  C   UNL     1      -8.350   2.557 -32.152  1.00  0.00     0.075 C 
BRANCH  30  31
HETATM   31  S   UNL     1      -8.380   2.198 -33.938  1.00  0.00    -0.173 SA
HETATM   32  C   UNL     1     -10.132   2.514 -34.283  1.00  0.00     0.089 C 
ENDBRANCH  30  31
ENDBRANCH  29  30
ENDBRANCH   1  29
TORSDOF 9
ENDMDL
MODEL 5
REMARK VINA RESULT:      -7.3      1.914      2.399
REMARK  9 active torsions:
REMARK  status: ('A' for Active; 'I' for Inactive)
REMARK    1  A    between atoms: O_2  and  C_3 
REMARK    2  A    between atoms: C_4  and  S_5 
REMARK    3  A    between atoms: S_5  and  N_6 
REMARK    4  A    between atoms: N_6  and  C_7 
REMARK    5  A    between atoms: C_7  and  C_8 
REMARK    6  A    between atoms: C_7  and  C_21 
REMARK       I    between atoms: C_8  and  N_9 
REMARK    7  A    between atoms: N_9  and  C_10 
REMARK    8  A    between atoms: C_21  and  C_22 
REMARK    9  A    between atoms: C_22  and  S_23 
ROOT
HETATM    1  C   UNL     1      -7.358   2.585 -31.588  1.00  0.00     0.165 C 
ENDROOT
BRANCH   1   2
HETATM    2  N   UNL     1      -8.834   2.705 -31.773  1.00  0.00    -0.202 NA
HETATM    3  H   UNL     1      -9.304   1.790 -31.780  1.00  0.00     0.141 HD
BRANCH   2   4
HETATM    4  S   UNL     1      -9.404   3.621 -33.076  1.00  0.00     0.245 S 
HETATM    5  O   UNL     1      -8.511   3.374 -34.187  1.00  0.00    -0.206 OA
HETATM    6  O   UNL     1      -9.634   4.965 -32.593  1.00  0.00    -0.206 OA
BRANCH   4   7
HETATM    7  C   UNL     1     -10.985   2.918 -33.467  1.00  0.00     0.107 A 
HETATM    8  C   UNL     1     -11.141   1.529 -33.574  1.00  0.00     0.091 A 
HETATM    9  C   UNL     1     -12.418   1.020 -33.841  1.00  0.00     0.038 A 
HETATM   10  C   UNL     1     -13.508   1.881 -34.006  1.00  0.00     0.003 A 
HETATM   11  C   UNL     1     -13.337   3.259 -33.904  1.00  0.00     0.002 A 
HETATM   12  C   UNL     1     -12.075   3.782 -33.633  1.00  0.00     0.028 A 
BRANCH   8  13
HETATM   13  O   UNL     1     -10.023   0.754 -33.414  1.00  0.00    -0.354 OA
HETATM   14  C   UNL     1     -10.162  -0.454 -32.674  1.00  0.00     0.210 C 
ENDBRANCH   8  13
ENDBRANCH   4   7
ENDBRANCH   2   4
ENDBRANCH   1   2
BRANCH   1  15
HETATM   15  C   UNL     1      -6.930   1.136 -31.835  1.00  0.00     0.254 C 
HETATM   16  N   UNL     1      -6.773   0.798 -33.160  1.00  0.00    -0.156 N 
HETATM   17  H   UNL     1      -6.815   1.490 -33.905  1.00  0.00     0.187 HD
HETATM   18  O   UNL     1      -6.725   0.360 -30.898  1.00  0.00    -0.271 OA
BRANCH  16  19
HETATM   19  C   UNL     1      -6.425  -0.469 -33.552  1.00  0.00     0.708 A 
HETATM   20  N   UNL     1      -7.233  -1.320 -34.136  1.00  0.00    -0.062 NA
HETATM   21  C   UNL     1      -6.475  -2.448 -34.358  1.00  0.00     0.103 A 
HETATM   22  C   UNL     1      -5.186  -2.289 -33.858  1.00  0.00     0.078 A 
HETATM   23  C   UNL     1      -6.818  -3.656 -34.983  1.00  0.00     0.034 A 
HETATM   24  N   UNL     1      -5.179  -1.012 -33.367  1.00  0.00    -0.188 N 
HETATM   25  C   UNL     1      -4.209  -3.284 -33.914  1.00  0.00     0.032 A 
HETATM   26  H   UNL     1      -4.403  -0.521 -32.942  1.00  0.00     0.184 HD
HETATM   27  C   UNL     1      -4.574  -4.485 -34.531  1.00  0.00     0.002 A 
HETATM   28  C   UNL     1      -5.853  -4.668 -35.065  1.00  0.00     0.002 A 
ENDBRANCH  16  19
ENDBRANCH   1  15
BRANCH   1  29
HETATM   29  C   UNL     1      -7.068   3.016 -30.139  1.00  0.00     0.040 C 
BRANCH  29  30
HETATM   30  C   UNL     1      -5.685   3.607 -29.861  1.00  0.00     0.075 C 
BRANCH  30  31
HETATM   31  S   UNL     1      -4.739   4.087 -31.341  1.00  0.00    -0.173 SA
HETATM   32  C   UNL     1      -3.525   2.740 -31.377  1.00  0.00     0.089 C 
ENDBRANCH  30  31
ENDBRANCH  29  30
ENDBRANCH   1  29
TORSDOF 9
ENDMDL
MODEL 6
REMARK VINA RESULT:      -7.2      2.367      7.512
REMARK  9 active torsions:
REMARK  status: ('A' for Active; 'I' for Inactive)
REMARK    1  A    between atoms: O_2  and  C_3 
REMARK    2  A    between atoms: C_4  and  S_5 
REMARK    3  A    between atoms: S_5  and  N_6 
REMARK    4  A    between atoms: N_6  and  C_7 
REMARK    5  A    between atoms: C_7  and  C_8 
REMARK    6  A    between atoms: C_7  and  C_21 
REMARK       I    between atoms: C_8  and  N_9 
REMARK    7  A    between atoms: N_9  and  C_10 
REMARK    8  A    between atoms: C_21  and  C_22 
REMARK    9  A    between atoms: C_22  and  S_23 
ROOT
HETATM    1  C   UNL     1      -7.607   2.722 -33.983  1.00  0.00     0.165 C 
ENDROOT
BRANCH   1   2
HETATM    2  N   UNL     1      -7.223   1.505 -33.212  1.00  0.00    -0.202 NA
HETATM    3  H   UNL     1      -6.340   1.629 -32.696  1.00  0.00     0.141 HD
BRANCH   2   4
HETATM    4  S   UNL     1      -7.172   0.023 -34.027  1.00  0.00     0.245 S 
HETATM    5  O   UNL     1      -6.918   0.318 -35.420  1.00  0.00    -0.206 OA
HETATM    6  O   UNL     1      -8.340  -0.731 -33.628  1.00  0.00    -0.206 OA
BRANCH   4   7
HETATM    7  C   UNL     1      -5.751  -0.808 -33.367  1.00  0.00     0.107 A 
HETATM    8  C   UNL     1      -5.289  -2.000 -33.944  1.00  0.00     0.091 A 
HETATM    9  C   UNL     1      -4.137  -2.594 -33.414  1.00  0.00     0.038 A 
HETATM   10  C   UNL     1      -3.471  -2.015 -32.330  1.00  0.00     0.003 A 
HETATM   11  C   UNL     1      -3.944  -0.836 -31.762  1.00  0.00     0.002 A 
HETATM   12  C   UNL     1      -5.085  -0.228 -32.279  1.00  0.00     0.028 A 
BRANCH   8  13
HETATM   13  O   UNL     1      -6.005  -2.511 -34.993  1.00  0.00    -0.354 OA
HETATM   14  C   UNL     1      -6.474  -3.851 -34.876  1.00  0.00     0.210 C 
ENDBRANCH   8  13
ENDBRANCH   4   7
ENDBRANCH   2   4
ENDBRANCH   1   2
BRANCH   1  15
HETATM   15  C   UNL     1      -6.503   3.776 -33.858  1.00  0.00     0.254 C 
HETATM   16  N   UNL     1      -5.296   3.295 -33.402  1.00  0.00    -0.156 N 
HETATM   17  H   UNL     1      -5.118   2.301 -33.282  1.00  0.00     0.187 HD
HETATM   18  O   UNL     1      -6.702   4.952 -34.170  1.00  0.00    -0.271 OA
BRANCH  16  19
HETATM   19  C   UNL     1      -4.216   4.116 -33.203  1.00  0.00     0.708 A 
HETATM   20  N   UNL     1      -3.345   3.984 -32.232  1.00  0.00    -0.062 NA
HETATM   21  C   UNL     1      -2.436   5.002 -32.417  1.00  0.00     0.103 A 
HETATM   22  C   UNL     1      -2.790   5.795 -33.505  1.00  0.00     0.078 A 
HETATM   23  C   UNL     1      -1.277   5.318 -31.693  1.00  0.00     0.034 A 
HETATM   24  N   UNL     1      -3.918   5.195 -33.997  1.00  0.00    -0.188 N 
HETATM   25  C   UNL     1      -2.068   6.919 -33.907  1.00  0.00     0.032 A 
HETATM   26  H   UNL     1      -4.457   5.469 -34.807  1.00  0.00     0.184 HD
HETATM   27  C   UNL     1      -0.921   7.224 -33.167  1.00  0.00     0.002 A 
HETATM   28  C   UNL     1      -0.525   6.434 -32.083  1.00  0.00     0.002 A 
ENDBRANCH  16  19
ENDBRANCH   1  15
BRANCH   1  29
HETATM   29  C   UNL     1      -8.930   3.220 -33.375  1.00  0.00     0.040 C 
BRANCH  29  30
HETATM   30  C   UNL     1     -10.173   3.132 -34.261  1.00  0.00     0.075 C 
BRANCH  30  31
HETATM   31  S   UNL     1     -11.083   1.557 -34.159  1.00  0.00    -0.173 SA
HETATM   32  C   UNL     1     -12.523   1.971 -35.181  1.00  0.00     0.089 C 
ENDBRANCH  30  31
ENDBRANCH  29  30
ENDBRANCH   1  29
TORSDOF 9
ENDMDL
MODEL 7
REMARK VINA RESULT:      -7.1      1.504      2.412
REMARK  9 active torsions:
REMARK  status: ('A' for Active; 'I' for Inactive)
REMARK    1  A    between atoms: O_2  and  C_3 
REMARK    2  A    between atoms: C_4  and  S_5 
REMARK    3  A    between atoms: S_5  and  N_6 
REMARK    4  A    between atoms: N_6  and  C_7 
REMARK    5  A    between atoms: C_7  and  C_8 
REMARK    6  A    between atoms: C_7  and  C_21 
REMARK       I    between atoms: C_8  and  N_9 
REMARK    7  A    between atoms: N_9  and  C_10 
REMARK    8  A    between atoms: C_21  and  C_22 
REMARK    9  A    between atoms: C_22  and  S_23 
ROOT
HETATM    1  C   UNL     1      -6.060   3.075 -32.837  1.00  0.00     0.165 C 
ENDROOT
BRANCH   1   2
HETATM    2  N   UNL     1      -7.328   3.366 -32.107  1.00  0.00    -0.202 NA
HETATM    3  H   UNL     1      -7.687   2.545 -31.600  1.00  0.00     0.141 HD
BRANCH   2   4
HETATM    4  S   UNL     1      -8.601   4.075 -32.966  1.00  0.00     0.245 S 
HETATM    5  O   UNL     1      -8.068   4.481 -34.249  1.00  0.00    -0.206 OA
HETATM    6  O   UNL     1      -9.236   5.034 -32.089  1.00  0.00    -0.206 OA
BRANCH   4   7
HETATM    7  C   UNL     1      -9.755   2.756 -33.237  1.00  0.00     0.107 A 
HETATM    8  C   UNL     1     -10.948   2.983 -33.938  1.00  0.00     0.091 A 
HETATM    9  C   UNL     1     -11.805   1.899 -34.164  1.00  0.00     0.038 A 
HETATM   10  C   UNL     1     -11.481   0.624 -33.692  1.00  0.00     0.003 A 
HETATM   11  C   UNL     1     -10.297   0.413 -32.991  1.00  0.00     0.002 A 
HETATM   12  C   UNL     1      -9.429   1.478 -32.762  1.00  0.00     0.028 A 
BRANCH   8  13
HETATM   13  O   UNL     1     -11.201   4.263 -34.354  1.00  0.00    -0.354 OA
HETATM   14  C   UNL     1     -12.228   4.447 -35.323  1.00  0.00     0.210 C 
ENDBRANCH   8  13
ENDBRANCH   4   7
ENDBRANCH   2   4
ENDBRANCH   1   2
BRANCH   1  15
HETATM   15  C   UNL     1      -5.793   1.568 -32.813  1.00  0.00     0.254 C 
HETATM   16  N   UNL     1      -6.021   0.923 -34.008  1.00  0.00    -0.156 N 
HETATM   17  H   UNL     1      -6.227   1.427 -34.867  1.00  0.00     0.187 HD
HETATM   18  O   UNL     1      -5.382   1.005 -31.795  1.00  0.00    -0.271 OA
BRANCH  16  19
HETATM   19  C   UNL     1      -5.861  -0.432 -34.145  1.00  0.00     0.708 A 
HETATM   20  N   UNL     1      -6.780  -1.253 -34.591  1.00  0.00    -0.062 NA
HETATM   21  C   UNL     1      -6.195  -2.500 -34.572  1.00  0.00     0.103 A 
HETATM   22  C   UNL     1      -4.902  -2.436 -34.062  1.00  0.00     0.078 A 
HETATM   23  C   UNL     1      -6.707  -3.742 -34.975  1.00  0.00     0.034 A 
HETATM   24  N   UNL     1      -4.711  -1.104 -33.815  1.00  0.00    -0.188 N 
HETATM   25  C   UNL     1      -4.083  -3.554 -33.896  1.00  0.00     0.032 A 
HETATM   26  H   UNL     1      -3.875  -0.658 -33.460  1.00  0.00     0.184 HD
HETATM   27  C   UNL     1      -4.615  -4.784 -34.294  1.00  0.00     0.002 A 
HETATM   28  C   UNL     1      -5.902  -4.879 -34.832  1.00  0.00     0.002 A 
ENDBRANCH  16  19
ENDBRANCH   1  15
BRANCH   1  29
HETATM   29  C   UNL     1      -4.952   3.852 -32.105  1.00  0.00     0.040 C 
BRANCH  29  30
HETATM   30  C   UNL     1      -3.547   3.779 -32.706  1.00  0.00     0.075 C 
BRANCH  30  31
HETATM   31  S   UNL     1      -2.230   4.506 -31.678  1.00  0.00    -0.173 SA
HETATM   32  C   UNL     1      -1.267   5.344 -32.966  1.00  0.00     0.089 C 
ENDBRANCH  30  31
ENDBRANCH  29  30
ENDBRANCH   1  29
TORSDOF 9
ENDMDL
MODEL 8
REMARK VINA RESULT:      -7.0      2.730      6.431
REMARK  9 active torsions:
REMARK  status: ('A' for Active; 'I' for Inactive)
REMARK    1  A    between atoms: O_2  and  C_3 
REMARK    2  A    between atoms: C_4  and  S_5 
REMARK    3  A    between atoms: S_5  and  N_6 
REMARK    4  A    between atoms: N_6  and  C_7 
REMARK    5  A    between atoms: C_7  and  C_8 
REMARK    6  A    between atoms: C_7  and  C_21 
REMARK       I    between atoms: C_8  and  N_9 
REMARK    7  A    between atoms: N_9  and  C_10 
REMARK    8  A    between atoms: C_21  and  C_22 
REMARK    9  A    between atoms: C_22  and  S_23 
ROOT
HETATM    1  C   UNL     1      -6.530   1.625 -32.320  1.00  0.00     0.165 C 
ENDROOT
BRANCH   1   2
HETATM    2  N   UNL     1      -7.796   2.186 -32.876  1.00  0.00    -0.202 NA
HETATM    3  H   UNL     1      -7.774   3.214 -32.940  1.00  0.00     0.141 HD
BRANCH   2   4
HETATM    4  S   UNL     1      -9.259   1.715 -32.171  1.00  0.00     0.245 S 
HETATM    5  O   UNL     1      -9.494   2.606 -31.055  1.00  0.00    -0.206 OA
HETATM    6  O   UNL     1      -9.206   0.282 -31.979  1.00  0.00    -0.206 OA
BRANCH   4   7
HETATM    7  C   UNL     1     -10.485   2.041 -33.410  1.00  0.00     0.107 A 
HETATM    8  C   UNL     1     -10.484   3.253 -34.114  1.00  0.00     0.091 A 
HETATM    9  C   UNL     1     -11.446   3.445 -35.112  1.00  0.00     0.038 A 
HETATM   10  C   UNL     1     -12.390   2.453 -35.392  1.00  0.00     0.003 A 
HETATM   11  C   UNL     1     -12.385   1.256 -34.681  1.00  0.00     0.002 A 
HETATM   12  C   UNL     1     -11.432   1.046 -33.688  1.00  0.00     0.028 A 
BRANCH   8  13
HETATM   13  O   UNL     1      -9.537   4.181 -33.770  1.00  0.00    -0.354 OA
HETATM   14  C   UNL     1      -9.448   5.355 -34.571  1.00  0.00     0.210 C 
ENDBRANCH   8  13
ENDBRANCH   4   7
ENDBRANCH   2   4
ENDBRANCH   1   2
BRANCH   1  15
HETATM   15  C   UNL     1      -5.568   2.769 -31.985  1.00  0.00     0.254 C 
HETATM   16  N   UNL     1      -4.358   2.714 -32.639  1.00  0.00    -0.156 N 
HETATM   17  H   UNL     1      -4.170   2.041 -33.378  1.00  0.00     0.187 HD
HETATM   18  O   UNL     1      -5.889   3.668 -31.205  1.00  0.00    -0.271 OA
BRANCH  16  19
HETATM   19  C   UNL     1      -3.374   3.645 -32.425  1.00  0.00     0.708 A 
HETATM   20  N   UNL     1      -2.971   4.525 -33.308  1.00  0.00    -0.062 NA
HETATM   21  C   UNL     1      -1.989   5.254 -32.674  1.00  0.00     0.103 A 
HETATM   22  C   UNL     1      -1.765   4.775 -31.387  1.00  0.00     0.078 A 
HETATM   23  C   UNL     1      -1.238   6.346 -33.134  1.00  0.00     0.034 A 
HETATM   24  N   UNL     1      -2.674   3.761 -31.250  1.00  0.00    -0.188 N 
HETATM   25  C   UNL     1      -0.802   5.302 -30.524  1.00  0.00     0.032 A 
HETATM   26  H   UNL     1      -2.834   3.184 -30.435  1.00  0.00     0.184 HD
HETATM   27  C   UNL     1      -0.056   6.382 -31.006  1.00  0.00     0.002 A 
HETATM   28  C   UNL     1      -0.274   6.903 -32.285  1.00  0.00     0.002 A 
ENDBRANCH  16  19
ENDBRANCH   1  15
BRANCH   1  29
HETATM   29  C   UNL     1      -5.950   0.705 -33.408  1.00  0.00     0.040 C 
BRANCH  29  30
HETATM   30  C   UNL     1      -5.987  -0.799 -33.130  1.00  0.00     0.075 C 
BRANCH  30  31
HETATM   31  S   UNL     1      -6.772  -1.804 -34.431  1.00  0.00    -0.173 SA
HETATM   32  C   UNL     1      -5.385  -2.895 -34.851  1.00  0.00     0.089 C 
ENDBRANCH  30  31
ENDBRANCH  29  30
ENDBRANCH   1  29
TORSDOF 9
ENDMDL
MODEL 9
REMARK VINA RESULT:      -7.0      2.397      2.766
REMARK  9 active torsions:
REMARK  status: ('A' for Active; 'I' for Inactive)
REMARK    1  A    between atoms: O_2  and  C_3 
REMARK    2  A    between atoms: C_4  and  S_5 
REMARK    3  A    between atoms: S_5  and  N_6 
REMARK    4  A    between atoms: N_6  and  C_7 
REMARK    5  A    between atoms: C_7  and  C_8 
REMARK    6  A    between atoms: C_7  and  C_21 
REMARK       I    between atoms: C_8  and  N_9 
REMARK    7  A    between atoms: N_9  and  C_10 
REMARK    8  A    between atoms: C_21  and  C_22 
REMARK    9  A    between atoms: C_22  and  S_23 
ROOT
HETATM    1  C   UNL     1      -9.123   2.316 -33.388  1.00  0.00     0.165 C 
ENDROOT
BRANCH   1   2
HETATM    2  N   UNL     1     -10.559   2.333 -32.985  1.00  0.00    -0.202 NA
HETATM    3  H   UNL     1     -11.017   1.422 -33.129  1.00  0.00     0.141 HD
BRANCH   2   4
HETATM    4  S   UNL     1     -11.553   3.548 -33.614  1.00  0.00     0.245 S 
HETATM    5  O   UNL     1     -11.502   3.429 -35.056  1.00  0.00    -0.206 OA
HETATM    6  O   UNL     1     -11.192   4.786 -32.959  1.00  0.00    -0.206 OA
BRANCH   4   7
HETATM    7  C   UNL     1     -13.188   3.119 -33.079  1.00  0.00     0.107 A 
HETATM    8  C   UNL     1     -13.705   1.838 -33.319  1.00  0.00     0.091 A 
HETATM    9  C   UNL     1     -14.984   1.534 -32.837  1.00  0.00     0.038 A 
HETATM   10  C   UNL     1     -15.730   2.490 -32.142  1.00  0.00     0.003 A 
HETATM   11  C   UNL     1     -15.208   3.761 -31.917  1.00  0.00     0.002 A 
HETATM   12  C   UNL     1     -13.935   4.079 -32.384  1.00  0.00     0.028 A 
BRANCH   8  13
HETATM   13  O   UNL     1     -12.920   0.962 -34.020  1.00  0.00    -0.354 OA
HETATM   14  C   UNL     1     -12.920  -0.399 -33.603  1.00  0.00     0.210 C 
ENDBRANCH   8  13
ENDBRANCH   4   7
ENDBRANCH   2   4
ENDBRANCH   1   2
BRANCH   1  15
HETATM   15  C   UNL     1      -8.618   0.871 -33.420  1.00  0.00     0.254 C 
HETATM   16  N   UNL     1      -7.350   0.714 -33.931  1.00  0.00    -0.156 N 
HETATM   17  H   UNL     1      -6.750   1.506 -34.150  1.00  0.00     0.187 HD
HETATM   18  O   UNL     1      -9.308  -0.058 -32.992  1.00  0.00    -0.271 OA
BRANCH  16  19
HETATM   19  C   UNL     1      -6.765  -0.520 -34.059  1.00  0.00     0.708 A 
HETATM   20  N   UNL     1      -5.521  -0.795 -33.753  1.00  0.00    -0.062 NA
HETATM   21  C   UNL     1      -5.366  -2.136 -34.024  1.00  0.00     0.103 A 
HETATM   22  C   UNL     1      -6.537  -2.677 -34.547  1.00  0.00     0.078 A 
HETATM   23  C   UNL     1      -4.250  -2.968 -33.851  1.00  0.00     0.034 A 
HETATM   24  N   UNL     1      -7.416  -1.628 -34.541  1.00  0.00    -0.188 N 
HETATM   25  C   UNL     1      -6.660  -4.010 -34.945  1.00  0.00     0.032 A 
HETATM   26  H   UNL     1      -8.386  -1.637 -34.827  1.00  0.00     0.184 HD
HETATM   27  C   UNL     1      -5.533  -4.820 -34.775  1.00  0.00     0.002 A 
HETATM   28  C   UNL     1      -4.350  -4.313 -34.229  1.00  0.00     0.002 A 
ENDBRANCH  16  19
ENDBRANCH   1  15
BRANCH   1  29
HETATM   29  C   UNL     1      -8.369   3.150 -32.337  1.00  0.00     0.040 C 
BRANCH  29  30
HETATM   30  C   UNL     1      -7.584   4.358 -32.850  1.00  0.00     0.075 C 
BRANCH  30  31
HETATM   31  S   UNL     1      -5.784   4.280 -32.579  1.00  0.00    -0.173 SA
HETATM   32  C   UNL     1      -5.207   4.857 -34.200  1.00  0.00     0.089 C 
ENDBRANCH  30  31
ENDBRANCH  29  30
ENDBRANCH   1  29
TORSDOF 9
ENDMDL
MODEL 10
REMARK VINA RESULT:      -6.9     15.133     17.462
REMARK  9 active torsions:
REMARK  status: ('A' for Active; 'I' for Inactive)
REMARK    1  A    between atoms: O_2  and  C_3 
REMARK    2  A    between atoms: C_4  and  S_5 
REMARK    3  A    between atoms: S_5  and  N_6 
REMARK    4  A    between atoms: N_6  and  C_7 
REMARK    5  A    between atoms: C_7  and  C_8 
REMARK    6  A    between atoms: C_7  and  C_21 
REMARK       I    between atoms: C_8  and  N_9 
REMARK    7  A    between atoms: N_9  and  C_10 
REMARK    8  A    between atoms: C_21  and  C_22 
REMARK    9  A    between atoms: C_22  and  S_23 
ROOT
HETATM    1  C   UNL     1      -5.493 -14.429 -34.409  1.00  0.00     0.165 C 
ENDROOT
BRANCH   1   2
HETATM    2  N   UNL     1      -4.197 -14.150 -35.093  1.00  0.00    -0.202 NA
HETATM    3  H   UNL     1      -4.296 -13.469 -35.859  1.00  0.00     0.141 HD
BRANCH   2   4
HETATM    4  S   UNL     1      -3.285 -15.463 -35.646  1.00  0.00     0.245 S 
HETATM    5  O   UNL     1      -4.206 -16.373 -36.292  1.00  0.00    -0.206 OA
HETATM    6  O   UNL     1      -2.452 -15.904 -34.549  1.00  0.00    -0.206 OA
BRANCH   4   7
HETATM    7  C   UNL     1      -2.215 -14.782 -36.886  1.00  0.00     0.107 A 
HETATM    8  C   UNL     1      -2.716 -13.902 -37.856  1.00  0.00     0.091 A 
HETATM    9  C   UNL     1      -1.823 -13.358 -38.786  1.00  0.00     0.038 A 
HETATM   10  C   UNL     1      -0.466 -13.692 -38.752  1.00  0.00     0.003 A 
HETATM   11  C   UNL     1       0.017 -14.572 -37.788  1.00  0.00     0.002 A 
HETATM   12  C   UNL     1      -0.856 -15.119 -36.851  1.00  0.00     0.028 A 
BRANCH   8  13
HETATM   13  O   UNL     1      -4.059 -13.637 -37.833  1.00  0.00    -0.354 OA
HETATM   14  C   UNL     1      -4.481 -12.348 -38.266  1.00  0.00     0.210 C 
ENDBRANCH   8  13
ENDBRANCH   4   7
ENDBRANCH   2   4
ENDBRANCH   1   2
BRANCH   1  15
HETATM   15  C   UNL     1      -6.651 -14.004 -35.316  1.00  0.00     0.254 C 
HETATM   16  N   UNL     1      -6.662 -14.603 -36.556  1.00  0.00    -0.156 N 
HETATM   17  H   UNL     1      -6.027 -15.359 -36.800  1.00  0.00     0.187 HD
HETATM   18  O   UNL     1      -7.506 -13.203 -34.931  1.00  0.00    -0.271 OA
BRANCH  16  19
HETATM   19  C   UNL     1      -7.612 -14.305 -37.498  1.00  0.00     0.708 A 
HETATM   20  N   UNL     1      -8.326 -15.192 -38.148  1.00  0.00    -0.062 NA
HETATM   21  C   UNL     1      -9.151 -14.462 -38.974  1.00  0.00     0.103 A 
HETATM   22  C   UNL     1      -8.900 -13.099 -38.851  1.00  0.00     0.078 A 
HETATM   23  C   UNL     1     -10.145 -14.893 -39.865  1.00  0.00     0.034 A 
HETATM   24  N   UNL     1      -7.928 -13.028 -37.890  1.00  0.00    -0.188 N 
HETATM   25  C   UNL     1      -9.566 -12.122 -39.593  1.00  0.00     0.032 A 
HETATM   26  H   UNL     1      -7.501 -12.195 -37.508  1.00  0.00     0.184 HD
HETATM   27  C   UNL     1     -10.545 -12.572 -40.484  1.00  0.00     0.002 A 
HETATM   28  C   UNL     1     -10.838 -13.933 -40.614  1.00  0.00     0.002 A 
ENDBRANCH  16  19
ENDBRANCH   1  15
BRANCH   1  29
HETATM   29  C   UNL     1      -5.477 -13.615 -33.103  1.00  0.00     0.040 C 
BRANCH  29  30
HETATM   30  C   UNL     1      -5.500 -14.409 -31.796  1.00  0.00     0.075 C 
BRANCH  30  31
HETATM   31  S   UNL     1      -5.031 -16.163 -31.951  1.00  0.00    -0.173 SA
HETATM   32  C   UNL     1      -6.673 -16.927 -31.840  1.00  0.00     0.089 C 
ENDBRANCH  30  31
ENDBRANCH  29  30
ENDBRANCH   1  29
TORSDOF 9
ENDMDL
