MODEL 1
REMARK VINA RESULT:      -9.1      0.000      0.000
REMARK  6 active torsions:
REMARK  status: ('A' for Active; 'I' for Inactive)
REMARK    1  A    between atoms: O_2  and  C_3 
REMARK    2  A    between atoms: C_6  and  C_7 
REMARK    3  A    between atoms: C_13  and  C_14 
REMARK       I    between atoms: C_14  and  N_15 
REMARK    4  A    between atoms: N_15  and  C_16 
REMARK    5  A    between atoms: C_16  and  C_17 
REMARK    6  A    between atoms: C_24  and  C_25 
ROOT
HETATM    1  C   UNL     1      -6.691   1.530 -34.430  1.00  0.00     0.118 C 
HETATM    2  N   UNL     1      -6.050   2.540 -33.579  1.00  0.00    -0.365 N 
HETATM    3  C   UNL     1      -6.547   2.830 -32.345  1.00  0.00     0.138 A 
HETATM    4  N   UNL     1      -7.802   2.407 -31.975  1.00  0.00    -0.240 N 
HETATM    5  N   UNL     1      -8.177   2.810 -30.752  1.00  0.00    -0.181 NA
HETATM    6  C   UNL     1      -7.082   3.415 -30.285  1.00  0.00     0.160 A 
HETATM    7  C   UNL     1      -6.034   3.482 -31.238  1.00  0.00     0.096 A 
HETATM    8  C   UNL     1      -8.680   1.588 -32.788  1.00  0.00     0.221 C 
HETATM    9  C   UNL     1      -8.219   1.606 -34.255  1.00  0.00     0.066 C 
HETATM   10  H   UNL     1      -5.047   2.607 -33.747  1.00  0.00     0.161 HD
ENDROOT
BRANCH   7  11
HETATM   11  C   UNL     1      -4.734   4.075 -31.013  1.00  0.00     0.257 C 
HETATM   12  N   UNL     1      -3.658   3.343 -31.459  1.00  0.00    -0.352 N 
HETATM   13  H   UNL     1      -3.825   2.508 -32.005  1.00  0.00     0.163 HD
HETATM   14  O   UNL     1      -4.608   5.171 -30.475  1.00  0.00    -0.267 OA
BRANCH  12  15
HETATM   15  C   UNL     1      -2.313   3.820 -31.251  1.00  0.00     0.161 C 
BRANCH  15  16
HETATM   16  C   UNL     1      -1.851   4.765 -32.329  1.00  0.00    -0.041 A 
HETATM   17  C   UNL     1      -2.119   4.503 -33.681  1.00  0.00     0.009 A 
HETATM   18  C   UNL     1      -1.748   5.418 -34.669  1.00  0.00     0.001 A 
HETATM   19  C   UNL     1      -1.119   6.610 -34.316  1.00  0.00     0.000 A 
HETATM   20  C   UNL     1      -0.857   6.888 -32.976  1.00  0.00     0.001 A 
HETATM   21  C   UNL     1      -1.222   5.971 -31.987  1.00  0.00     0.009 A 
ENDBRANCH  15  16
ENDBRANCH  12  15
ENDBRANCH   7  11
BRANCH   1  22
HETATM   22  C   UNL     1      -6.074   0.148 -34.275  1.00  0.00    -0.035 A 
HETATM   23  C   UNL     1      -4.953  -0.101 -33.465  1.00  0.00     0.012 A 
HETATM   24  C   UNL     1      -4.391  -1.380 -33.365  1.00  0.00     0.037 A 
HETATM   25  C   UNL     1      -4.935  -2.443 -34.078  1.00  0.00     0.068 A 
HETATM   26  C   UNL     1      -6.040  -2.212 -34.897  1.00  0.00     0.037 A 
HETATM   27  C   UNL     1      -6.600  -0.934 -35.001  1.00  0.00     0.012 A 
BRANCH  25  28
HETATM   28  O   UNL     1      -4.484  -3.734 -34.065  1.00  0.00    -0.356 OA
HETATM   29  C   UNL     1      -5.339  -4.715 -34.640  1.00  0.00     0.210 C 
ENDBRANCH  25  28
ENDBRANCH   1  22
BRANCH   8  30
HETATM   30  C   UNL     1      -8.793   0.196 -32.198  1.00  0.00     0.409 C 
HETATM   31  F   UNL     1      -9.116  -0.754 -33.095  1.00  0.00    -0.169 F 
HETATM   32  F   UNL     1      -7.650  -0.193 -31.587  1.00  0.00    -0.169 F 
HETATM   33  F   UNL     1      -9.755   0.179 -31.236  1.00  0.00    -0.169 F 
ENDBRANCH   8  30
TORSDOF 6
ENDMDL
MODEL 2
REMARK VINA RESULT:      -9.0      3.445      6.183
REMARK  6 active torsions:
REMARK  status: ('A' for Active; 'I' for Inactive)
REMARK    1  A    between atoms: O_2  and  C_3 
REMARK    2  A    between atoms: C_6  and  C_7 
REMARK    3  A    between atoms: C_13  and  C_14 
REMARK       I    between atoms: C_14  and  N_15 
REMARK    4  A    between atoms: N_15  and  C_16 
REMARK    5  A    between atoms: C_16  and  C_17 
REMARK    6  A    between atoms: C_24  and  C_25 
ROOT
HETATM    1  C   UNL     1      -8.195   2.863 -33.826  1.00  0.00     0.118 C 
HETATM    2  N   UNL     1      -6.946   2.225 -33.391  1.00  0.00    -0.365 N 
HETATM    3  C   UNL     1      -6.480   2.396 -32.123  1.00  0.00     0.138 A 
HETATM    4  N   UNL     1      -6.996   3.378 -31.310  1.00  0.00    -0.240 N 
HETATM    5  N   UNL     1      -6.406   3.461 -30.109  1.00  0.00    -0.181 NA
HETATM    6  C   UNL     1      -5.562   2.426 -30.116  1.00  0.00     0.160 A 
HETATM    7  C   UNL     1      -5.543   1.732 -31.352  1.00  0.00     0.096 A 
HETATM    8  C   UNL     1      -8.086   4.266 -31.664  1.00  0.00     0.221 C 
HETATM    9  C   UNL     1      -8.309   4.259 -33.186  1.00  0.00     0.066 C 
HETATM   10  H   UNL     1      -6.769   1.348 -33.879  1.00  0.00     0.161 HD
ENDROOT
BRANCH   7  11
HETATM   11  C   UNL     1      -4.732   0.571 -31.648  1.00  0.00     0.257 C 
HETATM   12  N   UNL     1      -4.670   0.208 -32.973  1.00  0.00    -0.352 N 
HETATM   13  H   UNL     1      -5.087   0.813 -33.668  1.00  0.00     0.163 HD
HETATM   14  O   UNL     1      -4.125  -0.034 -30.770  1.00  0.00    -0.267 OA
BRANCH  12  15
HETATM   15  C   UNL     1      -3.923  -0.957 -33.377  1.00  0.00     0.161 C 
BRANCH  15  16
HETATM   16  C   UNL     1      -4.794  -2.050 -33.940  1.00  0.00    -0.041 A 
HETATM   17  C   UNL     1      -4.289  -3.343 -34.142  1.00  0.00     0.009 A 
HETATM   18  C   UNL     1      -5.121  -4.367 -34.598  1.00  0.00     0.001 A 
HETATM   19  C   UNL     1      -6.469  -4.115 -34.843  1.00  0.00     0.000 A 
HETATM   20  C   UNL     1      -6.987  -2.838 -34.635  1.00  0.00     0.001 A 
HETATM   21  C   UNL     1      -6.155  -1.811 -34.185  1.00  0.00     0.009 A 
ENDBRANCH  15  16
ENDBRANCH  12  15
ENDBRANCH   7  11
BRANCH   1  22
HETATM   22  C   UNL     1      -9.408   1.959 -33.666  1.00  0.00    -0.035 A 
HETATM   23  C   UNL     1      -9.349   0.708 -33.028  1.00  0.00     0.012 A 
HETATM   24  C   UNL     1     -10.478  -0.113 -32.922  1.00  0.00     0.037 A 
HETATM   25  C   UNL     1     -11.696   0.296 -33.455  1.00  0.00     0.068 A 
HETATM   26  C   UNL     1     -11.770   1.528 -34.103  1.00  0.00     0.037 A 
HETATM   27  C   UNL     1     -10.641   2.349 -34.214  1.00  0.00     0.012 A 
BRANCH  25  28
HETATM   28  O   UNL     1     -12.867  -0.409 -33.415  1.00  0.00    -0.356 OA
HETATM   29  C   UNL     1     -14.040   0.277 -33.838  1.00  0.00     0.210 C 
ENDBRANCH  25  28
ENDBRANCH   1  22
BRANCH   8  30
HETATM   30  C   UNL     1      -9.325   3.919 -30.862  1.00  0.00     0.409 C 
HETATM   31  F   UNL     1      -9.391   2.629 -30.486  1.00  0.00    -0.169 F 
HETATM   32  F   UNL     1      -9.437   4.674 -29.744  1.00  0.00    -0.169 F 
HETATM   33  F   UNL     1     -10.439   4.177 -31.599  1.00  0.00    -0.169 F 
ENDBRANCH   8  30
TORSDOF 6
ENDMDL
MODEL 3
REMARK VINA RESULT:      -8.9      1.755      2.315
REMARK  6 active torsions:
REMARK  status: ('A' for Active; 'I' for Inactive)
REMARK    1  A    between atoms: O_2  and  C_3 
REMARK    2  A    between atoms: C_6  and  C_7 
REMARK    3  A    between atoms: C_13  and  C_14 
REMARK       I    between atoms: C_14  and  N_15 
REMARK    4  A    between atoms: N_15  and  C_16 
REMARK    5  A    between atoms: C_16  and  C_17 
REMARK    6  A    between atoms: C_24  and  C_25 
ROOT
HETATM    1  C   UNL     1      -6.480   1.738 -34.267  1.00  0.00     0.118 C 
HETATM    2  N   UNL     1      -5.456   2.484 -33.525  1.00  0.00    -0.365 N 
HETATM    3  C   UNL     1      -5.632   2.792 -32.211  1.00  0.00     0.138 A 
HETATM    4  N   UNL     1      -6.866   2.669 -31.618  1.00  0.00    -0.240 N 
HETATM    5  N   UNL     1      -6.899   3.055 -30.334  1.00  0.00    -0.181 NA
HETATM    6  C   UNL     1      -5.619   3.327 -30.069  1.00  0.00     0.160 A 
HETATM    7  C   UNL     1      -4.777   3.204 -31.203  1.00  0.00     0.096 A 
HETATM    8  C   UNL     1      -8.058   2.164 -32.272  1.00  0.00     0.221 C 
HETATM    9  C   UNL     1      -7.878   2.181 -33.799  1.00  0.00     0.066 C 
HETATM   10  H   UNL     1      -4.517   2.311 -33.882  1.00  0.00     0.161 HD
ENDROOT
BRANCH   7  11
HETATM   11  C   UNL     1      -3.349   3.432 -31.215  1.00  0.00     0.257 C 
HETATM   12  N   UNL     1      -2.954   4.750 -31.213  1.00  0.00    -0.352 N 
HETATM   13  H   UNL     1      -3.652   5.471 -31.094  1.00  0.00     0.163 HD
HETATM   14  O   UNL     1      -2.547   2.503 -31.207  1.00  0.00    -0.267 OA
BRANCH  12  15
HETATM   15  C   UNL     1      -1.554   5.093 -31.264  1.00  0.00     0.161 C 
BRANCH  15  16
HETATM   16  C   UNL     1      -1.197   6.243 -30.360  1.00  0.00    -0.041 A 
HETATM   17  C   UNL     1      -2.195   7.022 -29.754  1.00  0.00     0.009 A 
HETATM   18  C   UNL     1      -1.857   8.042 -28.863  1.00  0.00     0.001 A 
HETATM   19  C   UNL     1      -0.520   8.286 -28.557  1.00  0.00     0.000 A 
HETATM   20  C   UNL     1       0.481   7.514 -29.142  1.00  0.00     0.001 A 
HETATM   21  C   UNL     1       0.145   6.497 -30.038  1.00  0.00     0.009 A 
ENDBRANCH  15  16
ENDBRANCH  12  15
ENDBRANCH   7  11
BRANCH   1  22
HETATM   22  C   UNL     1      -6.228   0.238 -34.276  1.00  0.00    -0.035 A 
HETATM   23  C   UNL     1      -5.131  -0.356 -33.629  1.00  0.00     0.012 A 
HETATM   24  C   UNL     1      -4.911  -1.738 -33.679  1.00  0.00     0.037 A 
HETATM   25  C   UNL     1      -5.783  -2.562 -34.384  1.00  0.00     0.068 A 
HETATM   26  C   UNL     1      -6.870  -1.989 -35.043  1.00  0.00     0.037 A 
HETATM   27  C   UNL     1      -7.088  -0.607 -34.997  1.00  0.00     0.012 A 
BRANCH  25  28
HETATM   28  O   UNL     1      -5.682  -3.920 -34.507  1.00  0.00    -0.356 OA
HETATM   29  C   UNL     1      -6.587  -4.549 -35.406  1.00  0.00     0.210 C 
ENDBRANCH  25  28
ENDBRANCH   1  22
BRANCH   8  30
HETATM   30  C   UNL     1      -8.425   0.802 -31.713  1.00  0.00     0.409 C 
HETATM   31  F   UNL     1      -9.010  -0.017 -32.607  1.00  0.00    -0.169 F 
HETATM   32  F   UNL     1      -7.350   0.152 -31.210  1.00  0.00    -0.169 F 
HETATM   33  F   UNL     1      -9.293   0.947 -30.677  1.00  0.00    -0.169 F 
ENDBRANCH   8  30
TORSDOF 6
ENDMDL
MODEL 4
REMARK VINA RESULT:      -8.6      4.478      7.944
REMARK  6 active torsions:
REMARK  status: ('A' for Active; 'I' for Inactive)
REMARK    1  A    between atoms: O_2  and  C_3 
REMARK    2  A    between atoms: C_6  and  C_7 
REMARK    3  A    between atoms: C_13  and  C_14 
REMARK       I    between atoms: C_14  and  N_15 
REMARK    4  A    between atoms: N_15  and  C_16 
REMARK    5  A    between atoms: C_16  and  C_17 
REMARK    6  A    between atoms: C_24  and  C_25 
ROOT
HETATM    1  C   UNL     1      -7.490   0.897 -31.511  1.00  0.00     0.118 C 
HETATM    2  N   UNL     1      -8.900   1.159 -31.828  1.00  0.00    -0.365 N 
HETATM    3  C   UNL     1      -9.249   2.166 -32.675  1.00  0.00     0.138 A 
HETATM    4  N   UNL     1      -8.339   3.132 -33.033  1.00  0.00    -0.240 N 
HETATM    5  N   UNL     1      -8.837   4.086 -33.832  1.00  0.00    -0.181 NA
HETATM    6  C   UNL     1     -10.076   3.653 -34.082  1.00  0.00     0.160 A 
HETATM    7  C   UNL     1     -10.405   2.470 -33.372  1.00  0.00     0.096 A 
HETATM    8  C   UNL     1      -6.948   3.161 -32.622  1.00  0.00     0.221 C 
HETATM    9  C   UNL     1      -6.728   2.232 -31.417  1.00  0.00     0.066 C 
HETATM   10  H   UNL     1      -9.470   0.315 -31.785  1.00  0.00     0.161 HD
ENDROOT
BRANCH   7  11
HETATM   11  C   UNL     1     -11.670   1.772 -33.448  1.00  0.00     0.257 C 
HETATM   12  N   UNL     1     -12.748   2.430 -32.902  1.00  0.00    -0.352 N 
HETATM   13  H   UNL     1     -12.633   3.384 -32.586  1.00  0.00     0.163 HD
HETATM   14  O   UNL     1     -11.770   0.674 -33.984  1.00  0.00    -0.267 OA
BRANCH  12  15
HETATM   15  C   UNL     1     -14.050   1.810 -32.887  1.00  0.00     0.161 C 
BRANCH  15  16
HETATM   16  C   UNL     1     -15.136   2.734 -32.403  1.00  0.00    -0.041 A 
HETATM   17  C   UNL     1     -14.856   4.072 -32.084  1.00  0.00     0.009 A 
HETATM   18  C   UNL     1     -15.881   4.941 -31.703  1.00  0.00     0.001 A 
HETATM   19  C   UNL     1     -17.197   4.487 -31.650  1.00  0.00     0.000 A 
HETATM   20  C   UNL     1     -17.491   3.164 -31.975  1.00  0.00     0.001 A 
HETATM   21  C   UNL     1     -16.467   2.292 -32.351  1.00  0.00     0.009 A 
ENDBRANCH  15  16
ENDBRANCH  12  15
ENDBRANCH   7  11
BRANCH   1  22
HETATM   22  C   UNL     1      -6.869  -0.160 -32.411  1.00  0.00    -0.035 A 
HETATM   23  C   UNL     1      -5.523  -0.552 -32.311  1.00  0.00     0.012 A 
HETATM   24  C   UNL     1      -4.973  -1.508 -33.174  1.00  0.00     0.037 A 
HETATM   25  C   UNL     1      -5.757  -2.095 -34.162  1.00  0.00     0.068 A 
HETATM   26  C   UNL     1      -7.091  -1.709 -34.284  1.00  0.00     0.037 A 
HETATM   27  C   UNL     1      -7.641  -0.749 -33.426  1.00  0.00     0.012 A 
BRANCH  25  28
HETATM   28  O   UNL     1      -5.342  -3.038 -35.061  1.00  0.00    -0.356 OA
HETATM   29  C   UNL     1      -6.225  -4.129 -35.295  1.00  0.00     0.210 C 
ENDBRANCH  25  28
ENDBRANCH   1  22
BRANCH   8  30
HETATM   30  C   UNL     1      -6.046   2.857 -33.802  1.00  0.00     0.409 C 
HETATM   31  F   UNL     1      -6.555   1.955 -34.662  1.00  0.00    -0.169 F 
HETATM   32  F   UNL     1      -5.743   3.969 -34.512  1.00  0.00    -0.169 F 
HETATM   33  F   UNL     1      -4.859   2.361 -33.361  1.00  0.00    -0.169 F 
ENDBRANCH   8  30
TORSDOF 6
ENDMDL
MODEL 5
REMARK VINA RESULT:      -8.4      3.249      6.767
REMARK  6 active torsions:
REMARK  status: ('A' for Active; 'I' for Inactive)
REMARK    1  A    between atoms: O_2  and  C_3 
REMARK    2  A    between atoms: C_6  and  C_7 
REMARK    3  A    between atoms: C_13  and  C_14 
REMARK       I    between atoms: C_14  and  N_15 
REMARK    4  A    between atoms: N_15  and  C_16 
REMARK    5  A    between atoms: C_16  and  C_17 
REMARK    6  A    between atoms: C_24  and  C_25 
ROOT
HETATM    1  C   UNL     1      -6.443   0.859 -30.560  1.00  0.00     0.118 C 
HETATM    2  N   UNL     1      -7.619   1.736 -30.508  1.00  0.00    -0.365 N 
HETATM    3  C   UNL     1      -7.553   3.019 -30.958  1.00  0.00     0.138 A 
HETATM    4  N   UNL     1      -6.340   3.617 -31.206  1.00  0.00    -0.240 N 
HETATM    5  N   UNL     1      -6.429   4.897 -31.595  1.00  0.00    -0.181 NA
HETATM    6  C   UNL     1      -7.746   5.087 -31.706  1.00  0.00     0.160 A 
HETATM    7  C   UNL     1      -8.507   3.961 -31.302  1.00  0.00     0.096 A 
HETATM    8  C   UNL     1      -5.050   2.966 -31.085  1.00  0.00     0.221 C 
HETATM    9  C   UNL     1      -5.177   1.679 -30.252  1.00  0.00     0.066 C 
HETATM   10  H   UNL     1      -8.493   1.217 -30.590  1.00  0.00     0.161 HD
ENDROOT
BRANCH   7  11
HETATM   11  C   UNL     1      -9.951   3.877 -31.317  1.00  0.00     0.257 C 
HETATM   12  N   UNL     1     -10.543   3.983 -32.554  1.00  0.00    -0.352 N 
HETATM   13  H   UNL     1      -9.957   4.000 -33.378  1.00  0.00     0.163 HD
HETATM   14  O   UNL     1     -10.598   3.702 -30.289  1.00  0.00    -0.267 OA
BRANCH  12  15
HETATM   15  C   UNL     1     -11.979   3.952 -32.682  1.00  0.00     0.161 C 
BRANCH  15  16
HETATM   16  C   UNL     1     -12.504   2.603 -33.096  1.00  0.00    -0.041 A 
HETATM   17  C   UNL     1     -11.628   1.560 -33.434  1.00  0.00     0.009 A 
HETATM   18  C   UNL     1     -12.121   0.292 -33.750  1.00  0.00     0.001 A 
HETATM   19  C   UNL     1     -13.492   0.048 -33.717  1.00  0.00     0.000 A 
HETATM   20  C   UNL     1     -14.373   1.071 -33.372  1.00  0.00     0.001 A 
HETATM   21  C   UNL     1     -13.882   2.342 -33.062  1.00  0.00     0.009 A 
ENDBRANCH  15  16
ENDBRANCH  12  15
ENDBRANCH   7  11
BRANCH   1  22
HETATM   22  C   UNL     1      -6.393   0.011 -31.822  1.00  0.00    -0.035 A 
HETATM   23  C   UNL     1      -7.448  -0.041 -32.750  1.00  0.00     0.012 A 
HETATM   24  C   UNL     1      -7.382  -0.853 -33.888  1.00  0.00     0.037 A 
HETATM   25  C   UNL     1      -6.259  -1.639 -34.126  1.00  0.00     0.068 A 
HETATM   26  C   UNL     1      -5.208  -1.610 -33.210  1.00  0.00     0.037 A 
HETATM   27  C   UNL     1      -5.274  -0.802 -32.069  1.00  0.00     0.012 A 
BRANCH  25  28
HETATM   28  O   UNL     1      -6.072  -2.469 -35.196  1.00  0.00    -0.356 OA
HETATM   29  C   UNL     1      -5.737  -3.821 -34.904  1.00  0.00     0.210 C 
ENDBRANCH  25  28
ENDBRANCH   1  22
BRANCH   8  30
HETATM   30  C   UNL     1      -4.441   2.750 -32.457  1.00  0.00     0.409 C 
HETATM   31  F   UNL     1      -5.339   2.447 -33.413  1.00  0.00    -0.169 F 
HETATM   32  F   UNL     1      -3.745   3.830 -32.882  1.00  0.00    -0.169 F 
HETATM   33  F   UNL     1      -3.548   1.725 -32.410  1.00  0.00    -0.169 F 
ENDBRANCH   8  30
TORSDOF 6
ENDMDL
MODEL 6
REMARK VINA RESULT:      -8.4      3.640      7.145
REMARK  6 active torsions:
REMARK  status: ('A' for Active; 'I' for Inactive)
REMARK    1  A    between atoms: O_2  and  C_3 
REMARK    2  A    between atoms: C_6  and  C_7 
REMARK    3  A    between atoms: C_13  and  C_14 
REMARK       I    between atoms: C_14  and  N_15 
REMARK    4  A    between atoms: N_15  and  C_16 
REMARK    5  A    between atoms: C_16  and  C_17 
REMARK    6  A    between atoms: C_24  and  C_25 
ROOT
HETATM    1  C   UNL     1      -6.994   0.529 -31.170  1.00  0.00     0.118 C 
HETATM    2  N   UNL     1      -8.171   1.043 -31.882  1.00  0.00    -0.365 N 
HETATM    3  C   UNL     1      -8.117   2.223 -32.558  1.00  0.00     0.138 A 
HETATM    4  N   UNL     1      -7.072   3.097 -32.367  1.00  0.00    -0.240 N 
HETATM    5  N   UNL     1      -7.178   4.239 -33.061  1.00  0.00    -0.181 NA
HETATM    6  C   UNL     1      -8.270   4.040 -33.803  1.00  0.00     0.160 A 
HETATM    7  C   UNL     1      -8.917   2.810 -33.522  1.00  0.00     0.096 A 
HETATM    8  C   UNL     1      -5.926   2.852 -31.512  1.00  0.00     0.221 C 
HETATM    9  C   UNL     1      -6.224   1.701 -30.536  1.00  0.00     0.066 C 
HETATM   10  H   UNL     1      -8.776   0.295 -32.220  1.00  0.00     0.161 HD
ENDROOT
BRANCH   7  11
HETATM   11  C   UNL     1     -10.116   2.326 -34.173  1.00  0.00     0.257 C 
HETATM   12  N   UNL     1     -10.951   3.293 -34.680  1.00  0.00    -0.352 N 
HETATM   13  H   UNL     1     -10.646   4.257 -34.676  1.00  0.00     0.163 HD
HETATM   14  O   UNL     1     -10.354   1.127 -34.278  1.00  0.00    -0.267 OA
BRANCH  12  15
HETATM   15  C   UNL     1     -12.194   2.926 -35.314  1.00  0.00     0.161 C 
BRANCH  15  16
HETATM   16  C   UNL     1     -13.286   2.609 -34.327  1.00  0.00    -0.041 A 
HETATM   17  C   UNL     1     -14.029   1.423 -34.429  1.00  0.00     0.009 A 
HETATM   18  C   UNL     1     -14.993   1.103 -33.471  1.00  0.00     0.001 A 
HETATM   19  C   UNL     1     -15.215   1.956 -32.393  1.00  0.00     0.000 A 
HETATM   20  C   UNL     1     -14.476   3.132 -32.272  1.00  0.00     0.001 A 
HETATM   21  C   UNL     1     -13.516   3.456 -33.233  1.00  0.00     0.009 A 
ENDBRANCH  15  16
ENDBRANCH  12  15
ENDBRANCH   7  11
BRANCH   1  22
HETATM   22  C   UNL     1      -6.166  -0.430 -32.013  1.00  0.00    -0.035 A 
HETATM   23  C   UNL     1      -4.876  -0.851 -31.644  1.00  0.00     0.012 A 
HETATM   24  C   UNL     1      -4.129  -1.713 -32.456  1.00  0.00     0.037 A 
HETATM   25  C   UNL     1      -4.651  -2.173 -33.660  1.00  0.00     0.068 A 
HETATM   26  C   UNL     1      -5.924  -1.755 -34.048  1.00  0.00     0.037 A 
HETATM   27  C   UNL     1      -6.671  -0.890 -33.240  1.00  0.00     0.012 A 
BRANCH  25  28
HETATM   28  O   UNL     1      -4.026  -3.016 -34.537  1.00  0.00    -0.356 OA
HETATM   29  C   UNL     1      -3.800  -4.348 -34.091  1.00  0.00     0.210 C 
ENDBRANCH  25  28
ENDBRANCH   1  22
BRANCH   8  30
HETATM   30  C   UNL     1      -4.683   2.636 -32.352  1.00  0.00     0.409 C 
HETATM   31  F   UNL     1      -4.088   3.775 -32.752  1.00  0.00    -0.169 F 
HETATM   32  F   UNL     1      -3.752   1.897 -31.704  1.00  0.00    -0.169 F 
HETATM   33  F   UNL     1      -4.999   1.935 -33.474  1.00  0.00    -0.169 F 
ENDBRANCH   8  30
TORSDOF 6
ENDMDL
MODEL 7
REMARK VINA RESULT:      -8.4      2.670      4.449
REMARK  6 active torsions:
REMARK  status: ('A' for Active; 'I' for Inactive)
REMARK    1  A    between atoms: O_2  and  C_3 
REMARK    2  A    between atoms: C_6  and  C_7 
REMARK    3  A    between atoms: C_13  and  C_14 
REMARK       I    between atoms: C_14  and  N_15 
REMARK    4  A    between atoms: N_15  and  C_16 
REMARK    5  A    between atoms: C_16  and  C_17 
REMARK    6  A    between atoms: C_24  and  C_25 
ROOT
HETATM    1  C   UNL     1      -7.424   0.969 -30.923  1.00  0.00     0.118 C 
HETATM    2  N   UNL     1      -6.432   2.042 -30.779  1.00  0.00    -0.365 N 
HETATM    3  C   UNL     1      -5.229   1.969 -31.412  1.00  0.00     0.138 A 
HETATM    4  N   UNL     1      -4.795   0.788 -31.964  1.00  0.00    -0.240 N 
HETATM    5  N   UNL     1      -3.571   0.854 -32.509  1.00  0.00    -0.181 NA
HETATM    6  C   UNL     1      -3.263   2.149 -32.399  1.00  0.00     0.160 A 
HETATM    7  C   UNL     1      -4.246   2.898 -31.704  1.00  0.00     0.096 A 
HETATM    8  C   UNL     1      -5.553  -0.448 -31.993  1.00  0.00     0.221 C 
HETATM    9  C   UNL     1      -6.705  -0.391 -30.976  1.00  0.00     0.066 C 
HETATM   10  H   UNL     1      -6.866   2.951 -30.623  1.00  0.00     0.161 HD
ENDROOT
BRANCH   7  11
HETATM   11  C   UNL     1      -4.183   4.319 -31.438  1.00  0.00     0.257 C 
HETATM   12  N   UNL     1      -3.328   5.039 -32.239  1.00  0.00    -0.352 N 
HETATM   13  H   UNL     1      -2.883   4.578 -33.022  1.00  0.00     0.163 HD
HETATM   14  O   UNL     1      -4.869   4.842 -30.566  1.00  0.00    -0.267 OA
BRANCH  12  15
HETATM   15  C   UNL     1      -3.157   6.456 -32.036  1.00  0.00     0.161 C 
BRANCH  15  16
HETATM   16  C   UNL     1      -1.913   6.794 -31.256  1.00  0.00    -0.041 A 
HETATM   17  C   UNL     1      -1.992   7.237 -29.928  1.00  0.00     0.009 A 
HETATM   18  C   UNL     1      -0.832   7.481 -29.190  1.00  0.00     0.001 A 
HETATM   19  C   UNL     1       0.418   7.271 -29.766  1.00  0.00     0.000 A 
HETATM   20  C   UNL     1       0.512   6.820 -31.081  1.00  0.00     0.001 A 
HETATM   21  C   UNL     1      -0.647   6.581 -31.822  1.00  0.00     0.009 A 
ENDBRANCH  15  16
ENDBRANCH  12  15
ENDBRANCH   7  11
BRANCH   1  22
HETATM   22  C   UNL     1      -8.425   1.234 -32.038  1.00  0.00    -0.035 A 
HETATM   23  C   UNL     1      -8.394   2.394 -32.832  1.00  0.00     0.012 A 
HETATM   24  C   UNL     1      -9.346   2.621 -33.832  1.00  0.00     0.037 A 
HETATM   25  C   UNL     1     -10.358   1.695 -34.062  1.00  0.00     0.068 A 
HETATM   26  C   UNL     1     -10.412   0.544 -33.276  1.00  0.00     0.037 A 
HETATM   27  C   UNL     1      -9.463   0.317 -32.272  1.00  0.00     0.012 A 
BRANCH  25  28
HETATM   28  O   UNL     1     -11.343   1.798 -35.005  1.00  0.00    -0.356 OA
HETATM   29  C   UNL     1     -12.633   1.326 -34.636  1.00  0.00     0.210 C 
ENDBRANCH  25  28
ENDBRANCH   1  22
BRANCH   8  30
HETATM   30  C   UNL     1      -6.001  -0.755 -33.409  1.00  0.00     0.409 C 
HETATM   31  F   UNL     1      -7.143  -1.464 -33.481  1.00  0.00    -0.169 F 
HETATM   32  F   UNL     1      -6.173   0.368 -34.144  1.00  0.00    -0.169 F 
HETATM   33  F   UNL     1      -5.043  -1.477 -34.050  1.00  0.00    -0.169 F 
ENDBRANCH   8  30
TORSDOF 6
ENDMDL
MODEL 8
REMARK VINA RESULT:      -8.3      2.521      7.125
REMARK  6 active torsions:
REMARK  status: ('A' for Active; 'I' for Inactive)
REMARK    1  A    between atoms: O_2  and  C_3 
REMARK    2  A    between atoms: C_6  and  C_7 
REMARK    3  A    between atoms: C_13  and  C_14 
REMARK       I    between atoms: C_14  and  N_15 
REMARK    4  A    between atoms: N_15  and  C_16 
REMARK    5  A    between atoms: C_16  and  C_17 
REMARK    6  A    between atoms: C_24  and  C_25 
ROOT
HETATM    1  C   UNL     1      -5.194   2.290 -30.991  1.00  0.00     0.118 C 
HETATM    2  N   UNL     1      -5.894   1.314 -31.835  1.00  0.00    -0.365 N 
HETATM    3  C   UNL     1      -7.233   1.417 -32.057  1.00  0.00     0.138 A 
HETATM    4  N   UNL     1      -8.012   2.250 -31.290  1.00  0.00    -0.240 N 
HETATM    5  N   UNL     1      -9.318   2.211 -31.589  1.00  0.00    -0.181 NA
HETATM    6  C   UNL     1      -9.358   1.410 -32.657  1.00  0.00     0.160 A 
HETATM    7  C   UNL     1      -8.093   0.862 -32.989  1.00  0.00     0.096 A 
HETATM    8  C   UNL     1      -7.517   3.124 -30.243  1.00  0.00     0.221 C 
HETATM    9  C   UNL     1      -6.102   2.699 -29.818  1.00  0.00     0.066 C 
HETATM   10  H   UNL     1      -5.291   0.925 -32.560  1.00  0.00     0.161 HD
ENDROOT
BRANCH   7  11
HETATM   11  C   UNL     1      -7.832  -0.033 -34.095  1.00  0.00     0.257 C 
HETATM   12  N   UNL     1      -7.203  -1.213 -33.773  1.00  0.00    -0.352 N 
HETATM   13  H   UNL     1      -7.059  -1.443 -32.799  1.00  0.00     0.163 HD
HETATM   14  O   UNL     1      -8.171   0.242 -35.242  1.00  0.00    -0.267 OA
BRANCH  12  15
HETATM   15  C   UNL     1      -6.859  -2.162 -34.803  1.00  0.00     0.161 C 
BRANCH  15  16
HETATM   16  C   UNL     1      -5.696  -3.043 -34.427  1.00  0.00    -0.041 A 
HETATM   17  C   UNL     1      -4.643  -2.551 -33.641  1.00  0.00     0.009 A 
HETATM   18  C   UNL     1      -3.604  -3.393 -33.238  1.00  0.00     0.001 A 
HETATM   19  C   UNL     1      -3.613  -4.737 -33.604  1.00  0.00     0.000 A 
HETATM   20  C   UNL     1      -4.659  -5.242 -34.375  1.00  0.00     0.001 A 
HETATM   21  C   UNL     1      -5.696  -4.400 -34.783  1.00  0.00     0.009 A 
ENDBRANCH  15  16
ENDBRANCH  12  15
ENDBRANCH   7  11
BRANCH   1  22
HETATM   22  C   UNL     1      -4.587   3.433 -31.790  1.00  0.00    -0.035 A 
HETATM   23  C   UNL     1      -3.741   4.400 -31.219  1.00  0.00     0.012 A 
HETATM   24  C   UNL     1      -3.220   5.456 -31.975  1.00  0.00     0.037 A 
HETATM   25  C   UNL     1      -3.536   5.576 -33.325  1.00  0.00     0.068 A 
HETATM   26  C   UNL     1      -4.384   4.634 -33.906  1.00  0.00     0.037 A 
HETATM   27  C   UNL     1      -4.909   3.579 -33.150  1.00  0.00     0.012 A 
BRANCH  25  28
HETATM   28  O   UNL     1      -3.093   6.555 -34.170  1.00  0.00    -0.356 OA
HETATM   29  C   UNL     1      -1.861   7.181 -33.830  1.00  0.00     0.210 C 
ENDBRANCH  25  28
ENDBRANCH   1  22
BRANCH   8  30
HETATM   30  C   UNL     1      -7.617   4.573 -30.679  1.00  0.00     0.409 C 
HETATM   31  F   UNL     1      -6.659   5.366 -30.164  1.00  0.00    -0.169 F 
HETATM   32  F   UNL     1      -7.572   4.704 -32.026  1.00  0.00    -0.169 F 
HETATM   33  F   UNL     1      -8.814   5.090 -30.293  1.00  0.00    -0.169 F 
ENDBRANCH   8  30
TORSDOF 6
ENDMDL
MODEL 9
REMARK VINA RESULT:      -8.2      3.957      6.290
REMARK  6 active torsions:
REMARK  status: ('A' for Active; 'I' for Inactive)
REMARK    1  A    between atoms: O_2  and  C_3 
REMARK    2  A    between atoms: C_6  and  C_7 
REMARK    3  A    between atoms: C_13  and  C_14 
REMARK       I    between atoms: C_14  and  N_15 
REMARK    4  A    between atoms: N_15  and  C_16 
REMARK    5  A    between atoms: C_16  and  C_17 
REMARK    6  A    between atoms: C_24  and  C_25 
ROOT
HETATM    1  C   UNL     1      -8.694   3.764 -33.992  1.00  0.00     0.118 C 
HETATM    2  N   UNL     1      -7.704   3.041 -33.184  1.00  0.00    -0.365 N 
HETATM    3  C   UNL     1      -7.629   3.233 -31.838  1.00  0.00     0.138 A 
HETATM    4  N   UNL     1      -8.267   4.295 -31.242  1.00  0.00    -0.240 N 
HETATM    5  N   UNL     1      -8.063   4.385 -29.919  1.00  0.00    -0.181 NA
HETATM    6  C   UNL     1      -7.364   3.281 -29.647  1.00  0.00     0.160 A 
HETATM    7  C   UNL     1      -7.040   2.528 -30.804  1.00  0.00     0.096 A 
HETATM    8  C   UNL     1      -9.107   5.257 -31.930  1.00  0.00     0.221 C 
HETATM    9  C   UNL     1      -8.858   5.194 -33.446  1.00  0.00     0.066 C 
HETATM   10  H   UNL     1      -7.475   2.129 -33.577  1.00  0.00     0.161 HD
ENDROOT
BRANCH   7  11
HETATM   11  C   UNL     1      -6.295   1.287 -30.815  1.00  0.00     0.257 C 
HETATM   12  N   UNL     1      -5.394   1.141 -31.843  1.00  0.00    -0.352 N 
HETATM   13  H   UNL     1      -5.218   1.925 -32.457  1.00  0.00     0.163 HD
HETATM   14  O   UNL     1      -6.450   0.435 -29.946  1.00  0.00    -0.267 OA
BRANCH  12  15
HETATM   15  C   UNL     1      -4.627  -0.073 -31.974  1.00  0.00     0.161 C 
BRANCH  15  16
HETATM   16  C   UNL     1      -5.161  -0.996 -33.038  1.00  0.00    -0.041 A 
HETATM   17  C   UNL     1      -4.349  -1.990 -33.605  1.00  0.00     0.009 A 
HETATM   18  C   UNL     1      -4.872  -2.886 -34.540  1.00  0.00     0.001 A 
HETATM   19  C   UNL     1      -6.213  -2.808 -34.908  1.00  0.00     0.000 A 
HETATM   20  C   UNL     1      -7.034  -1.833 -34.344  1.00  0.00     0.001 A 
HETATM   21  C   UNL     1      -6.511  -0.932 -33.413  1.00  0.00     0.009 A 
ENDBRANCH  15  16
ENDBRANCH  12  15
ENDBRANCH   7  11
BRANCH   1  22
HETATM   22  C   UNL     1      -9.981   2.979 -34.193  1.00  0.00    -0.035 A 
HETATM   23  C   UNL     1     -10.211   1.725 -33.601  1.00  0.00     0.012 A 
HETATM   24  C   UNL     1     -11.395   1.014 -33.828  1.00  0.00     0.037 A 
HETATM   25  C   UNL     1     -12.381   1.539 -34.658  1.00  0.00     0.068 A 
HETATM   26  C   UNL     1     -12.165   2.776 -35.264  1.00  0.00     0.037 A 
HETATM   27  C   UNL     1     -10.979   3.486 -35.042  1.00  0.00     0.012 A 
BRANCH  25  28
HETATM   28  O   UNL     1     -13.577   0.948 -34.957  1.00  0.00    -0.356 OA
HETATM   29  C   UNL     1     -14.316   0.414 -33.864  1.00  0.00     0.210 C 
ENDBRANCH  25  28
ENDBRANCH   1  22
BRANCH   8  30
HETATM   30  C   UNL     1     -10.558   5.060 -31.538  1.00  0.00     0.409 C 
HETATM   31  F   UNL     1     -10.877   3.786 -31.242  1.00  0.00    -0.169 F 
HETATM   32  F   UNL     1     -10.909   5.823 -30.477  1.00  0.00    -0.169 F 
HETATM   33  F   UNL     1     -11.369   5.447 -32.560  1.00  0.00    -0.169 F 
ENDBRANCH   8  30
TORSDOF 6
ENDMDL
MODEL 10
REMARK VINA RESULT:      -8.0      2.880      6.967
REMARK  6 active torsions:
REMARK  status: ('A' for Active; 'I' for Inactive)
REMARK    1  A    between atoms: O_2  and  C_3 
REMARK    2  A    between atoms: C_6  and  C_7 
REMARK    3  A    between atoms: C_13  and  C_14 
REMARK       I    between atoms: C_14  and  N_15 
REMARK    4  A    between atoms: N_15  and  C_16 
REMARK    5  A    between atoms: C_16  and  C_17 
REMARK    6  A    between atoms: C_24  and  C_25 
ROOT
HETATM    1  C   UNL     1      -5.335   3.287 -30.433  1.00  0.00     0.118 C 
HETATM    2  N   UNL     1      -6.307   2.298 -30.916  1.00  0.00    -0.365 N 
HETATM    3  C   UNL     1      -7.637   2.587 -30.953  1.00  0.00     0.138 A 
HETATM    4  N   UNL     1      -8.138   3.682 -30.290  1.00  0.00    -0.240 N 
HETATM    5  N   UNL     1      -9.470   3.812 -30.374  1.00  0.00    -0.181 NA
HETATM    6  C   UNL     1      -9.815   2.830 -31.211  1.00  0.00     0.160 A 
HETATM    7  C   UNL     1      -8.721   2.013 -31.593  1.00  0.00     0.096 A 
HETATM    8  C   UNL     1      -7.343   4.650 -29.558  1.00  0.00     0.221 C 
HETATM    9  C   UNL     1      -5.946   4.079 -29.263  1.00  0.00     0.066 C 
HETATM   10  H   UNL     1      -5.907   1.671 -31.613  1.00  0.00     0.161 HD
ENDROOT
BRANCH   7  11
HETATM   11  C   UNL     1      -8.794   0.881 -32.490  1.00  0.00     0.257 C 
HETATM   12  N   UNL     1      -7.864   0.860 -33.503  1.00  0.00    -0.352 N 
HETATM   13  H   UNL     1      -7.127   1.552 -33.507  1.00  0.00     0.163 HD
HETATM   14  O   UNL     1      -9.624  -0.010 -32.338  1.00  0.00    -0.267 OA
BRANCH  12  15
HETATM   15  C   UNL     1      -7.870  -0.202 -34.478  1.00  0.00     0.161 C 
BRANCH  15  16
HETATM   16  C   UNL     1      -6.709  -1.150 -34.324  1.00  0.00    -0.041 A 
HETATM   17  C   UNL     1      -6.809  -2.486 -34.741  1.00  0.00     0.009 A 
HETATM   18  C   UNL     1      -5.707  -3.340 -34.660  1.00  0.00     0.001 A 
HETATM   19  C   UNL     1      -4.491  -2.865 -34.174  1.00  0.00     0.000 A 
HETATM   20  C   UNL     1      -4.374  -1.537 -33.767  1.00  0.00     0.001 A 
HETATM   21  C   UNL     1      -5.477  -0.684 -33.842  1.00  0.00     0.009 A 
ENDBRANCH  15  16
ENDBRANCH  12  15
ENDBRANCH   7  11
BRANCH   1  22
HETATM   22  C   UNL     1      -4.733   4.120 -31.555  1.00  0.00    -0.035 A 
HETATM   23  C   UNL     1      -5.153   4.017 -32.892  1.00  0.00     0.012 A 
HETATM   24  C   UNL     1      -4.559   4.778 -33.906  1.00  0.00     0.037 A 
HETATM   25  C   UNL     1      -3.526   5.661 -33.608  1.00  0.00     0.068 A 
HETATM   26  C   UNL     1      -3.088   5.767 -32.289  1.00  0.00     0.037 A 
HETATM   27  C   UNL     1      -3.677   5.003 -31.274  1.00  0.00     0.012 A 
BRANCH  25  28
HETATM   28  O   UNL     1      -2.868   6.459 -34.503  1.00  0.00    -0.356 OA
HETATM   29  C   UNL     1      -1.791   7.236 -33.993  1.00  0.00     0.210 C 
ENDBRANCH  25  28
ENDBRANCH   1  22
BRANCH   8  30
HETATM   30  C   UNL     1      -7.320   5.974 -30.296  1.00  0.00     0.409 C 
HETATM   31  F   UNL     1      -8.306   6.818 -29.938  1.00  0.00    -0.169 F 
HETATM   32  F   UNL     1      -6.147   6.628 -30.133  1.00  0.00    -0.169 F 
HETATM   33  F   UNL     1      -7.445   5.760 -31.634  1.00  0.00    -0.169 F 
ENDBRANCH   8  30
TORSDOF 6
ENDMDL
