MODEL 1
REMARK VINA RESULT:      -9.3      0.000      0.000
REMARK  9 active torsions:
REMARK  status: ('A' for Active; 'I' for Inactive)
REMARK    1  A    between atoms: O_2  and  C_3 
REMARK    2  A    between atoms: C_5  and  O_6 
REMARK    3  A    between atoms: C_8  and  N_9 
REMARK    4  A    between atoms: C_10  and  C_12 
REMARK    5  A    between atoms: C_10  and  O_11 
REMARK       I    between atoms: C_12  and  N_13 
REMARK    6  A    between atoms: N_13  and  C_14 
REMARK    7  A    between atoms: C_14  and  C_15 
REMARK    8  A    between atoms: C_15  and  N_16 
REMARK    9  A    between atoms: N_20  and  C_21 
ROOT
HETATM    1  N   UNL     1      -6.516   2.212 -31.263  1.00  0.00    -0.251 N 
HETATM    2  C   UNL     1      -6.386   2.364 -32.715  1.00  0.00     0.256 C 
HETATM    3  C   UNL     1      -6.675   1.066 -33.459  1.00  0.00     0.034 A 
HETATM    4  C   UNL     1      -6.475  -0.133 -32.776  1.00  0.00     0.048 A 
HETATM    5  N   UNL     1      -6.145  -0.095 -31.427  1.00  0.00    -0.308 N 
HETATM    6  C   UNL     1      -6.196   1.016 -30.640  1.00  0.00     0.330 C 
HETATM    7  O   UNL     1      -5.965   0.894 -29.438  1.00  0.00    -0.246 OA
HETATM    8  C   UNL     1      -7.033   0.997 -34.817  1.00  0.00     0.015 A 
HETATM    9  C   UNL     1      -7.179  -0.234 -35.461  1.00  0.00     0.001 A 
HETATM   10  C   UNL     1      -6.958  -1.416 -34.761  1.00  0.00     0.002 A 
HETATM   11  C   UNL     1      -6.603  -1.367 -33.415  1.00  0.00     0.030 A 
HETATM   12  H   UNL     1      -5.992  -0.959 -30.920  1.00  0.00     0.170 HD
ENDROOT
BRANCH   2  13
HETATM   13  C   UNL     1      -7.258   3.561 -33.338  1.00  0.00     0.279 C 
HETATM   14  N   UNL     1      -6.703   4.750 -33.748  1.00  0.00    -0.355 N 
HETATM   15  H   UNL     1      -7.429   5.432 -33.944  1.00  0.00     0.162 HD
HETATM   16  O   UNL     1      -8.479   3.491 -33.521  1.00  0.00    -0.268 OA
BRANCH  14  17
HETATM   17  C   UNL     1      -5.317   5.164 -33.882  1.00  0.00     0.150 C 
BRANCH  17  18
HETATM   18  C   UNL     1      -4.776   6.039 -32.728  1.00  0.00     0.254 C 
BRANCH  18  19
HETATM   19  N   UNL     1      -3.458   6.753 -33.038  1.00  0.00    -0.067 N 
HETATM   20  H   UNL     1      -3.564   7.303 -33.899  1.00  0.00     0.280 HD
HETATM   21  C   UNL     1      -3.157   7.748 -31.893  1.00  0.00     0.254 C 
HETATM   22  C   UNL     1      -1.762   8.397 -32.033  1.00  0.00     0.150 C 
HETATM   23  N   UNL     1      -0.716   7.366 -32.165  1.00  0.00    -0.378 N 
HETATM   24  C   UNL     1      -0.937   6.532 -33.364  1.00  0.00     0.150 C 
HETATM   25  C   UNL     1      -2.282   5.784 -33.251  1.00  0.00     0.254 C 
BRANCH  23  26
HETATM   26  C   UNL     1      -0.215   6.723 -31.020  1.00  0.00     0.030 A 
HETATM   27  C   UNL     1       0.288   5.410 -31.031  1.00  0.00     0.029 A 
HETATM   28  C   UNL     1       0.808   4.800 -29.880  1.00  0.00     0.002 A 
HETATM   29  C   UNL     1       0.818   5.479 -28.670  1.00  0.00     0.000 A 
HETATM   30  C   UNL     1       0.284   6.757 -28.609  1.00  0.00     0.002 A 
HETATM   31  C   UNL     1      -0.234   7.359 -29.764  1.00  0.00     0.029 A 
ENDBRANCH  23  26
ENDBRANCH  18  19
ENDBRANCH  17  18
ENDBRANCH  14  17
ENDBRANCH   2  13
BRANCH   2  32
HETATM   32  O   UNL     1      -4.987   2.582 -32.949  1.00  0.00    -0.359 OA
HETATM   33  H   UNL     1      -4.866   3.510 -32.681  1.00  0.00     0.213 HD
ENDBRANCH   2  32
BRANCH   1  34
HETATM   34  C   UNL     1      -6.639   3.373 -30.440  1.00  0.00     0.076 A 
HETATM   35  C   UNL     1      -7.904   3.765 -29.958  1.00  0.00     0.098 A 
HETATM   36  C   UNL     1      -8.000   4.850 -29.084  1.00  0.00     0.075 A 
HETATM   37  C   UNL     1      -6.844   5.501 -28.652  1.00  0.00     0.070 A 
HETATM   38  C   UNL     1      -5.591   5.119 -29.123  1.00  0.00     0.039 A 
HETATM   39  C   UNL     1      -5.486   4.046 -30.007  1.00  0.00     0.035 A 
BRANCH  35  40
HETATM   40  O   UNL     1      -8.961   2.987 -30.348  1.00  0.00    -0.354 OA
HETATM   41  C   UNL     1     -10.238   3.606 -30.451  1.00  0.00     0.210 C 
ENDBRANCH  35  40
BRANCH  37  42
HETATM   42  O   UNL     1      -6.998   6.539 -27.773  1.00  0.00    -0.356 OA
HETATM   43  C   UNL     1      -5.809   7.331 -27.694  1.00  0.00     0.210 C 
ENDBRANCH  37  42
ENDBRANCH   1  34
TORSDOF 9
ENDMDL
MODEL 2
REMARK VINA RESULT:      -9.3      1.617      5.155
REMARK  9 active torsions:
REMARK  status: ('A' for Active; 'I' for Inactive)
REMARK    1  A    between atoms: O_2  and  C_3 
REMARK    2  A    between atoms: C_5  and  O_6 
REMARK    3  A    between atoms: C_8  and  N_9 
REMARK    4  A    between atoms: C_10  and  C_12 
REMARK    5  A    between atoms: C_10  and  O_11 
REMARK       I    between atoms: C_12  and  N_13 
REMARK    6  A    between atoms: N_13  and  C_14 
REMARK    7  A    between atoms: C_14  and  C_15 
REMARK    8  A    between atoms: C_15  and  N_16 
REMARK    9  A    between atoms: N_20  and  C_21 
ROOT
HETATM    1  N   UNL     1      -6.864   1.506 -31.607  1.00  0.00    -0.251 N 
HETATM    2  C   UNL     1      -7.764   2.592 -32.010  1.00  0.00     0.256 C 
HETATM    3  C   UNL     1      -7.682   3.787 -31.068  1.00  0.00     0.034 A 
HETATM    4  C   UNL     1      -7.275   3.554 -29.756  1.00  0.00     0.048 A 
HETATM    5  N   UNL     1      -6.846   2.281 -29.397  1.00  0.00    -0.308 N 
HETATM    6  C   UNL     1      -6.588   1.268 -30.270  1.00  0.00     0.330 C 
HETATM    7  O   UNL     1      -6.126   0.217 -29.828  1.00  0.00    -0.246 OA
HETATM    8  C   UNL     1      -8.088   5.089 -31.409  1.00  0.00     0.015 A 
HETATM    9  C   UNL     1      -8.085   6.115 -30.460  1.00  0.00     0.001 A 
HETATM   10  C   UNL     1      -7.689   5.852 -29.153  1.00  0.00     0.002 A 
HETATM   11  C   UNL     1      -7.285   4.568 -28.797  1.00  0.00     0.030 A 
HETATM   12  H   UNL     1      -6.552   2.097 -28.445  1.00  0.00     0.170 HD
ENDROOT
BRANCH   2  13
HETATM   13  C   UNL     1      -7.581   3.076 -33.530  1.00  0.00     0.279 C 
HETATM   14  N   UNL     1      -6.446   3.711 -33.977  1.00  0.00    -0.355 N 
HETATM   15  H   UNL     1      -6.593   4.088 -34.908  1.00  0.00     0.162 HD
HETATM   16  O   UNL     1      -8.428   2.888 -34.412  1.00  0.00    -0.268 OA
BRANCH  14  17
HETATM   17  C   UNL     1      -5.167   3.952 -33.333  1.00  0.00     0.150 C 
BRANCH  17  18
HETATM   18  C   UNL     1      -4.884   5.425 -32.958  1.00  0.00     0.254 C 
BRANCH  18  19
HETATM   19  N   UNL     1      -3.520   5.945 -33.415  1.00  0.00    -0.067 N 
HETATM   20  H   UNL     1      -3.571   6.206 -34.407  1.00  0.00     0.280 HD
HETATM   21  C   UNL     1      -3.192   7.231 -32.619  1.00  0.00     0.254 C 
HETATM   22  C   UNL     1      -1.759   7.739 -32.892  1.00  0.00     0.150 C 
HETATM   23  N   UNL     1      -0.771   6.669 -32.655  1.00  0.00    -0.378 N 
HETATM   24  C   UNL     1      -1.008   5.517 -33.548  1.00  0.00     0.150 C 
HETATM   25  C   UNL     1      -2.396   4.904 -33.268  1.00  0.00     0.254 C 
BRANCH  23  26
HETATM   26  C   UNL     1      -0.339   6.389 -31.347  1.00  0.00     0.030 A 
HETATM   27  C   UNL     1      -0.575   7.245 -30.257  1.00  0.00     0.029 A 
HETATM   28  C   UNL     1      -0.156   6.930 -28.956  1.00  0.00     0.002 A 
HETATM   29  C   UNL     1       0.538   5.755 -28.709  1.00  0.00     0.000 A 
HETATM   30  C   UNL     1       0.834   4.910 -29.767  1.00  0.00     0.002 A 
HETATM   31  C   UNL     1       0.412   5.232 -31.063  1.00  0.00     0.029 A 
ENDBRANCH  23  26
ENDBRANCH  18  19
ENDBRANCH  17  18
ENDBRANCH  14  17
ENDBRANCH   2  13
BRANCH   2  32
HETATM   32  O   UNL     1      -9.089   2.084 -31.797  1.00  0.00    -0.359 OA
HETATM   33  H   UNL     1      -9.326   1.726 -32.670  1.00  0.00     0.213 HD
ENDBRANCH   2  32
BRANCH   1  34
HETATM   34  C   UNL     1      -6.536   0.477 -32.543  1.00  0.00     0.076 A 
HETATM   35  C   UNL     1      -5.191   0.244 -32.891  1.00  0.00     0.098 A 
HETATM   36  C   UNL     1      -4.876  -0.820 -33.739  1.00  0.00     0.075 A 
HETATM   37  C   UNL     1      -5.884  -1.675 -34.188  1.00  0.00     0.070 A 
HETATM   38  C   UNL     1      -7.215  -1.451 -33.848  1.00  0.00     0.039 A 
HETATM   39  C   UNL     1      -7.541  -0.383 -33.013  1.00  0.00     0.035 A 
BRANCH  35  40
HETATM   40  O   UNL     1      -4.268   1.066 -32.302  1.00  0.00    -0.354 OA
HETATM   41  C   UNL     1      -3.197   0.457 -31.590  1.00  0.00     0.210 C 
ENDBRANCH  35  40
BRANCH  37  42
HETATM   42  O   UNL     1      -5.512  -2.717 -34.993  1.00  0.00    -0.356 OA
HETATM   43  C   UNL     1      -6.436  -3.805 -34.894  1.00  0.00     0.210 C 
ENDBRANCH  37  42
ENDBRANCH   1  34
TORSDOF 9
ENDMDL
MODEL 3
REMARK VINA RESULT:      -9.0      2.123      3.715
REMARK  9 active torsions:
REMARK  status: ('A' for Active; 'I' for Inactive)
REMARK    1  A    between atoms: O_2  and  C_3 
REMARK    2  A    between atoms: C_5  and  O_6 
REMARK    3  A    between atoms: C_8  and  N_9 
REMARK    4  A    between atoms: C_10  and  C_12 
REMARK    5  A    between atoms: C_10  and  O_11 
REMARK       I    between atoms: C_12  and  N_13 
REMARK    6  A    between atoms: N_13  and  C_14 
REMARK    7  A    between atoms: C_14  and  C_15 
REMARK    8  A    between atoms: C_15  and  N_16 
REMARK    9  A    between atoms: N_20  and  C_21 
ROOT
HETATM    1  N   UNL     1      -7.273   1.586 -33.189  1.00  0.00    -0.251 N 
HETATM    2  C   UNL     1      -6.641   1.312 -31.895  1.00  0.00     0.256 C 
HETATM    3  C   UNL     1      -5.277   0.652 -32.048  1.00  0.00     0.034 A 
HETATM    4  C   UNL     1      -5.037  -0.085 -33.207  1.00  0.00     0.048 A 
HETATM    5  N   UNL     1      -5.991  -0.084 -34.217  1.00  0.00    -0.308 N 
HETATM    6  C   UNL     1      -7.071   0.745 -34.273  1.00  0.00     0.330 C 
HETATM    7  O   UNL     1      -7.790   0.705 -35.270  1.00  0.00    -0.246 OA
HETATM    8  C   UNL     1      -4.283   0.653 -31.052  1.00  0.00     0.015 A 
HETATM    9  C   UNL     1      -3.096  -0.065 -31.221  1.00  0.00     0.001 A 
HETATM   10  C   UNL     1      -2.889  -0.805 -32.380  1.00  0.00     0.002 A 
HETATM   11  C   UNL     1      -3.861  -0.818 -33.377  1.00  0.00     0.030 A 
HETATM   12  H   UNL     1      -5.832  -0.618 -35.063  1.00  0.00     0.170 HD
ENDROOT
BRANCH   2  13
HETATM   13  C   UNL     1      -6.528   2.590 -30.928  1.00  0.00     0.279 C 
HETATM   14  N   UNL     1      -5.678   3.641 -31.181  1.00  0.00    -0.355 N 
HETATM   15  H   UNL     1      -5.626   4.257 -30.375  1.00  0.00     0.162 HD
HETATM   16  O   UNL     1      -7.214   2.737 -29.909  1.00  0.00    -0.268 OA
BRANCH  14  17
HETATM   17  C   UNL     1      -4.857   3.951 -32.338  1.00  0.00     0.150 C 
BRANCH  17  18
HETATM   18  C   UNL     1      -4.931   5.417 -32.825  1.00  0.00     0.254 C 
BRANCH  18  19
HETATM   19  N   UNL     1      -3.595   5.998 -33.292  1.00  0.00    -0.067 N 
HETATM   20  H   UNL     1      -3.683   6.312 -34.266  1.00  0.00     0.280 HD
HETATM   21  C   UNL     1      -3.276   7.247 -32.436  1.00  0.00     0.254 C 
HETATM   22  C   UNL     1      -1.866   7.808 -32.721  1.00  0.00     0.150 C 
HETATM   23  N   UNL     1      -0.844   6.754 -32.572  1.00  0.00    -0.378 N 
HETATM   24  C   UNL     1      -1.078   5.646 -33.521  1.00  0.00     0.150 C 
HETATM   25  C   UNL     1      -2.441   4.982 -33.236  1.00  0.00     0.254 C 
BRANCH  23  26
HETATM   26  C   UNL     1      -0.365   6.415 -31.295  1.00  0.00     0.030 A 
HETATM   27  C   UNL     1      -0.500   7.252 -30.174  1.00  0.00     0.029 A 
HETATM   28  C   UNL     1      -0.037   6.879 -28.903  1.00  0.00     0.002 A 
HETATM   29  C   UNL     1       0.601   5.661 -28.720  1.00  0.00     0.000 A 
HETATM   30  C   UNL     1       0.797   4.830 -29.812  1.00  0.00     0.002 A 
HETATM   31  C   UNL     1       0.331   5.211 -31.078  1.00  0.00     0.029 A 
ENDBRANCH  23  26
ENDBRANCH  18  19
ENDBRANCH  17  18
ENDBRANCH  14  17
ENDBRANCH   2  13
BRANCH   2  32
HETATM   32  O   UNL     1      -7.445   0.290 -31.289  1.00  0.00    -0.359 OA
HETATM   33  H   UNL     1      -6.963  -0.526 -31.513  1.00  0.00     0.213 HD
ENDBRANCH   2  32
BRANCH   1  34
HETATM   34  C   UNL     1      -8.362   2.507 -33.262  1.00  0.00     0.076 A 
HETATM   35  C   UNL     1      -9.647   2.115 -32.836  1.00  0.00     0.098 A 
HETATM   36  C   UNL     1     -10.684   3.051 -32.830  1.00  0.00     0.075 A 
HETATM   37  C   UNL     1     -10.430   4.374 -33.192  1.00  0.00     0.070 A 
HETATM   38  C   UNL     1      -9.163   4.769 -33.614  1.00  0.00     0.039 A 
HETATM   39  C   UNL     1      -8.125   3.839 -33.637  1.00  0.00     0.035 A 
BRANCH  35  40
HETATM   40  O   UNL     1      -9.762   0.826 -32.388  1.00  0.00    -0.354 OA
HETATM   41  C   UNL     1     -10.636  -0.046 -33.096  1.00  0.00     0.210 C 
ENDBRANCH  35  40
BRANCH  37  42
HETATM   42  O   UNL     1     -11.478   5.253 -33.140  1.00  0.00    -0.356 OA
HETATM   43  C   UNL     1     -12.722   4.567 -32.970  1.00  0.00     0.210 C 
ENDBRANCH  37  42
ENDBRANCH   1  34
TORSDOF 9
ENDMDL
MODEL 4
REMARK VINA RESULT:      -8.9      2.248      7.401
REMARK  9 active torsions:
REMARK  status: ('A' for Active; 'I' for Inactive)
REMARK    1  A    between atoms: O_2  and  C_3 
REMARK    2  A    between atoms: C_5  and  O_6 
REMARK    3  A    between atoms: C_8  and  N_9 
REMARK    4  A    between atoms: C_10  and  C_12 
REMARK    5  A    between atoms: C_10  and  O_11 
REMARK       I    between atoms: C_12  and  N_13 
REMARK    6  A    between atoms: N_13  and  C_14 
REMARK    7  A    between atoms: C_14  and  C_15 
REMARK    8  A    between atoms: C_15  and  N_16 
REMARK    9  A    between atoms: N_20  and  C_21 
ROOT
HETATM    1  N   UNL     1      -5.009   5.609 -31.969  1.00  0.00    -0.251 N 
HETATM    2  C   UNL     1      -5.962   5.829 -30.876  1.00  0.00     0.256 C 
HETATM    3  C   UNL     1      -7.355   5.313 -31.212  1.00  0.00     0.034 A 
HETATM    4  C   UNL     1      -7.712   5.236 -32.558  1.00  0.00     0.048 A 
HETATM    5  N   UNL     1      -6.755   5.509 -33.528  1.00  0.00    -0.308 N 
HETATM    6  C   UNL     1      -5.421   5.651 -33.292  1.00  0.00     0.330 C 
HETATM    7  O   UNL     1      -4.668   5.801 -34.253  1.00  0.00    -0.246 OA
HETATM    8  C   UNL     1      -8.337   5.008 -30.253  1.00  0.00     0.015 A 
HETATM    9  C   UNL     1      -9.630   4.641 -30.638  1.00  0.00     0.001 A 
HETATM   10  C   UNL     1      -9.964   4.587 -31.987  1.00  0.00     0.002 A 
HETATM   11  C   UNL     1      -9.005   4.887 -32.952  1.00  0.00     0.030 A 
HETATM   12  H   UNL     1      -7.002   5.460 -34.509  1.00  0.00     0.170 HD
ENDROOT
BRANCH   2  13
HETATM   13  C   UNL     1      -5.488   5.246 -29.456  1.00  0.00     0.279 C 
HETATM   14  N   UNL     1      -5.309   3.903 -29.225  1.00  0.00    -0.355 N 
HETATM   15  H   UNL     1      -5.181   3.726 -28.233  1.00  0.00     0.162 HD
HETATM   16  O   UNL     1      -5.223   5.960 -28.481  1.00  0.00    -0.268 OA
BRANCH  14  17
HETATM   17  C   UNL     1      -5.327   2.766 -30.128  1.00  0.00     0.150 C 
BRANCH  17  18
HETATM   18  C   UNL     1      -6.640   1.949 -30.135  1.00  0.00     0.254 C 
BRANCH  18  19
HETATM   19  N   UNL     1      -7.262   1.760 -31.521  1.00  0.00    -0.067 N 
HETATM   20  H   UNL     1      -7.956   2.499 -31.685  1.00  0.00     0.280 HD
HETATM   21  C   UNL     1      -6.151   1.931 -32.585  1.00  0.00     0.254 C 
HETATM   22  C   UNL     1      -6.648   1.594 -34.008  1.00  0.00     0.150 C 
HETATM   23  N   UNL     1      -7.255   0.250 -34.045  1.00  0.00    -0.378 N 
HETATM   24  C   UNL     1      -8.420   0.165 -33.141  1.00  0.00     0.150 C 
HETATM   25  C   UNL     1      -7.978   0.408 -31.682  1.00  0.00     0.254 C 
BRANCH  23  26
HETATM   26  C   UNL     1      -6.436  -0.889 -34.147  1.00  0.00     0.030 A 
HETATM   27  C   UNL     1      -5.089  -0.907 -33.747  1.00  0.00     0.029 A 
HETATM   28  C   UNL     1      -4.300  -2.064 -33.833  1.00  0.00     0.002 A 
HETATM   29  C   UNL     1      -4.831  -3.237 -34.348  1.00  0.00     0.000 A 
HETATM   30  C   UNL     1      -6.142  -3.244 -34.799  1.00  0.00     0.002 A 
HETATM   31  C   UNL     1      -6.923  -2.084 -34.709  1.00  0.00     0.029 A 
ENDBRANCH  23  26
ENDBRANCH  18  19
ENDBRANCH  17  18
ENDBRANCH  14  17
ENDBRANCH   2  13
BRANCH   2  32
HETATM   32  O   UNL     1      -6.136   7.251 -30.806  1.00  0.00    -0.359 OA
HETATM   33  H   UNL     1      -7.078   7.343 -30.575  1.00  0.00     0.213 HD
ENDBRANCH   2  32
BRANCH   1  34
HETATM   34  C   UNL     1      -3.607   5.690 -31.710  1.00  0.00     0.076 A 
HETATM   35  C   UNL     1      -3.005   6.942 -31.480  1.00  0.00     0.098 A 
HETATM   36  C   UNL     1      -1.651   7.001 -31.141  1.00  0.00     0.075 A 
HETATM   37  C   UNL     1      -0.921   5.823 -30.981  1.00  0.00     0.070 A 
HETATM   38  C   UNL     1      -1.509   4.581 -31.207  1.00  0.00     0.039 A 
HETATM   39  C   UNL     1      -2.857   4.513 -31.558  1.00  0.00     0.035 A 
BRANCH  35  40
HETATM   40  O   UNL     1      -3.835   8.028 -31.545  1.00  0.00    -0.354 OA
HETATM   41  C   UNL     1      -3.370   9.253 -30.991  1.00  0.00     0.210 C 
ENDBRANCH  35  40
BRANCH  37  42
HETATM   42  O   UNL     1       0.394   5.941 -30.622  1.00  0.00    -0.356 OA
HETATM   43  C   UNL     1       0.765   4.938 -29.671  1.00  0.00     0.210 C 
ENDBRANCH  37  42
ENDBRANCH   1  34
TORSDOF 9
ENDMDL
MODEL 5
REMARK VINA RESULT:      -8.7      1.820      3.047
REMARK  9 active torsions:
REMARK  status: ('A' for Active; 'I' for Inactive)
REMARK    1  A    between atoms: O_2  and  C_3 
REMARK    2  A    between atoms: C_5  and  O_6 
REMARK    3  A    between atoms: C_8  and  N_9 
REMARK    4  A    between atoms: C_10  and  C_12 
REMARK    5  A    between atoms: C_10  and  O_11 
REMARK       I    between atoms: C_12  and  N_13 
REMARK    6  A    between atoms: N_13  and  C_14 
REMARK    7  A    between atoms: C_14  and  C_15 
REMARK    8  A    between atoms: C_15  and  N_16 
REMARK    9  A    between atoms: N_20  and  C_21 
ROOT
HETATM    1  N   UNL     1      -7.853   2.017 -32.370  1.00  0.00    -0.251 N 
HETATM    2  C   UNL     1      -7.145   0.894 -31.748  1.00  0.00     0.256 C 
HETATM    3  C   UNL     1      -6.559  -0.061 -32.780  1.00  0.00     0.034 A 
HETATM    4  C   UNL     1      -7.167  -0.117 -34.034  1.00  0.00     0.048 A 
HETATM    5  N   UNL     1      -8.190   0.777 -34.329  1.00  0.00    -0.308 N 
HETATM    6  C   UNL     1      -8.527   1.858 -33.571  1.00  0.00     0.330 C 
HETATM    7  O   UNL     1      -9.394   2.622 -33.992  1.00  0.00    -0.246 OA
HETATM    8  C   UNL     1      -5.511  -0.961 -32.518  1.00  0.00     0.015 A 
HETATM    9  C   UNL     1      -5.096  -1.883 -33.483  1.00  0.00     0.001 A 
HETATM   10  C   UNL     1      -5.730  -1.928 -34.720  1.00  0.00     0.002 A 
HETATM   11  C   UNL     1      -6.771  -1.045 -34.998  1.00  0.00     0.030 A 
HETATM   12  H   UNL     1      -8.644   0.745 -35.234  1.00  0.00     0.170 HD
ENDROOT
BRANCH   2  13
HETATM   13  C   UNL     1      -6.013   1.325 -30.693  1.00  0.00     0.279 C 
HETATM   14  N   UNL     1      -4.823   1.900 -31.073  1.00  0.00    -0.355 N 
HETATM   15  H   UNL     1      -4.180   1.936 -30.288  1.00  0.00     0.162 HD
HETATM   16  O   UNL     1      -6.139   1.201 -29.469  1.00  0.00    -0.268 OA
BRANCH  14  17
HETATM   17  C   UNL     1      -4.362   2.385 -32.362  1.00  0.00     0.150 C 
BRANCH  17  18
HETATM   18  C   UNL     1      -3.066   3.227 -32.324  1.00  0.00     0.254 C 
BRANCH  18  19
HETATM   19  N   UNL     1      -3.286   4.735 -32.467  1.00  0.00    -0.067 N 
HETATM   20  H   UNL     1      -4.029   4.906 -33.156  1.00  0.00     0.280 HD
HETATM   21  C   UNL     1      -3.782   5.290 -31.111  1.00  0.00     0.254 C 
HETATM   22  C   UNL     1      -3.874   6.832 -31.108  1.00  0.00     0.150 C 
HETATM   23  N   UNL     1      -2.592   7.433 -31.521  1.00  0.00    -0.378 N 
HETATM   24  C   UNL     1      -2.224   7.016 -32.890  1.00  0.00     0.150 C 
HETATM   25  C   UNL     1      -2.031   5.486 -32.946  1.00  0.00     0.254 C 
BRANCH  23  26
HETATM   26  C   UNL     1      -1.548   7.572 -30.590  1.00  0.00     0.030 A 
HETATM   27  C   UNL     1      -0.286   6.974 -30.752  1.00  0.00     0.029 A 
HETATM   28  C   UNL     1       0.748   7.150 -29.821  1.00  0.00     0.002 A 
HETATM   29  C   UNL     1       0.543   7.914 -28.681  1.00  0.00     0.000 A 
HETATM   30  C   UNL     1      -0.704   8.478 -28.462  1.00  0.00     0.002 A 
HETATM   31  C   UNL     1      -1.732   8.297 -29.397  1.00  0.00     0.029 A 
ENDBRANCH  23  26
ENDBRANCH  18  19
ENDBRANCH  17  18
ENDBRANCH  14  17
ENDBRANCH   2  13
BRANCH   2  32
HETATM   32  O   UNL     1      -8.163   0.113 -31.106  1.00  0.00    -0.359 OA
HETATM   33  H   UNL     1      -8.769   0.792 -30.759  1.00  0.00     0.213 HD
ENDBRANCH   2  32
BRANCH   1  34
HETATM   34  C   UNL     1      -8.148   3.181 -31.596  1.00  0.00     0.076 A 
HETATM   35  C   UNL     1      -7.420   4.369 -31.805  1.00  0.00     0.098 A 
HETATM   36  C   UNL     1      -7.776   5.524 -31.105  1.00  0.00     0.075 A 
HETATM   37  C   UNL     1      -8.878   5.509 -30.249  1.00  0.00     0.070 A 
HETATM   38  C   UNL     1      -9.602   4.338 -30.038  1.00  0.00     0.039 A 
HETATM   39  C   UNL     1      -9.246   3.177 -30.722  1.00  0.00     0.035 A 
BRANCH  35  40
HETATM   40  O   UNL     1      -6.435   4.309 -32.753  1.00  0.00    -0.354 OA
HETATM   41  C   UNL     1      -6.532   5.190 -33.867  1.00  0.00     0.210 C 
ENDBRANCH  35  40
BRANCH  37  42
HETATM   42  O   UNL     1      -9.196   6.677 -29.612  1.00  0.00    -0.356 OA
HETATM   43  C   UNL     1      -8.578   6.750 -28.323  1.00  0.00     0.210 C 
ENDBRANCH  37  42
ENDBRANCH   1  34
TORSDOF 9
ENDMDL
MODEL 6
REMARK VINA RESULT:      -8.5      2.345      7.745
REMARK  9 active torsions:
REMARK  status: ('A' for Active; 'I' for Inactive)
REMARK    1  A    between atoms: O_2  and  C_3 
REMARK    2  A    between atoms: C_5  and  O_6 
REMARK    3  A    between atoms: C_8  and  N_9 
REMARK    4  A    between atoms: C_10  and  C_12 
REMARK    5  A    between atoms: C_10  and  O_11 
REMARK       I    between atoms: C_12  and  N_13 
REMARK    6  A    between atoms: N_13  and  C_14 
REMARK    7  A    between atoms: C_14  and  C_15 
REMARK    8  A    between atoms: C_15  and  N_16 
REMARK    9  A    between atoms: N_20  and  C_21 
ROOT
HETATM    1  N   UNL     1      -4.333   6.986 -30.599  1.00  0.00    -0.251 N 
HETATM    2  C   UNL     1      -3.177   7.207 -31.474  1.00  0.00     0.256 C 
HETATM    3  C   UNL     1      -1.856   7.099 -30.724  1.00  0.00     0.034 A 
HETATM    4  C   UNL     1      -1.862   7.364 -29.355  1.00  0.00     0.048 A 
HETATM    5  N   UNL     1      -3.076   7.589 -28.716  1.00  0.00    -0.308 N 
HETATM    6  C   UNL     1      -4.302   7.374 -29.268  1.00  0.00     0.330 C 
HETATM    7  O   UNL     1      -5.298   7.527 -28.562  1.00  0.00    -0.246 OA
HETATM    8  C   UNL     1      -0.616   6.851 -31.340  1.00  0.00     0.015 A 
HETATM    9  C   UNL     1       0.570   6.872 -30.602  1.00  0.00     0.001 A 
HETATM   10  C   UNL     1       0.538   7.155 -29.240  1.00  0.00     0.002 A 
HETATM   11  C   UNL     1      -0.680   7.404 -28.613  1.00  0.00     0.030 A 
HETATM   12  H   UNL     1      -3.094   7.788 -27.723  1.00  0.00     0.170 HD
ENDROOT
BRANCH   2  13
HETATM   13  C   UNL     1      -3.146   6.271 -32.780  1.00  0.00     0.279 C 
HETATM   14  N   UNL     1      -2.951   4.911 -32.716  1.00  0.00    -0.355 N 
HETATM   15  H   UNL     1      -2.790   4.531 -33.643  1.00  0.00     0.162 HD
HETATM   16  O   UNL     1      -3.323   6.696 -33.928  1.00  0.00    -0.268 OA
BRANCH  14  17
HETATM   17  C   UNL     1      -2.893   4.005 -31.583  1.00  0.00     0.150 C 
BRANCH  17  18
HETATM   18  C   UNL     1      -3.062   2.507 -31.928  1.00  0.00     0.254 C 
BRANCH  18  19
HETATM   19  N   UNL     1      -4.458   1.945 -31.646  1.00  0.00    -0.067 N 
HETATM   20  H   UNL     1      -4.939   2.552 -30.972  1.00  0.00     0.280 HD
HETATM   21  C   UNL     1      -5.276   1.982 -32.960  1.00  0.00     0.254 C 
HETATM   22  C   UNL     1      -6.645   1.282 -32.816  1.00  0.00     0.150 C 
HETATM   23  N   UNL     1      -6.479  -0.090 -32.300  1.00  0.00    -0.378 N 
HETATM   24  C   UNL     1      -5.844  -0.086 -30.966  1.00  0.00     0.150 C 
HETATM   25  C   UNL     1      -4.430   0.526 -31.053  1.00  0.00     0.254 C 
BRANCH  23  26
HETATM   26  C   UNL     1      -6.126  -1.132 -33.175  1.00  0.00     0.030 A 
HETATM   27  C   UNL     1      -4.803  -1.567 -33.363  1.00  0.00     0.029 A 
HETATM   28  C   UNL     1      -4.479  -2.627 -34.222  1.00  0.00     0.002 A 
HETATM   29  C   UNL     1      -5.473  -3.273 -34.943  1.00  0.00     0.000 A 
HETATM   30  C   UNL     1      -6.784  -2.840 -34.822  1.00  0.00     0.002 A 
HETATM   31  C   UNL     1      -7.098  -1.780 -33.962  1.00  0.00     0.029 A 
ENDBRANCH  23  26
ENDBRANCH  18  19
ENDBRANCH  17  18
ENDBRANCH  14  17
ENDBRANCH   2  13
BRANCH   2  32
HETATM   32  O   UNL     1      -3.243   8.591 -31.846  1.00  0.00    -0.359 OA
HETATM   33  H   UNL     1      -3.114   9.049 -30.997  1.00  0.00     0.213 HD
ENDBRANCH   2  32
BRANCH   1  34
HETATM   34  C   UNL     1      -5.607   6.691 -31.172  1.00  0.00     0.076 A 
HETATM   35  C   UNL     1      -6.203   5.432 -30.956  1.00  0.00     0.098 A 
HETATM   36  C   UNL     1      -7.487   5.187 -31.448  1.00  0.00     0.075 A 
HETATM   37  C   UNL     1      -8.189   6.202 -32.099  1.00  0.00     0.070 A 
HETATM   38  C   UNL     1      -7.607   7.448 -32.316  1.00  0.00     0.039 A 
HETATM   39  C   UNL     1      -6.320   7.698 -31.841  1.00  0.00     0.035 A 
BRANCH  35  40
HETATM   40  O   UNL     1      -5.478   4.548 -30.203  1.00  0.00    -0.354 OA
HETATM   41  C   UNL     1      -6.194   3.658 -29.355  1.00  0.00     0.210 C 
ENDBRANCH  35  40
BRANCH  37  42
HETATM   42  O   UNL     1      -9.454   5.912 -32.535  1.00  0.00    -0.356 OA
HETATM   43  C   UNL     1      -9.753   4.523 -32.373  1.00  0.00     0.210 C 
ENDBRANCH  37  42
ENDBRANCH   1  34
TORSDOF 9
ENDMDL
MODEL 7
REMARK VINA RESULT:      -8.5      2.852      5.188
REMARK  9 active torsions:
REMARK  status: ('A' for Active; 'I' for Inactive)
REMARK    1  A    between atoms: O_2  and  C_3 
REMARK    2  A    between atoms: C_5  and  O_6 
REMARK    3  A    between atoms: C_8  and  N_9 
REMARK    4  A    between atoms: C_10  and  C_12 
REMARK    5  A    between atoms: C_10  and  O_11 
REMARK       I    between atoms: C_12  and  N_13 
REMARK    6  A    between atoms: N_13  and  C_14 
REMARK    7  A    between atoms: C_14  and  C_15 
REMARK    8  A    between atoms: C_15  and  N_16 
REMARK    9  A    between atoms: N_20  and  C_21 
ROOT
HETATM    1  N   UNL     1      -8.829   1.099 -32.908  1.00  0.00    -0.251 N 
HETATM    2  C   UNL     1      -8.766   2.090 -33.987  1.00  0.00     0.256 C 
HETATM    3  C   UNL     1     -10.137   2.659 -34.328  1.00  0.00     0.034 A 
HETATM    4  C   UNL     1     -11.255   1.873 -34.051  1.00  0.00     0.048 A 
HETATM    5  N   UNL     1     -11.085   0.673 -33.372  1.00  0.00    -0.308 N 
HETATM    6  C   UNL     1      -9.935   0.276 -32.760  1.00  0.00     0.330 C 
HETATM    7  O   UNL     1      -9.945  -0.771 -32.114  1.00  0.00    -0.246 OA
HETATM    8  C   UNL     1     -10.341   3.881 -34.994  1.00  0.00     0.015 A 
HETATM    9  C   UNL     1     -11.624   4.290 -35.369  1.00  0.00     0.001 A 
HETATM   10  C   UNL     1     -12.721   3.479 -35.095  1.00  0.00     0.002 A 
HETATM   11  C   UNL     1     -12.538   2.266 -34.436  1.00  0.00     0.030 A 
HETATM   12  H   UNL     1     -11.888   0.089 -33.169  1.00  0.00     0.170 HD
ENDROOT
BRANCH   2  13
HETATM   13  C   UNL     1      -7.722   3.284 -33.732  1.00  0.00     0.279 C 
HETATM   14  N   UNL     1      -7.912   4.243 -32.765  1.00  0.00    -0.355 N 
HETATM   15  H   UNL     1      -7.242   4.998 -32.878  1.00  0.00     0.162 HD
HETATM   16  O   UNL     1      -6.664   3.410 -34.360  1.00  0.00    -0.268 OA
BRANCH  14  17
HETATM   17  C   UNL     1      -8.900   4.354 -31.707  1.00  0.00     0.150 C 
BRANCH  17  18
HETATM   18  C   UNL     1      -8.981   5.738 -31.023  1.00  0.00     0.254 C 
BRANCH  18  19
HETATM   19  N   UNL     1      -7.739   6.118 -30.213  1.00  0.00    -0.067 N 
HETATM   20  H   UNL     1      -8.023   6.668 -29.394  1.00  0.00     0.280 HD
HETATM   21  C   UNL     1      -7.080   4.821 -29.687  1.00  0.00     0.254 C 
HETATM   22  C   UNL     1      -5.725   5.091 -28.997  1.00  0.00     0.150 C 
HETATM   23  N   UNL     1      -4.827   5.852 -29.886  1.00  0.00    -0.378 N 
HETATM   24  C   UNL     1      -5.411   7.163 -30.239  1.00  0.00     0.150 C 
HETATM   25  C   UNL     1      -6.732   6.964 -31.012  1.00  0.00     0.254 C 
BRANCH  23  26
HETATM   26  C   UNL     1      -4.096   5.185 -30.884  1.00  0.00     0.030 A 
HETATM   27  C   UNL     1      -4.456   3.925 -31.391  1.00  0.00     0.029 A 
HETATM   28  C   UNL     1      -3.725   3.292 -32.407  1.00  0.00     0.002 A 
HETATM   29  C   UNL     1      -2.589   3.893 -32.932  1.00  0.00     0.000 A 
HETATM   30  C   UNL     1      -2.174   5.113 -32.421  1.00  0.00     0.002 A 
HETATM   31  C   UNL     1      -2.911   5.738 -31.407  1.00  0.00     0.029 A 
ENDBRANCH  23  26
ENDBRANCH  18  19
ENDBRANCH  17  18
ENDBRANCH  14  17
ENDBRANCH   2  13
BRANCH   2  32
HETATM   32  O   UNL     1      -8.408   1.348 -35.162  1.00  0.00    -0.359 OA
HETATM   33  H   UNL     1      -7.581   1.777 -35.445  1.00  0.00     0.213 HD
ENDBRANCH   2  32
BRANCH   1  34
HETATM   34  C   UNL     1      -7.634   0.731 -32.217  1.00  0.00     0.076 A 
HETATM   35  C   UNL     1      -6.703  -0.130 -32.830  1.00  0.00     0.098 A 
HETATM   36  C   UNL     1      -5.498  -0.413 -32.181  1.00  0.00     0.075 A 
HETATM   37  C   UNL     1      -5.204   0.199 -30.962  1.00  0.00     0.070 A 
HETATM   38  C   UNL     1      -6.119   1.052 -30.351  1.00  0.00     0.039 A 
HETATM   39  C   UNL     1      -7.330   1.329 -30.984  1.00  0.00     0.035 A 
BRANCH  35  40
HETATM   40  O   UNL     1      -7.036  -0.583 -34.078  1.00  0.00    -0.354 OA
HETATM   41  C   UNL     1      -6.971  -1.984 -34.314  1.00  0.00     0.210 C 
ENDBRANCH  35  40
BRANCH  37  42
HETATM   42  O   UNL     1      -3.997  -0.093 -30.387  1.00  0.00    -0.356 OA
HETATM   43  C   UNL     1      -3.005  -0.377 -31.378  1.00  0.00     0.210 C 
ENDBRANCH  37  42
ENDBRANCH   1  34
TORSDOF 9
ENDMDL
MODEL 8
REMARK VINA RESULT:      -8.5      1.738      2.944
REMARK  9 active torsions:
REMARK  status: ('A' for Active; 'I' for Inactive)
REMARK    1  A    between atoms: O_2  and  C_3 
REMARK    2  A    between atoms: C_5  and  O_6 
REMARK    3  A    between atoms: C_8  and  N_9 
REMARK    4  A    between atoms: C_10  and  C_12 
REMARK    5  A    between atoms: C_10  and  O_11 
REMARK       I    between atoms: C_12  and  N_13 
REMARK    6  A    between atoms: N_13  and  C_14 
REMARK    7  A    between atoms: C_14  and  C_15 
REMARK    8  A    between atoms: C_15  and  N_16 
REMARK    9  A    between atoms: N_20  and  C_21 
ROOT
HETATM    1  N   UNL     1      -8.015   3.036 -32.462  1.00  0.00    -0.251 N 
HETATM    2  C   UNL     1      -7.524   1.775 -31.896  1.00  0.00     0.256 C 
HETATM    3  C   UNL     1      -7.204   0.746 -32.972  1.00  0.00     0.034 A 
HETATM    4  C   UNL     1      -7.875   0.848 -34.189  1.00  0.00     0.048 A 
HETATM    5  N   UNL     1      -8.704   1.940 -34.415  1.00  0.00    -0.308 N 
HETATM    6  C   UNL     1      -8.770   3.048 -33.624  1.00  0.00     0.330 C 
HETATM    7  O   UNL     1      -9.481   3.985 -33.986  1.00  0.00    -0.246 OA
HETATM    8  C   UNL     1      -6.353  -0.357 -32.781  1.00  0.00     0.015 A 
HETATM    9  C   UNL     1      -6.189  -1.321 -33.780  1.00  0.00     0.001 A 
HETATM   10  C   UNL     1      -6.883  -1.204 -34.980  1.00  0.00     0.002 A 
HETATM   11  C   UNL     1      -7.731  -0.118 -35.187  1.00  0.00     0.030 A 
HETATM   12  H   UNL     1      -9.202   2.024 -35.293  1.00  0.00     0.170 HD
ENDROOT
BRANCH   2  13
HETATM   13  C   UNL     1      -6.273   1.938 -30.901  1.00  0.00     0.279 C 
HETATM   14  N   UNL     1      -4.996   2.185 -31.346  1.00  0.00    -0.355 N 
HETATM   15  H   UNL     1      -4.329   2.081 -30.588  1.00  0.00     0.162 HD
HETATM   16  O   UNL     1      -6.371   1.883 -29.669  1.00  0.00    -0.268 OA
BRANCH  14  17
HETATM   17  C   UNL     1      -4.488   2.504 -32.669  1.00  0.00     0.150 C 
BRANCH  17  18
HETATM   18  C   UNL     1      -4.381   4.013 -32.988  1.00  0.00     0.254 C 
BRANCH  18  19
HETATM   19  N   UNL     1      -2.948   4.526 -33.152  1.00  0.00    -0.067 N 
HETATM   20  H   UNL     1      -2.455   3.943 -33.838  1.00  0.00     0.280 HD
HETATM   21  C   UNL     1      -3.003   5.962 -33.725  1.00  0.00     0.254 C 
HETATM   22  C   UNL     1      -1.611   6.628 -33.769  1.00  0.00     0.150 C 
HETATM   23  N   UNL     1      -0.966   6.581 -32.444  1.00  0.00    -0.378 N 
HETATM   24  C   UNL     1      -0.773   5.187 -31.993  1.00  0.00     0.150 C 
HETATM   25  C   UNL     1      -2.139   4.484 -31.844  1.00  0.00     0.254 C 
BRANCH  23  26
HETATM   26  C   UNL     1      -1.301   7.531 -31.464  1.00  0.00     0.030 A 
HETATM   27  C   UNL     1      -2.109   8.652 -31.722  1.00  0.00     0.029 A 
HETATM   28  C   UNL     1      -2.453   9.572 -30.721  1.00  0.00     0.002 A 
HETATM   29  C   UNL     1      -1.975   9.412 -29.429  1.00  0.00     0.000 A 
HETATM   30  C   UNL     1      -1.134   8.346 -29.147  1.00  0.00     0.002 A 
HETATM   31  C   UNL     1      -0.796   7.432 -30.154  1.00  0.00     0.029 A 
ENDBRANCH  23  26
ENDBRANCH  18  19
ENDBRANCH  17  18
ENDBRANCH  14  17
ENDBRANCH   2  13
BRANCH   2  32
HETATM   32  O   UNL     1      -8.647   1.206 -31.208  1.00  0.00    -0.359 OA
HETATM   33  H   UNL     1      -8.881   0.445 -31.768  1.00  0.00     0.213 HD
ENDBRANCH   2  32
BRANCH   1  34
HETATM   34  C   UNL     1      -8.022   4.216 -31.657  1.00  0.00     0.076 A 
HETATM   35  C   UNL     1      -9.057   4.427 -30.724  1.00  0.00     0.098 A 
HETATM   36  C   UNL     1      -9.005   5.540 -29.882  1.00  0.00     0.075 A 
HETATM   37  C   UNL     1      -7.909   6.402 -29.933  1.00  0.00     0.070 A 
HETATM   38  C   UNL     1      -6.883   6.199 -30.851  1.00  0.00     0.039 A 
HETATM   39  C   UNL     1      -6.932   5.098 -31.705  1.00  0.00     0.035 A 
BRANCH  35  40
HETATM   40  O   UNL     1     -10.024   3.460 -30.673  1.00  0.00    -0.354 OA
HETATM   41  C   UNL     1     -11.365   3.849 -30.946  1.00  0.00     0.210 C 
ENDBRANCH  35  40
BRANCH  37  42
HETATM   42  O   UNL     1      -7.900   7.460 -29.065  1.00  0.00    -0.356 OA
HETATM   43  C   UNL     1      -8.824   7.258 -27.991  1.00  0.00     0.210 C 
ENDBRANCH  37  42
ENDBRANCH   1  34
TORSDOF 9
ENDMDL
MODEL 9
REMARK VINA RESULT:      -8.4      2.121      5.331
REMARK  9 active torsions:
REMARK  status: ('A' for Active; 'I' for Inactive)
REMARK    1  A    between atoms: O_2  and  C_3 
REMARK    2  A    between atoms: C_5  and  O_6 
REMARK    3  A    between atoms: C_8  and  N_9 
REMARK    4  A    between atoms: C_10  and  C_12 
REMARK    5  A    between atoms: C_10  and  O_11 
REMARK       I    between atoms: C_12  and  N_13 
REMARK    6  A    between atoms: N_13  and  C_14 
REMARK    7  A    between atoms: C_14  and  C_15 
REMARK    8  A    between atoms: C_15  and  N_16 
REMARK    9  A    between atoms: N_20  and  C_21 
ROOT
HETATM    1  N   UNL     1      -7.947   1.513 -32.527  1.00  0.00    -0.251 N 
HETATM    2  C   UNL     1      -7.844   2.892 -33.015  1.00  0.00     0.256 C 
HETATM    3  C   UNL     1      -8.387   3.901 -32.011  1.00  0.00     0.034 A 
HETATM    4  C   UNL     1      -9.351   3.461 -31.105  1.00  0.00     0.048 A 
HETATM    5  N   UNL     1      -9.682   2.112 -31.071  1.00  0.00    -0.308 N 
HETATM    6  C   UNL     1      -8.998   1.122 -31.711  1.00  0.00     0.330 C 
HETATM    7  O   UNL     1      -9.342  -0.044 -31.525  1.00  0.00    -0.246 OA
HETATM    8  C   UNL     1      -8.055   5.267 -32.005  1.00  0.00     0.015 A 
HETATM    9  C   UNL     1      -8.674   6.154 -31.121  1.00  0.00     0.001 A 
HETATM   10  C   UNL     1      -9.645   5.693 -30.238  1.00  0.00     0.002 A 
HETATM   11  C   UNL     1      -9.988   4.343 -30.229  1.00  0.00     0.030 A 
HETATM   12  H   UNL     1     -10.384   1.779 -30.421  1.00  0.00     0.170 HD
ENDROOT
BRANCH   2  13
HETATM   13  C   UNL     1      -6.368   3.321 -33.482  1.00  0.00     0.279 C 
HETATM   14  N   UNL     1      -5.369   3.638 -32.592  1.00  0.00    -0.355 N 
HETATM   15  H   UNL     1      -4.577   4.047 -33.077  1.00  0.00     0.162 HD
HETATM   16  O   UNL     1      -6.015   3.370 -34.666  1.00  0.00    -0.268 OA
BRANCH  14  17
HETATM   17  C   UNL     1      -5.306   3.529 -31.145  1.00  0.00     0.150 C 
BRANCH  17  18
HETATM   18  C   UNL     1      -4.828   4.802 -30.408  1.00  0.00     0.254 C 
BRANCH  18  19
HETATM   19  N   UNL     1      -3.956   5.733 -31.252  1.00  0.00    -0.067 N 
HETATM   20  H   UNL     1      -4.270   5.700 -32.229  1.00  0.00     0.280 HD
HETATM   21  C   UNL     1      -4.161   7.184 -30.754  1.00  0.00     0.254 C 
HETATM   22  C   UNL     1      -3.196   8.178 -31.436  1.00  0.00     0.150 C 
HETATM   23  N   UNL     1      -1.797   7.732 -31.293  1.00  0.00    -0.378 N 
HETATM   24  C   UNL     1      -1.591   6.413 -31.926  1.00  0.00     0.150 C 
HETATM   25  C   UNL     1      -2.466   5.348 -31.233  1.00  0.00     0.254 C 
BRANCH  23  26
HETATM   26  C   UNL     1      -1.096   7.989 -30.103  1.00  0.00     0.030 A 
HETATM   27  C   UNL     1      -1.508   8.942 -29.155  1.00  0.00     0.029 A 
HETATM   28  C   UNL     1      -0.805   9.162 -27.961  1.00  0.00     0.002 A 
HETATM   29  C   UNL     1       0.353   8.448 -27.689  1.00  0.00     0.000 A 
HETATM   30  C   UNL     1       0.819   7.536 -28.623  1.00  0.00     0.002 A 
HETATM   31  C   UNL     1       0.111   7.323 -29.813  1.00  0.00     0.029 A 
ENDBRANCH  23  26
ENDBRANCH  18  19
ENDBRANCH  17  18
ENDBRANCH  14  17
ENDBRANCH   2  13
BRANCH   2  32
HETATM   32  O   UNL     1      -8.766   2.976 -34.111  1.00  0.00    -0.359 OA
HETATM   33  H   UNL     1      -9.294   3.764 -33.889  1.00  0.00     0.213 HD
ENDBRANCH   2  32
BRANCH   1  34
HETATM   34  C   UNL     1      -7.179   0.484 -33.152  1.00  0.00     0.076 A 
HETATM   35  C   UNL     1      -6.116  -0.124 -32.454  1.00  0.00     0.098 A 
HETATM   36  C   UNL     1      -5.428  -1.188 -33.042  1.00  0.00     0.075 A 
HETATM   37  C   UNL     1      -5.831  -1.676 -34.286  1.00  0.00     0.070 A 
HETATM   38  C   UNL     1      -6.880  -1.081 -34.981  1.00  0.00     0.039 A 
HETATM   39  C   UNL     1      -7.564  -0.009 -34.408  1.00  0.00     0.035 A 
BRANCH  35  40
HETATM   40  O   UNL     1      -5.878   0.351 -31.192  1.00  0.00    -0.354 OA
HETATM   41  C   UNL     1      -4.595   0.114 -30.626  1.00  0.00     0.210 C 
ENDBRANCH  35  40
BRANCH  37  42
HETATM   42  O   UNL     1      -5.138  -2.738 -34.799  1.00  0.00    -0.356 OA
HETATM   43  C   UNL     1      -6.006  -3.843 -35.068  1.00  0.00     0.210 C 
ENDBRANCH  37  42
ENDBRANCH   1  34
TORSDOF 9
ENDMDL
MODEL 10
REMARK VINA RESULT:      -8.4      3.821      7.589
REMARK  9 active torsions:
REMARK  status: ('A' for Active; 'I' for Inactive)
REMARK    1  A    between atoms: O_2  and  C_3 
REMARK    2  A    between atoms: C_5  and  O_6 
REMARK    3  A    between atoms: C_8  and  N_9 
REMARK    4  A    between atoms: C_10  and  C_12 
REMARK    5  A    between atoms: C_10  and  O_11 
REMARK       I    between atoms: C_12  and  N_13 
REMARK    6  A    between atoms: N_13  and  C_14 
REMARK    7  A    between atoms: C_14  and  C_15 
REMARK    8  A    between atoms: C_15  and  N_16 
REMARK    9  A    between atoms: N_20  and  C_21 
ROOT
HETATM    1  N   UNL     1     -10.341   4.478 -31.979  1.00  0.00    -0.251 N 
HETATM    2  C   UNL     1      -9.487   5.529 -32.539  1.00  0.00     0.256 C 
HETATM    3  C   UNL     1      -8.435   6.008 -31.547  1.00  0.00     0.034 A 
HETATM    4  C   UNL     1      -8.711   5.866 -30.188  1.00  0.00     0.048 A 
HETATM    5  N   UNL     1      -9.862   5.190 -29.799  1.00  0.00    -0.308 N 
HETATM    6  C   UNL     1     -10.660   4.463 -30.630  1.00  0.00     0.330 C 
HETATM    7  O   UNL     1     -11.600   3.838 -30.140  1.00  0.00    -0.246 OA
HETATM    8  C   UNL     1      -7.251   6.674 -31.911  1.00  0.00     0.015 A 
HETATM    9  C   UNL     1      -6.382   7.180 -30.940  1.00  0.00     0.001 A 
HETATM   10  C   UNL     1      -6.690   7.039 -29.591  1.00  0.00     0.002 A 
HETATM   11  C   UNL     1      -7.858   6.382 -29.211  1.00  0.00     0.030 A 
HETATM   12  H   UNL     1     -10.077   5.084 -28.815  1.00  0.00     0.170 HD
ENDROOT
BRANCH   2  13
HETATM   13  C   UNL     1      -8.791   5.144 -33.935  1.00  0.00     0.279 C 
HETATM   14  N   UNL     1      -7.782   4.215 -34.032  1.00  0.00    -0.355 N 
HETATM   15  H   UNL     1      -7.362   4.242 -34.956  1.00  0.00     0.162 HD
HETATM   16  O   UNL     1      -9.129   5.630 -35.022  1.00  0.00    -0.268 OA
BRANCH  14  17
HETATM   17  C   UNL     1      -7.230   3.296 -33.053  1.00  0.00     0.150 C 
BRANCH  17  18
HETATM   18  C   UNL     1      -5.770   3.583 -32.629  1.00  0.00     0.254 C 
BRANCH  18  19
HETATM   19  N   UNL     1      -5.104   2.450 -31.845  1.00  0.00    -0.067 N 
HETATM   20  H   UNL     1      -4.689   2.830 -30.986  1.00  0.00     0.280 HD
HETATM   21  C   UNL     1      -6.196   1.440 -31.418  1.00  0.00     0.254 C 
HETATM   22  C   UNL     1      -5.599   0.175 -30.763  1.00  0.00     0.150 C 
HETATM   23  N   UNL     1      -4.584  -0.439 -31.640  1.00  0.00    -0.378 N 
HETATM   24  C   UNL     1      -3.467   0.494 -31.897  1.00  0.00     0.150 C 
HETATM   25  C   UNL     1      -3.982   1.750 -32.631  1.00  0.00     0.254 C 
BRANCH  23  26
HETATM   26  C   UNL     1      -4.982  -1.271 -32.700  1.00  0.00     0.030 A 
HETATM   27  C   UNL     1      -4.137  -2.229 -33.287  1.00  0.00     0.029 A 
HETATM   28  C   UNL     1      -4.566  -3.067 -34.326  1.00  0.00     0.002 A 
HETATM   29  C   UNL     1      -5.854  -2.955 -34.831  1.00  0.00     0.000 A 
HETATM   30  C   UNL     1      -6.700  -1.987 -34.311  1.00  0.00     0.002 A 
HETATM   31  C   UNL     1      -6.263  -1.154 -33.273  1.00  0.00     0.029 A 
ENDBRANCH  23  26
ENDBRANCH  18  19
ENDBRANCH  17  18
ENDBRANCH  14  17
ENDBRANCH   2  13
BRANCH   2  32
HETATM   32  O   UNL     1     -10.343   6.669 -32.699  1.00  0.00    -0.359 OA
HETATM   33  H   UNL     1     -11.152   6.280 -33.077  1.00  0.00     0.213 HD
ENDBRANCH   2  32
BRANCH   1  34
HETATM   34  C   UNL     1     -11.128   3.667 -32.852  1.00  0.00     0.076 A 
HETATM   35  C   UNL     1     -10.810   2.306 -33.027  1.00  0.00     0.098 A 
HETATM   36  C   UNL     1     -11.638   1.502 -33.815  1.00  0.00     0.075 A 
HETATM   37  C   UNL     1     -12.798   2.037 -34.376  1.00  0.00     0.070 A 
HETATM   38  C   UNL     1     -13.119   3.381 -34.207  1.00  0.00     0.039 A 
HETATM   39  C   UNL     1     -12.292   4.194 -33.433  1.00  0.00     0.035 A 
BRANCH  35  40
HETATM   40  O   UNL     1      -9.717   1.852 -32.338  1.00  0.00    -0.354 OA
HETATM   41  C   UNL     1      -9.504   0.447 -32.284  1.00  0.00     0.210 C 
ENDBRANCH  35  40
BRANCH  37  42
HETATM   42  O   UNL     1     -13.585   1.196 -35.114  1.00  0.00    -0.356 OA
HETATM   43  C   UNL     1     -14.727   0.765 -34.367  1.00  0.00     0.210 C 
ENDBRANCH  37  42
ENDBRANCH   1  34
TORSDOF 9
ENDMDL
