MODEL 1
REMARK VINA RESULT:      -7.7      0.000      0.000
REMARK  5 active torsions:
REMARK  status: ('A' for Active; 'I' for Inactive)
REMARK    1  A    between atoms: C_9  and  C_10 
REMARK    2  A    between atoms: C_10  and  N_11 
REMARK    3  A    between atoms: N_11  and  C_14 
REMARK    4  A    between atoms: C_14  and  C_15 
REMARK    5  A    between atoms: C_16  and  C_17 
ROOT
HETATM    1  C   UNL     1      -5.997   1.000 -33.700  1.00  0.00    -0.036 A 
HETATM    2  C   UNL     1      -5.359  -0.015 -32.977  1.00  0.00     0.013 A 
HETATM    3  C   UNL     1      -5.560  -1.357 -33.313  1.00  0.00     0.023 A 
HETATM    4  C   UNL     1      -6.406  -1.697 -34.374  1.00  0.00     0.044 A 
HETATM    5  C   UNL     1      -6.608  -3.073 -34.725  1.00  0.00     0.099 C 
HETATM    6  N   UNL     1      -6.767  -4.185 -35.014  1.00  0.00    -0.191 NA
HETATM    7  C   UNL     1      -7.052  -0.686 -35.092  1.00  0.00     0.023 A 
HETATM    8  C   UNL     1      -6.854   0.656 -34.752  1.00  0.00     0.013 A 
ENDROOT
BRANCH   1   9
HETATM    9  C   UNL     1      -5.805   2.413 -33.360  1.00  0.00     0.009 C 
HETATM   10  C   UNL     1      -6.307   3.398 -34.122  1.00  0.00     0.001 C 
BRANCH  10  11
HETATM   11  C   UNL     1      -6.141   4.850 -33.833  1.00  0.00     0.259 C 
BRANCH  11  12
HETATM   12  N   UNL     1      -7.470   5.510 -33.718  1.00  0.00    -0.071 N 
HETATM   13  H   UNL     1      -7.967   5.378 -34.611  1.00  0.00     0.277 HD
HETATM   14  H   UNL     1      -7.315   6.523 -33.641  1.00  0.00     0.277 HD
BRANCH  12  15
HETATM   15  C   UNL     1      -8.313   5.018 -32.578  1.00  0.00     0.242 C 
BRANCH  15  16
HETATM   16  C   UNL     1      -9.564   4.257 -33.069  1.00  0.00     0.055 C 
HETATM   17  C   UNL     1      -9.531   2.753 -32.856  1.00  0.00    -0.025 A 
HETATM   18  C   UNL     1      -8.895   2.152 -31.756  1.00  0.00     0.010 A 
HETATM   19  C   UNL     1     -10.282   1.933 -33.716  1.00  0.00     0.041 A 
HETATM   20  C   UNL     1      -8.956   0.769 -31.567  1.00  0.00     0.001 A 
HETATM   21  C   UNL     1      -9.675  -0.029 -32.450  1.00  0.00     0.002 A 
HETATM   22  C   UNL     1     -10.353   0.553 -33.518  1.00  0.00     0.030 A 
HETATM   23  N   UNL     1     -11.023   2.497 -34.756  1.00  0.00    -0.327 N 
HETATM   24  C   UNL     1     -10.966   3.808 -35.128  1.00  0.00     0.222 C 
HETATM   25  H   UNL     1     -11.696   1.929 -35.262  1.00  0.00     0.169 HD
HETATM   26  O   UNL     1     -11.704   4.269 -35.991  1.00  0.00    -0.273 OA
HETATM   27  C   UNL     1      -9.838   4.609 -34.534  1.00  0.00     0.114 C 
ENDBRANCH  15  16
ENDBRANCH  12  15
ENDBRANCH  11  12
ENDBRANCH  10  11
ENDBRANCH   1   9
TORSDOF 5
ENDMDL
MODEL 2
REMARK VINA RESULT:      -7.6      3.189      6.100
REMARK  5 active torsions:
REMARK  status: ('A' for Active; 'I' for Inactive)
REMARK    1  A    between atoms: C_9  and  C_10 
REMARK    2  A    between atoms: C_10  and  N_11 
REMARK    3  A    between atoms: N_11  and  C_14 
REMARK    4  A    between atoms: C_14  and  C_15 
REMARK    5  A    between atoms: C_16  and  C_17 
ROOT
HETATM    1  C   UNL     1      -8.958   1.441 -31.854  1.00  0.00    -0.036 A 
HETATM    2  C   UNL     1      -9.470   0.205 -32.268  1.00  0.00     0.013 A 
HETATM    3  C   UNL     1     -10.593   0.146 -33.098  1.00  0.00     0.023 A 
HETATM    4  C   UNL     1     -11.219   1.324 -33.519  1.00  0.00     0.044 A 
HETATM    5  C   UNL     1     -12.367   1.265 -34.377  1.00  0.00     0.099 C 
HETATM    6  N   UNL     1     -13.292   1.219 -35.075  1.00  0.00    -0.191 NA
HETATM    7  C   UNL     1     -10.717   2.559 -33.100  1.00  0.00     0.023 A 
HETATM    8  C   UNL     1      -9.595   2.618 -32.266  1.00  0.00     0.013 A 
ENDROOT
BRANCH   1   9
HETATM    9  C   UNL     1      -7.785   1.526 -30.979  1.00  0.00     0.009 C 
HETATM   10  C   UNL     1      -7.059   2.650 -30.878  1.00  0.00     0.001 C 
BRANCH  10  11
HETATM   11  C   UNL     1      -5.855   2.796 -30.012  1.00  0.00     0.259 C 
BRANCH  11  12
HETATM   12  N   UNL     1      -4.822   1.793 -30.390  1.00  0.00    -0.071 N 
HETATM   13  H   UNL     1      -5.251   0.858 -30.325  1.00  0.00     0.277 HD
HETATM   14  H   UNL     1      -4.088   1.807 -29.670  1.00  0.00     0.277 HD
BRANCH  12  15
HETATM   15  C   UNL     1      -4.227   1.996 -31.753  1.00  0.00     0.242 C 
BRANCH  15  16
HETATM   16  C   UNL     1      -4.076   0.666 -32.524  1.00  0.00     0.055 C 
HETATM   17  C   UNL     1      -5.257   0.291 -33.404  1.00  0.00    -0.025 A 
HETATM   18  C   UNL     1      -6.047   1.246 -34.066  1.00  0.00     0.010 A 
HETATM   19  C   UNL     1      -5.488  -1.067 -33.681  1.00  0.00     0.041 A 
HETATM   20  C   UNL     1      -7.077   0.848 -34.923  1.00  0.00     0.001 A 
HETATM   21  C   UNL     1      -7.313  -0.503 -35.156  1.00  0.00     0.002 A 
HETATM   22  C   UNL     1      -6.508  -1.463 -34.547  1.00  0.00     0.030 A 
HETATM   23  N   UNL     1      -4.657  -2.047 -33.136  1.00  0.00    -0.327 N 
HETATM   24  C   UNL     1      -3.694  -1.815 -32.199  1.00  0.00     0.222 C 
HETATM   25  H   UNL     1      -4.716  -3.003 -33.473  1.00  0.00     0.169 HD
HETATM   26  O   UNL     1      -2.933  -2.698 -31.818  1.00  0.00    -0.273 OA
HETATM   27  C   UNL     1      -3.730  -0.460 -31.544  1.00  0.00     0.114 C 
ENDBRANCH  15  16
ENDBRANCH  12  15
ENDBRANCH  11  12
ENDBRANCH  10  11
ENDBRANCH   1   9
TORSDOF 5
ENDMDL
MODEL 3
REMARK VINA RESULT:      -7.6      3.945      6.542
REMARK  5 active torsions:
REMARK  status: ('A' for Active; 'I' for Inactive)
REMARK    1  A    between atoms: C_9  and  C_10 
REMARK    2  A    between atoms: C_10  and  N_11 
REMARK    3  A    between atoms: N_11  and  C_14 
REMARK    4  A    between atoms: C_14  and  C_15 
REMARK    5  A    between atoms: C_16  and  C_17 
ROOT
HETATM    1  C   UNL     1      -5.807  -0.405 -33.111  1.00  0.00    -0.036 A 
HETATM    2  C   UNL     1      -7.055  -0.876 -33.537  1.00  0.00     0.013 A 
HETATM    3  C   UNL     1      -7.157  -2.099 -34.207  1.00  0.00     0.023 A 
HETATM    4  C   UNL     1      -6.011  -2.861 -34.459  1.00  0.00     0.044 A 
HETATM    5  C   UNL     1      -6.116  -4.120 -35.140  1.00  0.00     0.099 C 
HETATM    6  N   UNL     1      -6.200  -5.140 -35.684  1.00  0.00    -0.191 NA
HETATM    7  C   UNL     1      -4.763  -2.388 -34.043  1.00  0.00     0.023 A 
HETATM    8  C   UNL     1      -4.661  -1.162 -33.378  1.00  0.00     0.013 A 
ENDROOT
BRANCH   1   9
HETATM    9  C   UNL     1      -5.676   0.878 -32.412  1.00  0.00     0.009 C 
HETATM   10  C   UNL     1      -5.518   0.944 -31.080  1.00  0.00     0.001 C 
BRANCH  10  11
HETATM   11  C   UNL     1      -5.386   2.215 -30.314  1.00  0.00     0.259 C 
BRANCH  11  12
HETATM   12  N   UNL     1      -4.715   3.252 -31.145  1.00  0.00    -0.071 N 
HETATM   13  H   UNL     1      -4.833   4.161 -30.672  1.00  0.00     0.277 HD
HETATM   14  H   UNL     1      -5.235   3.336 -32.028  1.00  0.00     0.277 HD
BRANCH  12  15
HETATM   15  C   UNL     1      -3.261   2.992 -31.412  1.00  0.00     0.242 C 
BRANCH  15  16
HETATM   16  C   UNL     1      -2.729   3.832 -32.593  1.00  0.00     0.055 C 
HETATM   17  C   UNL     1      -1.787   4.962 -32.211  1.00  0.00    -0.025 A 
HETATM   18  C   UNL     1      -0.899   4.880 -31.126  1.00  0.00     0.010 A 
HETATM   19  C   UNL     1      -1.700   6.082 -33.055  1.00  0.00     0.041 A 
HETATM   20  C   UNL     1      -0.002   5.918 -30.859  1.00  0.00     0.001 A 
HETATM   21  C   UNL     1       0.045   7.034 -31.687  1.00  0.00     0.002 A 
HETATM   22  C   UNL     1      -0.794   7.112 -32.796  1.00  0.00     0.030 A 
HETATM   23  N   UNL     1      -2.482   6.156 -34.209  1.00  0.00    -0.327 N 
HETATM   24  C   UNL     1      -3.476   5.280 -34.530  1.00  0.00     0.222 C 
HETATM   25  H   UNL     1      -2.294   6.874 -34.902  1.00  0.00     0.169 HD
HETATM   26  O   UNL     1      -4.074   5.340 -35.599  1.00  0.00    -0.273 OA
HETATM   27  C   UNL     1      -3.904   4.343 -33.432  1.00  0.00     0.114 C 
ENDBRANCH  15  16
ENDBRANCH  12  15
ENDBRANCH  11  12
ENDBRANCH  10  11
ENDBRANCH   1   9
TORSDOF 5
ENDMDL
MODEL 4
REMARK VINA RESULT:      -7.5      1.389      1.702
REMARK  5 active torsions:
REMARK  status: ('A' for Active; 'I' for Inactive)
REMARK    1  A    between atoms: C_9  and  C_10 
REMARK    2  A    between atoms: C_10  and  N_11 
REMARK    3  A    between atoms: N_11  and  C_14 
REMARK    4  A    between atoms: C_14  and  C_15 
REMARK    5  A    between atoms: C_16  and  C_17 
ROOT
HETATM    1  C   UNL     1      -5.623  -0.094 -33.649  1.00  0.00    -0.036 A 
HETATM    2  C   UNL     1      -4.602  -1.010 -33.361  1.00  0.00     0.013 A 
HETATM    3  C   UNL     1      -4.698  -2.335 -33.795  1.00  0.00     0.023 A 
HETATM    4  C   UNL     1      -5.818  -2.759 -34.518  1.00  0.00     0.044 A 
HETATM    5  C   UNL     1      -5.914  -4.117 -34.971  1.00  0.00     0.099 C 
HETATM    6  N   UNL     1      -5.990  -5.213 -35.342  1.00  0.00    -0.191 NA
HETATM    7  C   UNL     1      -6.843  -1.851 -34.798  1.00  0.00     0.023 A 
HETATM    8  C   UNL     1      -6.749  -0.525 -34.360  1.00  0.00     0.013 A 
ENDROOT
BRANCH   1   9
HETATM    9  C   UNL     1      -5.546   1.298 -33.198  1.00  0.00     0.009 C 
HETATM   10  C   UNL     1      -4.815   1.656 -32.130  1.00  0.00     0.001 C 
BRANCH  10  11
HETATM   11  C   UNL     1      -4.702   3.052 -31.621  1.00  0.00     0.259 C 
BRANCH  11  12
HETATM   12  N   UNL     1      -5.733   3.919 -32.254  1.00  0.00    -0.071 N 
HETATM   13  H   UNL     1      -6.008   3.482 -33.146  1.00  0.00     0.277 HD
HETATM   14  H   UNL     1      -5.285   4.807 -32.512  1.00  0.00     0.277 HD
BRANCH  12  15
HETATM   15  C   UNL     1      -6.945   4.167 -31.404  1.00  0.00     0.242 C 
BRANCH  15  16
HETATM   16  C   UNL     1      -8.250   4.123 -32.228  1.00  0.00     0.055 C 
HETATM   17  C   UNL     1      -8.804   2.732 -32.488  1.00  0.00    -0.025 A 
HETATM   18  C   UNL     1      -8.675   1.676 -31.570  1.00  0.00     0.010 A 
HETATM   19  C   UNL     1      -9.596   2.523 -33.629  1.00  0.00     0.041 A 
HETATM   20  C   UNL     1      -9.265   0.435 -31.824  1.00  0.00     0.001 A 
HETATM   21  C   UNL     1     -10.017   0.239 -32.977  1.00  0.00     0.002 A 
HETATM   22  C   UNL     1     -10.197   1.288 -33.875  1.00  0.00     0.030 A 
HETATM   23  N   UNL     1      -9.847   3.575 -34.513  1.00  0.00    -0.327 N 
HETATM   24  C   UNL     1      -9.247   4.798 -34.454  1.00  0.00     0.222 C 
HETATM   25  H   UNL     1     -10.555   3.471 -35.234  1.00  0.00     0.169 HD
HETATM   26  O   UNL     1      -9.569   5.715 -35.202  1.00  0.00    -0.273 OA
HETATM   27  C   UNL     1      -8.061   4.903 -33.533  1.00  0.00     0.114 C 
ENDBRANCH  15  16
ENDBRANCH  12  15
ENDBRANCH  11  12
ENDBRANCH  10  11
ENDBRANCH   1   9
TORSDOF 5
ENDMDL
MODEL 5
REMARK VINA RESULT:      -7.2      3.545      7.297
REMARK  5 active torsions:
REMARK  status: ('A' for Active; 'I' for Inactive)
REMARK    1  A    between atoms: C_9  and  C_10 
REMARK    2  A    between atoms: C_10  and  N_11 
REMARK    3  A    between atoms: N_11  and  C_14 
REMARK    4  A    between atoms: C_14  and  C_15 
REMARK    5  A    between atoms: C_16  and  C_17 
ROOT
HETATM    1  C   UNL     1      -4.883   3.643 -32.464  1.00  0.00    -0.036 A 
HETATM    2  C   UNL     1      -3.512   3.358 -32.504  1.00  0.00     0.013 A 
HETATM    3  C   UNL     1      -2.602   4.326 -32.940  1.00  0.00     0.023 A 
HETATM    4  C   UNL     1      -3.054   5.586 -33.343  1.00  0.00     0.044 A 
HETATM    5  C   UNL     1      -2.120   6.582 -33.784  1.00  0.00     0.099 C 
HETATM    6  N   UNL     1      -1.366   7.390 -34.135  1.00  0.00    -0.191 NA
HETATM    7  C   UNL     1      -4.423   5.870 -33.314  1.00  0.00     0.023 A 
HETATM    8  C   UNL     1      -5.334   4.900 -32.882  1.00  0.00     0.013 A 
ENDROOT
BRANCH   1   9
HETATM    9  C   UNL     1      -5.856   2.642 -32.016  1.00  0.00     0.009 C 
HETATM   10  C   UNL     1      -7.036   2.477 -32.634  1.00  0.00     0.001 C 
BRANCH  10  11
HETATM   11  C   UNL     1      -8.066   1.482 -32.223  1.00  0.00     0.259 C 
BRANCH  11  12
HETATM   12  N   UNL     1      -7.477   0.116 -32.177  1.00  0.00    -0.071 N 
HETATM   13  H   UNL     1      -8.099  -0.478 -31.609  1.00  0.00     0.277 HD
HETATM   14  H   UNL     1      -6.595   0.168 -31.652  1.00  0.00     0.277 HD
BRANCH  12  15
HETATM   15  C   UNL     1      -7.252  -0.510 -33.524  1.00  0.00     0.242 C 
BRANCH  15  16
HETATM   16  C   UNL     1      -5.810  -1.041 -33.682  1.00  0.00     0.055 C 
HETATM   17  C   UNL     1      -5.700  -2.498 -34.098  1.00  0.00    -0.025 A 
HETATM   18  C   UNL     1      -6.632  -3.122 -34.944  1.00  0.00     0.010 A 
HETATM   19  C   UNL     1      -4.549  -3.218 -33.736  1.00  0.00     0.041 A 
HETATM   20  C   UNL     1      -6.447  -4.445 -35.356  1.00  0.00     0.001 A 
HETATM   21  C   UNL     1      -5.317  -5.151 -34.958  1.00  0.00     0.002 A 
HETATM   22  C   UNL     1      -4.358  -4.534 -34.159  1.00  0.00     0.030 A 
HETATM   23  N   UNL     1      -3.541  -2.603 -32.991  1.00  0.00    -0.327 N 
HETATM   24  C   UNL     1      -3.637  -1.366 -32.426  1.00  0.00     0.222 C 
HETATM   25  H   UNL     1      -2.642  -3.064 -32.881  1.00  0.00     0.169 HD
HETATM   26  O   UNL     1      -2.689  -0.838 -31.856  1.00  0.00    -0.273 OA
HETATM   27  C   UNL     1      -5.015  -0.763 -32.402  1.00  0.00     0.114 C 
ENDBRANCH  15  16
ENDBRANCH  12  15
ENDBRANCH  11  12
ENDBRANCH  10  11
ENDBRANCH   1   9
TORSDOF 5
ENDMDL
MODEL 6
REMARK VINA RESULT:      -7.1     15.476     16.967
REMARK  5 active torsions:
REMARK  status: ('A' for Active; 'I' for Inactive)
REMARK    1  A    between atoms: C_9  and  C_10 
REMARK    2  A    between atoms: C_10  and  N_11 
REMARK    3  A    between atoms: N_11  and  C_14 
REMARK    4  A    between atoms: C_14  and  C_15 
REMARK    5  A    between atoms: C_16  and  C_17 
ROOT
HETATM    1  C   UNL     1      -2.503 -13.451 -37.279  1.00  0.00    -0.036 A 
HETATM    2  C   UNL     1      -1.965 -12.756 -38.370  1.00  0.00     0.013 A 
HETATM    3  C   UNL     1      -0.732 -13.133 -38.911  1.00  0.00     0.023 A 
HETATM    4  C   UNL     1      -0.024 -14.208 -38.363  1.00  0.00     0.044 A 
HETATM    5  C   UNL     1       1.238 -14.601 -38.921  1.00  0.00     0.099 C 
HETATM    6  N   UNL     1       2.255 -14.923 -39.376  1.00  0.00    -0.191 NA
HETATM    7  C   UNL     1      -0.553 -14.897 -37.268  1.00  0.00     0.023 A 
HETATM    8  C   UNL     1      -1.785 -14.516 -36.725  1.00  0.00     0.013 A 
ENDROOT
BRANCH   1   9
HETATM    9  C   UNL     1      -3.791 -13.069 -36.694  1.00  0.00     0.009 C 
HETATM   10  C   UNL     1      -4.491 -13.909 -35.914  1.00  0.00     0.001 C 
BRANCH  10  11
HETATM   11  C   UNL     1      -5.806 -13.581 -35.296  1.00  0.00     0.259 C 
BRANCH  11  12
HETATM   12  N   UNL     1      -6.807 -13.257 -36.349  1.00  0.00    -0.071 N 
HETATM   13  H   UNL     1      -6.376 -12.581 -36.997  1.00  0.00     0.277 HD
HETATM   14  H   UNL     1      -7.583 -12.752 -35.904  1.00  0.00     0.277 HD
BRANCH  12  15
HETATM   15  C   UNL     1      -7.319 -14.447 -37.108  1.00  0.00     0.242 C 
BRANCH  15  16
HETATM   16  C   UNL     1      -7.611 -14.110 -38.586  1.00  0.00     0.055 C 
HETATM   17  C   UNL     1      -6.396 -14.096 -39.499  1.00  0.00    -0.025 A 
HETATM   18  C   UNL     1      -5.297 -14.951 -39.317  1.00  0.00     0.010 A 
HETATM   19  C   UNL     1      -6.427 -13.293 -40.652  1.00  0.00     0.041 A 
HETATM   20  C   UNL     1      -4.235 -14.950 -40.227  1.00  0.00     0.001 A 
HETATM   21  C   UNL     1      -4.270 -14.123 -41.344  1.00  0.00     0.002 A 
HETATM   22  C   UNL     1      -5.374 -13.303 -41.567  1.00  0.00     0.030 A 
HETATM   23  N   UNL     1      -7.549 -12.511 -40.934  1.00  0.00    -0.327 N 
HETATM   24  C   UNL     1      -8.600 -12.326 -40.085  1.00  0.00     0.222 C 
HETATM   25  H   UNL     1      -7.642 -12.073 -41.845  1.00  0.00     0.169 HD
HETATM   26  O   UNL     1      -9.600 -11.699 -40.418  1.00  0.00    -0.273 OA
HETATM   27  C   UNL     1      -8.388 -12.792 -38.670  1.00  0.00     0.114 C 
ENDBRANCH  15  16
ENDBRANCH  12  15
ENDBRANCH  11  12
ENDBRANCH  10  11
ENDBRANCH   1   9
TORSDOF 5
ENDMDL
MODEL 7
REMARK VINA RESULT:      -6.9      3.537      6.626
REMARK  5 active torsions:
REMARK  status: ('A' for Active; 'I' for Inactive)
REMARK    1  A    between atoms: C_9  and  C_10 
REMARK    2  A    between atoms: C_10  and  N_11 
REMARK    3  A    between atoms: N_11  and  C_14 
REMARK    4  A    between atoms: C_14  and  C_15 
REMARK    5  A    between atoms: C_16  and  C_17 
ROOT
HETATM    1  C   UNL     1      -4.861   3.677 -32.974  1.00  0.00    -0.036 A 
HETATM    2  C   UNL     1      -5.085   4.388 -31.787  1.00  0.00     0.013 A 
HETATM    3  C   UNL     1      -4.012   4.938 -31.079  1.00  0.00     0.023 A 
HETATM    4  C   UNL     1      -2.704   4.780 -31.550  1.00  0.00     0.044 A 
HETATM    5  C   UNL     1      -1.604   5.350 -30.828  1.00  0.00     0.099 C 
HETATM    6  N   UNL     1      -0.713   5.816 -30.249  1.00  0.00    -0.191 NA
HETATM    7  C   UNL     1      -2.477   4.063 -32.728  1.00  0.00     0.023 A 
HETATM    8  C   UNL     1      -3.550   3.509 -33.434  1.00  0.00     0.013 A 
ENDROOT
BRANCH   1   9
HETATM    9  C   UNL     1      -5.971   3.087 -33.728  1.00  0.00     0.009 C 
HETATM   10  C   UNL     1      -7.201   2.971 -33.202  1.00  0.00     0.001 C 
BRANCH  10  11
HETATM   11  C   UNL     1      -8.365   2.376 -33.916  1.00  0.00     0.259 C 
BRANCH  11  12
HETATM   12  N   UNL     1      -8.116   0.937 -34.204  1.00  0.00    -0.071 N 
HETATM   13  H   UNL     1      -7.229   0.868 -34.724  1.00  0.00     0.277 HD
HETATM   14  H   UNL     1      -8.841   0.615 -34.857  1.00  0.00     0.277 HD
BRANCH  12  15
HETATM   15  C   UNL     1      -8.072   0.058 -32.988  1.00  0.00     0.242 C 
BRANCH  15  16
HETATM   16  C   UNL     1      -6.901  -0.947 -33.041  1.00  0.00     0.055 C 
HETATM   17  C   UNL     1      -5.599  -0.456 -32.431  1.00  0.00    -0.025 A 
HETATM   18  C   UNL     1      -5.554   0.412 -31.327  1.00  0.00     0.010 A 
HETATM   19  C   UNL     1      -4.389  -0.995 -32.899  1.00  0.00     0.041 A 
HETATM   20  C   UNL     1      -4.331   0.777 -30.757  1.00  0.00     0.001 A 
HETATM   21  C   UNL     1      -3.142   0.259 -31.258  1.00  0.00     0.002 A 
HETATM   22  C   UNL     1      -3.169  -0.641 -32.320  1.00  0.00     0.030 A 
HETATM   23  N   UNL     1      -4.391  -1.948 -33.920  1.00  0.00    -0.327 N 
HETATM   24  C   UNL     1      -5.490  -2.309 -34.642  1.00  0.00     0.222 C 
HETATM   25  H   UNL     1      -3.541  -2.461 -34.134  1.00  0.00     0.169 HD
HETATM   26  O   UNL     1      -5.455  -3.214 -35.467  1.00  0.00    -0.273 OA
HETATM   27  C   UNL     1      -6.698  -1.425 -34.482  1.00  0.00     0.114 C 
ENDBRANCH  15  16
ENDBRANCH  12  15
ENDBRANCH  11  12
ENDBRANCH  10  11
ENDBRANCH   1   9
TORSDOF 5
ENDMDL
MODEL 8
REMARK VINA RESULT:      -6.9      2.949      5.684
REMARK  5 active torsions:
REMARK  status: ('A' for Active; 'I' for Inactive)
REMARK    1  A    between atoms: C_9  and  C_10 
REMARK    2  A    between atoms: C_10  and  N_11 
REMARK    3  A    between atoms: N_11  and  C_14 
REMARK    4  A    between atoms: C_14  and  C_15 
REMARK    5  A    between atoms: C_16  and  C_17 
ROOT
HETATM    1  C   UNL     1      -7.691   0.280 -33.709  1.00  0.00    -0.036 A 
HETATM    2  C   UNL     1      -8.661  -0.371 -32.936  1.00  0.00     0.013 A 
HETATM    3  C   UNL     1      -9.971   0.116 -32.889  1.00  0.00     0.023 A 
HETATM    4  C   UNL     1     -10.322   1.261 -33.611  1.00  0.00     0.044 A 
HETATM    5  C   UNL     1     -11.668   1.757 -33.569  1.00  0.00     0.099 C 
HETATM    6  N   UNL     1     -12.757   2.156 -33.541  1.00  0.00    -0.191 NA
HETATM    7  C   UNL     1      -9.354   1.918 -34.375  1.00  0.00     0.023 A 
HETATM    8  C   UNL     1      -8.042   1.434 -34.419  1.00  0.00     0.013 A 
ENDROOT
BRANCH   1   9
HETATM    9  C   UNL     1      -6.311  -0.210 -33.768  1.00  0.00     0.009 C 
HETATM   10  C   UNL     1      -5.762  -0.900 -32.755  1.00  0.00     0.001 C 
BRANCH  10  11
HETATM   11  C   UNL     1      -4.365  -1.419 -32.754  1.00  0.00     0.259 C 
BRANCH  11  12
HETATM   12  N   UNL     1      -3.498  -0.567 -31.895  1.00  0.00    -0.071 N 
HETATM   13  H   UNL     1      -2.993   0.090 -32.508  1.00  0.00     0.277 HD
HETATM   14  H   UNL     1      -2.773  -1.167 -31.483  1.00  0.00     0.277 HD
BRANCH  12  15
HETATM   15  C   UNL     1      -4.232   0.186 -30.822  1.00  0.00     0.242 C 
BRANCH  15  16
HETATM   16  C   UNL     1      -4.226   1.709 -31.076  1.00  0.00     0.055 C 
HETATM   17  C   UNL     1      -5.598   2.345 -31.225  1.00  0.00    -0.025 A 
HETATM   18  C   UNL     1      -6.729   1.888 -30.527  1.00  0.00     0.010 A 
HETATM   19  C   UNL     1      -5.718   3.521 -31.983  1.00  0.00     0.041 A 
HETATM   20  C   UNL     1      -7.954   2.553 -30.643  1.00  0.00     0.001 A 
HETATM   21  C   UNL     1      -8.060   3.697 -31.427  1.00  0.00     0.002 A 
HETATM   22  C   UNL     1      -6.938   4.192 -32.086  1.00  0.00     0.030 A 
HETATM   23  N   UNL     1      -4.597   4.077 -32.602  1.00  0.00    -0.327 N 
HETATM   24  C   UNL     1      -3.373   3.480 -32.671  1.00  0.00     0.222 C 
HETATM   25  H   UNL     1      -4.649   5.010 -32.998  1.00  0.00     0.169 HD
HETATM   26  O   UNL     1      -2.399   4.050 -33.150  1.00  0.00    -0.273 OA
HETATM   27  C   UNL     1      -3.329   2.028 -32.276  1.00  0.00     0.114 C 
ENDBRANCH  15  16
ENDBRANCH  12  15
ENDBRANCH  11  12
ENDBRANCH  10  11
ENDBRANCH   1   9
TORSDOF 5
ENDMDL
MODEL 9
REMARK VINA RESULT:      -6.7      3.134      6.431
REMARK  5 active torsions:
REMARK  status: ('A' for Active; 'I' for Inactive)
REMARK    1  A    between atoms: C_9  and  C_10 
REMARK    2  A    between atoms: C_10  and  N_11 
REMARK    3  A    between atoms: N_11  and  C_14 
REMARK    4  A    between atoms: C_14  and  C_15 
REMARK    5  A    between atoms: C_16  and  C_17 
ROOT
HETATM    1  C   UNL     1      -6.000   4.705 -33.740  1.00  0.00    -0.036 A 
HETATM    2  C   UNL     1      -5.782   5.702 -32.780  1.00  0.00     0.013 A 
HETATM    3  C   UNL     1      -4.575   6.407 -32.754  1.00  0.00     0.023 A 
HETATM    4  C   UNL     1      -3.573   6.120 -33.687  1.00  0.00     0.044 A 
HETATM    5  C   UNL     1      -2.337   6.848 -33.667  1.00  0.00     0.099 C 
HETATM    6  N   UNL     1      -1.340   7.440 -33.655  1.00  0.00    -0.191 NA
HETATM    7  C   UNL     1      -3.784   5.119 -34.640  1.00  0.00     0.023 A 
HETATM    8  C   UNL     1      -4.990   4.411 -34.662  1.00  0.00     0.013 A 
ENDROOT
BRANCH   1   9
HETATM    9  C   UNL     1      -7.256   3.950 -33.781  1.00  0.00     0.009 C 
HETATM   10  C   UNL     1      -8.087   3.902 -32.727  1.00  0.00     0.001 C 
BRANCH  10  11
HETATM   11  C   UNL     1      -9.372   3.148 -32.705  1.00  0.00     0.259 C 
BRANCH  11  12
HETATM   12  N   UNL     1      -9.111   1.683 -32.684  1.00  0.00    -0.071 N 
HETATM   13  H   UNL     1      -8.569   1.446 -33.528  1.00  0.00     0.277 HD
HETATM   14  H   UNL     1     -10.011   1.200 -32.795  1.00  0.00     0.277 HD
BRANCH  12  15
HETATM   15  C   UNL     1      -8.398   1.195 -31.457  1.00  0.00     0.242 C 
BRANCH  15  16
HETATM   16  C   UNL     1      -7.097   0.439 -31.804  1.00  0.00     0.055 C 
HETATM   17  C   UNL     1      -5.828   1.273 -31.740  1.00  0.00    -0.025 A 
HETATM   18  C   UNL     1      -5.650   2.320 -30.821  1.00  0.00     0.010 A 
HETATM   19  C   UNL     1      -4.734   0.898 -32.538  1.00  0.00     0.041 A 
HETATM   20  C   UNL     1      -4.436   3.010 -30.754  1.00  0.00     0.001 A 
HETATM   21  C   UNL     1      -3.376   2.645 -31.577  1.00  0.00     0.002 A 
HETATM   22  C   UNL     1      -3.518   1.578 -32.460  1.00  0.00     0.030 A 
HETATM   23  N   UNL     1      -4.827  -0.208 -33.384  1.00  0.00    -0.327 N 
HETATM   24  C   UNL     1      -5.976  -0.898 -33.637  1.00  0.00     0.222 C 
HETATM   25  H   UNL     1      -3.990  -0.580 -33.823  1.00  0.00     0.169 HD
HETATM   26  O   UNL     1      -5.984  -1.916 -34.321  1.00  0.00    -0.273 OA
HETATM   27  C   UNL     1      -7.248  -0.247 -33.165  1.00  0.00     0.114 C 
ENDBRANCH  15  16
ENDBRANCH  12  15
ENDBRANCH  11  12
ENDBRANCH  10  11
ENDBRANCH   1   9
TORSDOF 5
ENDMDL
MODEL 10
REMARK VINA RESULT:      -6.7     16.040     17.639
REMARK  5 active torsions:
REMARK  status: ('A' for Active; 'I' for Inactive)
REMARK    1  A    between atoms: C_9  and  C_10 
REMARK    2  A    between atoms: C_10  and  N_11 
REMARK    3  A    between atoms: N_11  and  C_14 
REMARK    4  A    between atoms: C_14  and  C_15 
REMARK    5  A    between atoms: C_16  and  C_17 
ROOT
HETATM    1  C   UNL     1      -7.076 -14.623 -37.878  1.00  0.00    -0.036 A 
HETATM    2  C   UNL     1      -7.439 -15.572 -38.843  1.00  0.00     0.013 A 
HETATM    3  C   UNL     1      -8.608 -15.408 -39.591  1.00  0.00     0.023 A 
HETATM    4  C   UNL     1      -9.428 -14.294 -39.380  1.00  0.00     0.044 A 
HETATM    5  C   UNL     1     -10.624 -14.121 -40.153  1.00  0.00     0.099 C 
HETATM    6  N   UNL     1     -11.589 -13.977 -40.781  1.00  0.00    -0.191 NA
HETATM    7  C   UNL     1      -9.074 -13.351 -38.411  1.00  0.00     0.023 A 
HETATM    8  C   UNL     1      -7.906 -13.517 -37.659  1.00  0.00     0.013 A 
ENDROOT
BRANCH   1   9
HETATM    9  C   UNL     1      -5.858 -14.778 -37.078  1.00  0.00     0.009 C 
HETATM   10  C   UNL     1      -5.289 -13.738 -36.447  1.00  0.00     0.001 C 
BRANCH  10  11
HETATM   11  C   UNL     1      -4.050 -13.831 -35.625  1.00  0.00     0.259 C 
BRANCH  11  12
HETATM   12  N   UNL     1      -2.845 -13.768 -36.497  1.00  0.00    -0.071 N 
HETATM   13  H   UNL     1      -2.703 -14.703 -36.908  1.00  0.00     0.277 HD
HETATM   14  H   UNL     1      -2.027 -13.608 -35.896  1.00  0.00     0.277 HD
BRANCH  12  15
HETATM   15  C   UNL     1      -2.915 -12.732 -37.581  1.00  0.00     0.242 C 
BRANCH  15  16
HETATM   16  C   UNL     1      -2.877 -13.363 -38.990  1.00  0.00     0.055 C 
HETATM   17  C   UNL     1      -4.159 -13.225 -39.794  1.00  0.00    -0.025 A 
HETATM   18  C   UNL     1      -5.007 -12.109 -39.693  1.00  0.00     0.010 A 
HETATM   19  C   UNL     1      -4.444 -14.185 -40.780  1.00  0.00     0.041 A 
HETATM   20  C   UNL     1      -6.137 -11.997 -40.508  1.00  0.00     0.001 A 
HETATM   21  C   UNL     1      -6.420 -12.976 -41.454  1.00  0.00     0.002 A 
HETATM   22  C   UNL     1      -5.565 -14.065 -41.603  1.00  0.00     0.030 A 
HETATM   23  N   UNL     1      -3.570 -15.253 -40.995  1.00  0.00    -0.327 N 
HETATM   24  C   UNL     1      -2.499 -15.551 -40.205  1.00  0.00     0.222 C 
HETATM   25  H   UNL     1      -3.683 -15.841 -41.815  1.00  0.00     0.169 HD
HETATM   26  O   UNL     1      -1.713 -16.447 -40.489  1.00  0.00    -0.273 OA
HETATM   27  C   UNL     1      -2.436 -14.826 -38.887  1.00  0.00     0.114 C 
ENDBRANCH  15  16
ENDBRANCH  12  15
ENDBRANCH  11  12
ENDBRANCH  10  11
ENDBRANCH   1   9
TORSDOF 5
ENDMDL
