MODEL 1
REMARK VINA RESULT:      -9.1      0.000      0.000
REMARK  7 active torsions:
REMARK  status: ('A' for Active; 'I' for Inactive)
REMARK    1  A    between atoms: C_3  and  C_4 
REMARK       I    between atoms: C_4  and  N_5 
REMARK    2  A    between atoms: C_8  and  N_9 
REMARK       I    between atoms: N_9  and  C_10 
REMARK    3  A    between atoms: C_10  and  C_11 
REMARK    4  A    between atoms: C_11  and  N_12 
REMARK       I    between atoms: N_15  and  C_16 
REMARK    5  A    between atoms: C_16  and  C_17 
REMARK    6  A    between atoms: C_32  and  C_33 
REMARK    7  A    between atoms: C_33  and  O_34 
ROOT
HETATM    1  C   UNL     1      -5.216   3.306 -31.724  1.00  0.00     0.375 C 
ENDROOT
BRANCH   1   2
HETATM    2  C   UNL     1      -5.692   1.869 -31.983  1.00  0.00     0.251 C 
HETATM    3  N   UNL     1      -5.204   1.366 -33.176  1.00  0.00    -0.319 N 
HETATM    4  H   UNL     1      -4.533   1.948 -33.667  1.00  0.00     0.169 HD
HETATM    5  O   UNL     1      -6.330   1.250 -31.138  1.00  0.00    -0.271 OA
BRANCH   3   6
HETATM    6  C   UNL     1      -5.301   0.047 -33.552  1.00  0.00     0.094 C 
HETATM    7  S   UNL     1      -3.830  -0.771 -33.342  1.00  0.00    -0.065 SA
HETATM    8  C   UNL     1      -4.548  -2.300 -33.634  1.00  0.00     0.081 C 
HETATM    9  C   UNL     1      -5.870  -2.161 -34.052  1.00  0.00    -0.020 C 
HETATM   10  C   UNL     1      -6.754  -3.299 -34.479  1.00  0.00     0.051 C 
HETATM   11  C   UNL     1      -6.304  -0.765 -34.039  1.00  0.00     0.080 C 
BRANCH   8  12
HETATM   12  C   UNL     1      -3.779  -3.529 -33.452  1.00  0.00     0.256 C 
HETATM   13  N   UNL     1      -3.188  -3.718 -32.233  1.00  0.00    -0.365 N 
HETATM   14  H   UNL     1      -3.280  -3.050 -31.482  1.00  0.00     0.159 HD
HETATM   15  H   UNL     1      -2.666  -4.570 -32.089  1.00  0.00     0.159 HD
HETATM   16  O   UNL     1      -3.632  -4.399 -34.306  1.00  0.00    -0.267 OA
ENDBRANCH   8  12
BRANCH  11  17
HETATM   17  C   UNL     1      -7.609  -0.298 -34.512  1.00  0.00     0.296 C 
HETATM   18  O   UNL     1      -7.796   0.159 -35.635  1.00  0.00    -0.259 OA
BRANCH  17  19
HETATM   19  O   UNL     1      -8.546  -0.292 -33.515  1.00  0.00    -0.322 OA
HETATM   20  C   UNL     1      -9.192   0.967 -33.341  1.00  0.00     0.213 C 
ENDBRANCH  17  19
ENDBRANCH  11  17
ENDBRANCH   3   6
ENDBRANCH   1   2
BRANCH   1  21
HETATM   21  N   UNL     1      -3.971   3.593 -32.472  1.00  0.00     0.100 N 
HETATM   22  C   UNL     1      -4.139   4.765 -33.368  1.00  0.00     0.293 C 
HETATM   23  C   UNL     1      -4.264   6.127 -32.655  1.00  0.00     0.156 C 
HETATM   24  N   UNL     1      -3.243   6.340 -31.625  1.00  0.00    -0.344 N 
HETATM   25  C   UNL     1      -2.987   7.669 -31.247  1.00  0.00     0.262 C 
HETATM   26  C   UNL     1      -2.928   5.185 -30.777  1.00  0.00     0.156 C 
HETATM   27  O   UNL     1      -3.482   8.611 -31.866  1.00  0.00    -0.267 OA
HETATM   28  C   UNL     1      -2.839   3.865 -31.564  1.00  0.00     0.293 C 
BRANCH  25  29
HETATM   29  C   UNL     1      -2.092   7.897 -30.134  1.00  0.00     0.096 A 
HETATM   30  S   UNL     1      -2.673   8.618 -28.704  1.00  0.00    -0.082 SA
HETATM   31  C   UNL     1      -1.120   8.577 -27.961  1.00  0.00     0.019 A 
HETATM   32  C   UNL     1      -0.149   8.063 -28.828  1.00  0.00     0.004 A 
HETATM   33  C   UNL     1      -0.800   9.002 -26.655  1.00  0.00     0.043 A 
HETATM   34  C   UNL     1      -0.734   7.681 -30.087  1.00  0.00     0.068 A 
HETATM   35  C   UNL     1       1.190   7.999 -28.358  1.00  0.00     0.016 A 
HETATM   36 CL   UNL     1       0.191   7.006 -31.368  1.00  0.00    -0.082 Cl
HETATM   37  C   UNL     1       1.515   8.425 -27.066  1.00  0.00     0.025 A 
HETATM   38  C   UNL     1       0.525   8.913 -26.228  1.00  0.00     0.035 A 
HETATM   39 CL   UNL     1       0.935   9.422 -24.635  1.00  0.00    -0.084 Cl
ENDBRANCH  25  29
ENDBRANCH   1  21
TORSDOF 7
ENDMDL
MODEL 2
REMARK VINA RESULT:      -8.8      2.796      4.333
REMARK  7 active torsions:
REMARK  status: ('A' for Active; 'I' for Inactive)
REMARK    1  A    between atoms: C_3  and  C_4 
REMARK       I    between atoms: C_4  and  N_5 
REMARK    2  A    between atoms: C_8  and  N_9 
REMARK       I    between atoms: N_9  and  C_10 
REMARK    3  A    between atoms: C_10  and  C_11 
REMARK    4  A    between atoms: C_11  and  N_12 
REMARK       I    between atoms: N_15  and  C_16 
REMARK    5  A    between atoms: C_16  and  C_17 
REMARK    6  A    between atoms: C_32  and  C_33 
REMARK    7  A    between atoms: C_33  and  O_34 
ROOT
HETATM    1  C   UNL     1      -6.072   5.267 -33.482  1.00  0.00     0.375 C 
ENDROOT
BRANCH   1   2
HETATM    2  C   UNL     1      -7.299   4.515 -32.946  1.00  0.00     0.251 C 
HETATM    3  N   UNL     1      -7.833   3.653 -33.887  1.00  0.00    -0.319 N 
HETATM    4  H   UNL     1      -7.311   3.551 -34.750  1.00  0.00     0.169 HD
HETATM    5  O   UNL     1      -7.643   4.617 -31.772  1.00  0.00    -0.271 OA
BRANCH   3   6
HETATM    6  C   UNL     1      -8.798   2.712 -33.609  1.00  0.00     0.094 C 
HETATM    7  S   UNL     1     -10.345   3.265 -34.027  1.00  0.00    -0.065 SA
HETATM    8  C   UNL     1     -11.048   1.720 -33.788  1.00  0.00     0.081 C 
HETATM    9  C   UNL     1     -10.128   0.832 -33.233  1.00  0.00    -0.020 C 
HETATM   10  C   UNL     1     -10.448  -0.575 -32.813  1.00  0.00     0.051 C 
HETATM   11  C   UNL     1      -8.803   1.434 -33.091  1.00  0.00     0.080 C 
BRANCH   8  12
HETATM   12  C   UNL     1     -12.444   1.476 -34.142  1.00  0.00     0.256 C 
HETATM   13  N   UNL     1     -13.356   1.492 -33.123  1.00  0.00    -0.365 N 
HETATM   14  H   UNL     1     -13.090   1.673 -32.166  1.00  0.00     0.159 HD
HETATM   15  H   UNL     1     -14.327   1.341 -33.357  1.00  0.00     0.159 HD
HETATM   16  O   UNL     1     -12.854   1.266 -35.281  1.00  0.00    -0.267 OA
ENDBRANCH   8  12
BRANCH  11  17
HETATM   17  C   UNL     1      -7.659   0.778 -32.458  1.00  0.00     0.296 C 
HETATM   18  O   UNL     1      -7.639   0.449 -31.276  1.00  0.00    -0.259 OA
BRANCH  17  19
HETATM   19  O   UNL     1      -6.574   0.716 -33.290  1.00  0.00    -0.322 OA
HETATM   20  C   UNL     1      -6.659  -0.317 -34.269  1.00  0.00     0.213 C 
ENDBRANCH  17  19
ENDBRANCH  11  17
ENDBRANCH   3   6
ENDBRANCH   1   2
BRANCH   1  21
HETATM   21  N   UNL     1      -4.871   4.403 -33.458  1.00  0.00     0.100 N 
HETATM   22  C   UNL     1      -3.875   4.837 -34.469  1.00  0.00     0.293 C 
HETATM   23  C   UNL     1      -3.167   6.174 -34.166  1.00  0.00     0.156 C 
HETATM   24  N   UNL     1      -2.661   6.266 -32.793  1.00  0.00    -0.344 N 
HETATM   25  C   UNL     1      -1.644   7.204 -32.552  1.00  0.00     0.262 C 
HETATM   26  C   UNL     1      -3.539   5.738 -31.743  1.00  0.00     0.156 C 
HETATM   27  O   UNL     1      -1.098   7.802 -33.479  1.00  0.00    -0.267 OA
HETATM   28  C   UNL     1      -4.218   4.413 -32.134  1.00  0.00     0.293 C 
BRANCH  25  29
HETATM   29  C   UNL     1      -1.230   7.417 -31.182  1.00  0.00     0.096 A 
HETATM   30  S   UNL     1      -1.899   8.695 -30.276  1.00  0.00    -0.082 SA
HETATM   31  C   UNL     1      -0.939   8.321 -28.895  1.00  0.00     0.019 A 
HETATM   32  C   UNL     1      -0.069   7.254 -29.149  1.00  0.00     0.004 A 
HETATM   33  C   UNL     1      -0.970   8.973 -27.646  1.00  0.00     0.043 A 
HETATM   34  C   UNL     1      -0.249   6.749 -30.485  1.00  0.00     0.068 A 
HETATM   35  C   UNL     1       0.809   6.855 -28.106  1.00  0.00     0.016 A 
HETATM   36 CL   UNL     1       0.664   5.433 -31.106  1.00  0.00    -0.082 Cl
HETATM   37  C   UNL     1       0.787   7.502 -26.866  1.00  0.00     0.025 A 
HETATM   38  C   UNL     1      -0.099   8.545 -26.644  1.00  0.00     0.035 A 
HETATM   39 CL   UNL     1      -0.126   9.325 -25.110  1.00  0.00    -0.084 Cl
ENDBRANCH  25  29
ENDBRANCH   1  21
TORSDOF 7
ENDMDL
MODEL 3
REMARK VINA RESULT:      -8.5      3.054      4.967
REMARK  7 active torsions:
REMARK  status: ('A' for Active; 'I' for Inactive)
REMARK    1  A    between atoms: C_3  and  C_4 
REMARK       I    between atoms: C_4  and  N_5 
REMARK    2  A    between atoms: C_8  and  N_9 
REMARK       I    between atoms: N_9  and  C_10 
REMARK    3  A    between atoms: C_10  and  C_11 
REMARK    4  A    between atoms: C_11  and  N_12 
REMARK       I    between atoms: N_15  and  C_16 
REMARK    5  A    between atoms: C_16  and  C_17 
REMARK    6  A    between atoms: C_32  and  C_33 
REMARK    7  A    between atoms: C_33  and  O_34 
ROOT
HETATM    1  C   UNL     1      -6.288   5.224 -32.340  1.00  0.00     0.375 C 
ENDROOT
BRANCH   1   2
HETATM    2  C   UNL     1      -7.463   4.532 -33.045  1.00  0.00     0.251 C 
HETATM    3  N   UNL     1      -8.177   3.715 -32.188  1.00  0.00    -0.319 N 
HETATM    4  H   UNL     1      -7.909   3.747 -31.210  1.00  0.00     0.169 HD
HETATM    5  O   UNL     1      -7.758   4.807 -34.205  1.00  0.00    -0.271 OA
BRANCH   3   6
HETATM    6  C   UNL     1      -9.389   3.143 -32.499  1.00  0.00     0.094 C 
HETATM    7  S   UNL     1     -10.682   4.049 -31.880  1.00  0.00    -0.065 SA
HETATM    8  C   UNL     1     -11.841   3.140 -32.757  1.00  0.00     0.081 C 
HETATM    9  C   UNL     1     -11.249   2.047 -33.387  1.00  0.00    -0.020 C 
HETATM   10  C   UNL     1     -11.998   0.998 -34.158  1.00  0.00     0.051 C 
HETATM   11  C   UNL     1      -9.798   2.029 -33.201  1.00  0.00     0.080 C 
BRANCH   8  12
HETATM   12  C   UNL     1     -13.247   3.539 -32.764  1.00  0.00     0.256 C 
HETATM   13  N   UNL     1     -13.673   4.297 -33.819  1.00  0.00    -0.365 N 
HETATM   14  H   UNL     1     -13.056   4.568 -34.570  1.00  0.00     0.159 HD
HETATM   15  H   UNL     1     -14.646   4.566 -33.843  1.00  0.00     0.159 HD
HETATM   16  O   UNL     1     -14.067   3.237 -31.900  1.00  0.00    -0.267 OA
ENDBRANCH   8  12
BRANCH  11  17
HETATM   17  C   UNL     1      -8.917   0.958 -33.668  1.00  0.00     0.296 C 
HETATM   18  O   UNL     1      -8.931  -0.178 -33.204  1.00  0.00    -0.259 OA
BRANCH  17  19
HETATM   19  O   UNL     1      -7.986   1.409 -34.564  1.00  0.00    -0.322 OA
HETATM   20  C   UNL     1      -7.348   0.370 -35.303  1.00  0.00     0.213 C 
ENDBRANCH  17  19
ENDBRANCH  11  17
ENDBRANCH   3   6
ENDBRANCH   1   2
BRANCH   1  21
HETATM   21  N   UNL     1      -5.046   4.431 -32.483  1.00  0.00     0.100 N 
HETATM   22  C   UNL     1      -4.211   4.935 -33.603  1.00  0.00     0.293 C 
HETATM   23  C   UNL     1      -3.548   6.307 -33.366  1.00  0.00     0.156 C 
HETATM   24  N   UNL     1      -2.879   6.413 -32.066  1.00  0.00    -0.344 N 
HETATM   25  C   UNL     1      -1.894   7.407 -31.936  1.00  0.00     0.262 C 
HETATM   26  C   UNL     1      -3.586   5.822 -30.924  1.00  0.00     0.156 C 
HETATM   27  O   UNL     1      -1.505   8.046 -32.912  1.00  0.00    -0.267 OA
HETATM   28  C   UNL     1      -4.232   4.465 -31.251  1.00  0.00     0.293 C 
BRANCH  25  29
HETATM   29  C   UNL     1      -1.324   7.628 -30.626  1.00  0.00     0.096 A 
HETATM   30  S   UNL     1      -1.911   8.885 -29.638  1.00  0.00    -0.082 SA
HETATM   31  C   UNL     1      -0.782   8.534 -28.385  1.00  0.00     0.019 A 
HETATM   32  C   UNL     1       0.078   7.491 -28.748  1.00  0.00     0.004 A 
HETATM   33  C   UNL     1      -0.679   9.183 -27.138  1.00  0.00     0.043 A 
HETATM   34  C   UNL     1      -0.249   6.984 -30.056  1.00  0.00     0.068 A 
HETATM   35  C   UNL     1       1.086   7.113 -27.821  1.00  0.00     0.016 A 
HETATM   36 CL   UNL     1       0.617   5.694 -30.788  1.00  0.00    -0.082 Cl
HETATM   37  C   UNL     1       1.197   7.757 -26.584  1.00  0.00     0.025 A 
HETATM   38  C   UNL     1       0.317   8.775 -26.251  1.00  0.00     0.035 A 
HETATM   39 CL   UNL     1       0.456   9.551 -24.721  1.00  0.00    -0.084 Cl
ENDBRANCH  25  29
ENDBRANCH   1  21
TORSDOF 7
ENDMDL
MODEL 4
REMARK VINA RESULT:      -8.2      4.104     11.070
REMARK  7 active torsions:
REMARK  status: ('A' for Active; 'I' for Inactive)
REMARK    1  A    between atoms: C_3  and  C_4 
REMARK       I    between atoms: C_4  and  N_5 
REMARK    2  A    between atoms: C_8  and  N_9 
REMARK       I    between atoms: N_9  and  C_10 
REMARK    3  A    between atoms: C_10  and  C_11 
REMARK    4  A    between atoms: C_11  and  N_12 
REMARK       I    between atoms: N_15  and  C_16 
REMARK    5  A    between atoms: C_16  and  C_17 
REMARK    6  A    between atoms: C_32  and  C_33 
REMARK    7  A    between atoms: C_33  and  O_34 
ROOT
HETATM    1  C   UNL     1      -4.301   5.853 -31.966  1.00  0.00     0.375 C 
ENDROOT
BRANCH   1   2
HETATM    2  C   UNL     1      -3.264   6.906 -31.549  1.00  0.00     0.251 C 
HETATM    3  N   UNL     1      -3.051   6.913 -30.182  1.00  0.00    -0.319 N 
HETATM    4  H   UNL     1      -3.513   6.182 -29.652  1.00  0.00     0.169 HD
HETATM    5  O   UNL     1      -2.643   7.551 -32.388  1.00  0.00    -0.271 OA
BRANCH   3   6
HETATM    6  C   UNL     1      -2.034   7.604 -29.566  1.00  0.00     0.094 C 
HETATM    7  S   UNL     1      -2.625   8.920 -28.675  1.00  0.00    -0.065 SA
HETATM    8  C   UNL     1      -1.106   9.201 -27.932  1.00  0.00     0.081 C 
HETATM    9  C   UNL     1      -0.118   8.394 -28.492  1.00  0.00    -0.020 C 
HETATM   10  C   UNL     1       1.340   8.458 -28.134  1.00  0.00     0.051 C 
HETATM   11  C   UNL     1      -0.663   7.473 -29.489  1.00  0.00     0.080 C 
BRANCH   8  12
HETATM   12  C   UNL     1      -0.972  10.193 -26.868  1.00  0.00     0.256 C 
HETATM   13  N   UNL     1      -1.802  10.063 -25.788  1.00  0.00    -0.365 N 
HETATM   14  H   UNL     1      -2.475   9.314 -25.715  1.00  0.00     0.159 HD
HETATM   15  H   UNL     1      -1.708  10.733 -25.039  1.00  0.00     0.159 HD
HETATM   16  O   UNL     1      -0.169  11.122 -26.871  1.00  0.00    -0.267 OA
ENDBRANCH   8  12
BRANCH  11  17
HETATM   17  C   UNL     1       0.143   6.568 -30.310  1.00  0.00     0.296 C 
HETATM   18  O   UNL     1       0.849   6.948 -31.239  1.00  0.00    -0.259 OA
BRANCH  17  19
HETATM   19  O   UNL     1      -0.099   5.253 -30.018  1.00  0.00    -0.322 OA
HETATM   20  C   UNL     1       1.023   4.572 -29.462  1.00  0.00     0.213 C 
ENDBRANCH  17  19
ENDBRANCH  11  17
ENDBRANCH   3   6
ENDBRANCH   1   2
BRANCH   1  21
HETATM   21  N   UNL     1      -4.721   5.036 -30.805  1.00  0.00     0.100 N 
HETATM   22  C   UNL     1      -6.200   4.997 -30.680  1.00  0.00     0.293 C 
HETATM   23  C   UNL     1      -6.933   4.189 -31.771  1.00  0.00     0.156 C 
HETATM   24  N   UNL     1      -6.346   2.865 -32.007  1.00  0.00    -0.344 N 
HETATM   25  C   UNL     1      -7.168   1.905 -32.620  1.00  0.00     0.262 C 
HETATM   26  C   UNL     1      -4.881   2.799 -32.017  1.00  0.00     0.156 C 
HETATM   27  O   UNL     1      -8.366   2.118 -32.802  1.00  0.00    -0.267 OA
HETATM   28  C   UNL     1      -4.231   3.647 -30.910  1.00  0.00     0.293 C 
BRANCH  25  29
HETATM   29  C   UNL     1      -6.571   0.642 -32.995  1.00  0.00     0.096 A 
HETATM   30  S   UNL     1      -5.296  -0.008 -32.072  1.00  0.00    -0.082 SA
HETATM   31  C   UNL     1      -5.139  -1.374 -33.109  1.00  0.00     0.019 A 
HETATM   32  C   UNL     1      -6.025  -1.302 -34.190  1.00  0.00     0.004 A 
HETATM   33  C   UNL     1      -4.245  -2.453 -32.951  1.00  0.00     0.043 A 
HETATM   34  C   UNL     1      -6.842  -0.120 -34.109  1.00  0.00     0.068 A 
HETATM   35  C   UNL     1      -5.984  -2.349 -35.149  1.00  0.00     0.016 A 
HETATM   36 CL   UNL     1      -8.038   0.258 -35.282  1.00  0.00    -0.082 Cl
HETATM   37  C   UNL     1      -5.096  -3.420 -35.001  1.00  0.00     0.025 A 
HETATM   38  C   UNL     1      -4.244  -3.468 -33.909  1.00  0.00     0.035 A 
HETATM   39 CL   UNL     1      -3.164  -4.797 -33.730  1.00  0.00    -0.084 Cl
ENDBRANCH  25  29
ENDBRANCH   1  21
TORSDOF 7
ENDMDL
MODEL 5
REMARK VINA RESULT:      -8.1      5.659      9.706
REMARK  7 active torsions:
REMARK  status: ('A' for Active; 'I' for Inactive)
REMARK    1  A    between atoms: C_3  and  C_4 
REMARK       I    between atoms: C_4  and  N_5 
REMARK    2  A    between atoms: C_8  and  N_9 
REMARK       I    between atoms: N_9  and  C_10 
REMARK    3  A    between atoms: C_10  and  C_11 
REMARK    4  A    between atoms: C_11  and  N_12 
REMARK       I    between atoms: N_15  and  C_16 
REMARK    5  A    between atoms: C_16  and  C_17 
REMARK    6  A    between atoms: C_32  and  C_33 
REMARK    7  A    between atoms: C_33  and  O_34 
ROOT
HETATM    1  C   UNL     1      -8.942   5.246 -32.052  1.00  0.00     0.375 C 
ENDROOT
BRANCH   1   2
HETATM    2  C   UNL     1     -10.261   4.845 -32.728  1.00  0.00     0.251 C 
HETATM    3  N   UNL     1     -10.834   3.734 -32.134  1.00  0.00    -0.319 N 
HETATM    4  H   UNL     1     -10.382   3.392 -31.293  1.00  0.00     0.169 HD
HETATM    5  O   UNL     1     -10.760   5.540 -33.608  1.00  0.00    -0.271 OA
BRANCH   3   6
HETATM    6  C   UNL     1     -12.108   3.290 -32.402  1.00  0.00     0.094 C 
HETATM    7  S   UNL     1     -12.104   2.038 -33.545  1.00  0.00    -0.065 SA
HETATM    8  C   UNL     1     -13.761   1.687 -33.283  1.00  0.00     0.081 C 
HETATM    9  C   UNL     1     -14.347   2.633 -32.445  1.00  0.00    -0.020 C 
HETATM   10  C   UNL     1     -15.807   2.671 -32.090  1.00  0.00     0.051 C 
HETATM   11  C   UNL     1     -13.373   3.607 -31.954  1.00  0.00     0.080 C 
BRANCH   8  12
HETATM   12  C   UNL     1     -14.383   0.526 -33.916  1.00  0.00     0.256 C 
HETATM   13  N   UNL     1     -13.957  -0.708 -33.509  1.00  0.00    -0.365 N 
HETATM   14  H   UNL     1     -13.251  -0.825 -32.798  1.00  0.00     0.159 HD
HETATM   15  H   UNL     1     -14.391  -1.518 -33.928  1.00  0.00     0.159 HD
HETATM   16  O   UNL     1     -15.260   0.581 -34.775  1.00  0.00    -0.267 OA
ENDBRANCH   8  12
BRANCH  11  17
HETATM   17  C   UNL     1     -13.708   4.770 -31.131  1.00  0.00     0.296 C 
HETATM   18  O   UNL     1     -13.680   4.759 -29.904  1.00  0.00    -0.259 OA
BRANCH  17  19
HETATM   19  O   UNL     1     -14.194   5.809 -31.878  1.00  0.00    -0.322 OA
HETATM   20  C   UNL     1     -13.407   6.995 -31.795  1.00  0.00     0.213 C 
ENDBRANCH  17  19
ENDBRANCH  11  17
ENDBRANCH   3   6
ENDBRANCH   1   2
BRANCH   1  21
HETATM   21  N   UNL     1      -7.858   5.383 -33.050  1.00  0.00     0.100 N 
HETATM   22  C   UNL     1      -6.552   5.649 -32.395  1.00  0.00     0.293 C 
HETATM   23  C   UNL     1      -5.955   4.463 -31.610  1.00  0.00     0.156 C 
HETATM   24  N   UNL     1      -5.968   3.203 -32.360  1.00  0.00    -0.344 N 
HETATM   25  C   UNL     1      -5.073   2.204 -31.943  1.00  0.00     0.262 C 
HETATM   26  C   UNL     1      -7.180   2.928 -33.140  1.00  0.00     0.156 C 
HETATM   27  O   UNL     1      -4.213   2.437 -31.094  1.00  0.00    -0.267 OA
HETATM   28  C   UNL     1      -7.719   4.167 -33.876  1.00  0.00     0.293 C 
BRANCH  25  29
HETATM   29  C   UNL     1      -5.167   0.905 -32.571  1.00  0.00     0.096 A 
HETATM   30  S   UNL     1      -6.568   0.474 -33.438  1.00  0.00    -0.082 SA
HETATM   31  C   UNL     1      -5.956  -1.095 -33.799  1.00  0.00     0.019 A 
HETATM   32  C   UNL     1      -4.705  -1.306 -33.209  1.00  0.00     0.004 A 
HETATM   33  C   UNL     1      -6.589  -2.088 -34.574  1.00  0.00     0.043 A 
HETATM   34  C   UNL     1      -4.268  -0.135 -32.494  1.00  0.00     0.068 A 
HETATM   35  C   UNL     1      -4.091  -2.573 -33.396  1.00  0.00     0.016 A 
HETATM   36 CL   UNL     1      -2.766  -0.066 -31.664  1.00  0.00    -0.082 Cl
HETATM   37  C   UNL     1      -4.716  -3.565 -34.159  1.00  0.00     0.025 A 
HETATM   38  C   UNL     1      -5.948  -3.316 -34.743  1.00  0.00     0.035 A 
HETATM   39 CL   UNL     1      -6.703  -4.540 -35.690  1.00  0.00    -0.084 Cl
ENDBRANCH  25  29
ENDBRANCH   1  21
TORSDOF 7
ENDMDL
MODEL 6
REMARK VINA RESULT:      -8.0      2.571      2.829
REMARK  7 active torsions:
REMARK  status: ('A' for Active; 'I' for Inactive)
REMARK    1  A    between atoms: C_3  and  C_4 
REMARK       I    between atoms: C_4  and  N_5 
REMARK    2  A    between atoms: C_8  and  N_9 
REMARK       I    between atoms: N_9  and  C_10 
REMARK    3  A    between atoms: C_10  and  C_11 
REMARK    4  A    between atoms: C_11  and  N_12 
REMARK       I    between atoms: N_15  and  C_16 
REMARK    5  A    between atoms: C_16  and  C_17 
REMARK    6  A    between atoms: C_32  and  C_33 
REMARK    7  A    between atoms: C_33  and  O_34 
ROOT
HETATM    1  C   UNL     1      -7.221   4.548 -32.571  1.00  0.00     0.375 C 
ENDROOT
BRANCH   1   2
HETATM    2  C   UNL     1      -6.360   3.445 -33.202  1.00  0.00     0.251 C 
HETATM    3  N   UNL     1      -6.234   2.345 -32.373  1.00  0.00    -0.319 N 
HETATM    4  H   UNL     1      -6.787   2.358 -31.523  1.00  0.00     0.169 HD
HETATM    5  O   UNL     1      -5.960   3.536 -34.359  1.00  0.00    -0.271 OA
BRANCH   3   6
HETATM    6  C   UNL     1      -5.696   1.141 -32.767  1.00  0.00     0.094 C 
HETATM    7  S   UNL     1      -4.246   0.810 -31.955  1.00  0.00    -0.065 SA
HETATM    8  C   UNL     1      -4.192  -0.800 -32.541  1.00  0.00     0.081 C 
HETATM    9  C   UNL     1      -5.193  -1.022 -33.485  1.00  0.00    -0.020 C 
HETATM   10  C   UNL     1      -5.366  -2.297 -34.262  1.00  0.00     0.051 C 
HETATM   11  C   UNL     1      -6.062   0.143 -33.646  1.00  0.00     0.080 C 
BRANCH   8  12
HETATM   12  C   UNL     1      -3.177  -1.733 -32.059  1.00  0.00     0.256 C 
HETATM   13  N   UNL     1      -2.034  -1.193 -31.537  1.00  0.00    -0.365 N 
HETATM   14  H   UNL     1      -1.890  -0.196 -31.475  1.00  0.00     0.159 HD
HETATM   15  H   UNL     1      -1.331  -1.827 -31.186  1.00  0.00     0.159 HD
HETATM   16  O   UNL     1      -3.280  -2.957 -32.082  1.00  0.00    -0.267 OA
ENDBRANCH   8  12
BRANCH  11  17
HETATM   17  C   UNL     1      -7.143   0.241 -34.628  1.00  0.00     0.296 C 
HETATM   18  O   UNL     1      -6.977   0.640 -35.777  1.00  0.00    -0.259 OA
BRANCH  17  19
HETATM   19  O   UNL     1      -8.368  -0.017 -34.075  1.00  0.00    -0.322 OA
HETATM   20  C   UNL     1      -9.265   1.090 -34.124  1.00  0.00     0.213 C 
ENDBRANCH  17  19
ENDBRANCH  11  17
ENDBRANCH   3   6
ENDBRANCH   1   2
BRANCH   1  21
HETATM   21  N   UNL     1      -6.784   5.886 -33.030  1.00  0.00     0.100 N 
HETATM   22  C   UNL     1      -7.642   6.957 -32.463  1.00  0.00     0.293 C 
HETATM   23  C   UNL     1      -7.479   7.200 -30.949  1.00  0.00     0.156 C 
HETATM   24  N   UNL     1      -6.080   7.309 -30.524  1.00  0.00    -0.344 N 
HETATM   25  C   UNL     1      -5.834   7.959 -29.304  1.00  0.00     0.262 C 
HETATM   26  C   UNL     1      -5.142   6.363 -31.139  1.00  0.00     0.156 C 
HETATM   27  O   UNL     1      -6.734   8.546 -28.704  1.00  0.00    -0.267 OA
HETATM   28  C   UNL     1      -5.385   6.165 -32.646  1.00  0.00     0.293 C 
BRANCH  25  29
HETATM   29  C   UNL     1      -4.481   7.951 -28.793  1.00  0.00     0.096 A 
HETATM   30  S   UNL     1      -3.293   8.943 -29.503  1.00  0.00    -0.082 SA
HETATM   31  C   UNL     1      -2.065   8.367 -28.441  1.00  0.00     0.019 A 
HETATM   32  C   UNL     1      -2.554   7.376 -27.582  1.00  0.00     0.004 A 
HETATM   33  C   UNL     1      -0.721   8.789 -28.400  1.00  0.00     0.043 A 
HETATM   34  C   UNL     1      -3.957   7.145 -27.808  1.00  0.00     0.068 A 
HETATM   35  C   UNL     1      -1.641   6.784 -26.668  1.00  0.00     0.016 A 
HETATM   36 CL   UNL     1      -4.860   5.993 -26.907  1.00  0.00    -0.082 Cl
HETATM   37  C   UNL     1      -0.305   7.195 -26.626  1.00  0.00     0.025 A 
HETATM   38  C   UNL     1       0.142   8.191 -27.481  1.00  0.00     0.035 A 
HETATM   39 CL   UNL     1       1.786   8.697 -27.411  1.00  0.00    -0.084 Cl
ENDBRANCH  25  29
ENDBRANCH   1  21
TORSDOF 7
ENDMDL
MODEL 7
REMARK VINA RESULT:      -7.9      2.175      3.050
REMARK  7 active torsions:
REMARK  status: ('A' for Active; 'I' for Inactive)
REMARK    1  A    between atoms: C_3  and  C_4 
REMARK       I    between atoms: C_4  and  N_5 
REMARK    2  A    between atoms: C_8  and  N_9 
REMARK       I    between atoms: N_9  and  C_10 
REMARK    3  A    between atoms: C_10  and  C_11 
REMARK    4  A    between atoms: C_11  and  N_12 
REMARK       I    between atoms: N_15  and  C_16 
REMARK    5  A    between atoms: C_16  and  C_17 
REMARK    6  A    between atoms: C_32  and  C_33 
REMARK    7  A    between atoms: C_33  and  O_34 
ROOT
HETATM    1  C   UNL     1      -7.499   2.861 -32.424  1.00  0.00     0.375 C 
ENDROOT
BRANCH   1   2
HETATM    2  C   UNL     1      -7.378   1.331 -32.448  1.00  0.00     0.251 C 
HETATM    3  N   UNL     1      -6.437   0.898 -33.365  1.00  0.00    -0.319 N 
HETATM    4  H   UNL     1      -5.889   1.619 -33.820  1.00  0.00     0.169 HD
HETATM    5  O   UNL     1      -7.984   0.634 -31.641  1.00  0.00    -0.271 OA
BRANCH   3   6
HETATM    6  C   UNL     1      -5.981  -0.398 -33.445  1.00  0.00     0.094 C 
HETATM    7  S   UNL     1      -7.116  -1.412 -34.191  1.00  0.00    -0.065 SA
HETATM    8  C   UNL     1      -6.000  -2.709 -34.304  1.00  0.00     0.081 C 
HETATM    9  C   UNL     1      -4.820  -2.415 -33.623  1.00  0.00    -0.020 C 
HETATM   10  C   UNL     1      -3.676  -3.373 -33.447  1.00  0.00     0.051 C 
HETATM   11  C   UNL     1      -4.825  -1.057 -33.081  1.00  0.00     0.080 C 
BRANCH   8  12
HETATM   12  C   UNL     1      -6.348  -3.928 -35.032  1.00  0.00     0.256 C 
HETATM   13  N   UNL     1      -7.332  -4.713 -34.495  1.00  0.00    -0.365 N 
HETATM   14  H   UNL     1      -7.809  -4.467 -33.641  1.00  0.00     0.159 HD
HETATM   15  H   UNL     1      -7.592  -5.549 -34.997  1.00  0.00     0.159 HD
HETATM   16  O   UNL     1      -5.830  -4.289 -36.085  1.00  0.00    -0.267 OA
ENDBRANCH   8  12
BRANCH  11  17
HETATM   17  C   UNL     1      -3.765  -0.496 -32.242  1.00  0.00     0.296 C 
HETATM   18  O   UNL     1      -2.570  -0.670 -32.459  1.00  0.00    -0.259 OA
BRANCH  17  19
HETATM   19  O   UNL     1      -4.261   0.108 -31.119  1.00  0.00    -0.322 OA
HETATM   20  C   UNL     1      -3.692   1.389 -30.857  1.00  0.00     0.213 C 
ENDBRANCH  17  19
ENDBRANCH  11  17
ENDBRANCH   3   6
ENDBRANCH   1   2
BRANCH   1  21
HETATM   21  N   UNL     1      -6.673   3.473 -33.489  1.00  0.00     0.100 N 
HETATM   22  C   UNL     1      -7.163   4.830 -33.839  1.00  0.00     0.293 C 
HETATM   23  C   UNL     1      -6.936   5.911 -32.761  1.00  0.00     0.156 C 
HETATM   24  N   UNL     1      -5.572   5.920 -32.225  1.00  0.00    -0.344 N 
HETATM   25  C   UNL     1      -5.140   7.103 -31.602  1.00  0.00     0.262 C 
HETATM   26  C   UNL     1      -4.967   4.607 -31.972  1.00  0.00     0.156 C 
HETATM   27  O   UNL     1      -5.818   8.128 -31.649  1.00  0.00    -0.267 OA
HETATM   28  C   UNL     1      -5.257   3.585 -33.084  1.00  0.00     0.293 C 
BRANCH  25  29
HETATM   29  C   UNL     1      -3.856   7.090 -30.938  1.00  0.00     0.096 A 
HETATM   30  S   UNL     1      -3.772   7.130 -29.237  1.00  0.00    -0.082 SA
HETATM   31  C   UNL     1      -2.049   7.129 -29.245  1.00  0.00     0.019 A 
HETATM   32  C   UNL     1      -1.542   7.153 -30.549  1.00  0.00     0.004 A 
HETATM   33  C   UNL     1      -1.202   7.117 -28.118  1.00  0.00     0.043 A 
HETATM   34  C   UNL     1      -2.608   7.138 -31.517  1.00  0.00     0.068 A 
HETATM   35  C   UNL     1      -0.131   7.188 -30.709  1.00  0.00     0.016 A 
HETATM   36 CL   UNL     1      -2.317   7.153 -33.210  1.00  0.00    -0.082 Cl
HETATM   37  C   UNL     1       0.715   7.181 -29.594  1.00  0.00     0.025 A 
HETATM   38  C   UNL     1       0.178   7.140 -28.317  1.00  0.00     0.035 A 
HETATM   39 CL   UNL     1       1.229   7.120 -26.954  1.00  0.00    -0.084 Cl
ENDBRANCH  25  29
ENDBRANCH   1  21
TORSDOF 7
ENDMDL
MODEL 8
REMARK VINA RESULT:      -7.8      4.031      5.404
REMARK  7 active torsions:
REMARK  status: ('A' for Active; 'I' for Inactive)
REMARK    1  A    between atoms: C_3  and  C_4 
REMARK       I    between atoms: C_4  and  N_5 
REMARK    2  A    between atoms: C_8  and  N_9 
REMARK       I    between atoms: N_9  and  C_10 
REMARK    3  A    between atoms: C_10  and  C_11 
REMARK    4  A    between atoms: C_11  and  N_12 
REMARK       I    between atoms: N_15  and  C_16 
REMARK    5  A    between atoms: C_16  and  C_17 
REMARK    6  A    between atoms: C_32  and  C_33 
REMARK    7  A    between atoms: C_33  and  O_34 
ROOT
HETATM    1  C   UNL     1      -6.056   4.757 -32.465  1.00  0.00     0.375 C 
ENDROOT
BRANCH   1   2
HETATM    2  C   UNL     1      -7.135   4.068 -33.313  1.00  0.00     0.251 C 
HETATM    3  N   UNL     1      -8.410   4.483 -32.970  1.00  0.00    -0.319 N 
HETATM    4  H   UNL     1      -8.470   5.237 -32.295  1.00  0.00     0.169 HD
HETATM    5  O   UNL     1      -6.834   3.338 -34.252  1.00  0.00    -0.271 OA
BRANCH   3   6
HETATM    6  C   UNL     1      -9.538   4.188 -33.700  1.00  0.00     0.094 C 
HETATM    7  S   UNL     1     -10.000   2.568 -33.505  1.00  0.00    -0.065 SA
HETATM    8  C   UNL     1     -11.496   2.817 -34.304  1.00  0.00     0.081 C 
HETATM    9  C   UNL     1     -11.561   4.093 -34.859  1.00  0.00    -0.020 C 
HETATM   10  C   UNL     1     -12.696   4.599 -35.705  1.00  0.00     0.051 C 
HETATM   11  C   UNL     1     -10.381   4.893 -34.533  1.00  0.00     0.080 C 
BRANCH   8  12
HETATM   12  C   UNL     1     -12.499   1.755 -34.350  1.00  0.00     0.256 C 
HETATM   13  N   UNL     1     -13.013   1.333 -33.155  1.00  0.00    -0.365 N 
HETATM   14  H   UNL     1     -12.727   1.734 -32.275  1.00  0.00     0.159 HD
HETATM   15  H   UNL     1     -13.718   0.610 -33.175  1.00  0.00     0.159 HD
HETATM   16  O   UNL     1     -12.915   1.226 -35.377  1.00  0.00    -0.267 OA
ENDBRANCH   8  12
BRANCH  11  17
HETATM   17  C   UNL     1     -10.124   6.238 -35.049  1.00  0.00     0.296 C 
HETATM   18  O   UNL     1      -9.834   6.468 -36.218  1.00  0.00    -0.259 OA
BRANCH  17  19
HETATM   19  O   UNL     1     -10.096   7.176 -34.053  1.00  0.00    -0.322 OA
HETATM   20  C   UNL     1     -11.387   7.631 -33.656  1.00  0.00     0.213 C 
ENDBRANCH  17  19
ENDBRANCH  11  17
ENDBRANCH   3   6
ENDBRANCH   1   2
BRANCH   1  21
HETATM   21  N   UNL     1      -4.739   4.108 -32.658  1.00  0.00     0.100 N 
HETATM   22  C   UNL     1      -4.025   4.676 -33.829  1.00  0.00     0.293 C 
HETATM   23  C   UNL     1      -3.514   6.121 -33.652  1.00  0.00     0.156 C 
HETATM   24  N   UNL     1      -2.798   6.334 -32.390  1.00  0.00    -0.344 N 
HETATM   25  C   UNL     1      -1.929   7.437 -32.329  1.00  0.00     0.262 C 
HETATM   26  C   UNL     1      -3.375   5.695 -31.203  1.00  0.00     0.156 C 
HETATM   27  O   UNL     1      -1.665   8.092 -33.336  1.00  0.00    -0.267 OA
HETATM   28  C   UNL     1      -3.876   4.265 -31.471  1.00  0.00     0.293 C 
BRANCH  25  29
HETATM   29  C   UNL     1      -1.324   7.753 -31.055  1.00  0.00     0.096 A 
HETATM   30  S   UNL     1       0.079   6.933 -30.547  1.00  0.00    -0.082 SA
HETATM   31  C   UNL     1       0.130   7.785 -29.051  1.00  0.00     0.019 A 
HETATM   32  C   UNL     1      -0.957   8.655 -28.919  1.00  0.00     0.004 A 
HETATM   33  C   UNL     1       1.108   7.658 -28.043  1.00  0.00     0.043 A 
HETATM   34  C   UNL     1      -1.794   8.616 -30.090  1.00  0.00     0.068 A 
HETATM   35  C   UNL     1      -1.064   9.403 -27.716  1.00  0.00     0.016 A 
HETATM   36 CL   UNL     1      -3.209   9.577 -30.247  1.00  0.00    -0.082 Cl
HETATM   37  C   UNL     1      -0.100   9.278 -26.709  1.00  0.00     0.025 A 
HETATM   38  C   UNL     1       0.974   8.418 -26.880  1.00  0.00     0.035 A 
HETATM   39 CL   UNL     1       2.160   8.283 -25.640  1.00  0.00    -0.084 Cl
ENDBRANCH  25  29
ENDBRANCH   1  21
TORSDOF 7
ENDMDL
MODEL 9
REMARK VINA RESULT:      -7.7      6.459      9.651
REMARK  7 active torsions:
REMARK  status: ('A' for Active; 'I' for Inactive)
REMARK    1  A    between atoms: C_3  and  C_4 
REMARK       I    between atoms: C_4  and  N_5 
REMARK    2  A    between atoms: C_8  and  N_9 
REMARK       I    between atoms: N_9  and  C_10 
REMARK    3  A    between atoms: C_10  and  C_11 
REMARK    4  A    between atoms: C_11  and  N_12 
REMARK       I    between atoms: N_15  and  C_16 
REMARK    5  A    between atoms: C_16  and  C_17 
REMARK    6  A    between atoms: C_32  and  C_33 
REMARK    7  A    between atoms: C_33  and  O_34 
ROOT
HETATM    1  C   UNL     1     -10.391   2.317 -32.852  1.00  0.00     0.375 C 
ENDROOT
BRANCH   1   2
HETATM    2  C   UNL     1      -9.583   1.012 -32.827  1.00  0.00     0.251 C 
HETATM    3  N   UNL     1      -8.260   1.213 -33.179  1.00  0.00    -0.319 N 
HETATM    4  H   UNL     1      -7.971   2.177 -33.309  1.00  0.00     0.169 HD
HETATM    5  O   UNL     1     -10.078  -0.033 -32.417  1.00  0.00    -0.271 OA
BRANCH   3   6
HETATM    6  C   UNL     1      -7.274   0.264 -33.041  1.00  0.00     0.094 C 
HETATM    7  S   UNL     1      -7.418  -0.958 -34.207  1.00  0.00    -0.065 SA
HETATM    8  C   UNL     1      -5.894  -1.631 -33.803  1.00  0.00     0.081 C 
HETATM    9  C   UNL     1      -5.360  -1.020 -32.670  1.00  0.00    -0.020 C 
HETATM   10  C   UNL     1      -4.082  -1.436 -31.998  1.00  0.00     0.051 C 
HETATM   11  C   UNL     1      -6.199   0.080 -32.196  1.00  0.00     0.080 C 
BRANCH   8  12
HETATM   12  C   UNL     1      -5.325  -2.715 -34.602  1.00  0.00     0.256 C 
HETATM   13  N   UNL     1      -6.182  -3.698 -35.016  1.00  0.00    -0.365 N 
HETATM   14  H   UNL     1      -7.166  -3.681 -34.795  1.00  0.00     0.159 HD
HETATM   15  H   UNL     1      -5.804  -4.444 -35.582  1.00  0.00     0.159 HD
HETATM   16  O   UNL     1      -4.144  -2.801 -34.930  1.00  0.00    -0.267 OA
ENDBRANCH   8  12
BRANCH  11  17
HETATM   17  C   UNL     1      -5.945   0.849 -30.977  1.00  0.00     0.296 C 
HETATM   18  O   UNL     1      -5.979   0.361 -29.852  1.00  0.00    -0.259 OA
BRANCH  17  19
HETATM   19  O   UNL     1      -5.819   2.188 -31.229  1.00  0.00    -0.322 OA
HETATM   20  C   UNL     1      -5.354   2.942 -30.112  1.00  0.00     0.213 C 
ENDBRANCH  17  19
ENDBRANCH  11  17
ENDBRANCH   3   6
ENDBRANCH   1   2
BRANCH   1  21
HETATM   21  N   UNL     1     -11.503   2.232 -33.826  1.00  0.00     0.100 N 
HETATM   22  C   UNL     1     -12.776   2.712 -33.234  1.00  0.00     0.293 C 
HETATM   23  C   UNL     1     -12.852   4.231 -32.975  1.00  0.00     0.156 C 
HETATM   24  N   UNL     1     -12.416   5.038 -34.120  1.00  0.00    -0.344 N 
HETATM   25  C   UNL     1     -12.856   6.371 -34.163  1.00  0.00     0.262 C 
HETATM   26  C   UNL     1     -11.233   4.555 -34.839  1.00  0.00     0.156 C 
HETATM   27  O   UNL     1     -13.694   6.790 -33.364  1.00  0.00    -0.267 OA
HETATM   28  C   UNL     1     -11.228   3.029 -35.038  1.00  0.00     0.293 C 
BRANCH  25  29
HETATM   29  C   UNL     1     -12.324   7.227 -35.200  1.00  0.00     0.096 A 
HETATM   30  S   UNL     1     -10.930   8.161 -34.907  1.00  0.00    -0.082 SA
HETATM   31  C   UNL     1     -10.975   8.863 -36.480  1.00  0.00     0.019 A 
HETATM   32  C   UNL     1     -12.088   8.424 -37.206  1.00  0.00     0.004 A 
HETATM   33  C   UNL     1     -10.048   9.776 -37.021  1.00  0.00     0.043 A 
HETATM   34  C   UNL     1     -12.862   7.480 -36.442  1.00  0.00     0.068 A 
HETATM   35  C   UNL     1     -12.272   8.947 -38.513  1.00  0.00     0.016 A 
HETATM   36 CL   UNL     1     -14.290   6.746 -37.054  1.00  0.00    -0.082 Cl
HETATM   37  C   UNL     1     -11.359   9.858 -39.054  1.00  0.00     0.025 A 
HETATM   38  C   UNL     1     -10.258  10.259 -38.313  1.00  0.00     0.035 A 
HETATM   39 CL   UNL     1      -9.134  11.370 -38.994  1.00  0.00    -0.084 Cl
ENDBRANCH  25  29
ENDBRANCH   1  21
TORSDOF 7
ENDMDL
MODEL 10
REMARK VINA RESULT:      -7.7      5.360     10.628
REMARK  7 active torsions:
REMARK  status: ('A' for Active; 'I' for Inactive)
REMARK    1  A    between atoms: C_3  and  C_4 
REMARK       I    between atoms: C_4  and  N_5 
REMARK    2  A    between atoms: C_8  and  N_9 
REMARK       I    between atoms: N_9  and  C_10 
REMARK    3  A    between atoms: C_10  and  C_11 
REMARK    4  A    between atoms: C_11  and  N_12 
REMARK       I    between atoms: N_15  and  C_16 
REMARK    5  A    between atoms: C_16  and  C_17 
REMARK    6  A    between atoms: C_32  and  C_33 
REMARK    7  A    between atoms: C_33  and  O_34 
ROOT
HETATM    1  C   UNL     1      -6.438   6.986 -29.429  1.00  0.00     0.375 C 
ENDROOT
BRANCH   1   2
HETATM    2  C   UNL     1      -5.007   7.528 -29.303  1.00  0.00     0.251 C 
HETATM    3  N   UNL     1      -4.057   6.546 -29.522  1.00  0.00    -0.319 N 
HETATM    4  H   UNL     1      -4.407   5.645 -29.827  1.00  0.00     0.169 HD
HETATM    5  O   UNL     1      -4.794   8.727 -29.146  1.00  0.00    -0.271 OA
BRANCH   3   6
HETATM    6  C   UNL     1      -2.713   6.796 -29.676  1.00  0.00     0.094 C 
HETATM    7  S   UNL     1      -2.039   7.462 -28.270  1.00  0.00    -0.065 SA
HETATM    8  C   UNL     1      -0.439   7.288 -28.860  1.00  0.00     0.081 C 
HETATM    9  C   UNL     1      -0.438   6.876 -30.192  1.00  0.00    -0.020 C 
HETATM   10  C   UNL     1       0.795   6.719 -31.035  1.00  0.00     0.051 C 
HETATM   11  C   UNL     1      -1.791   6.622 -30.686  1.00  0.00     0.080 C 
BRANCH   8  12
HETATM   12  C   UNL     1       0.706   7.575 -27.999  1.00  0.00     0.256 C 
HETATM   13  N   UNL     1       0.868   6.783 -26.895  1.00  0.00    -0.365 N 
HETATM   14  H   UNL     1       0.237   6.026 -26.680  1.00  0.00     0.159 HD
HETATM   15  H   UNL     1       1.665   6.962 -26.301  1.00  0.00     0.159 HD
HETATM   16  O   UNL     1       1.530   8.464 -28.198  1.00  0.00    -0.267 OA
ENDBRANCH   8  12
BRANCH  11  17
HETATM   17  C   UNL     1      -2.114   6.265 -32.069  1.00  0.00     0.296 C 
HETATM   18  O   UNL     1      -2.563   7.064 -32.884  1.00  0.00    -0.259 OA
BRANCH  17  19
HETATM   19  O   UNL     1      -2.000   4.920 -32.295  1.00  0.00    -0.322 OA
HETATM   20  C   UNL     1      -3.215   4.303 -32.713  1.00  0.00     0.213 C 
ENDBRANCH  17  19
ENDBRANCH  11  17
ENDBRANCH   3   6
ENDBRANCH   1   2
BRANCH   1  21
HETATM   21  N   UNL     1      -7.188   7.713 -30.479  1.00  0.00     0.100 N 
HETATM   22  C   UNL     1      -6.405   7.801 -31.737  1.00  0.00     0.293 C 
HETATM   23  C   UNL     1      -6.228   6.471 -32.498  1.00  0.00     0.156 C 
HETATM   24  N   UNL     1      -7.479   5.722 -32.658  1.00  0.00    -0.344 N 
HETATM   25  C   UNL     1      -7.521   4.766 -33.686  1.00  0.00     0.262 C 
HETATM   26  C   UNL     1      -8.370   5.696 -31.493  1.00  0.00     0.156 C 
HETATM   27  O   UNL     1      -6.611   4.678 -34.509  1.00  0.00    -0.267 OA
HETATM   28  C   UNL     1      -8.475   7.056 -30.782  1.00  0.00     0.293 C 
BRANCH  25  29
HETATM   29  C   UNL     1      -8.687   3.915 -33.772  1.00  0.00     0.096 A 
HETATM   30  S   UNL     1      -8.668   2.364 -33.068  1.00  0.00    -0.082 SA
HETATM   31  C   UNL     1     -10.268   2.016 -33.600  1.00  0.00     0.019 A 
HETATM   32  C   UNL     1     -10.794   3.065 -34.363  1.00  0.00     0.004 A 
HETATM   33  C   UNL     1     -11.005   0.842 -33.344  1.00  0.00     0.043 A 
HETATM   34  C   UNL     1      -9.857   4.154 -34.457  1.00  0.00     0.068 A 
HETATM   35  C   UNL     1     -12.100   2.903 -34.898  1.00  0.00     0.016 A 
HETATM   36 CL   UNL     1     -10.203   5.599 -35.320  1.00  0.00    -0.082 Cl
HETATM   37  C   UNL     1     -12.834   1.738 -34.653  1.00  0.00     0.025 A 
HETATM   38  C   UNL     1     -12.288   0.726 -33.879  1.00  0.00     0.035 A 
HETATM   39 CL   UNL     1     -13.205  -0.698 -33.572  1.00  0.00    -0.084 Cl
ENDBRANCH  25  29
ENDBRANCH   1  21
TORSDOF 7
ENDMDL
