MODEL 1
REMARK VINA RESULT:      -8.0      0.000      0.000
REMARK  14 active torsions:
REMARK  status: ('A' for Active; 'I' for Inactive)
REMARK    1  A    between atoms: C_2  and  O_3 
REMARK    2  A    between atoms: O_3  and  C_4 
REMARK    3  A    between atoms: C_5  and  O_6 
REMARK    4  A    between atoms: C_9  and  C_10 
REMARK    5  A    between atoms: N_11  and  C_12 
REMARK    6  A    between atoms: C_12  and  C_13 
REMARK    7  A    between atoms: C_13  and  C_14 
REMARK    8  A    between atoms: C_14  and  N_15 
REMARK    9  A    between atoms: C_21  and  O_22 
REMARK   10  A    between atoms: C_23  and  C_24 
REMARK   11  A    between atoms: C_24  and  C_25 
REMARK   12  A    between atoms: C_29  and  O_30 
REMARK   13  A    between atoms: O_30  and  C_31 
REMARK   14  A    between atoms: C_31  and  C_32 
ROOT
HETATM    1  C   UNL     1      -6.092   4.958 -31.953  1.00  0.00     0.161 A 
HETATM    2  N   UNL     1      -5.730   5.542 -30.662  1.00  0.00    -0.333 N 
HETATM    3  C   UNL     1      -5.906   4.629 -29.639  1.00  0.00     0.278 A 
HETATM    4  O   UNL     1      -5.707   4.785 -28.447  1.00  0.00    -0.265 OA
HETATM    5  C   UNL     1      -6.428   3.381 -30.233  1.00  0.00     0.146 A 
HETATM    6  C   UNL     1      -6.589   3.611 -31.539  1.00  0.00     0.059 A 
ENDROOT
BRANCH   6   7
HETATM    7  C   UNL     1      -7.221   2.722 -32.531  1.00  0.00     0.193 C 
HETATM    8  O   UNL     1      -8.260   3.077 -33.080  1.00  0.00    -0.287 OA
BRANCH   7   9
HETATM    9  C   UNL     1      -6.662   1.365 -32.795  1.00  0.00     0.015 A 
HETATM   10  C   UNL     1      -5.275   1.193 -32.708  1.00  0.00     0.025 A 
HETATM   11  C   UNL     1      -4.680  -0.047 -32.999  1.00  0.00    -0.028 A 
HETATM   12  C   UNL     1      -3.186  -0.197 -32.912  1.00  0.00     0.051 C 
HETATM   13  C   UNL     1      -5.488  -1.133 -33.379  1.00  0.00     0.074 A 
HETATM   14  C   UNL     1      -6.869  -0.956 -33.483  1.00  0.00     0.038 A 
HETATM   15  C   UNL     1      -7.452   0.285 -33.205  1.00  0.00     0.018 A 
BRANCH  13  16
HETATM   16  O   UNL     1      -4.828  -2.304 -33.641  1.00  0.00    -0.350 OA
BRANCH  16  17
HETATM   17  C   UNL     1      -4.853  -2.794 -34.983  1.00  0.00     0.179 C 
BRANCH  17  18
HETATM   18  C   UNL     1      -5.259  -4.274 -34.969  1.00  0.00     0.002 C 
HETATM   19  C   UNL     1      -4.473  -5.060 -33.916  1.00  0.00     0.011 C 
HETATM   20  C   UNL     1      -6.760  -4.412 -34.722  1.00  0.00     0.011 C 
ENDBRANCH  17  18
ENDBRANCH  16  17
ENDBRANCH  13  16
ENDBRANCH   7   9
ENDBRANCH   6   7
BRANCH   1  21
HETATM   21  C   UNL     1      -4.886   4.964 -32.875  1.00  0.00    -0.028 A 
HETATM   22  C   UNL     1      -5.004   5.172 -34.260  1.00  0.00     0.012 A 
HETATM   23  C   UNL     1      -3.877   5.144 -35.087  1.00  0.00     0.040 A 
HETATM   24  C   UNL     1      -2.614   4.929 -34.535  1.00  0.00     0.099 A 
HETATM   25  C   UNL     1      -2.468   4.765 -33.156  1.00  0.00     0.102 A 
HETATM   26  C   UNL     1      -3.604   4.760 -32.340  1.00  0.00     0.049 A 
BRANCH  24  27
HETATM   27  O   UNL     1      -1.532   4.855 -35.366  1.00  0.00    -0.358 OA
HETATM   28  H   UNL     1      -1.091   5.718 -35.402  1.00  0.00     0.218 HD
ENDBRANCH  24  27
BRANCH  25  29
HETATM   29  O   UNL     1      -1.288   4.568 -32.487  1.00  0.00    -0.349 OA
BRANCH  29  30
HETATM   30  C   UNL     1      -0.785   5.717 -31.797  1.00  0.00     0.171 C 
HETATM   31  C   UNL     1       0.427   5.289 -30.989  1.00  0.00     0.034 C 
ENDBRANCH  29  30
ENDBRANCH  25  29
ENDBRANCH   1  21
BRANCH   5  32
HETATM   32  O   UNL     1      -6.759   2.277 -29.509  1.00  0.00    -0.355 OA
HETATM   33  H   UNL     1      -7.627   1.972 -29.839  1.00  0.00     0.218 HD
ENDBRANCH   5  32
BRANCH   2  34
HETATM   34  C   UNL     1      -5.737   6.986 -30.477  1.00  0.00     0.129 C 
BRANCH  34  35
HETATM   35  C   UNL     1      -4.365   7.614 -30.235  1.00  0.00     0.048 C 
BRANCH  35  36
HETATM   36  C   UNL     1      -4.156   7.968 -28.767  1.00  0.00     0.235 C 
BRANCH  36  37
HETATM   37  N   UNL     1      -3.281   6.927 -28.092  1.00  0.00    -0.079 N 
HETATM   38  H   UNL     1      -3.509   6.010 -28.499  1.00  0.00     0.278 HD
HETATM   39  C   UNL     1      -1.811   7.163 -28.332  1.00  0.00     0.269 C 
HETATM   40  C   UNL     1      -3.580   6.824 -26.621  1.00  0.00     0.269 C 
ENDBRANCH  36  37
ENDBRANCH  35  36
ENDBRANCH  34  35
ENDBRANCH   2  34
TORSDOF 14
ENDMDL
MODEL 2
REMARK VINA RESULT:      -8.0      2.052      3.791
REMARK  14 active torsions:
REMARK  status: ('A' for Active; 'I' for Inactive)
REMARK    1  A    between atoms: C_2  and  O_3 
REMARK    2  A    between atoms: O_3  and  C_4 
REMARK    3  A    between atoms: C_5  and  O_6 
REMARK    4  A    between atoms: C_9  and  C_10 
REMARK    5  A    between atoms: N_11  and  C_12 
REMARK    6  A    between atoms: C_12  and  C_13 
REMARK    7  A    between atoms: C_13  and  C_14 
REMARK    8  A    between atoms: C_14  and  N_15 
REMARK    9  A    between atoms: C_21  and  O_22 
REMARK   10  A    between atoms: C_23  and  C_24 
REMARK   11  A    between atoms: C_24  and  C_25 
REMARK   12  A    between atoms: C_29  and  O_30 
REMARK   13  A    between atoms: O_30  and  C_31 
REMARK   14  A    between atoms: C_31  and  C_32 
ROOT
HETATM    1  C   UNL     1      -5.227   4.206 -32.511  1.00  0.00     0.161 A 
HETATM    2  N   UNL     1      -6.254   5.050 -31.899  1.00  0.00    -0.333 N 
HETATM    3  C   UNL     1      -6.475   4.686 -30.584  1.00  0.00     0.278 A 
HETATM    4  O   UNL     1      -7.260   5.172 -29.789  1.00  0.00    -0.265 OA
HETATM    5  C   UNL     1      -5.592   3.541 -30.278  1.00  0.00     0.146 A 
HETATM    6  C   UNL     1      -4.941   3.242 -31.405  1.00  0.00     0.059 A 
ENDROOT
BRANCH   6   7
HETATM    7  C   UNL     1      -4.058   2.086 -31.648  1.00  0.00     0.193 C 
HETATM    8  O   UNL     1      -2.910   2.106 -31.216  1.00  0.00    -0.287 OA
BRANCH   7   9
HETATM    9  C   UNL     1      -4.520   0.946 -32.491  1.00  0.00     0.015 A 
HETATM   10  C   UNL     1      -5.589   1.165 -33.368  1.00  0.00     0.025 A 
HETATM   11  C   UNL     1      -6.109   0.118 -34.150  1.00  0.00    -0.028 A 
HETATM   12  C   UNL     1      -7.268   0.379 -35.073  1.00  0.00     0.051 C 
HETATM   13  C   UNL     1      -5.546  -1.166 -34.054  1.00  0.00     0.074 A 
HETATM   14  C   UNL     1      -4.491  -1.387 -33.165  1.00  0.00     0.038 A 
HETATM   15  C   UNL     1      -3.989  -0.343 -32.381  1.00  0.00     0.018 A 
BRANCH  13  16
HETATM   16  O   UNL     1      -6.109  -2.126 -34.851  1.00  0.00    -0.350 OA
BRANCH  16  17
HETATM   17  C   UNL     1      -5.235  -3.063 -35.482  1.00  0.00     0.179 C 
BRANCH  17  18
HETATM   18  C   UNL     1      -5.661  -4.486 -35.095  1.00  0.00     0.002 C 
HETATM   19  C   UNL     1      -4.669  -5.122 -34.118  1.00  0.00     0.011 C 
HETATM   20  C   UNL     1      -7.065  -4.475 -34.493  1.00  0.00     0.011 C 
ENDBRANCH  17  18
ENDBRANCH  16  17
ENDBRANCH  13  16
ENDBRANCH   7   9
ENDBRANCH   6   7
BRANCH   1  21
HETATM   21  C   UNL     1      -4.059   5.066 -32.960  1.00  0.00    -0.028 A 
HETATM   22  C   UNL     1      -3.610   5.081 -34.292  1.00  0.00     0.012 A 
HETATM   23  C   UNL     1      -2.514   5.861 -34.669  1.00  0.00     0.040 A 
HETATM   24  C   UNL     1      -1.865   6.654 -33.723  1.00  0.00     0.099 A 
HETATM   25  C   UNL     1      -2.321   6.689 -32.403  1.00  0.00     0.102 A 
HETATM   26  C   UNL     1      -3.398   5.879 -32.026  1.00  0.00     0.049 A 
BRANCH  24  27
HETATM   27  O   UNL     1      -0.765   7.370 -34.100  1.00  0.00    -0.358 OA
HETATM   28  H   UNL     1      -0.198   6.822 -34.666  1.00  0.00     0.218 HD
ENDBRANCH  24  27
BRANCH  25  29
HETATM   29  O   UNL     1      -1.790   7.437 -31.385  1.00  0.00    -0.349 OA
BRANCH  29  30
HETATM   30  C   UNL     1      -1.092   6.687 -30.385  1.00  0.00     0.171 C 
HETATM   31  C   UNL     1       0.344   6.510 -30.846  1.00  0.00     0.034 C 
ENDBRANCH  29  30
ENDBRANCH  25  29
ENDBRANCH   1  21
BRANCH   5  32
HETATM   32  O   UNL     1      -5.575   2.894 -29.081  1.00  0.00    -0.355 OA
HETATM   33  H   UNL     1      -6.336   3.231 -28.567  1.00  0.00     0.218 HD
ENDBRANCH   5  32
BRANCH   2  34
HETATM   34  C   UNL     1      -7.229   5.744 -32.728  1.00  0.00     0.129 C 
BRANCH  34  35
HETATM   35  C   UNL     1      -7.986   4.858 -33.717  1.00  0.00     0.048 C 
BRANCH  35  36
HETATM   36  C   UNL     1      -9.227   4.238 -33.085  1.00  0.00     0.235 C 
BRANCH  36  37
HETATM   37  N   UNL     1      -9.118   2.724 -33.086  1.00  0.00    -0.079 N 
HETATM   38  H   UNL     1      -8.322   2.464 -33.683  1.00  0.00     0.278 HD
HETATM   39  C   UNL     1      -8.845   2.161 -31.714  1.00  0.00     0.269 C 
HETATM   40  C   UNL     1     -10.334   2.083 -33.701  1.00  0.00     0.269 C 
ENDBRANCH  36  37
ENDBRANCH  35  36
ENDBRANCH  34  35
ENDBRANCH   2  34
TORSDOF 14
ENDMDL
MODEL 3
REMARK VINA RESULT:      -7.7      3.001      5.930
REMARK  14 active torsions:
REMARK  status: ('A' for Active; 'I' for Inactive)
REMARK    1  A    between atoms: C_2  and  O_3 
REMARK    2  A    between atoms: O_3  and  C_4 
REMARK    3  A    between atoms: C_5  and  O_6 
REMARK    4  A    between atoms: C_9  and  C_10 
REMARK    5  A    between atoms: N_11  and  C_12 
REMARK    6  A    between atoms: C_12  and  C_13 
REMARK    7  A    between atoms: C_13  and  C_14 
REMARK    8  A    between atoms: C_14  and  N_15 
REMARK    9  A    between atoms: C_21  and  O_22 
REMARK   10  A    between atoms: C_23  and  C_24 
REMARK   11  A    between atoms: C_24  and  C_25 
REMARK   12  A    between atoms: C_29  and  O_30 
REMARK   13  A    between atoms: O_30  and  C_31 
REMARK   14  A    between atoms: C_31  and  C_32 
ROOT
HETATM    1  C   UNL     1      -5.859   3.836 -32.690  1.00  0.00     0.161 A 
HETATM    2  N   UNL     1      -4.949   4.932 -33.019  1.00  0.00    -0.333 N 
HETATM    3  C   UNL     1      -5.073   5.968 -32.111  1.00  0.00     0.278 A 
HETATM    4  O   UNL     1      -4.474   7.028 -32.091  1.00  0.00    -0.265 OA
HETATM    5  C   UNL     1      -6.117   5.590 -31.135  1.00  0.00     0.146 A 
HETATM    6  C   UNL     1      -6.596   4.404 -31.521  1.00  0.00     0.059 A 
ENDROOT
BRANCH   6   7
HETATM    7  C   UNL     1      -7.751   3.681 -30.956  1.00  0.00     0.193 C 
HETATM    8  O   UNL     1      -7.801   3.481 -29.747  1.00  0.00    -0.287 OA
BRANCH   7   9
HETATM    9  C   UNL     1      -8.798   3.112 -31.852  1.00  0.00     0.015 A 
HETATM   10  C   UNL     1      -8.964   1.722 -31.874  1.00  0.00     0.025 A 
HETATM   11  C   UNL     1      -9.896   1.119 -32.738  1.00  0.00    -0.028 A 
HETATM   12  C   UNL     1     -10.041  -0.379 -32.750  1.00  0.00     0.051 C 
HETATM   13  C   UNL     1     -10.675   1.921 -33.589  1.00  0.00     0.074 A 
HETATM   14  C   UNL     1     -10.495   3.306 -33.579  1.00  0.00     0.038 A 
HETATM   15  C   UNL     1      -9.556   3.897 -32.727  1.00  0.00     0.018 A 
BRANCH  13  16
HETATM   16  O   UNL     1     -11.558   1.253 -34.395  1.00  0.00    -0.350 OA
BRANCH  16  17
HETATM   17  C   UNL     1     -12.763   1.928 -34.762  1.00  0.00     0.179 C 
BRANCH  17  18
HETATM   18  C   UNL     1     -13.947   1.268 -34.043  1.00  0.00     0.002 C 
HETATM   19  C   UNL     1     -13.647  -0.192 -33.696  1.00  0.00     0.011 C 
HETATM   20  C   UNL     1     -14.306   2.050 -32.782  1.00  0.00     0.011 C 
ENDBRANCH  17  18
ENDBRANCH  16  17
ENDBRANCH  13  16
ENDBRANCH   7   9
ENDBRANCH   6   7
BRANCH   1  21
HETATM   21  C   UNL     1      -5.061   2.572 -32.419  1.00  0.00    -0.028 A 
HETATM   22  C   UNL     1      -4.057   2.518 -31.437  1.00  0.00     0.012 A 
HETATM   23  C   UNL     1      -3.321   1.349 -31.230  1.00  0.00     0.040 A 
HETATM   24  C   UNL     1      -3.593   0.211 -31.989  1.00  0.00     0.099 A 
HETATM   25  C   UNL     1      -4.617   0.228 -32.939  1.00  0.00     0.102 A 
HETATM   26  C   UNL     1      -5.326   1.412 -33.164  1.00  0.00     0.049 A 
BRANCH  24  27
HETATM   27  O   UNL     1      -2.829  -0.907 -31.807  1.00  0.00    -0.358 OA
HETATM   28  H   UNL     1      -2.365  -0.848 -30.956  1.00  0.00     0.218 HD
ENDBRANCH  24  27
BRANCH  25  29
HETATM   29  O   UNL     1      -4.999  -0.822 -33.733  1.00  0.00    -0.349 OA
BRANCH  29  30
HETATM   30  C   UNL     1      -6.304  -1.343 -33.459  1.00  0.00     0.171 C 
HETATM   31  C   UNL     1      -7.068  -1.413 -34.769  1.00  0.00     0.034 C 
ENDBRANCH  29  30
ENDBRANCH  25  29
ENDBRANCH   1  21
BRANCH   5  32
HETATM   32  O   UNL     1      -6.533   6.395 -30.120  1.00  0.00    -0.355 OA
HETATM   33  H   UNL     1      -5.760   6.927 -29.846  1.00  0.00     0.218 HD
ENDBRANCH   5  32
BRANCH   2  34
HETATM   34  C   UNL     1      -4.446   5.093 -34.376  1.00  0.00     0.129 C 
BRANCH  34  35
HETATM   35  C   UNL     1      -2.958   5.429 -34.479  1.00  0.00     0.048 C 
BRANCH  35  36
HETATM   36  C   UNL     1      -2.107   4.489 -33.634  1.00  0.00     0.235 C 
BRANCH  36  37
HETATM   37  N   UNL     1      -1.124   5.283 -32.791  1.00  0.00    -0.079 N 
HETATM   38  H   UNL     1      -0.183   4.901 -32.958  1.00  0.00     0.278 HD
HETATM   39  C   UNL     1      -1.083   6.742 -33.169  1.00  0.00     0.269 C 
HETATM   40  C   UNL     1      -1.394   5.112 -31.320  1.00  0.00     0.269 C 
ENDBRANCH  36  37
ENDBRANCH  35  36
ENDBRANCH  34  35
ENDBRANCH   2  34
TORSDOF 14
ENDMDL
MODEL 4
REMARK VINA RESULT:      -7.7      2.864      9.000
REMARK  14 active torsions:
REMARK  status: ('A' for Active; 'I' for Inactive)
REMARK    1  A    between atoms: C_2  and  O_3 
REMARK    2  A    between atoms: O_3  and  C_4 
REMARK    3  A    between atoms: C_5  and  O_6 
REMARK    4  A    between atoms: C_9  and  C_10 
REMARK    5  A    between atoms: N_11  and  C_12 
REMARK    6  A    between atoms: C_12  and  C_13 
REMARK    7  A    between atoms: C_13  and  C_14 
REMARK    8  A    between atoms: C_14  and  N_15 
REMARK    9  A    between atoms: C_21  and  O_22 
REMARK   10  A    between atoms: C_23  and  C_24 
REMARK   11  A    between atoms: C_24  and  C_25 
REMARK   12  A    between atoms: C_29  and  O_30 
REMARK   13  A    between atoms: O_30  and  C_31 
REMARK   14  A    between atoms: C_31  and  C_32 
ROOT
HETATM    1  C   UNL     1      -6.031   1.880 -32.572  1.00  0.00     0.161 A 
HETATM    2  N   UNL     1      -5.643   0.601 -31.978  1.00  0.00    -0.333 N 
HETATM    3  C   UNL     1      -4.392   0.683 -31.396  1.00  0.00     0.278 A 
HETATM    4  O   UNL     1      -3.768  -0.191 -30.822  1.00  0.00    -0.265 OA
HETATM    5  C   UNL     1      -3.883   2.054 -31.612  1.00  0.00     0.146 A 
HETATM    6  C   UNL     1      -4.801   2.697 -32.339  1.00  0.00     0.059 A 
ENDROOT
BRANCH   6   7
HETATM    7  C   UNL     1      -4.688   4.042 -32.935  1.00  0.00     0.193 C 
HETATM    8  O   UNL     1      -5.110   4.233 -34.071  1.00  0.00    -0.287 OA
BRANCH   7   9
HETATM    9  C   UNL     1      -3.980   5.134 -32.207  1.00  0.00     0.015 A 
HETATM   10  C   UNL     1      -2.795   5.637 -32.760  1.00  0.00     0.025 A 
HETATM   11  C   UNL     1      -2.051   6.627 -32.096  1.00  0.00    -0.028 A 
HETATM   12  C   UNL     1      -0.775   7.137 -32.707  1.00  0.00     0.051 C 
HETATM   13  C   UNL     1      -2.502   7.124 -30.861  1.00  0.00     0.074 A 
HETATM   14  C   UNL     1      -3.673   6.609 -30.301  1.00  0.00     0.038 A 
HETATM   15  C   UNL     1      -4.401   5.613 -30.962  1.00  0.00     0.018 A 
BRANCH  13  16
HETATM   16  O   UNL     1      -1.719   8.088 -30.284  1.00  0.00    -0.350 OA
BRANCH  16  17
HETATM   17  C   UNL     1      -1.195   7.826 -28.981  1.00  0.00     0.179 C 
BRANCH  17  18
HETATM   18  C   UNL     1       0.286   7.438 -29.105  1.00  0.00     0.002 C 
HETATM   19  C   UNL     1       1.147   8.183 -28.083  1.00  0.00     0.011 C 
HETATM   20  C   UNL     1       0.455   5.929 -28.943  1.00  0.00     0.011 C 
ENDBRANCH  17  18
ENDBRANCH  16  17
ENDBRANCH  13  16
ENDBRANCH   7   9
ENDBRANCH   6   7
BRANCH   1  21
HETATM   21  C   UNL     1      -7.299   2.388 -31.911  1.00  0.00    -0.028 A 
HETATM   22  C   UNL     1      -7.314   2.865 -30.588  1.00  0.00     0.012 A 
HETATM   23  C   UNL     1      -8.503   3.300 -29.997  1.00  0.00     0.040 A 
HETATM   24  C   UNL     1      -9.690   3.284 -30.729  1.00  0.00     0.099 A 
HETATM   25  C   UNL     1      -9.692   2.858 -32.059  1.00  0.00     0.102 A 
HETATM   26  C   UNL     1      -8.503   2.391 -32.632  1.00  0.00     0.049 A 
BRANCH  24  27
HETATM   27  O   UNL     1     -10.851   3.666 -30.117  1.00  0.00    -0.358 OA
HETATM   28  H   UNL     1     -11.208   2.924 -29.605  1.00  0.00     0.218 HD
ENDBRANCH  24  27
BRANCH  25  29
HETATM   29  O   UNL     1     -10.779   2.813 -32.891  1.00  0.00    -0.349 OA
BRANCH  29  30
HETATM   30  C   UNL     1     -10.706   1.829 -33.929  1.00  0.00     0.171 C 
HETATM   31  C   UNL     1     -11.769   0.780 -33.659  1.00  0.00     0.034 C 
ENDBRANCH  29  30
ENDBRANCH  25  29
ENDBRANCH   1  21
BRANCH   5  32
HETATM   32  O   UNL     1      -2.656   2.481 -31.208  1.00  0.00    -0.355 OA
HETATM   33  H   UNL     1      -2.319   3.076 -31.907  1.00  0.00     0.218 HD
ENDBRANCH   5  32
BRANCH   2  34
HETATM   34  C   UNL     1      -6.247  -0.641 -32.439  1.00  0.00     0.129 C 
BRANCH  34  35
HETATM   35  C   UNL     1      -6.080  -0.927 -33.932  1.00  0.00     0.048 C 
BRANCH  35  36
HETATM   36  C   UNL     1      -6.790  -2.211 -34.344  1.00  0.00     0.235 C 
BRANCH  36  37
HETATM   37  N   UNL     1      -5.838  -3.121 -35.099  1.00  0.00    -0.079 N 
HETATM   38  H   UNL     1      -5.670  -2.706 -36.025  1.00  0.00     0.278 HD
HETATM   39  C   UNL     1      -4.497  -3.248 -34.421  1.00  0.00     0.269 C 
HETATM   40  C   UNL     1      -6.448  -4.475 -35.347  1.00  0.00     0.269 C 
ENDBRANCH  36  37
ENDBRANCH  35  36
ENDBRANCH  34  35
ENDBRANCH   2  34
TORSDOF 14
ENDMDL
MODEL 5
REMARK VINA RESULT:      -7.6      1.926      7.135
REMARK  14 active torsions:
REMARK  status: ('A' for Active; 'I' for Inactive)
REMARK    1  A    between atoms: C_2  and  O_3 
REMARK    2  A    between atoms: O_3  and  C_4 
REMARK    3  A    between atoms: C_5  and  O_6 
REMARK    4  A    between atoms: C_9  and  C_10 
REMARK    5  A    between atoms: N_11  and  C_12 
REMARK    6  A    between atoms: C_12  and  C_13 
REMARK    7  A    between atoms: C_13  and  C_14 
REMARK    8  A    between atoms: C_14  and  N_15 
REMARK    9  A    between atoms: C_21  and  O_22 
REMARK   10  A    between atoms: C_23  and  C_24 
REMARK   11  A    between atoms: C_24  and  C_25 
REMARK   12  A    between atoms: C_29  and  O_30 
REMARK   13  A    between atoms: O_30  and  C_31 
REMARK   14  A    between atoms: C_31  and  C_32 
ROOT
HETATM    1  C   UNL     1      -5.691   3.700 -31.856  1.00  0.00     0.161 A 
HETATM    2  N   UNL     1      -7.020   3.695 -31.246  1.00  0.00    -0.333 N 
HETATM    3  C   UNL     1      -7.951   4.285 -32.081  1.00  0.00     0.278 A 
HETATM    4  O   UNL     1      -9.142   4.452 -31.884  1.00  0.00    -0.265 OA
HETATM    5  C   UNL     1      -7.245   4.733 -33.299  1.00  0.00     0.146 A 
HETATM    6  C   UNL     1      -5.951   4.451 -33.122  1.00  0.00     0.059 A 
ENDROOT
BRANCH   6   7
HETATM    7  C   UNL     1      -4.825   4.838 -33.992  1.00  0.00     0.193 C 
HETATM    8  O   UNL     1      -4.907   4.646 -35.201  1.00  0.00    -0.287 OA
BRANCH   7   9
HETATM    9  C   UNL     1      -3.561   5.366 -33.403  1.00  0.00     0.015 A 
HETATM   10  C   UNL     1      -3.601   6.610 -32.760  1.00  0.00     0.025 A 
HETATM   11  C   UNL     1      -2.434   7.189 -32.233  1.00  0.00    -0.028 A 
HETATM   12  C   UNL     1      -2.505   8.533 -31.561  1.00  0.00     0.051 C 
HETATM   13  C   UNL     1      -1.208   6.510 -32.348  1.00  0.00     0.074 A 
HETATM   14  C   UNL     1      -1.167   5.278 -33.005  1.00  0.00     0.038 A 
HETATM   15  C   UNL     1      -2.331   4.715 -33.539  1.00  0.00     0.018 A 
BRANCH  13  16
HETATM   16  O   UNL     1      -0.122   7.143 -31.805  1.00  0.00    -0.350 OA
BRANCH  16  17
HETATM   17  C   UNL     1       0.687   6.405 -30.887  1.00  0.00     0.179 C 
BRANCH  17  18
HETATM   18  C   UNL     1       0.060   6.487 -29.488  1.00  0.00     0.002 C 
HETATM   19  C   UNL     1       0.725   5.508 -28.519  1.00  0.00     0.011 C 
HETATM   20  C   UNL     1       0.151   7.913 -28.948  1.00  0.00     0.011 C 
ENDBRANCH  17  18
ENDBRANCH  16  17
ENDBRANCH  13  16
ENDBRANCH   7   9
ENDBRANCH   6   7
BRANCH   1  21
HETATM   21  C   UNL     1      -5.199   2.273 -32.022  1.00  0.00    -0.028 A 
HETATM   22  C   UNL     1      -3.854   1.917 -31.817  1.00  0.00     0.012 A 
HETATM   23  C   UNL     1      -3.425   0.601 -32.004  1.00  0.00     0.040 A 
HETATM   24  C   UNL     1      -4.341  -0.383 -32.379  1.00  0.00     0.099 A 
HETATM   25  C   UNL     1      -5.690  -0.062 -32.544  1.00  0.00     0.102 A 
HETATM   26  C   UNL     1      -6.105   1.265 -32.388  1.00  0.00     0.049 A 
BRANCH  24  27
HETATM   27  O   UNL     1      -3.893  -1.653 -32.606  1.00  0.00    -0.358 OA
HETATM   28  H   UNL     1      -4.159  -2.228 -31.871  1.00  0.00     0.218 HD
ENDBRANCH  24  27
BRANCH  25  29
HETATM   29  O   UNL     1      -6.691  -0.932 -32.888  1.00  0.00    -0.349 OA
BRANCH  29  30
HETATM   30  C   UNL     1      -6.853  -1.142 -34.295  1.00  0.00     0.171 C 
HETATM   31  C   UNL     1      -6.706  -2.628 -34.569  1.00  0.00     0.034 C 
ENDBRANCH  29  30
ENDBRANCH  25  29
ENDBRANCH   1  21
BRANCH   5  32
HETATM   32  O   UNL     1      -7.845   5.397 -34.323  1.00  0.00    -0.355 OA
HETATM   33  H   UNL     1      -7.162   5.539 -35.008  1.00  0.00     0.218 HD
ENDBRANCH   5  32
BRANCH   2  34
HETATM   34  C   UNL     1      -7.169   3.596 -29.801  1.00  0.00     0.129 C 
BRANCH  34  35
HETATM   35  C   UNL     1      -7.123   4.928 -29.052  1.00  0.00     0.048 C 
BRANCH  35  36
HETATM   36  C   UNL     1      -5.703   5.294 -28.636  1.00  0.00     0.235 C 
BRANCH  36  37
HETATM   37  N   UNL     1      -5.197   6.465 -29.459  1.00  0.00    -0.079 N 
HETATM   38  H   UNL     1      -4.529   6.100 -30.151  1.00  0.00     0.278 HD
HETATM   39  C   UNL     1      -6.299   7.151 -30.227  1.00  0.00     0.269 C 
HETATM   40  C   UNL     1      -4.434   7.447 -28.612  1.00  0.00     0.269 C 
ENDBRANCH  36  37
ENDBRANCH  35  36
ENDBRANCH  34  35
ENDBRANCH   2  34
TORSDOF 14
ENDMDL
MODEL 6
REMARK VINA RESULT:      -7.6      5.662      8.884
REMARK  14 active torsions:
REMARK  status: ('A' for Active; 'I' for Inactive)
REMARK    1  A    between atoms: C_2  and  O_3 
REMARK    2  A    between atoms: O_3  and  C_4 
REMARK    3  A    between atoms: C_5  and  O_6 
REMARK    4  A    between atoms: C_9  and  C_10 
REMARK    5  A    between atoms: N_11  and  C_12 
REMARK    6  A    between atoms: C_12  and  C_13 
REMARK    7  A    between atoms: C_13  and  C_14 
REMARK    8  A    between atoms: C_14  and  N_15 
REMARK    9  A    between atoms: C_21  and  O_22 
REMARK   10  A    between atoms: C_23  and  C_24 
REMARK   11  A    between atoms: C_24  and  C_25 
REMARK   12  A    between atoms: C_29  and  O_30 
REMARK   13  A    between atoms: O_30  and  C_31 
REMARK   14  A    between atoms: C_31  and  C_32 
ROOT
HETATM    1  C   UNL     1     -11.351   4.251 -33.121  1.00  0.00     0.161 A 
HETATM    2  N   UNL     1     -11.340   5.316 -34.123  1.00  0.00    -0.333 N 
HETATM    3  C   UNL     1     -10.081   5.463 -34.676  1.00  0.00     0.278 A 
HETATM    4  O   UNL     1      -9.720   6.255 -35.528  1.00  0.00    -0.265 OA
HETATM    5  C   UNL     1      -9.185   4.487 -34.023  1.00  0.00     0.146 A 
HETATM    6  C   UNL     1      -9.911   3.854 -33.097  1.00  0.00     0.059 A 
ENDROOT
BRANCH   6   7
HETATM    7  C   UNL     1      -9.429   2.895 -32.085  1.00  0.00     0.193 C 
HETATM    8  O   UNL     1      -9.535   3.174 -30.895  1.00  0.00    -0.287 OA
BRANCH   7   9
HETATM    9  C   UNL     1      -8.729   1.646 -32.500  1.00  0.00     0.015 A 
HETATM   10  C   UNL     1      -7.605   1.243 -31.768  1.00  0.00     0.025 A 
HETATM   11  C   UNL     1      -6.868   0.105 -32.141  1.00  0.00    -0.028 A 
HETATM   12  C   UNL     1      -5.657  -0.294 -31.344  1.00  0.00     0.051 C 
HETATM   13  C   UNL     1      -7.266  -0.642 -33.263  1.00  0.00     0.074 A 
HETATM   14  C   UNL     1      -8.376  -0.229 -34.003  1.00  0.00     0.038 A 
HETATM   15  C   UNL     1      -9.096   0.912 -33.633  1.00  0.00     0.018 A 
BRANCH  13  16
HETATM   16  O   UNL     1      -6.495  -1.736 -33.555  1.00  0.00    -0.350 OA
BRANCH  16  17
HETATM   17  C   UNL     1      -6.146  -1.957 -34.922  1.00  0.00     0.179 C 
BRANCH  17  18
HETATM   18  C   UNL     1      -5.474  -3.331 -35.053  1.00  0.00     0.002 C 
HETATM   19  C   UNL     1      -4.323  -3.487 -34.056  1.00  0.00     0.011 C 
HETATM   20  C   UNL     1      -6.500  -4.445 -34.857  1.00  0.00     0.011 C 
ENDBRANCH  17  18
ENDBRANCH  16  17
ENDBRANCH  13  16
ENDBRANCH   7   9
ENDBRANCH   6   7
BRANCH   1  21
HETATM   21  C   UNL     1     -12.330   3.167 -33.537  1.00  0.00    -0.028 A 
HETATM   22  C   UNL     1     -12.135   2.386 -34.690  1.00  0.00     0.012 A 
HETATM   23  C   UNL     1     -13.068   1.415 -35.063  1.00  0.00     0.040 A 
HETATM   24  C   UNL     1     -14.199   1.197 -34.275  1.00  0.00     0.099 A 
HETATM   25  C   UNL     1     -14.390   1.930 -33.101  1.00  0.00     0.102 A 
HETATM   26  C   UNL     1     -13.469   2.924 -32.754  1.00  0.00     0.049 A 
BRANCH  24  27
HETATM   27  O   UNL     1     -15.124   0.279 -34.683  1.00  0.00    -0.358 OA
HETATM   28  H   UNL     1     -14.915  -0.015 -35.584  1.00  0.00     0.218 HD
ENDBRANCH  24  27
BRANCH  25  29
HETATM   29  O   UNL     1     -15.441   1.801 -32.232  1.00  0.00    -0.349 OA
BRANCH  29  30
HETATM   30  C   UNL     1     -16.158   3.011 -31.966  1.00  0.00     0.171 C 
HETATM   31  C   UNL     1     -17.621   2.774 -32.297  1.00  0.00     0.034 C 
ENDBRANCH  29  30
ENDBRANCH  25  29
ENDBRANCH   1  21
BRANCH   5  32
HETATM   32  O   UNL     1      -7.855   4.380 -34.291  1.00  0.00    -0.355 OA
HETATM   33  H   UNL     1      -7.725   4.698 -35.206  1.00  0.00     0.218 HD
ENDBRANCH   5  32
BRANCH   2  34
HETATM   34  C   UNL     1     -12.345   6.369 -34.093  1.00  0.00     0.129 C 
BRANCH  34  35
HETATM   35  C   UNL     1     -13.334   6.354 -35.259  1.00  0.00     0.048 C 
BRANCH  35  36
HETATM   36  C   UNL     1     -13.021   7.442 -36.279  1.00  0.00     0.235 C 
BRANCH  36  37
HETATM   37  N   UNL     1     -13.915   7.297 -37.497  1.00  0.00    -0.079 N 
HETATM   38  H   UNL     1     -13.701   6.394 -37.941  1.00  0.00     0.278 HD
HETATM   39  C   UNL     1     -15.380   7.279 -37.141  1.00  0.00     0.269 C 
HETATM   40  C   UNL     1     -13.622   8.354 -38.528  1.00  0.00     0.269 C 
ENDBRANCH  36  37
ENDBRANCH  35  36
ENDBRANCH  34  35
ENDBRANCH   2  34
TORSDOF 14
ENDMDL
MODEL 7
REMARK VINA RESULT:      -7.4      3.355      7.201
REMARK  14 active torsions:
REMARK  status: ('A' for Active; 'I' for Inactive)
REMARK    1  A    between atoms: C_2  and  O_3 
REMARK    2  A    between atoms: O_3  and  C_4 
REMARK    3  A    between atoms: C_5  and  O_6 
REMARK    4  A    between atoms: C_9  and  C_10 
REMARK    5  A    between atoms: N_11  and  C_12 
REMARK    6  A    between atoms: C_12  and  C_13 
REMARK    7  A    between atoms: C_13  and  C_14 
REMARK    8  A    between atoms: C_14  and  N_15 
REMARK    9  A    between atoms: C_21  and  O_22 
REMARK   10  A    between atoms: C_23  and  C_24 
REMARK   11  A    between atoms: C_24  and  C_25 
REMARK   12  A    between atoms: C_29  and  O_30 
REMARK   13  A    between atoms: O_30  and  C_31 
REMARK   14  A    between atoms: C_31  and  C_32 
ROOT
HETATM    1  C   UNL     1      -6.212   1.882 -32.518  1.00  0.00     0.161 A 
HETATM    2  N   UNL     1      -5.255   2.871 -32.024  1.00  0.00    -0.333 N 
HETATM    3  C   UNL     1      -5.658   3.386 -30.805  1.00  0.00     0.278 A 
HETATM    4  O   UNL     1      -5.103   4.227 -30.121  1.00  0.00    -0.265 OA
HETATM    5  C   UNL     1      -6.946   2.752 -30.453  1.00  0.00     0.146 A 
HETATM    6  C   UNL     1      -7.275   1.951 -31.470  1.00  0.00     0.059 A 
ENDROOT
BRANCH   6   7
HETATM    7  C   UNL     1      -8.540   1.216 -31.655  1.00  0.00     0.193 C 
HETATM    8  O   UNL     1      -8.635   0.068 -31.235  1.00  0.00    -0.287 OA
BRANCH   7   9
HETATM    9  C   UNL     1      -9.660   1.823 -32.431  1.00  0.00     0.015 A 
HETATM   10  C   UNL     1     -10.283   2.964 -31.909  1.00  0.00     0.025 A 
HETATM   11  C   UNL     1     -11.380   3.552 -32.562  1.00  0.00    -0.028 A 
HETATM   12  C   UNL     1     -12.038   4.768 -31.970  1.00  0.00     0.051 C 
HETATM   13  C   UNL     1     -11.858   2.990 -33.759  1.00  0.00     0.074 A 
HETATM   14  C   UNL     1     -11.248   1.842 -34.269  1.00  0.00     0.038 A 
HETATM   15  C   UNL     1     -10.165   1.255 -33.605  1.00  0.00     0.018 A 
BRANCH  13  16
HETATM   16  O   UNL     1     -12.928   3.626 -34.331  1.00  0.00    -0.350 OA
BRANCH  16  17
HETATM   17  C   UNL     1     -12.717   4.290 -35.578  1.00  0.00     0.179 C 
BRANCH  17  18
HETATM   18  C   UNL     1     -12.731   5.807 -35.347  1.00  0.00     0.002 C 
HETATM   19  C   UNL     1     -11.315   6.388 -35.351  1.00  0.00     0.011 C 
HETATM   20  C   UNL     1     -13.590   6.497 -36.405  1.00  0.00     0.011 C 
ENDBRANCH  17  18
ENDBRANCH  16  17
ENDBRANCH  13  16
ENDBRANCH   7   9
ENDBRANCH   6   7
BRANCH   1  21
HETATM   21  C   UNL     1      -5.524   0.538 -32.676  1.00  0.00    -0.028 A 
HETATM   22  C   UNL     1      -4.526   0.099 -31.787  1.00  0.00     0.012 A 
HETATM   23  C   UNL     1      -3.891  -1.131 -31.974  1.00  0.00     0.040 A 
HETATM   24  C   UNL     1      -4.259  -1.949 -33.042  1.00  0.00     0.099 A 
HETATM   25  C   UNL     1      -5.279  -1.554 -33.912  1.00  0.00     0.102 A 
HETATM   26  C   UNL     1      -5.886  -0.306 -33.737  1.00  0.00     0.049 A 
BRANCH  24  27
HETATM   27  O   UNL     1      -3.592  -3.125 -33.238  1.00  0.00    -0.358 OA
HETATM   28  H   UNL     1      -3.995  -3.608 -33.976  1.00  0.00     0.218 HD
ENDBRANCH  24  27
BRANCH  25  29
HETATM   29  O   UNL     1      -5.749  -2.269 -34.982  1.00  0.00    -0.349 OA
BRANCH  29  30
HETATM   30  C   UNL     1      -6.820  -3.172 -34.683  1.00  0.00     0.171 C 
HETATM   31  C   UNL     1      -6.485  -4.520 -35.296  1.00  0.00     0.034 C 
ENDBRANCH  29  30
ENDBRANCH  25  29
ENDBRANCH   1  21
BRANCH   5  32
HETATM   32  O   UNL     1      -7.659   3.054 -29.334  1.00  0.00    -0.355 OA
HETATM   33  H   UNL     1      -7.176   3.770 -28.876  1.00  0.00     0.218 HD
ENDBRANCH   5  32
BRANCH   2  34
HETATM   34  C   UNL     1      -4.364   3.562 -32.946  1.00  0.00     0.129 C 
BRANCH  34  35
HETATM   35  C   UNL     1      -2.875   3.439 -32.621  1.00  0.00     0.048 C 
BRANCH  35  36
HETATM   36  C   UNL     1      -2.292   4.761 -32.135  1.00  0.00     0.235 C 
BRANCH  36  37
HETATM   37  N   UNL     1      -1.261   5.278 -33.122  1.00  0.00    -0.079 N 
HETATM   38  H   UNL     1      -0.412   4.705 -33.021  1.00  0.00     0.278 HD
HETATM   39  C   UNL     1      -1.714   5.149 -34.554  1.00  0.00     0.269 C 
HETATM   40  C   UNL     1      -0.856   6.693 -32.808  1.00  0.00     0.269 C 
ENDBRANCH  36  37
ENDBRANCH  35  36
ENDBRANCH  34  35
ENDBRANCH   2  34
TORSDOF 14
ENDMDL
MODEL 8
REMARK VINA RESULT:      -7.4      2.525      8.292
REMARK  14 active torsions:
REMARK  status: ('A' for Active; 'I' for Inactive)
REMARK    1  A    between atoms: C_2  and  O_3 
REMARK    2  A    between atoms: O_3  and  C_4 
REMARK    3  A    between atoms: C_5  and  O_6 
REMARK    4  A    between atoms: C_9  and  C_10 
REMARK    5  A    between atoms: N_11  and  C_12 
REMARK    6  A    between atoms: C_12  and  C_13 
REMARK    7  A    between atoms: C_13  and  C_14 
REMARK    8  A    between atoms: C_14  and  N_15 
REMARK    9  A    between atoms: C_21  and  O_22 
REMARK   10  A    between atoms: C_23  and  C_24 
REMARK   11  A    between atoms: C_24  and  C_25 
REMARK   12  A    between atoms: C_29  and  O_30 
REMARK   13  A    between atoms: O_30  and  C_31 
REMARK   14  A    between atoms: C_31  and  C_32 
ROOT
HETATM    1  C   UNL     1      -4.360   3.858 -32.203  1.00  0.00     0.161 A 
HETATM    2  N   UNL     1      -5.783   4.016 -32.500  1.00  0.00    -0.333 N 
HETATM    3  C   UNL     1      -5.968   4.626 -33.728  1.00  0.00     0.278 A 
HETATM    4  O   UNL     1      -7.016   4.912 -34.277  1.00  0.00    -0.265 OA
HETATM    5  C   UNL     1      -4.633   4.920 -34.290  1.00  0.00     0.146 A 
HETATM    6  C   UNL     1      -3.735   4.536 -33.379  1.00  0.00     0.059 A 
ENDROOT
BRANCH   6   7
HETATM    7  C   UNL     1      -2.278   4.758 -33.412  1.00  0.00     0.193 C 
HETATM    8  O   UNL     1      -1.610   4.225 -34.292  1.00  0.00    -0.287 OA
BRANCH   7   9
HETATM    9  C   UNL     1      -1.606   5.538 -32.333  1.00  0.00     0.015 A 
HETATM   10  C   UNL     1      -0.674   4.878 -31.523  1.00  0.00     0.025 A 
HETATM   11  C   UNL     1      -0.048   5.542 -30.453  1.00  0.00    -0.028 A 
HETATM   12  C   UNL     1       0.938   4.802 -29.590  1.00  0.00     0.051 C 
HETATM   13  C   UNL     1      -0.358   6.888 -30.194  1.00  0.00     0.074 A 
HETATM   14  C   UNL     1      -1.301   7.540 -30.992  1.00  0.00     0.038 A 
HETATM   15  C   UNL     1      -1.930   6.868 -32.045  1.00  0.00     0.018 A 
BRANCH  13  16
HETATM   16  O   UNL     1       0.299   7.458 -29.136  1.00  0.00    -0.350 OA
BRANCH  16  17
HETATM   17  C   UNL     1      -0.492   8.066 -28.114  1.00  0.00     0.179 C 
BRANCH  17  18
HETATM   18  C   UNL     1      -0.013   7.563 -26.744  1.00  0.00     0.002 C 
HETATM   19  C   UNL     1      -0.546   6.159 -26.447  1.00  0.00     0.011 C 
HETATM   20  C   UNL     1       1.512   7.576 -26.676  1.00  0.00     0.011 C 
ENDBRANCH  17  18
ENDBRANCH  16  17
ENDBRANCH  13  16
ENDBRANCH   7   9
ENDBRANCH   6   7
BRANCH   1  21
HETATM   21  C   UNL     1      -4.033   2.384 -32.037  1.00  0.00    -0.028 A 
HETATM   22  C   UNL     1      -3.249   1.907 -30.972  1.00  0.00     0.012 A 
HETATM   23  C   UNL     1      -2.941   0.549 -30.862  1.00  0.00     0.040 A 
HETATM   24  C   UNL     1      -3.431  -0.354 -31.805  1.00  0.00     0.099 A 
HETATM   25  C   UNL     1      -4.249   0.090 -32.846  1.00  0.00     0.102 A 
HETATM   26  C   UNL     1      -4.524   1.457 -32.969  1.00  0.00     0.049 A 
BRANCH  24  27
HETATM   27  O   UNL     1      -3.077  -1.671 -31.709  1.00  0.00    -0.358 OA
HETATM   28  H   UNL     1      -3.097  -1.945 -30.778  1.00  0.00     0.218 HD
ENDBRANCH  24  27
BRANCH  25  29
HETATM   29  O   UNL     1      -4.810  -0.691 -33.822  1.00  0.00    -0.349 OA
BRANCH  29  30
HETATM   30  C   UNL     1      -6.144  -0.328 -34.195  1.00  0.00     0.171 C 
HETATM   31  C   UNL     1      -6.908  -1.602 -34.510  1.00  0.00     0.034 C 
ENDBRANCH  29  30
ENDBRANCH  25  29
ENDBRANCH   1  21
BRANCH   5  32
HETATM   32  O   UNL     1      -4.434   5.561 -35.474  1.00  0.00    -0.355 OA
HETATM   33  H   UNL     1      -3.486   5.798 -35.511  1.00  0.00     0.218 HD
ENDBRANCH   5  32
BRANCH   2  34
HETATM   34  C   UNL     1      -6.765   4.034 -31.425  1.00  0.00     0.129 C 
BRANCH  34  35
HETATM   35  C   UNL     1      -7.388   2.678 -31.095  1.00  0.00     0.048 C 
BRANCH  35  36
HETATM   36  C   UNL     1      -8.206   2.133 -32.259  1.00  0.00     0.235 C 
BRANCH  36  37
HETATM   37  N   UNL     1      -9.198   3.177 -32.741  1.00  0.00    -0.079 N 
HETATM   38  H   UNL     1      -8.701   4.075 -32.816  1.00  0.00     0.278 HD
HETATM   39  C   UNL     1      -9.751   2.862 -34.108  1.00  0.00     0.269 C 
HETATM   40  C   UNL     1     -10.306   3.387 -31.744  1.00  0.00     0.269 C 
ENDBRANCH  36  37
ENDBRANCH  35  36
ENDBRANCH  34  35
ENDBRANCH   2  34
TORSDOF 14
ENDMDL
MODEL 9
REMARK VINA RESULT:      -7.4      3.455      8.145
REMARK  14 active torsions:
REMARK  status: ('A' for Active; 'I' for Inactive)
REMARK    1  A    between atoms: C_2  and  O_3 
REMARK    2  A    between atoms: O_3  and  C_4 
REMARK    3  A    between atoms: C_5  and  O_6 
REMARK    4  A    between atoms: C_9  and  C_10 
REMARK    5  A    between atoms: N_11  and  C_12 
REMARK    6  A    between atoms: C_12  and  C_13 
REMARK    7  A    between atoms: C_13  and  C_14 
REMARK    8  A    between atoms: C_14  and  N_15 
REMARK    9  A    between atoms: C_21  and  O_22 
REMARK   10  A    between atoms: C_23  and  C_24 
REMARK   11  A    between atoms: C_24  and  C_25 
REMARK   12  A    between atoms: C_29  and  O_30 
REMARK   13  A    between atoms: O_30  and  C_31 
REMARK   14  A    between atoms: C_31  and  C_32 
ROOT
HETATM    1  C   UNL     1      -9.179   2.187 -33.065  1.00  0.00     0.161 A 
HETATM    2  N   UNL     1      -9.973   2.506 -34.251  1.00  0.00    -0.333 N 
HETATM    3  C   UNL     1      -9.886   3.851 -34.559  1.00  0.00     0.278 A 
HETATM    4  O   UNL     1     -10.422   4.452 -35.473  1.00  0.00    -0.265 OA
HETATM    5  C   UNL     1      -9.025   4.491 -33.542  1.00  0.00     0.146 A 
HETATM    6  C   UNL     1      -8.688   3.541 -32.666  1.00  0.00     0.059 A 
ENDROOT
BRANCH   6   7
HETATM    7  C   UNL     1      -7.962   3.716 -31.394  1.00  0.00     0.193 C 
HETATM    8  O   UNL     1      -8.504   3.388 -30.343  1.00  0.00    -0.287 OA
BRANCH   7   9
HETATM    9  C   UNL     1      -6.624   4.373 -31.372  1.00  0.00     0.015 A 
HETATM   10  C   UNL     1      -5.532   3.666 -31.892  1.00  0.00     0.025 A 
HETATM   11  C   UNL     1      -4.235   4.207 -31.850  1.00  0.00    -0.028 A 
HETATM   12  C   UNL     1      -3.079   3.418 -32.403  1.00  0.00     0.051 C 
HETATM   13  C   UNL     1      -4.029   5.476 -31.282  1.00  0.00     0.074 A 
HETATM   14  C   UNL     1      -5.116   6.172 -30.747  1.00  0.00     0.038 A 
HETATM   15  C   UNL     1      -6.401   5.621 -30.780  1.00  0.00     0.018 A 
BRANCH  13  16
HETATM   16  O   UNL     1      -2.736   5.928 -31.284  1.00  0.00    -0.350 OA
BRANCH  16  17
HETATM   17  C   UNL     1      -2.505   7.275 -31.701  1.00  0.00     0.179 C 
BRANCH  17  18
HETATM   18  C   UNL     1      -1.141   7.355 -32.402  1.00  0.00     0.002 C 
HETATM   19  C   UNL     1      -0.028   6.772 -31.530  1.00  0.00     0.011 C 
HETATM   20  C   UNL     1      -1.193   6.635 -33.748  1.00  0.00     0.011 C 
ENDBRANCH  17  18
ENDBRANCH  16  17
ENDBRANCH  13  16
ENDBRANCH   7   9
ENDBRANCH   6   7
BRANCH   1  21
HETATM   21  C   UNL     1      -8.108   1.173 -33.423  1.00  0.00    -0.028 A 
HETATM   22  C   UNL     1      -7.836   0.811 -34.754  1.00  0.00     0.012 A 
HETATM   23  C   UNL     1      -6.862  -0.147 -35.050  1.00  0.00     0.040 A 
HETATM   24  C   UNL     1      -6.133  -0.741 -34.020  1.00  0.00     0.099 A 
HETATM   25  C   UNL     1      -6.355  -0.364 -32.693  1.00  0.00     0.102 A 
HETATM   26  C   UNL     1      -7.355   0.571 -32.402  1.00  0.00     0.049 A 
BRANCH  24  27
HETATM   27  O   UNL     1      -5.222  -1.711 -34.326  1.00  0.00    -0.358 OA
HETATM   28  H   UNL     1      -4.479  -1.668 -33.704  1.00  0.00     0.218 HD
ENDBRANCH  24  27
BRANCH  25  29
HETATM   29  O   UNL     1      -5.697  -0.851 -31.595  1.00  0.00    -0.349 OA
BRANCH  29  30
HETATM   30  C   UNL     1      -4.834   0.087 -30.942  1.00  0.00     0.171 C 
HETATM   31  C   UNL     1      -3.405  -0.226 -31.349  1.00  0.00     0.034 C 
ENDBRANCH  29  30
ENDBRANCH  25  29
ENDBRANCH   1  21
BRANCH   5  32
HETATM   32  O   UNL     1      -8.753   5.824 -33.509  1.00  0.00    -0.355 OA
HETATM   33  H   UNL     1      -8.890   6.118 -32.587  1.00  0.00     0.218 HD
ENDBRANCH   5  32
BRANCH   2  34
HETATM   34  C   UNL     1     -11.078   1.648 -34.653  1.00  0.00     0.129 C 
BRANCH  34  35
HETATM   35  C   UNL     1     -11.940   1.122 -33.505  1.00  0.00     0.048 C 
BRANCH  35  36
HETATM   36  C   UNL     1     -13.055   2.098 -33.143  1.00  0.00     0.235 C 
BRANCH  36  37
HETATM   37  N   UNL     1     -14.330   1.343 -32.814  1.00  0.00    -0.079 N 
HETATM   38  H   UNL     1     -14.084   0.562 -32.190  1.00  0.00     0.278 HD
HETATM   39  C   UNL     1     -15.335   2.195 -32.081  1.00  0.00     0.269 C 
HETATM   40  C   UNL     1     -14.940   0.725 -34.044  1.00  0.00     0.269 C 
ENDBRANCH  36  37
ENDBRANCH  35  36
ENDBRANCH  34  35
ENDBRANCH   2  34
TORSDOF 14
ENDMDL
MODEL 10
REMARK VINA RESULT:      -7.3      3.600      7.096
REMARK  14 active torsions:
REMARK  status: ('A' for Active; 'I' for Inactive)
REMARK    1  A    between atoms: C_2  and  O_3 
REMARK    2  A    between atoms: O_3  and  C_4 
REMARK    3  A    between atoms: C_5  and  O_6 
REMARK    4  A    between atoms: C_9  and  C_10 
REMARK    5  A    between atoms: N_11  and  C_12 
REMARK    6  A    between atoms: C_12  and  C_13 
REMARK    7  A    between atoms: C_13  and  C_14 
REMARK    8  A    between atoms: C_14  and  N_15 
REMARK    9  A    between atoms: C_21  and  O_22 
REMARK   10  A    between atoms: C_23  and  C_24 
REMARK   11  A    between atoms: C_24  and  C_25 
REMARK   12  A    between atoms: C_29  and  O_30 
REMARK   13  A    between atoms: O_30  and  C_31 
REMARK   14  A    between atoms: C_31  and  C_32 
ROOT
HETATM    1  C   UNL     1      -6.697   1.942 -32.970  1.00  0.00     0.161 A 
HETATM    2  N   UNL     1      -5.515   2.663 -32.500  1.00  0.00    -0.333 N 
HETATM    3  C   UNL     1      -5.603   2.930 -31.146  1.00  0.00     0.278 A 
HETATM    4  O   UNL     1      -4.802   3.515 -30.439  1.00  0.00    -0.265 OA
HETATM    5  C   UNL     1      -6.896   2.400 -30.665  1.00  0.00     0.146 A 
HETATM    6  C   UNL     1      -7.530   1.901 -31.730  1.00  0.00     0.059 A 
ENDROOT
BRANCH   6   7
HETATM    7  C   UNL     1      -8.914   1.394 -31.789  1.00  0.00     0.193 C 
HETATM    8  O   UNL     1      -9.177   0.307 -31.285  1.00  0.00    -0.287 OA
BRANCH   7   9
HETATM    9  C   UNL     1      -9.963   2.145 -32.537  1.00  0.00     0.015 A 
HETATM   10  C   UNL     1     -10.837   1.419 -33.357  1.00  0.00     0.025 A 
HETATM   11  C   UNL     1     -11.811   2.072 -34.131  1.00  0.00    -0.028 A 
HETATM   12  C   UNL     1     -12.726   1.268 -35.014  1.00  0.00     0.051 C 
HETATM   13  C   UNL     1     -11.915   3.473 -34.080  1.00  0.00     0.074 A 
HETATM   14  C   UNL     1     -11.032   4.197 -33.276  1.00  0.00     0.038 A 
HETATM   15  C   UNL     1     -10.055   3.540 -32.519  1.00  0.00     0.018 A 
BRANCH  13  16
HETATM   16  O   UNL     1     -12.893   4.028 -34.863  1.00  0.00    -0.350 OA
BRANCH  16  17
HETATM   17  C   UNL     1     -13.273   5.378 -34.593  1.00  0.00     0.179 C 
BRANCH  17  18
HETATM   18  C   UNL     1     -13.019   6.230 -35.844  1.00  0.00     0.002 C 
HETATM   19  C   UNL     1     -14.284   6.969 -36.285  1.00  0.00     0.011 C 
HETATM   20  C   UNL     1     -11.887   7.223 -35.590  1.00  0.00     0.011 C 
ENDBRANCH  17  18
ENDBRANCH  16  17
ENDBRANCH  13  16
ENDBRANCH   7   9
ENDBRANCH   6   7
BRANCH   1  21
HETATM   21  C   UNL     1      -6.284   0.594 -33.534  1.00  0.00    -0.028 A 
HETATM   22  C   UNL     1      -7.094  -0.118 -34.437  1.00  0.00     0.012 A 
HETATM   23  C   UNL     1      -6.700  -1.370 -34.918  1.00  0.00     0.040 A 
HETATM   24  C   UNL     1      -5.480  -1.917 -34.518  1.00  0.00     0.099 A 
HETATM   25  C   UNL     1      -4.639  -1.207 -33.658  1.00  0.00     0.102 A 
HETATM   26  C   UNL     1      -5.057   0.030 -33.154  1.00  0.00     0.049 A 
BRANCH  24  27
HETATM   27  O   UNL     1      -5.136  -3.163 -34.959  1.00  0.00    -0.358 OA
HETATM   28  H   UNL     1      -4.173  -3.216 -35.064  1.00  0.00     0.218 HD
ENDBRANCH  24  27
BRANCH  25  29
HETATM   29  O   UNL     1      -3.412  -1.618 -33.207  1.00  0.00    -0.349 OA
BRANCH  29  30
HETATM   30  C   UNL     1      -3.382  -2.047 -31.841  1.00  0.00     0.171 C 
HETATM   31  C   UNL     1      -2.972  -3.508 -31.815  1.00  0.00     0.034 C 
ENDBRANCH  29  30
ENDBRANCH  25  29
ENDBRANCH   1  21
BRANCH   5  32
HETATM   32  O   UNL     1      -7.337   2.524 -29.384  1.00  0.00    -0.355 OA
HETATM   33  H   UNL     1      -8.257   2.192 -29.368  1.00  0.00     0.218 HD
ENDBRANCH   5  32
BRANCH   2  34
HETATM   34  C   UNL     1      -4.699   3.429 -33.431  1.00  0.00     0.129 C 
BRANCH  34  35
HETATM   35  C   UNL     1      -5.304   4.759 -33.880  1.00  0.00     0.048 C 
BRANCH  35  36
HETATM   36  C   UNL     1      -4.630   5.945 -33.199  1.00  0.00     0.235 C 
BRANCH  36  37
HETATM   37  N   UNL     1      -3.132   5.716 -33.102  1.00  0.00    -0.079 N 
HETATM   38  H   UNL     1      -2.954   4.715 -33.257  1.00  0.00     0.278 HD
HETATM   39  C   UNL     1      -2.362   6.471 -34.155  1.00  0.00     0.269 C 
HETATM   40  C   UNL     1      -2.614   6.030 -31.724  1.00  0.00     0.269 C 
ENDBRANCH  36  37
ENDBRANCH  35  36
ENDBRANCH  34  35
ENDBRANCH   2  34
TORSDOF 14
ENDMDL
