MODEL 1
REMARK VINA RESULT:      -9.0      0.000      0.000
REMARK  6 active torsions:
REMARK  status: ('A' for Active; 'I' for Inactive)
REMARK    1  A    between atoms: C_2  and  C_3 
REMARK    2  A    between atoms: C_3  and  C_4 
REMARK    3  A    between atoms: C_3  and  C_10 
REMARK    4  A    between atoms: C_10  and  C_11 
REMARK       I    between atoms: C_11  and  N_12 
REMARK    5  A    between atoms: N_12  and  C_13 
REMARK    6  A    between atoms: C_20  and  C_21 
REMARK       I    between atoms: C_21  and  N_22 
ROOT
HETATM    1  C   UNL     1      -9.084   1.370 -33.522  1.00  0.00     0.035 A 
HETATM    2  C   UNL     1     -10.351   0.771 -33.563  1.00  0.00     0.046 A 
HETATM    3  C   UNL     1     -11.442   1.482 -34.111  1.00  0.00     0.030 A 
HETATM    4  C   UNL     1     -11.226   2.763 -34.605  1.00  0.00     0.063 A 
HETATM    5  N   UNL     1     -12.443   3.185 -35.062  1.00  0.00    -0.277 N 
HETATM    6  H   UNL     1     -12.662   4.078 -35.491  1.00  0.00     0.189 HD
HETATM    7  N   UNL     1     -13.437   2.296 -34.904  1.00  0.00    -0.168 NA
HETATM    8  C   UNL     1     -12.833   1.237 -34.316  1.00  0.00     0.156 A 
HETATM    9  C   UNL     1      -9.980   3.389 -34.583  1.00  0.00     0.034 A 
HETATM   10  C   UNL     1      -8.916   2.666 -34.028  1.00  0.00     0.032 A 
ENDROOT
BRANCH   1  11
HETATM   11  N   UNL     1      -7.941   0.752 -32.973  1.00  0.00    -0.327 N 
HETATM   12  C   UNL     1      -6.812   0.317 -33.644  1.00  0.00     0.222 C 
HETATM   13  O   UNL     1      -6.564   0.454 -34.835  1.00  0.00    -0.273 OA
HETATM   14  H   UNL     1      -7.944   0.631 -31.968  1.00  0.00     0.169 HD
BRANCH  12  15
HETATM   15  C   UNL     1      -5.844  -0.422 -32.736  1.00  0.00     0.112 C 
BRANCH  15  16
HETATM   16  C   UNL     1      -4.613  -0.924 -33.515  1.00  0.00     0.027 C 
BRANCH  16  17
HETATM   17  C   UNL     1      -3.262  -0.531 -32.872  1.00  0.00     0.005 C 
HETATM   18  C   UNL     1      -3.344   0.424 -31.688  1.00  0.00     0.006 C 
ENDBRANCH  16  17
BRANCH  16  19
HETATM   19  C   UNL     1      -4.671  -2.413 -33.828  1.00  0.00    -0.054 A 
HETATM   20  C   UNL     1      -5.671  -2.977 -34.635  1.00  0.00     0.007 A 
HETATM   21  C   UNL     1      -5.693  -4.351 -34.889  1.00  0.00     0.001 A 
HETATM   22  C   UNL     1      -4.720  -5.181 -34.340  1.00  0.00     0.000 A 
HETATM   23  C   UNL     1      -3.725  -4.639 -33.530  1.00  0.00     0.001 A 
HETATM   24  C   UNL     1      -3.703  -3.267 -33.274  1.00  0.00     0.007 A 
ENDBRANCH  16  19
ENDBRANCH  15  16
ENDBRANCH  12  15
ENDBRANCH   1  11
BRANCH   8  25
HETATM   25  C   UNL     1     -13.594   0.030 -33.963  1.00  0.00     0.270 C 
HETATM   26  N   UNL     1     -14.912   0.073 -34.330  1.00  0.00    -0.365 N 
HETATM   27  H   UNL     1     -15.257   0.903 -34.796  1.00  0.00     0.159 HD
HETATM   28  H   UNL     1     -15.512  -0.708 -34.122  1.00  0.00     0.159 HD
HETATM   29  O   UNL     1     -13.128  -0.948 -33.388  1.00  0.00    -0.266 OA
ENDBRANCH   8  25
TORSDOF 6
ENDMDL
MODEL 2
REMARK VINA RESULT:      -8.9      1.555      2.848
REMARK  6 active torsions:
REMARK  status: ('A' for Active; 'I' for Inactive)
REMARK    1  A    between atoms: C_2  and  C_3 
REMARK    2  A    between atoms: C_3  and  C_4 
REMARK    3  A    between atoms: C_3  and  C_10 
REMARK    4  A    between atoms: C_10  and  C_11 
REMARK       I    between atoms: C_11  and  N_12 
REMARK    5  A    between atoms: N_12  and  C_13 
REMARK    6  A    between atoms: C_20  and  C_21 
REMARK       I    between atoms: C_21  and  N_22 
ROOT
HETATM    1  C   UNL     1      -9.788   1.617 -34.309  1.00  0.00     0.035 A 
HETATM    2  C   UNL     1     -11.091   1.101 -34.327  1.00  0.00     0.046 A 
HETATM    3  C   UNL     1     -12.154   1.873 -33.805  1.00  0.00     0.030 A 
HETATM    4  C   UNL     1     -11.878   3.133 -33.291  1.00  0.00     0.063 A 
HETATM    5  N   UNL     1     -13.081   3.626 -32.872  1.00  0.00    -0.277 N 
HETATM    6  H   UNL     1     -13.260   4.527 -32.442  1.00  0.00     0.189 HD
HETATM    7  N   UNL     1     -14.120   2.796 -33.061  1.00  0.00    -0.168 NA
HETATM    8  C   UNL     1     -13.562   1.705 -33.637  1.00  0.00     0.156 A 
HETATM    9  C   UNL     1     -10.594   3.679 -33.259  1.00  0.00     0.034 A 
HETATM   10  C   UNL     1      -9.557   2.893 -33.776  1.00  0.00     0.032 A 
ENDROOT
BRANCH   1  11
HETATM   11  N   UNL     1      -8.659   0.916 -34.782  1.00  0.00    -0.327 N 
HETATM   12  C   UNL     1      -8.025  -0.162 -34.190  1.00  0.00     0.222 C 
HETATM   13  O   UNL     1      -8.372  -0.755 -33.176  1.00  0.00    -0.273 OA
HETATM   14  H   UNL     1      -8.283   1.229 -35.668  1.00  0.00     0.169 HD
BRANCH  12  15
HETATM   15  C   UNL     1      -6.760  -0.569 -34.925  1.00  0.00     0.112 C 
BRANCH  15  16
HETATM   16  C   UNL     1      -6.067  -1.761 -34.236  1.00  0.00     0.027 C 
BRANCH  16  17
HETATM   17  C   UNL     1      -5.655  -2.892 -35.208  1.00  0.00     0.005 C 
HETATM   18  C   UNL     1      -6.437  -4.193 -35.081  1.00  0.00     0.006 C 
ENDBRANCH  16  17
BRANCH  16  19
HETATM   19  C   UNL     1      -4.908  -1.342 -33.341  1.00  0.00    -0.054 A 
HETATM   20  C   UNL     1      -4.621   0.002 -33.057  1.00  0.00     0.007 A 
HETATM   21  C   UNL     1      -3.540   0.343 -32.238  1.00  0.00     0.001 A 
HETATM   22  C   UNL     1      -2.731  -0.651 -31.696  1.00  0.00     0.000 A 
HETATM   23  C   UNL     1      -2.996  -1.989 -31.976  1.00  0.00     0.001 A 
HETATM   24  C   UNL     1      -4.074  -2.331 -32.795  1.00  0.00     0.007 A 
ENDBRANCH  16  19
ENDBRANCH  15  16
ENDBRANCH  12  15
ENDBRANCH   1  11
BRANCH   8  25
HETATM   25  C   UNL     1     -14.378   0.540 -34.004  1.00  0.00     0.270 C 
HETATM   26  N   UNL     1     -13.977  -0.630 -33.418  1.00  0.00    -0.365 N 
HETATM   27  H   UNL     1     -13.175  -0.612 -32.801  1.00  0.00     0.159 HD
HETATM   28  H   UNL     1     -14.475  -1.483 -33.618  1.00  0.00     0.159 HD
HETATM   29  O   UNL     1     -15.339   0.571 -34.767  1.00  0.00    -0.266 OA
ENDBRANCH   8  25
TORSDOF 6
ENDMDL
MODEL 3
REMARK VINA RESULT:      -8.7      5.151      8.404
REMARK  6 active torsions:
REMARK  status: ('A' for Active; 'I' for Inactive)
REMARK    1  A    between atoms: C_2  and  C_3 
REMARK    2  A    between atoms: C_3  and  C_4 
REMARK    3  A    between atoms: C_3  and  C_10 
REMARK    4  A    between atoms: C_10  and  C_11 
REMARK       I    between atoms: C_11  and  N_12 
REMARK    5  A    between atoms: N_12  and  C_13 
REMARK    6  A    between atoms: C_20  and  C_21 
REMARK       I    between atoms: C_21  and  N_22 
ROOT
HETATM    1  C   UNL     1      -3.543   3.919 -32.949  1.00  0.00     0.035 A 
HETATM    2  C   UNL     1      -2.488   4.075 -32.039  1.00  0.00     0.046 A 
HETATM    3  C   UNL     1      -1.692   5.242 -32.087  1.00  0.00     0.030 A 
HETATM    4  C   UNL     1      -1.984   6.214 -33.036  1.00  0.00     0.063 A 
HETATM    5  N   UNL     1      -1.063   7.204 -32.837  1.00  0.00    -0.277 N 
HETATM    6  H   UNL     1      -0.975   8.073 -33.351  1.00  0.00     0.189 HD
HETATM    7  N   UNL     1      -0.190   6.962 -31.846  1.00  0.00    -0.168 NA
HETATM    8  C   UNL     1      -0.566   5.751 -31.372  1.00  0.00     0.156 A 
HETATM    9  C   UNL     1      -3.028   6.094 -33.955  1.00  0.00     0.034 A 
HETATM   10  C   UNL     1      -3.797   4.925 -33.892  1.00  0.00     0.032 A 
ENDROOT
BRANCH   1  11
HETATM   11  N   UNL     1      -4.376   2.782 -32.998  1.00  0.00    -0.327 N 
HETATM   12  C   UNL     1      -5.508   2.530 -32.243  1.00  0.00     0.222 C 
HETATM   13  O   UNL     1      -6.040   3.286 -31.440  1.00  0.00    -0.273 OA
HETATM   14  H   UNL     1      -4.121   2.077 -33.678  1.00  0.00     0.169 HD
BRANCH  12  15
HETATM   15  C   UNL     1      -6.068   1.139 -32.478  1.00  0.00     0.112 C 
BRANCH  15  16
HETATM   16  C   UNL     1      -4.943   0.095 -32.619  1.00  0.00     0.027 C 
BRANCH  16  17
HETATM   17  C   UNL     1      -4.292  -0.308 -31.275  1.00  0.00     0.005 C 
HETATM   18  C   UNL     1      -2.820   0.051 -31.117  1.00  0.00     0.006 C 
ENDBRANCH  16  17
BRANCH  16  19
HETATM   19  C   UNL     1      -5.360  -1.127 -33.427  1.00  0.00    -0.054 A 
HETATM   20  C   UNL     1      -6.688  -1.357 -33.818  1.00  0.00     0.007 A 
HETATM   21  C   UNL     1      -7.029  -2.497 -34.551  1.00  0.00     0.001 A 
HETATM   22  C   UNL     1      -6.050  -3.424 -34.900  1.00  0.00     0.000 A 
HETATM   23  C   UNL     1      -4.729  -3.215 -34.513  1.00  0.00     0.001 A 
HETATM   24  C   UNL     1      -4.388  -2.077 -33.780  1.00  0.00     0.007 A 
ENDBRANCH  16  19
ENDBRANCH  15  16
ENDBRANCH  12  15
ENDBRANCH   1  11
BRANCH   8  25
HETATM   25  C   UNL     1       0.156   5.113 -30.262  1.00  0.00     0.270 C 
HETATM   26  N   UNL     1      -0.288   5.483 -29.021  1.00  0.00    -0.365 N 
HETATM   27  H   UNL     1      -1.050   6.147 -28.958  1.00  0.00     0.159 HD
HETATM   28  H   UNL     1       0.153   5.101 -28.200  1.00  0.00     0.159 HD
HETATM   29  O   UNL     1       1.082   4.319 -30.394  1.00  0.00    -0.266 OA
ENDBRANCH   8  25
TORSDOF 6
ENDMDL
MODEL 4
REMARK VINA RESULT:      -8.7      4.606      7.890
REMARK  6 active torsions:
REMARK  status: ('A' for Active; 'I' for Inactive)
REMARK    1  A    between atoms: C_2  and  C_3 
REMARK    2  A    between atoms: C_3  and  C_4 
REMARK    3  A    between atoms: C_3  and  C_10 
REMARK    4  A    between atoms: C_10  and  C_11 
REMARK       I    between atoms: C_11  and  N_12 
REMARK    5  A    between atoms: N_12  and  C_13 
REMARK    6  A    between atoms: C_20  and  C_21 
REMARK       I    between atoms: C_21  and  N_22 
ROOT
HETATM    1  C   UNL     1      -4.278   3.150 -32.622  1.00  0.00     0.035 A 
HETATM    2  C   UNL     1      -3.113   3.592 -31.979  1.00  0.00     0.046 A 
HETATM    3  C   UNL     1      -2.511   4.805 -32.384  1.00  0.00     0.030 A 
HETATM    4  C   UNL     1      -3.097   5.534 -33.411  1.00  0.00     0.063 A 
HETATM    5  N   UNL     1      -2.305   6.636 -33.572  1.00  0.00    -0.277 N 
HETATM    6  H   UNL     1      -2.431   7.391 -34.236  1.00  0.00     0.189 HD
HETATM    7  N   UNL     1      -1.247   6.687 -32.746  1.00  0.00    -0.168 NA
HETATM    8  C   UNL     1      -1.361   5.560 -32.004  1.00  0.00     0.156 A 
HETATM    9  C   UNL     1      -4.257   5.126 -34.071  1.00  0.00     0.034 A 
HETATM   10  C   UNL     1      -4.831   3.918 -33.656  1.00  0.00     0.032 A 
ENDROOT
BRANCH   1  11
HETATM   11  N   UNL     1      -4.938   1.943 -32.308  1.00  0.00    -0.327 N 
HETATM   12  C   UNL     1      -4.492   0.653 -32.534  1.00  0.00     0.222 C 
HETATM   13  O   UNL     1      -3.404   0.318 -32.985  1.00  0.00    -0.273 OA
HETATM   14  H   UNL     1      -5.834   2.036 -31.848  1.00  0.00     0.169 HD
BRANCH  12  15
HETATM   15  C   UNL     1      -5.535  -0.394 -32.183  1.00  0.00     0.112 C 
BRANCH  15  16
HETATM   16  C   UNL     1      -6.334  -0.832 -33.425  1.00  0.00     0.027 C 
BRANCH  16  17
HETATM   17  C   UNL     1      -6.317   0.201 -34.576  1.00  0.00     0.005 C 
HETATM   18  C   UNL     1      -7.680   0.701 -35.039  1.00  0.00     0.006 C 
ENDBRANCH  16  17
BRANCH  16  19
HETATM   19  C   UNL     1      -5.958  -2.223 -33.917  1.00  0.00    -0.054 A 
HETATM   20  C   UNL     1      -4.655  -2.734 -33.814  1.00  0.00     0.007 A 
HETATM   21  C   UNL     1      -4.350  -4.013 -34.289  1.00  0.00     0.001 A 
HETATM   22  C   UNL     1      -5.340  -4.798 -34.874  1.00  0.00     0.000 A 
HETATM   23  C   UNL     1      -6.636  -4.302 -34.992  1.00  0.00     0.001 A 
HETATM   24  C   UNL     1      -6.941  -3.025 -34.520  1.00  0.00     0.007 A 
ENDBRANCH  16  19
ENDBRANCH  15  16
ENDBRANCH  12  15
ENDBRANCH   1  11
BRANCH   8  25
HETATM   25  C   UNL     1      -0.374   5.233 -30.966  1.00  0.00     0.270 C 
HETATM   26  N   UNL     1      -0.756   5.591 -29.701  1.00  0.00    -0.365 N 
HETATM   27  H   UNL     1      -1.654   6.042 -29.575  1.00  0.00     0.159 HD
HETATM   28  H   UNL     1      -0.139   5.412 -28.925  1.00  0.00     0.159 HD
HETATM   29  O   UNL     1       0.707   4.693 -31.172  1.00  0.00    -0.266 OA
ENDBRANCH   8  25
TORSDOF 6
ENDMDL
MODEL 5
REMARK VINA RESULT:      -8.6      1.773      2.300
REMARK  6 active torsions:
REMARK  status: ('A' for Active; 'I' for Inactive)
REMARK    1  A    between atoms: C_2  and  C_3 
REMARK    2  A    between atoms: C_3  and  C_4 
REMARK    3  A    between atoms: C_3  and  C_10 
REMARK    4  A    between atoms: C_10  and  C_11 
REMARK       I    between atoms: C_11  and  N_12 
REMARK    5  A    between atoms: N_12  and  C_13 
REMARK    6  A    between atoms: C_20  and  C_21 
REMARK       I    between atoms: C_21  and  N_22 
ROOT
HETATM    1  C   UNL     1      -9.278   1.840 -31.921  1.00  0.00     0.035 A 
HETATM    2  C   UNL     1     -10.189   1.827 -32.987  1.00  0.00     0.046 A 
HETATM    3  C   UNL     1     -11.230   2.782 -33.026  1.00  0.00     0.030 A 
HETATM    4  C   UNL     1     -11.318   3.719 -32.005  1.00  0.00     0.063 A 
HETATM    5  N   UNL     1     -12.402   4.493 -32.315  1.00  0.00    -0.277 N 
HETATM    6  H   UNL     1     -12.766   5.279 -31.789  1.00  0.00     0.189 HD
HETATM    7  N   UNL     1     -13.033   4.139 -33.446  1.00  0.00    -0.168 NA
HETATM    8  C   UNL     1     -12.320   3.081 -33.898  1.00  0.00     0.156 A 
HETATM    9  C   UNL     1     -10.429   3.763 -30.931  1.00  0.00     0.034 A 
HETATM   10  C   UNL     1      -9.410   2.803 -30.910  1.00  0.00     0.032 A 
ENDROOT
BRANCH   1  11
HETATM   11  N   UNL     1      -8.222   0.915 -31.778  1.00  0.00    -0.327 N 
HETATM   12  C   UNL     1      -7.016   0.899 -32.456  1.00  0.00     0.222 C 
HETATM   13  O   UNL     1      -6.610   1.733 -33.256  1.00  0.00    -0.273 OA
HETATM   14  H   UNL     1      -8.361   0.189 -31.087  1.00  0.00     0.169 HD
BRANCH  12  15
HETATM   15  C   UNL     1      -6.183  -0.329 -32.133  1.00  0.00     0.112 C 
BRANCH  15  16
HETATM   16  C   UNL     1      -5.194  -0.653 -33.269  1.00  0.00     0.027 C 
BRANCH  16  17
HETATM   17  C   UNL     1      -3.717  -0.363 -32.915  1.00  0.00     0.005 C 
HETATM   18  C   UNL     1      -3.390  -0.305 -31.428  1.00  0.00     0.006 C 
ENDBRANCH  16  17
BRANCH  16  19
HETATM   19  C   UNL     1      -5.369  -2.058 -33.831  1.00  0.00    -0.054 A 
HETATM   20  C   UNL     1      -4.330  -3.001 -33.842  1.00  0.00     0.007 A 
HETATM   21  C   UNL     1      -4.530  -4.277 -34.376  1.00  0.00     0.001 A 
HETATM   22  C   UNL     1      -5.767  -4.627 -34.909  1.00  0.00     0.000 A 
HETATM   23  C   UNL     1      -6.806  -3.700 -34.915  1.00  0.00     0.001 A 
HETATM   24  C   UNL     1      -6.607  -2.425 -34.383  1.00  0.00     0.007 A 
ENDBRANCH  16  19
ENDBRANCH  15  16
ENDBRANCH  12  15
ENDBRANCH   1  11
BRANCH   8  25
HETATM   25  C   UNL     1     -12.697   2.386 -35.136  1.00  0.00     0.270 C 
HETATM   26  N   UNL     1     -12.065   2.857 -36.256  1.00  0.00    -0.365 N 
HETATM   27  H   UNL     1     -11.412   3.624 -36.156  1.00  0.00     0.159 HD
HETATM   28  H   UNL     1     -12.267   2.444 -37.152  1.00  0.00     0.159 HD
HETATM   29  O   UNL     1     -13.503   1.464 -35.204  1.00  0.00    -0.266 OA
ENDBRANCH   8  25
TORSDOF 6
ENDMDL
MODEL 6
REMARK VINA RESULT:      -8.2      4.329      6.140
REMARK  6 active torsions:
REMARK  status: ('A' for Active; 'I' for Inactive)
REMARK    1  A    between atoms: C_2  and  C_3 
REMARK    2  A    between atoms: C_3  and  C_4 
REMARK    3  A    between atoms: C_3  and  C_10 
REMARK    4  A    between atoms: C_10  and  C_11 
REMARK       I    between atoms: C_11  and  N_12 
REMARK    5  A    between atoms: N_12  and  C_13 
REMARK    6  A    between atoms: C_20  and  C_21 
REMARK       I    between atoms: C_21  and  N_22 
ROOT
HETATM    1  C   UNL     1      -7.227   2.940 -31.360  1.00  0.00     0.035 A 
HETATM    2  C   UNL     1      -6.544   3.665 -30.373  1.00  0.00     0.046 A 
HETATM    3  C   UNL     1      -7.234   4.648 -29.627  1.00  0.00     0.030 A 
HETATM    4  C   UNL     1      -8.581   4.864 -29.889  1.00  0.00     0.063 A 
HETATM    5  N   UNL     1      -8.964   5.851 -29.025  1.00  0.00    -0.277 N 
HETATM    6  H   UNL     1      -9.885   6.264 -28.934  1.00  0.00     0.189 HD
HETATM    7  N   UNL     1      -7.984   6.304 -28.226  1.00  0.00    -0.168 NA
HETATM    8  C   UNL     1      -6.906   5.569 -28.588  1.00  0.00     0.156 A 
HETATM    9  C   UNL     1      -9.292   4.159 -30.860  1.00  0.00     0.034 A 
HETATM   10  C   UNL     1      -8.585   3.196 -31.591  1.00  0.00     0.032 A 
ENDROOT
BRANCH   1  11
HETATM   11  N   UNL     1      -6.621   1.958 -32.173  1.00  0.00    -0.327 N 
HETATM   12  C   UNL     1      -6.362   0.638 -31.851  1.00  0.00     0.222 C 
HETATM   13  O   UNL     1      -6.678   0.055 -30.822  1.00  0.00    -0.273 OA
HETATM   14  H   UNL     1      -6.364   2.254 -33.106  1.00  0.00     0.169 HD
BRANCH  12  15
HETATM   15  C   UNL     1      -5.576  -0.082 -32.933  1.00  0.00     0.112 C 
BRANCH  15  16
HETATM   16  C   UNL     1      -6.499  -0.919 -33.838  1.00  0.00     0.027 C 
BRANCH  16  17
HETATM   17  C   UNL     1      -6.924  -0.197 -35.139  1.00  0.00     0.005 C 
HETATM   18  C   UNL     1      -8.272   0.510 -35.095  1.00  0.00     0.006 C 
ENDBRANCH  16  17
BRANCH  16  19
HETATM   19  C   UNL     1      -5.953  -2.312 -34.125  1.00  0.00    -0.054 A 
HETATM   20  C   UNL     1      -4.615  -2.662 -33.883  1.00  0.00     0.007 A 
HETATM   21  C   UNL     1      -4.152  -3.949 -34.171  1.00  0.00     0.001 A 
HETATM   22  C   UNL     1      -5.015  -4.902 -34.704  1.00  0.00     0.000 A 
HETATM   23  C   UNL     1      -6.343  -4.568 -34.958  1.00  0.00     0.001 A 
HETATM   24  C   UNL     1      -6.807  -3.282 -34.673  1.00  0.00     0.007 A 
ENDBRANCH  16  19
ENDBRANCH  15  16
ENDBRANCH  12  15
ENDBRANCH   1  11
BRANCH   8  25
HETATM   25  C   UNL     1      -5.601   5.768 -27.941  1.00  0.00     0.270 C 
HETATM   26  N   UNL     1      -4.587   6.064 -28.811  1.00  0.00    -0.365 N 
HETATM   27  H   UNL     1      -4.797   6.119 -29.800  1.00  0.00     0.159 HD
HETATM   28  H   UNL     1      -3.655   6.210 -28.457  1.00  0.00     0.159 HD
HETATM   29  O   UNL     1      -5.397   5.680 -26.735  1.00  0.00    -0.266 OA
ENDBRANCH   8  25
TORSDOF 6
ENDMDL
MODEL 7
REMARK VINA RESULT:      -8.2      1.651      3.020
REMARK  6 active torsions:
REMARK  status: ('A' for Active; 'I' for Inactive)
REMARK    1  A    between atoms: C_2  and  C_3 
REMARK    2  A    between atoms: C_3  and  C_4 
REMARK    3  A    between atoms: C_3  and  C_10 
REMARK    4  A    between atoms: C_10  and  C_11 
REMARK       I    between atoms: C_11  and  N_12 
REMARK    5  A    between atoms: N_12  and  C_13 
REMARK    6  A    between atoms: C_20  and  C_21 
REMARK       I    between atoms: C_21  and  N_22 
ROOT
HETATM    1  C   UNL     1      -9.341   1.139 -33.116  1.00  0.00     0.035 A 
HETATM    2  C   UNL     1      -9.449   2.479 -33.514  1.00  0.00     0.046 A 
HETATM    3  C   UNL     1     -10.691   2.972 -33.974  1.00  0.00     0.030 A 
HETATM    4  C   UNL     1     -11.781   2.111 -34.013  1.00  0.00     0.063 A 
HETATM    5  N   UNL     1     -12.819   2.861 -34.491  1.00  0.00    -0.277 N 
HETATM    6  H   UNL     1     -13.773   2.559 -34.651  1.00  0.00     0.189 HD
HETATM    7  N   UNL     1     -12.501   4.136 -34.774  1.00  0.00    -0.168 NA
HETATM    8  C   UNL     1     -11.187   4.219 -34.460  1.00  0.00     0.156 A 
HETATM    9  C   UNL     1     -11.711   0.774 -33.623  1.00  0.00     0.034 A 
HETATM   10  C   UNL     1     -10.468   0.307 -33.177  1.00  0.00     0.032 A 
ENDROOT
BRANCH   1  11
HETATM   11  N   UNL     1      -8.142   0.548 -32.666  1.00  0.00    -0.327 N 
HETATM   12  C   UNL     1      -7.011   0.260 -33.411  1.00  0.00     0.222 C 
HETATM   13  O   UNL     1      -6.816   0.534 -34.588  1.00  0.00    -0.273 OA
HETATM   14  H   UNL     1      -8.101   0.325 -31.680  1.00  0.00     0.169 HD
BRANCH  12  15
HETATM   15  C   UNL     1      -5.966  -0.499 -32.612  1.00  0.00     0.112 C 
BRANCH  15  16
HETATM   16  C   UNL     1      -4.794  -0.951 -33.505  1.00  0.00     0.027 C 
BRANCH  16  17
HETATM   17  C   UNL     1      -3.404  -0.540 -32.967  1.00  0.00     0.005 C 
HETATM   18  C   UNL     1      -3.360  -0.100 -31.509  1.00  0.00     0.006 C 
ENDBRANCH  16  17
BRANCH  16  19
HETATM   19  C   UNL     1      -4.844  -2.433 -33.851  1.00  0.00    -0.054 A 
HETATM   20  C   UNL     1      -3.846  -3.336 -33.453  1.00  0.00     0.007 A 
HETATM   21  C   UNL     1      -3.926  -4.687 -33.802  1.00  0.00     0.001 A 
HETATM   22  C   UNL     1      -4.999  -5.154 -34.555  1.00  0.00     0.000 A 
HETATM   23  C   UNL     1      -5.993  -4.270 -34.966  1.00  0.00     0.001 A 
HETATM   24  C   UNL     1      -5.915  -2.920 -34.620  1.00  0.00     0.007 A 
ENDBRANCH  16  19
ENDBRANCH  15  16
ENDBRANCH  12  15
ENDBRANCH   1  11
BRANCH   8  25
HETATM   25  C   UNL     1     -10.444   5.475 -34.635  1.00  0.00     0.270 C 
HETATM   26  N   UNL     1     -10.627   6.378 -33.623  1.00  0.00    -0.365 N 
HETATM   27  H   UNL     1     -11.240   6.128 -32.857  1.00  0.00     0.159 HD
HETATM   28  H   UNL     1     -10.162   7.270 -33.662  1.00  0.00     0.159 HD
HETATM   29  O   UNL     1      -9.719   5.732 -35.590  1.00  0.00    -0.266 OA
ENDBRANCH   8  25
TORSDOF 6
ENDMDL
MODEL 8
REMARK VINA RESULT:      -8.0      2.811      8.531
REMARK  6 active torsions:
REMARK  status: ('A' for Active; 'I' for Inactive)
REMARK    1  A    between atoms: C_2  and  C_3 
REMARK    2  A    between atoms: C_3  and  C_4 
REMARK    3  A    between atoms: C_3  and  C_10 
REMARK    4  A    between atoms: C_10  and  C_11 
REMARK       I    between atoms: C_11  and  N_12 
REMARK    5  A    between atoms: N_12  and  C_13 
REMARK    6  A    between atoms: C_20  and  C_21 
REMARK       I    between atoms: C_21  and  N_22 
ROOT
HETATM    1  C   UNL     1      -7.601   0.114 -34.435  1.00  0.00     0.035 A 
HETATM    2  C   UNL     1      -7.255  -1.229 -34.640  1.00  0.00     0.046 A 
HETATM    3  C   UNL     1      -5.973  -1.685 -34.259  1.00  0.00     0.030 A 
HETATM    4  C   UNL     1      -5.087  -0.785 -33.680  1.00  0.00     0.063 A 
HETATM    5  N   UNL     1      -3.954  -1.506 -33.423  1.00  0.00    -0.277 N 
HETATM    6  H   UNL     1      -3.096  -1.171 -33.000  1.00  0.00     0.189 HD
HETATM    7  N   UNL     1      -4.020  -2.797 -33.789  1.00  0.00    -0.168 NA
HETATM    8  C   UNL     1      -5.263  -2.923 -34.309  1.00  0.00     0.156 A 
HETATM    9  C   UNL     1      -5.398   0.557 -33.459  1.00  0.00     0.034 A 
HETATM   10  C   UNL     1      -6.672   0.986 -33.852  1.00  0.00     0.032 A 
ENDROOT
BRANCH   1  11
HETATM   11  N   UNL     1      -8.844   0.669 -34.805  1.00  0.00    -0.327 N 
HETATM   12  C   UNL     1      -9.921   0.951 -33.983  1.00  0.00     0.222 C 
HETATM   13  O   UNL     1      -9.967   0.837 -32.765  1.00  0.00    -0.273 OA
HETATM   14  H   UNL     1      -8.950   0.903 -35.784  1.00  0.00     0.169 HD
BRANCH  12  15
HETATM   15  C   UNL     1     -11.140   1.420 -34.759  1.00  0.00     0.112 C 
BRANCH  15  16
HETATM   16  C   UNL     1     -11.720   2.718 -34.167  1.00  0.00     0.027 C 
BRANCH  16  17
HETATM   17  C   UNL     1     -11.786   3.890 -35.174  1.00  0.00     0.005 C 
HETATM   18  C   UNL     1     -10.566   4.801 -35.214  1.00  0.00     0.006 C 
ENDBRANCH  16  17
BRANCH  16  19
HETATM   19  C   UNL     1     -13.054   2.509 -33.463  1.00  0.00    -0.054 A 
HETATM   20  C   UNL     1     -14.011   1.589 -33.916  1.00  0.00     0.007 A 
HETATM   21  C   UNL     1     -15.228   1.436 -33.246  1.00  0.00     0.001 A 
HETATM   22  C   UNL     1     -15.507   2.202 -32.117  1.00  0.00     0.000 A 
HETATM   23  C   UNL     1     -14.572   3.126 -31.659  1.00  0.00     0.001 A 
HETATM   24  C   UNL     1     -13.357   3.281 -32.328  1.00  0.00     0.007 A 
ENDBRANCH  16  19
ENDBRANCH  15  16
ENDBRANCH  12  15
ENDBRANCH   1  11
BRANCH   8  25
HETATM   25  C   UNL     1      -5.736  -4.209 -34.840  1.00  0.00     0.270 C 
HETATM   26  N   UNL     1      -4.933  -5.272 -34.526  1.00  0.00    -0.365 N 
HETATM   27  H   UNL     1      -4.100  -5.103 -33.976  1.00  0.00     0.159 HD
HETATM   28  H   UNL     1      -5.175  -6.193 -34.854  1.00  0.00     0.159 HD
HETATM   29  O   UNL     1      -6.751  -4.358 -35.512  1.00  0.00    -0.266 OA
ENDBRANCH   8  25
TORSDOF 6
ENDMDL
MODEL 9
REMARK VINA RESULT:      -7.9      5.385      8.467
REMARK  6 active torsions:
REMARK  status: ('A' for Active; 'I' for Inactive)
REMARK    1  A    between atoms: C_2  and  C_3 
REMARK    2  A    between atoms: C_3  and  C_4 
REMARK    3  A    between atoms: C_3  and  C_10 
REMARK    4  A    between atoms: C_10  and  C_11 
REMARK       I    between atoms: C_11  and  N_12 
REMARK    5  A    between atoms: N_12  and  C_13 
REMARK    6  A    between atoms: C_20  and  C_21 
REMARK       I    between atoms: C_21  and  N_22 
ROOT
HETATM    1  C   UNL     1      -3.348   4.372 -32.497  1.00  0.00     0.035 A 
HETATM    2  C   UNL     1      -3.354   5.125 -31.314  1.00  0.00     0.046 A 
HETATM    3  C   UNL     1      -2.266   5.980 -31.026  1.00  0.00     0.030 A 
HETATM    4  C   UNL     1      -1.217   6.058 -31.933  1.00  0.00     0.063 A 
HETATM    5  N   UNL     1      -0.335   6.951 -31.392  1.00  0.00    -0.277 N 
HETATM    6  H   UNL     1       0.550   7.254 -31.783  1.00  0.00     0.189 HD
HETATM    7  N   UNL     1      -0.712   7.458 -30.207  1.00  0.00    -0.168 NA
HETATM    8  C   UNL     1      -1.906   6.866 -29.967  1.00  0.00     0.156 A 
HETATM    9  C   UNL     1      -1.179   5.326 -33.121  1.00  0.00     0.034 A 
HETATM   10  C   UNL     1      -2.264   4.480 -33.380  1.00  0.00     0.032 A 
ENDROOT
BRANCH   1  11
HETATM   11  N   UNL     1      -4.372   3.472 -32.860  1.00  0.00    -0.327 N 
HETATM   12  C   UNL     1      -4.465   2.127 -32.549  1.00  0.00     0.222 C 
HETATM   13  O   UNL     1      -3.707   1.483 -31.835  1.00  0.00    -0.273 OA
HETATM   14  H   UNL     1      -5.135   3.865 -33.396  1.00  0.00     0.169 HD
BRANCH  12  15
HETATM   15  C   UNL     1      -5.644   1.452 -33.227  1.00  0.00     0.112 C 
BRANCH  15  16
HETATM   16  C   UNL     1      -6.060   0.167 -32.487  1.00  0.00     0.027 C 
BRANCH  16  17
HETATM   17  C   UNL     1      -7.462   0.245 -31.838  1.00  0.00     0.005 C 
HETATM   18  C   UNL     1      -7.848   1.597 -31.252  1.00  0.00     0.006 C 
ENDBRANCH  16  17
BRANCH  16  19
HETATM   19  C   UNL     1      -5.906  -1.088 -33.336  1.00  0.00    -0.054 A 
HETATM   20  C   UNL     1      -6.997  -1.725 -33.947  1.00  0.00     0.007 A 
HETATM   21  C   UNL     1      -6.812  -2.882 -34.710  1.00  0.00     0.001 A 
HETATM   22  C   UNL     1      -5.538  -3.419 -34.871  1.00  0.00     0.000 A 
HETATM   23  C   UNL     1      -4.446  -2.804 -34.264  1.00  0.00     0.001 A 
HETATM   24  C   UNL     1      -4.629  -1.650 -33.500  1.00  0.00     0.007 A 
ENDBRANCH  16  19
ENDBRANCH  15  16
ENDBRANCH  12  15
ENDBRANCH   1  11
BRANCH   8  25
HETATM   25  C   UNL     1      -2.662   7.155 -28.741  1.00  0.00     0.270 C 
HETATM   26  N   UNL     1      -2.042   6.744 -27.592  1.00  0.00    -0.365 N 
HETATM   27  H   UNL     1      -1.143   6.283 -27.665  1.00  0.00     0.159 HD
HETATM   28  H   UNL     1      -2.491   6.894 -26.703  1.00  0.00     0.159 HD
HETATM   29  O   UNL     1      -3.756   7.709 -28.707  1.00  0.00    -0.266 OA
ENDBRANCH   8  25
TORSDOF 6
ENDMDL
MODEL 10
REMARK VINA RESULT:      -7.9      5.176      8.524
REMARK  6 active torsions:
REMARK  status: ('A' for Active; 'I' for Inactive)
REMARK    1  A    between atoms: C_2  and  C_3 
REMARK    2  A    between atoms: C_3  and  C_4 
REMARK    3  A    between atoms: C_3  and  C_10 
REMARK    4  A    between atoms: C_10  and  C_11 
REMARK       I    between atoms: C_11  and  N_12 
REMARK    5  A    between atoms: N_12  and  C_13 
REMARK    6  A    between atoms: C_20  and  C_21 
REMARK       I    between atoms: C_21  and  N_22 
ROOT
HETATM    1  C   UNL     1      -3.606   3.522 -32.357  1.00  0.00     0.035 A 
HETATM    2  C   UNL     1      -2.494   4.119 -31.746  1.00  0.00     0.046 A 
HETATM    3  C   UNL     1      -1.991   5.339 -32.251  1.00  0.00     0.030 A 
HETATM    4  C   UNL     1      -2.622   5.923 -33.342  1.00  0.00     0.063 A 
HETATM    5  N   UNL     1      -1.924   7.071 -33.593  1.00  0.00    -0.277 N 
HETATM    6  H   UNL     1      -2.104   7.753 -34.322  1.00  0.00     0.189 HD
HETATM    7  N   UNL     1      -0.888   7.286 -32.765  1.00  0.00    -0.168 NA
HETATM    8  C   UNL     1      -0.916   6.222 -31.929  1.00  0.00     0.156 A 
HETATM    9  C   UNL     1      -3.731   5.360 -33.974  1.00  0.00     0.034 A 
HETATM   10  C   UNL     1      -4.206   4.147 -33.460  1.00  0.00     0.032 A 
ENDROOT
BRANCH   1  11
HETATM   11  N   UNL     1      -4.165   2.295 -31.944  1.00  0.00    -0.327 N 
HETATM   12  C   UNL     1      -4.971   2.062 -30.844  1.00  0.00     0.222 C 
HETATM   13  O   UNL     1      -5.411   2.896 -30.063  1.00  0.00    -0.273 OA
HETATM   14  H   UNL     1      -3.964   1.497 -32.533  1.00  0.00     0.169 HD
BRANCH  12  15
HETATM   15  C   UNL     1      -5.272   0.586 -30.644  1.00  0.00     0.112 C 
BRANCH  15  16
HETATM   16  C   UNL     1      -6.463   0.132 -31.508  1.00  0.00     0.027 C 
BRANCH  16  17
HETATM   17  C   UNL     1      -7.333   1.296 -32.037  1.00  0.00     0.005 C 
HETATM   18  C   UNL     1      -8.763   1.346 -31.514  1.00  0.00     0.006 C 
ENDBRANCH  16  17
BRANCH  16  19
HETATM   19  C   UNL     1      -6.060  -0.818 -32.629  1.00  0.00    -0.054 A 
HETATM   20  C   UNL     1      -4.746  -1.286 -32.786  1.00  0.00     0.007 A 
HETATM   21  C   UNL     1      -4.417  -2.149 -33.834  1.00  0.00     0.001 A 
HETATM   22  C   UNL     1      -5.392  -2.554 -34.742  1.00  0.00     0.000 A 
HETATM   23  C   UNL     1      -6.699  -2.092 -34.605  1.00  0.00     0.001 A 
HETATM   24  C   UNL     1      -7.029  -1.228 -33.559  1.00  0.00     0.007 A 
ENDBRANCH  16  19
ENDBRANCH  15  16
ENDBRANCH  12  15
ENDBRANCH   1  11
BRANCH   8  25
HETATM   25  C   UNL     1       0.078   6.073 -30.857  1.00  0.00     0.270 C 
HETATM   26  N   UNL     1       0.921   5.008 -31.021  1.00  0.00    -0.365 N 
HETATM   27  H   UNL     1       0.803   4.418 -31.835  1.00  0.00     0.159 HD
HETATM   28  H   UNL     1       1.631   4.824 -30.331  1.00  0.00     0.159 HD
HETATM   29  O   UNL     1       0.174   6.814 -29.884  1.00  0.00    -0.266 OA
ENDBRANCH   8  25
TORSDOF 6
ENDMDL
