MODEL 1
REMARK VINA RESULT:      -9.8      0.000      0.000
REMARK  6 active torsions:
REMARK  status: ('A' for Active; 'I' for Inactive)
REMARK    1  A    between atoms: C_6  and  C_7 
REMARK    2  A    between atoms: N_8  and  N_9 
REMARK       I    between atoms: N_9  and  C_10 
REMARK    3  A    between atoms: C_10  and  C_11 
REMARK    4  A    between atoms: C_14  and  O_15 
REMARK    5  A    between atoms: O_15  and  C_16 
REMARK    6  A    between atoms: C_16  and  C_17 
ROOT
HETATM    1  C   UNL     1      -6.353   0.506 -32.065  1.00  0.00     0.244 C 
HETATM    2  N   UNL     1      -6.238   1.854 -32.611  1.00  0.00    -0.225 N 
HETATM    3  C   UNL     1      -7.182   2.396 -33.463  1.00  0.00     0.276 C 
HETATM    4  O   UNL     1      -6.975   3.406 -34.135  1.00  0.00    -0.266 OA
HETATM    5  C   UNL     1      -8.491   1.709 -33.478  1.00  0.00     0.060 A 
HETATM    6  C   UNL     1      -8.728   0.747 -32.485  1.00  0.00     0.045 A 
HETATM    7  N   UNL     1      -7.732   0.431 -31.549  1.00  0.00    -0.362 N 
HETATM    8  C   UNL     1      -9.483   2.072 -34.395  1.00  0.00     0.019 A 
HETATM    9  C   UNL     1     -10.738   1.473 -34.314  1.00  0.00     0.001 A 
HETATM   10  C   UNL     1     -11.001   0.542 -33.308  1.00  0.00     0.002 A 
HETATM   11  C   UNL     1     -10.006   0.193 -32.388  1.00  0.00     0.030 A 
HETATM   12  H   UNL     1      -7.912  -0.368 -30.961  1.00  0.00     0.162 HD
ENDROOT
BRANCH   2  13
HETATM   13  N   UNL     1      -5.057   2.602 -32.407  1.00  0.00    -0.258 N 
HETATM   14  C   UNL     1      -4.895   3.414 -31.302  1.00  0.00     0.270 C 
HETATM   15  O   UNL     1      -5.552   3.369 -30.269  1.00  0.00    -0.266 OA
HETATM   16  H   UNL     1      -4.563   2.812 -33.272  1.00  0.00     0.190 HD
BRANCH  14  17
HETATM   17  C   UNL     1      -3.754   4.356 -31.403  1.00  0.00     0.033 A 
HETATM   18  C   UNL     1      -2.556   3.980 -32.017  1.00  0.00     0.020 A 
HETATM   19  C   UNL     1      -1.486   4.882 -32.070  1.00  0.00     0.038 A 
HETATM   20  C   UNL     1      -1.611   6.155 -31.508  1.00  0.00     0.069 A 
HETATM   21  C   UNL     1      -2.818   6.526 -30.907  1.00  0.00     0.038 A 
HETATM   22  C   UNL     1      -3.893   5.636 -30.861  1.00  0.00     0.020 A 
BRANCH  20  23
HETATM   23  O   UNL     1      -0.642   7.119 -31.476  1.00  0.00    -0.348 OA
BRANCH  23  24
HETATM   24  C   UNL     1       0.606   6.769 -30.883  1.00  0.00     0.202 C 
BRANCH  24  25
HETATM   25  C   UNL     1       0.434   6.850 -29.395  1.00  0.00    -0.011 C 
HETATM   26  C   UNL     1       0.821   7.884 -28.637  1.00  0.00     0.009 C 
ENDBRANCH  24  25
ENDBRANCH  23  24
ENDBRANCH  20  23
ENDBRANCH  14  17
ENDBRANCH   2  13
BRANCH   1  27
HETATM   27  C   UNL     1      -6.029  -0.675 -33.026  1.00  0.00    -0.009 A 
HETATM   28  C   UNL     1      -4.732  -1.173 -33.310  1.00  0.00    -0.051 A 
HETATM   29  C   UNL     1      -4.577  -2.294 -34.161  1.00  0.00     0.014 A 
HETATM   30  C   UNL     1      -3.460  -0.613 -32.738  1.00  0.00     0.049 C 
HETATM   31  C   UNL     1      -5.667  -2.959 -34.723  1.00  0.00    -0.061 A 
HETATM   32  C   UNL     1      -5.469  -4.175 -35.577  1.00  0.00     0.048 C 
HETATM   33  C   UNL     1      -6.942  -2.515 -34.407  1.00  0.00     0.007 A 
HETATM   34  C   UNL     1      -7.116  -1.405 -33.575  1.00  0.00     0.012 A 
ENDBRANCH   1  27
TORSDOF 6
ENDMDL
MODEL 2
REMARK VINA RESULT:      -8.9      1.188      1.627
REMARK  6 active torsions:
REMARK  status: ('A' for Active; 'I' for Inactive)
REMARK    1  A    between atoms: C_6  and  C_7 
REMARK    2  A    between atoms: N_8  and  N_9 
REMARK       I    between atoms: N_9  and  C_10 
REMARK    3  A    between atoms: C_10  and  C_11 
REMARK    4  A    between atoms: C_14  and  O_15 
REMARK    5  A    between atoms: O_15  and  C_16 
REMARK    6  A    between atoms: C_16  and  C_17 
ROOT
HETATM    1  C   UNL     1      -6.848   1.567 -31.439  1.00  0.00     0.244 C 
HETATM    2  N   UNL     1      -6.890   2.914 -31.996  1.00  0.00    -0.225 N 
HETATM    3  C   UNL     1      -7.735   3.267 -33.032  1.00  0.00     0.276 C 
HETATM    4  O   UNL     1      -7.599   4.302 -33.685  1.00  0.00    -0.266 OA
HETATM    5  C   UNL     1      -8.860   2.339 -33.276  1.00  0.00     0.060 A 
HETATM    6  C   UNL     1      -9.097   1.344 -32.315  1.00  0.00     0.045 A 
HETATM    7  N   UNL     1      -8.261   1.223 -31.196  1.00  0.00    -0.362 N 
HETATM    8  C   UNL     1      -9.705   2.507 -34.377  1.00  0.00     0.019 A 
HETATM    9  C   UNL     1     -10.813   1.675 -34.520  1.00  0.00     0.001 A 
HETATM   10  C   UNL     1     -11.084   0.705 -33.552  1.00  0.00     0.002 A 
HETATM   11  C   UNL     1     -10.239   0.552 -32.448  1.00  0.00     0.030 A 
HETATM   12  H   UNL     1      -8.396   0.402 -30.627  1.00  0.00     0.162 HD
ENDROOT
BRANCH   2  13
HETATM   13  N   UNL     1      -5.937   3.876 -31.594  1.00  0.00    -0.258 N 
HETATM   14  C   UNL     1      -4.711   3.989 -32.221  1.00  0.00     0.270 C 
HETATM   15  O   UNL     1      -4.417   3.534 -33.320  1.00  0.00    -0.266 OA
HETATM   16  H   UNL     1      -6.041   4.159 -30.622  1.00  0.00     0.190 HD
BRANCH  14  17
HETATM   17  C   UNL     1      -3.725   4.815 -31.483  1.00  0.00     0.033 A 
HETATM   18  C   UNL     1      -4.128   5.914 -30.717  1.00  0.00     0.020 A 
HETATM   19  C   UNL     1      -3.170   6.692 -30.057  1.00  0.00     0.038 A 
HETATM   20  C   UNL     1      -1.814   6.378 -30.162  1.00  0.00     0.069 A 
HETATM   21  C   UNL     1      -1.422   5.269 -30.920  1.00  0.00     0.038 A 
HETATM   22  C   UNL     1      -2.372   4.481 -31.572  1.00  0.00     0.020 A 
BRANCH  20  23
HETATM   23  O   UNL     1      -0.781   7.064 -29.585  1.00  0.00    -0.348 OA
BRANCH  23  24
HETATM   24  C   UNL     1       0.322   6.298 -29.104  1.00  0.00     0.202 C 
BRANCH  24  25
HETATM   25  C   UNL     1       0.943   7.066 -27.976  1.00  0.00    -0.011 C 
HETATM   26  C   UNL     1       1.278   8.361 -28.027  1.00  0.00     0.009 C 
ENDBRANCH  24  25
ENDBRANCH  23  24
ENDBRANCH  20  23
ENDBRANCH  14  17
ENDBRANCH   2  13
BRANCH   1  27
HETATM   27  C   UNL     1      -6.123   0.477 -32.280  1.00  0.00    -0.009 A 
HETATM   28  C   UNL     1      -4.755   0.119 -32.162  1.00  0.00    -0.051 A 
HETATM   29  C   UNL     1      -4.230  -0.933 -32.950  1.00  0.00     0.014 A 
HETATM   30  C   UNL     1      -3.785   0.766 -31.213  1.00  0.00     0.049 C 
HETATM   31  C   UNL     1      -5.020  -1.667 -33.835  1.00  0.00    -0.061 A 
HETATM   32  C   UNL     1      -4.442  -2.810 -34.614  1.00  0.00     0.048 C 
HETATM   33  C   UNL     1      -6.370  -1.364 -33.917  1.00  0.00     0.007 A 
HETATM   34  C   UNL     1      -6.907  -0.322 -33.154  1.00  0.00     0.012 A 
ENDBRANCH   1  27
TORSDOF 6
ENDMDL
MODEL 3
REMARK VINA RESULT:      -8.8      3.013      8.288
REMARK  6 active torsions:
REMARK  status: ('A' for Active; 'I' for Inactive)
REMARK    1  A    between atoms: C_6  and  C_7 
REMARK    2  A    between atoms: N_8  and  N_9 
REMARK       I    between atoms: N_9  and  C_10 
REMARK    3  A    between atoms: C_10  and  C_11 
REMARK    4  A    between atoms: C_14  and  O_15 
REMARK    5  A    between atoms: O_15  and  C_16 
REMARK    6  A    between atoms: C_16  and  C_17 
ROOT
HETATM    1  C   UNL     1      -4.494   4.641 -32.803  1.00  0.00     0.244 C 
HETATM    2  N   UNL     1      -5.145   3.813 -31.795  1.00  0.00    -0.225 N 
HETATM    3  C   UNL     1      -5.730   4.342 -30.659  1.00  0.00     0.276 C 
HETATM    4  O   UNL     1      -6.038   3.657 -29.684  1.00  0.00    -0.266 OA
HETATM    5  C   UNL     1      -6.014   5.792 -30.710  1.00  0.00     0.060 A 
HETATM    6  C   UNL     1      -5.887   6.432 -31.951  1.00  0.00     0.045 A 
HETATM    7  N   UNL     1      -5.464   5.717 -33.081  1.00  0.00    -0.362 N 
HETATM    8  C   UNL     1      -6.476   6.474 -29.580  1.00  0.00     0.019 A 
HETATM    9  C   UNL     1      -6.828   7.817 -29.690  1.00  0.00     0.001 A 
HETATM   10  C   UNL     1      -6.745   8.458 -30.928  1.00  0.00     0.002 A 
HETATM   11  C   UNL     1      -6.292   7.765 -32.055  1.00  0.00     0.030 A 
HETATM   12  H   UNL     1      -5.253   6.264 -33.901  1.00  0.00     0.162 HD
ENDROOT
BRANCH   2  13
HETATM   13  N   UNL     1      -5.056   2.405 -31.870  1.00  0.00    -0.258 N 
HETATM   14  C   UNL     1      -3.869   1.740 -31.632  1.00  0.00     0.270 C 
HETATM   15  O   UNL     1      -2.887   2.197 -31.062  1.00  0.00    -0.266 OA
HETATM   16  H   UNL     1      -5.759   1.992 -32.480  1.00  0.00     0.190 HD
BRANCH  14  17
HETATM   17  C   UNL     1      -3.873   0.320 -32.060  1.00  0.00     0.033 A 
HETATM   18  C   UNL     1      -3.003  -0.613 -31.485  1.00  0.00     0.020 A 
HETATM   19  C   UNL     1      -3.010  -1.940 -31.932  1.00  0.00     0.038 A 
HETATM   20  C   UNL     1      -3.879  -2.335 -32.952  1.00  0.00     0.069 A 
HETATM   21  C   UNL     1      -4.753  -1.396 -33.511  1.00  0.00     0.038 A 
HETATM   22  C   UNL     1      -4.761  -0.074 -33.063  1.00  0.00     0.020 A 
BRANCH  20  23
HETATM   23  O   UNL     1      -3.972  -3.588 -33.490  1.00  0.00    -0.348 OA
BRANCH  23  24
HETATM   24  C   UNL     1      -4.479  -3.691 -34.819  1.00  0.00     0.202 C 
BRANCH  24  25
HETATM   25  C   UNL     1      -5.573  -4.715 -34.804  1.00  0.00    -0.011 C 
HETATM   26  C   UNL     1      -6.793  -4.537 -35.326  1.00  0.00     0.009 C 
ENDBRANCH  24  25
ENDBRANCH  23  24
ENDBRANCH  20  23
ENDBRANCH  14  17
ENDBRANCH   2  13
BRANCH   1  27
HETATM   27  C   UNL     1      -3.087   5.206 -32.454  1.00  0.00    -0.009 A 
HETATM   28  C   UNL     1      -2.049   5.465 -33.384  1.00  0.00    -0.051 A 
HETATM   29  C   UNL     1      -0.830   6.035 -32.943  1.00  0.00     0.014 A 
HETATM   30  C   UNL     1      -2.145   5.204 -34.862  1.00  0.00     0.049 C 
HETATM   31  C   UNL     1      -0.611   6.385 -31.610  1.00  0.00    -0.061 A 
HETATM   32  C   UNL     1       0.671   7.036 -31.187  1.00  0.00     0.048 C 
HETATM   33  C   UNL     1      -1.640   6.189 -30.701  1.00  0.00     0.007 A 
HETATM   34  C   UNL     1      -2.848   5.620 -31.117  1.00  0.00     0.012 A 
ENDBRANCH   1  27
TORSDOF 6
ENDMDL
MODEL 4
REMARK VINA RESULT:      -8.6      2.308      4.805
REMARK  6 active torsions:
REMARK  status: ('A' for Active; 'I' for Inactive)
REMARK    1  A    between atoms: C_6  and  C_7 
REMARK    2  A    between atoms: N_8  and  N_9 
REMARK       I    between atoms: N_9  and  C_10 
REMARK    3  A    between atoms: C_10  and  C_11 
REMARK    4  A    between atoms: C_14  and  O_15 
REMARK    5  A    between atoms: O_15  and  C_16 
REMARK    6  A    between atoms: C_16  and  C_17 
ROOT
HETATM    1  C   UNL     1      -6.267   3.808 -33.252  1.00  0.00     0.244 C 
HETATM    2  N   UNL     1      -5.132   3.288 -32.497  1.00  0.00    -0.225 N 
HETATM    3  C   UNL     1      -4.984   1.945 -32.205  1.00  0.00     0.276 C 
HETATM    4  O   UNL     1      -4.195   1.527 -31.357  1.00  0.00    -0.266 OA
HETATM    5  C   UNL     1      -5.804   1.024 -33.021  1.00  0.00     0.060 A 
HETATM    6  C   UNL     1      -6.458   1.561 -34.140  1.00  0.00     0.045 A 
HETATM    7  N   UNL     1      -6.361   2.929 -34.432  1.00  0.00    -0.362 N 
HETATM    8  C   UNL     1      -5.851  -0.343 -32.734  1.00  0.00     0.019 A 
HETATM    9  C   UNL     1      -6.553  -1.195 -33.584  1.00  0.00     0.001 A 
HETATM   10  C   UNL     1      -7.176  -0.682 -34.723  1.00  0.00     0.002 A 
HETATM   11  C   UNL     1      -7.116   0.686 -35.008  1.00  0.00     0.030 A 
HETATM   12  H   UNL     1      -6.970   3.273 -35.158  1.00  0.00     0.162 HD
ENDROOT
BRANCH   2  13
HETATM   13  N   UNL     1      -4.216   4.178 -31.894  1.00  0.00    -0.258 N 
HETATM   14  C   UNL     1      -3.142   4.695 -32.592  1.00  0.00     0.270 C 
HETATM   15  O   UNL     1      -3.012   4.713 -33.809  1.00  0.00    -0.266 OA
HETATM   16  H   UNL     1      -4.166   4.076 -30.883  1.00  0.00     0.190 HD
BRANCH  14  17
HETATM   17  C   UNL     1      -2.119   5.345 -31.737  1.00  0.00     0.033 A 
HETATM   18  C   UNL     1      -0.756   5.090 -31.916  1.00  0.00     0.020 A 
HETATM   19  C   UNL     1       0.184   5.695 -31.072  1.00  0.00     0.038 A 
HETATM   20  C   UNL     1      -0.236   6.550 -30.050  1.00  0.00     0.069 A 
HETATM   21  C   UNL     1      -1.602   6.808 -29.887  1.00  0.00     0.038 A 
HETATM   22  C   UNL     1      -2.544   6.217 -30.732  1.00  0.00     0.020 A 
BRANCH  20  23
HETATM   23  O   UNL     1       0.572   7.187 -29.150  1.00  0.00    -0.348 OA
BRANCH  23  24
HETATM   24  C   UNL     1       0.727   6.581 -27.869  1.00  0.00     0.202 C 
BRANCH  24  25
HETATM   25  C   UNL     1       1.398   7.582 -26.977  1.00  0.00    -0.011 C 
HETATM   26  C   UNL     1       1.736   8.825 -27.343  1.00  0.00     0.009 C 
ENDBRANCH  24  25
ENDBRANCH  23  24
ENDBRANCH  20  23
ENDBRANCH  14  17
ENDBRANCH   2  13
BRANCH   1  27
HETATM   27  C   UNL     1      -7.626   3.916 -32.501  1.00  0.00    -0.009 A 
HETATM   28  C   UNL     1      -8.804   4.518 -33.012  1.00  0.00    -0.051 A 
HETATM   29  C   UNL     1      -9.995   4.501 -32.247  1.00  0.00     0.014 A 
HETATM   30  C   UNL     1      -8.909   5.172 -34.361  1.00  0.00     0.049 C 
HETATM   31  C   UNL     1     -10.069   3.881 -30.999  1.00  0.00    -0.061 A 
HETATM   32  C   UNL     1     -11.361   3.835 -30.240  1.00  0.00     0.048 C 
HETATM   33  C   UNL     1      -8.939   3.240 -30.514  1.00  0.00     0.007 A 
HETATM   34  C   UNL     1      -7.751   3.254 -31.251  1.00  0.00     0.012 A 
ENDBRANCH   1  27
TORSDOF 6
ENDMDL
MODEL 5
REMARK VINA RESULT:      -8.6      3.612      9.497
REMARK  6 active torsions:
REMARK  status: ('A' for Active; 'I' for Inactive)
REMARK    1  A    between atoms: C_6  and  C_7 
REMARK    2  A    between atoms: N_8  and  N_9 
REMARK       I    between atoms: N_9  and  C_10 
REMARK    3  A    between atoms: C_10  and  C_11 
REMARK    4  A    between atoms: C_14  and  O_15 
REMARK    5  A    between atoms: O_15  and  C_16 
REMARK    6  A    between atoms: C_16  and  C_17 
ROOT
HETATM    1  C   UNL     1      -7.800   1.090 -31.422  1.00  0.00     0.244 C 
HETATM    2  N   UNL     1      -8.355   0.259 -32.484  1.00  0.00    -0.225 N 
HETATM    3  C   UNL     1      -7.563  -0.450 -33.369  1.00  0.00     0.276 C 
HETATM    4  O   UNL     1      -7.993  -0.930 -34.417  1.00  0.00    -0.266 OA
HETATM    5  C   UNL     1      -6.159  -0.643 -32.946  1.00  0.00     0.060 A 
HETATM    6  C   UNL     1      -5.830  -0.307 -31.624  1.00  0.00     0.045 A 
HETATM    7  N   UNL     1      -6.798   0.230 -30.765  1.00  0.00    -0.362 N 
HETATM    8  C   UNL     1      -5.222  -1.220 -33.808  1.00  0.00     0.019 A 
HETATM    9  C   UNL     1      -3.934  -1.478 -33.342  1.00  0.00     0.001 A 
HETATM   10  C   UNL     1      -3.602  -1.186 -32.018  1.00  0.00     0.002 A 
HETATM   11  C   UNL     1      -4.550  -0.618 -31.159  1.00  0.00     0.030 A 
HETATM   12  H   UNL     1      -6.463   0.584 -29.882  1.00  0.00     0.162 HD
ENDROOT
BRANCH   2  13
HETATM   13  N   UNL     1      -9.743   0.279 -32.747  1.00  0.00    -0.258 N 
HETATM   14  C   UNL     1     -10.316   1.251 -33.543  1.00  0.00     0.270 C 
HETATM   15  O   UNL     1      -9.726   1.983 -34.328  1.00  0.00    -0.266 OA
HETATM   16  H   UNL     1     -10.293  -0.176 -32.021  1.00  0.00     0.190 HD
BRANCH  14  17
HETATM   17  C   UNL     1     -11.795   1.313 -33.456  1.00  0.00     0.033 A 
HETATM   18  C   UNL     1     -12.584   0.181 -33.684  1.00  0.00     0.020 A 
HETATM   19  C   UNL     1     -13.979   0.279 -33.623  1.00  0.00     0.038 A 
HETATM   20  C   UNL     1     -14.587   1.505 -33.340  1.00  0.00     0.069 A 
HETATM   21  C   UNL     1     -13.788   2.629 -33.101  1.00  0.00     0.038 A 
HETATM   22  C   UNL     1     -12.396   2.536 -33.148  1.00  0.00     0.020 A 
BRANCH  20  23
HETATM   23  O   UNL     1     -15.932   1.739 -33.270  1.00  0.00    -0.348 OA
BRANCH  23  24
HETATM   24  C   UNL     1     -16.437   2.278 -32.050  1.00  0.00     0.202 C 
BRANCH  24  25
HETATM   25  C   UNL     1     -17.410   3.361 -32.407  1.00  0.00    -0.011 C 
HETATM   26  C   UNL     1     -18.626   3.154 -32.927  1.00  0.00     0.009 C 
ENDBRANCH  24  25
ENDBRANCH  23  24
ENDBRANCH  20  23
ENDBRANCH  14  17
ENDBRANCH   2  13
BRANCH   1  27
HETATM   27  C   UNL     1      -7.199   2.463 -31.840  1.00  0.00    -0.009 A 
HETATM   28  C   UNL     1      -7.864   3.713 -31.756  1.00  0.00    -0.051 A 
HETATM   29  C   UNL     1      -7.183   4.901 -32.117  1.00  0.00     0.014 A 
HETATM   30  C   UNL     1      -9.274   3.896 -31.268  1.00  0.00     0.049 C 
HETATM   31  C   UNL     1      -5.852   4.899 -32.534  1.00  0.00    -0.061 A 
HETATM   32  C   UNL     1      -5.146   6.182 -32.857  1.00  0.00     0.048 C 
HETATM   33  C   UNL     1      -5.175   3.690 -32.566  1.00  0.00     0.007 A 
HETATM   34  C   UNL     1      -5.832   2.505 -32.221  1.00  0.00     0.012 A 
ENDBRANCH   1  27
TORSDOF 6
ENDMDL
MODEL 6
REMARK VINA RESULT:      -8.3      3.019      8.699
REMARK  6 active torsions:
REMARK  status: ('A' for Active; 'I' for Inactive)
REMARK    1  A    between atoms: C_6  and  C_7 
REMARK    2  A    between atoms: N_8  and  N_9 
REMARK       I    between atoms: N_9  and  C_10 
REMARK    3  A    between atoms: C_10  and  C_11 
REMARK    4  A    between atoms: C_14  and  O_15 
REMARK    5  A    between atoms: O_15  and  C_16 
REMARK    6  A    between atoms: C_16  and  C_17 
ROOT
HETATM    1  C   UNL     1      -6.003   3.761 -34.186  1.00  0.00     0.244 C 
HETATM    2  N   UNL     1      -7.049   4.530 -33.523  1.00  0.00    -0.225 N 
HETATM    3  C   UNL     1      -6.777   5.490 -32.566  1.00  0.00     0.276 C 
HETATM    4  O   UNL     1      -7.636   5.949 -31.814  1.00  0.00    -0.266 OA
HETATM    5  C   UNL     1      -5.381   5.976 -32.536  1.00  0.00     0.060 A 
HETATM    6  C   UNL     1      -4.545   5.606 -33.600  1.00  0.00     0.045 A 
HETATM    7  N   UNL     1      -5.020   4.772 -34.621  1.00  0.00    -0.362 N 
HETATM    8  C   UNL     1      -4.942   6.843 -31.530  1.00  0.00     0.019 A 
HETATM    9  C   UNL     1      -3.650   7.359 -31.590  1.00  0.00     0.001 A 
HETATM   10  C   UNL     1      -2.819   7.032 -32.663  1.00  0.00     0.002 A 
HETATM   11  C   UNL     1      -3.270   6.172 -33.670  1.00  0.00     0.030 A 
HETATM   12  H   UNL     1      -4.331   4.426 -35.271  1.00  0.00     0.162 HD
ENDROOT
BRANCH   2  13
HETATM   13  N   UNL     1      -8.408   4.199 -33.726  1.00  0.00    -0.258 N 
HETATM   14  C   UNL     1      -9.013   3.166 -33.038  1.00  0.00     0.270 C 
HETATM   15  O   UNL     1      -8.597   2.639 -32.014  1.00  0.00    -0.266 OA
HETATM   16  H   UNL     1      -8.751   4.471 -34.645  1.00  0.00     0.190 HD
BRANCH  14  17
HETATM   17  C   UNL     1     -10.325   2.754 -33.593  1.00  0.00     0.033 A 
HETATM   18  C   UNL     1     -11.150   3.666 -34.259  1.00  0.00     0.020 A 
HETATM   19  C   UNL     1     -12.396   3.253 -34.746  1.00  0.00     0.038 A 
HETATM   20  C   UNL     1     -12.820   1.935 -34.565  1.00  0.00     0.069 A 
HETATM   21  C   UNL     1     -11.982   1.027 -33.908  1.00  0.00     0.038 A 
HETATM   22  C   UNL     1     -10.733   1.428 -33.431  1.00  0.00     0.020 A 
BRANCH  20  23
HETATM   23  O   UNL     1     -14.015   1.410 -34.973  1.00  0.00    -0.348 OA
BRANCH  23  24
HETATM   24  C   UNL     1     -14.774   0.688 -34.005  1.00  0.00     0.202 C 
BRANCH  24  25
HETATM   25  C   UNL     1     -15.565   1.689 -33.217  1.00  0.00    -0.011 C 
HETATM   26  C   UNL     1     -15.180   2.217 -32.049  1.00  0.00     0.009 C 
ENDBRANCH  24  25
ENDBRANCH  23  24
ENDBRANCH  20  23
ENDBRANCH  14  17
ENDBRANCH   2  13
BRANCH   1  27
HETATM   27  C   UNL     1      -5.335   2.620 -33.365  1.00  0.00    -0.009 A 
HETATM   28  C   UNL     1      -5.664   1.243 -33.449  1.00  0.00    -0.051 A 
HETATM   29  C   UNL     1      -4.940   0.296 -32.686  1.00  0.00     0.014 A 
HETATM   30  C   UNL     1      -6.737   0.677 -34.338  1.00  0.00     0.049 C 
HETATM   31  C   UNL     1      -3.878   0.661 -31.858  1.00  0.00    -0.061 A 
HETATM   32  C   UNL     1      -3.099  -0.374 -31.105  1.00  0.00     0.048 C 
HETATM   33  C   UNL     1      -3.511   1.998 -31.811  1.00  0.00     0.007 A 
HETATM   34  C   UNL     1      -4.219   2.950 -32.551  1.00  0.00     0.012 A 
ENDBRANCH   1  27
TORSDOF 6
ENDMDL
MODEL 7
REMARK VINA RESULT:      -8.2      1.638      2.073
REMARK  6 active torsions:
REMARK  status: ('A' for Active; 'I' for Inactive)
REMARK    1  A    between atoms: C_6  and  C_7 
REMARK    2  A    between atoms: N_8  and  N_9 
REMARK       I    between atoms: N_9  and  C_10 
REMARK    3  A    between atoms: C_10  and  C_11 
REMARK    4  A    between atoms: C_14  and  O_15 
REMARK    5  A    between atoms: O_15  and  C_16 
REMARK    6  A    between atoms: C_16  and  C_17 
ROOT
HETATM    1  C   UNL     1      -7.234   0.918 -31.623  1.00  0.00     0.244 C 
HETATM    2  N   UNL     1      -7.133   2.322 -32.008  1.00  0.00    -0.225 N 
HETATM    3  C   UNL     1      -7.931   2.886 -32.987  1.00  0.00     0.276 C 
HETATM    4  O   UNL     1      -7.685   3.973 -33.507  1.00  0.00    -0.266 OA
HETATM    5  C   UNL     1      -9.144   2.116 -33.337  1.00  0.00     0.060 A 
HETATM    6  C   UNL     1      -9.488   1.039 -32.506  1.00  0.00     0.045 A 
HETATM    7  N   UNL     1      -8.677   0.694 -31.416  1.00  0.00    -0.362 N 
HETATM    8  C   UNL     1      -9.959   2.504 -34.404  1.00  0.00     0.019 A 
HETATM    9  C   UNL     1     -11.146   1.815 -34.642  1.00  0.00     0.001 A 
HETATM   10  C   UNL     1     -11.522   0.766 -33.801  1.00  0.00     0.002 A 
HETATM   11  C   UNL     1     -10.705   0.390 -32.729  1.00  0.00     0.030 A 
HETATM   12  H   UNL     1      -8.899  -0.173 -30.952  1.00  0.00     0.162 HD
ENDROOT
BRANCH   2  13
HETATM   13  N   UNL     1      -6.089   3.123 -31.495  1.00  0.00    -0.258 N 
HETATM   14  C   UNL     1      -6.277   3.947 -30.403  1.00  0.00     0.270 C 
HETATM   15  O   UNL     1      -7.194   3.877 -29.594  1.00  0.00    -0.266 OA
HETATM   16  H   UNL     1      -5.382   3.351 -32.191  1.00  0.00     0.190 HD
BRANCH  14  17
HETATM   17  C   UNL     1      -5.194   4.939 -30.198  1.00  0.00     0.033 A 
HETATM   18  C   UNL     1      -4.122   5.037 -31.090  1.00  0.00     0.020 A 
HETATM   19  C   UNL     1      -3.099   5.963 -30.852  1.00  0.00     0.038 A 
HETATM   20  C   UNL     1      -3.144   6.788 -29.725  1.00  0.00     0.069 A 
HETATM   21  C   UNL     1      -4.228   6.691 -28.846  1.00  0.00     0.038 A 
HETATM   22  C   UNL     1      -5.258   5.778 -29.083  1.00  0.00     0.020 A 
BRANCH  20  23
HETATM   23  O   UNL     1      -2.206   7.716 -29.369  1.00  0.00    -0.348 OA
BRANCH  23  24
HETATM   24  C   UNL     1      -2.674   9.024 -29.046  1.00  0.00     0.202 C 
BRANCH  24  25
HETATM   25  C   UNL     1      -2.944   9.735 -30.338  1.00  0.00    -0.011 C 
HETATM   26  C   UNL     1      -4.143  10.190 -30.723  1.00  0.00     0.009 C 
ENDBRANCH  24  25
ENDBRANCH  23  24
ENDBRANCH  20  23
ENDBRANCH  14  17
ENDBRANCH   2  13
BRANCH   1  27
HETATM   27  C   UNL     1      -6.619  -0.128 -32.597  1.00  0.00    -0.009 A 
HETATM   28  C   UNL     1      -5.264  -0.546 -32.608  1.00  0.00    -0.051 A 
HETATM   29  C   UNL     1      -4.843  -1.552 -33.512  1.00  0.00     0.014 A 
HETATM   30  C   UNL     1      -4.202  -0.017 -31.686  1.00  0.00     0.049 C 
HETATM   31  C   UNL     1      -5.725  -2.180 -34.391  1.00  0.00    -0.061 A 
HETATM   32  C   UNL     1      -5.255  -3.278 -35.297  1.00  0.00     0.048 C 
HETATM   33  C   UNL     1      -7.063  -1.819 -34.350  1.00  0.00     0.007 A 
HETATM   34  C   UNL     1      -7.497  -0.823 -33.470  1.00  0.00     0.012 A 
ENDBRANCH   1  27
TORSDOF 6
ENDMDL
MODEL 8
REMARK VINA RESULT:      -8.2      2.818      8.784
REMARK  6 active torsions:
REMARK  status: ('A' for Active; 'I' for Inactive)
REMARK    1  A    between atoms: C_6  and  C_7 
REMARK    2  A    between atoms: N_8  and  N_9 
REMARK       I    between atoms: N_9  and  C_10 
REMARK    3  A    between atoms: C_10  and  C_11 
REMARK    4  A    between atoms: C_14  and  O_15 
REMARK    5  A    between atoms: O_15  and  C_16 
REMARK    6  A    between atoms: C_16  and  C_17 
ROOT
HETATM    1  C   UNL     1      -5.035   4.439 -30.933  1.00  0.00     0.244 C 
HETATM    2  N   UNL     1      -4.382   4.066 -32.183  1.00  0.00    -0.225 N 
HETATM    3  C   UNL     1      -3.604   4.948 -32.910  1.00  0.00     0.276 C 
HETATM    4  O   UNL     1      -3.273   4.743 -34.078  1.00  0.00    -0.266 OA
HETATM    5  C   UNL     1      -3.144   6.143 -32.172  1.00  0.00     0.060 A 
HETATM    6  C   UNL     1      -3.333   6.157 -30.782  1.00  0.00     0.045 A 
HETATM    7  N   UNL     1      -3.974   5.088 -30.141  1.00  0.00    -0.362 N 
HETATM    8  C   UNL     1      -2.469   7.177 -32.827  1.00  0.00     0.019 A 
HETATM    9  C   UNL     1      -1.962   8.241 -32.084  1.00  0.00     0.001 A 
HETATM   10  C   UNL     1      -2.107   8.250 -30.695  1.00  0.00     0.002 A 
HETATM   11  C   UNL     1      -2.776   7.206 -30.046  1.00  0.00     0.030 A 
HETATM   12  H   UNL     1      -4.209   5.227 -29.170  1.00  0.00     0.162 HD
ENDROOT
BRANCH   2  13
HETATM   13  N   UNL     1      -4.660   2.817 -32.781  1.00  0.00    -0.258 N 
HETATM   14  C   UNL     1      -5.802   2.609 -33.529  1.00  0.00     0.270 C 
HETATM   15  O   UNL     1      -6.519   3.478 -34.009  1.00  0.00    -0.266 OA
HETATM   16  H   UNL     1      -4.214   2.037 -32.303  1.00  0.00     0.190 HD
BRANCH  14  17
HETATM   17  C   UNL     1      -6.092   1.182 -33.810  1.00  0.00     0.033 A 
HETATM   18  C   UNL     1      -7.003   0.809 -34.803  1.00  0.00     0.020 A 
HETATM   19  C   UNL     1      -7.279  -0.546 -35.023  1.00  0.00     0.038 A 
HETATM   20  C   UNL     1      -6.650  -1.526 -34.252  1.00  0.00     0.069 A 
HETATM   21  C   UNL     1      -5.731  -1.143 -33.269  1.00  0.00     0.038 A 
HETATM   22  C   UNL     1      -5.442   0.205 -33.052  1.00  0.00     0.020 A 
BRANCH  20  23
HETATM   23  O   UNL     1      -6.842  -2.876 -34.352  1.00  0.00    -0.348 OA
BRANCH  23  24
HETATM   24  C   UNL     1      -6.032  -3.583 -35.289  1.00  0.00     0.202 C 
BRANCH  24  25
HETATM   25  C   UNL     1      -5.348  -4.690 -34.545  1.00  0.00    -0.011 C 
HETATM   26  C   UNL     1      -4.132  -4.602 -33.992  1.00  0.00     0.009 C 
ENDBRANCH  24  25
ENDBRANCH  23  24
ENDBRANCH  20  23
ENDBRANCH  14  17
ENDBRANCH   2  13
BRANCH   1  27
HETATM   27  C   UNL     1      -6.307   5.329 -31.039  1.00  0.00    -0.009 A 
HETATM   28  C   UNL     1      -7.209   5.606 -29.980  1.00  0.00    -0.051 A 
HETATM   29  C   UNL     1      -8.302   6.481 -30.193  1.00  0.00     0.014 A 
HETATM   30  C   UNL     1      -7.083   5.052 -28.588  1.00  0.00     0.049 C 
HETATM   31  C   UNL     1      -8.519   7.117 -31.415  1.00  0.00    -0.061 A 
HETATM   32  C   UNL     1      -9.655   8.079 -31.590  1.00  0.00     0.048 C 
HETATM   33  C   UNL     1      -7.611   6.898 -32.441  1.00  0.00     0.007 A 
HETATM   34  C   UNL     1      -6.531   6.031 -32.252  1.00  0.00     0.012 A 
ENDBRANCH   1  27
TORSDOF 6
ENDMDL
MODEL 9
REMARK VINA RESULT:      -8.2      2.340      8.421
REMARK  6 active torsions:
REMARK  status: ('A' for Active; 'I' for Inactive)
REMARK    1  A    between atoms: C_6  and  C_7 
REMARK    2  A    between atoms: N_8  and  N_9 
REMARK       I    between atoms: N_9  and  C_10 
REMARK    3  A    between atoms: C_10  and  C_11 
REMARK    4  A    between atoms: C_14  and  O_15 
REMARK    5  A    between atoms: O_15  and  C_16 
REMARK    6  A    between atoms: C_16  and  C_17 
ROOT
HETATM    1  C   UNL     1      -4.972   5.570 -32.613  1.00  0.00     0.244 C 
HETATM    2  N   UNL     1      -5.659   4.479 -31.931  1.00  0.00    -0.225 N 
HETATM    3  C   UNL     1      -6.181   4.606 -30.657  1.00  0.00     0.276 C 
HETATM    4  O   UNL     1      -6.517   3.641 -29.971  1.00  0.00    -0.266 OA
HETATM    5  C   UNL     1      -6.362   5.995 -30.183  1.00  0.00     0.060 A 
HETATM    6  C   UNL     1      -6.216   7.024 -31.125  1.00  0.00     0.045 A 
HETATM    7  N   UNL     1      -5.869   6.730 -32.451  1.00  0.00    -0.362 N 
HETATM    8  C   UNL     1      -6.750   6.260 -28.866  1.00  0.00     0.019 A 
HETATM    9  C   UNL     1      -7.008   7.574 -28.482  1.00  0.00     0.001 A 
HETATM   10  C   UNL     1      -6.906   8.605 -29.418  1.00  0.00     0.002 A 
HETATM   11  C   UNL     1      -6.527   8.329 -30.736  1.00  0.00     0.030 A 
HETATM   12  H   UNL     1      -5.637   7.518 -33.036  1.00  0.00     0.162 HD
ENDROOT
BRANCH   2  13
HETATM   13  N   UNL     1      -5.672   3.186 -32.500  1.00  0.00    -0.258 N 
HETATM   14  C   UNL     1      -6.714   2.755 -33.298  1.00  0.00     0.270 C 
HETATM   15  O   UNL     1      -7.547   3.467 -33.844  1.00  0.00    -0.266 OA
HETATM   16  H   UNL     1      -5.121   2.512 -31.972  1.00  0.00     0.190 HD
BRANCH  14  17
HETATM   17  C   UNL     1      -6.725   1.293 -33.545  1.00  0.00     0.033 A 
HETATM   18  C   UNL     1      -6.374   0.386 -32.540  1.00  0.00     0.020 A 
HETATM   19  C   UNL     1      -6.365  -0.988 -32.813  1.00  0.00     0.038 A 
HETATM   20  C   UNL     1      -6.701  -1.454 -34.086  1.00  0.00     0.069 A 
HETATM   21  C   UNL     1      -7.063  -0.539 -35.080  1.00  0.00     0.038 A 
HETATM   22  C   UNL     1      -7.086   0.831 -34.812  1.00  0.00     0.020 A 
BRANCH  20  23
HETATM   23  O   UNL     1      -6.714  -2.761 -34.487  1.00  0.00    -0.348 OA
BRANCH  23  24
HETATM   24  C   UNL     1      -5.597  -3.222 -35.244  1.00  0.00     0.202 C 
BRANCH  24  25
HETATM   25  C   UNL     1      -4.467  -3.447 -34.284  1.00  0.00    -0.011 C 
HETATM   26  C   UNL     1      -4.007  -4.649 -33.916  1.00  0.00     0.009 C 
ENDBRANCH  24  25
ENDBRANCH  23  24
ENDBRANCH  20  23
ENDBRANCH  14  17
ENDBRANCH   2  13
BRANCH   1  27
HETATM   27  C   UNL     1      -3.522   5.891 -32.151  1.00  0.00    -0.009 A 
HETATM   28  C   UNL     1      -2.394   5.050 -32.334  1.00  0.00    -0.051 A 
HETATM   29  C   UNL     1      -1.113   5.486 -31.916  1.00  0.00     0.014 A 
HETATM   30  C   UNL     1      -2.438   3.697 -32.988  1.00  0.00     0.049 C 
HETATM   31  C   UNL     1      -0.903   6.741 -31.344  1.00  0.00    -0.061 A 
HETATM   32  C   UNL     1       0.475   7.190 -30.963  1.00  0.00     0.048 C 
HETATM   33  C   UNL     1      -1.989   7.593 -31.212  1.00  0.00     0.007 A 
HETATM   34  C   UNL     1      -3.263   7.179 -31.611  1.00  0.00     0.012 A 
ENDBRANCH   1  27
TORSDOF 6
ENDMDL
MODEL 10
REMARK VINA RESULT:      -8.2      2.717      9.444
REMARK  6 active torsions:
REMARK  status: ('A' for Active; 'I' for Inactive)
REMARK    1  A    between atoms: C_6  and  C_7 
REMARK    2  A    between atoms: N_8  and  N_9 
REMARK       I    between atoms: N_9  and  C_10 
REMARK    3  A    between atoms: C_10  and  C_11 
REMARK    4  A    between atoms: C_14  and  O_15 
REMARK    5  A    between atoms: O_15  and  C_16 
REMARK    6  A    between atoms: C_16  and  C_17 
ROOT
HETATM    1  C   UNL     1      -2.477   6.746 -30.926  1.00  0.00     0.244 C 
HETATM    2  N   UNL     1      -3.645   5.931 -30.612  1.00  0.00    -0.225 N 
HETATM    3  C   UNL     1      -4.680   6.387 -29.816  1.00  0.00     0.276 C 
HETATM    4  O   UNL     1      -5.526   5.640 -29.326  1.00  0.00    -0.266 OA
HETATM    5  C   UNL     1      -4.739   7.853 -29.632  1.00  0.00     0.060 A 
HETATM    6  C   UNL     1      -3.910   8.640 -30.446  1.00  0.00     0.045 A 
HETATM    7  N   UNL     1      -3.035   8.040 -31.361  1.00  0.00    -0.362 N 
HETATM    8  C   UNL     1      -5.651   8.429 -28.743  1.00  0.00     0.019 A 
HETATM    9  C   UNL     1      -5.748   9.817 -28.670  1.00  0.00     0.001 A 
HETATM   10  C   UNL     1      -4.958  10.614 -29.500  1.00  0.00     0.002 A 
HETATM   11  C   UNL     1      -4.055  10.028 -30.394  1.00  0.00     0.030 A 
HETATM   12  H   UNL     1      -2.367   8.652 -31.805  1.00  0.00     0.162 HD
ENDROOT
BRANCH   2  13
HETATM   13  N   UNL     1      -3.679   4.569 -30.986  1.00  0.00    -0.258 N 
HETATM   14  C   UNL     1      -4.066   4.175 -32.252  1.00  0.00     0.270 C 
HETATM   15  O   UNL     1      -4.124   4.889 -33.245  1.00  0.00    -0.266 OA
HETATM   16  H   UNL     1      -3.803   3.941 -30.195  1.00  0.00     0.190 HD
BRANCH  14  17
HETATM   17  C   UNL     1      -4.349   2.725 -32.376  1.00  0.00     0.033 A 
HETATM   18  C   UNL     1      -3.460   1.767 -31.876  1.00  0.00     0.020 A 
HETATM   19  C   UNL     1      -3.741   0.405 -32.035  1.00  0.00     0.038 A 
HETATM   20  C   UNL     1      -4.903  -0.002 -32.695  1.00  0.00     0.069 A 
HETATM   21  C   UNL     1      -5.791   0.964 -33.180  1.00  0.00     0.038 A 
HETATM   22  C   UNL     1      -5.524   2.324 -33.015  1.00  0.00     0.020 A 
BRANCH  20  23
HETATM   23  O   UNL     1      -5.284  -1.293 -32.933  1.00  0.00    -0.348 OA
BRANCH  23  24
HETATM   24  C   UNL     1      -6.264  -1.508 -33.946  1.00  0.00     0.202 C 
BRANCH  24  25
HETATM   25  C   UNL     1      -5.885  -2.760 -34.679  1.00  0.00    -0.011 C 
HETATM   26  C   UNL     1      -6.694  -3.810 -34.866  1.00  0.00     0.009 C 
ENDBRANCH  24  25
ENDBRANCH  23  24
ENDBRANCH  20  23
ENDBRANCH  14  17
ENDBRANCH   2  13
BRANCH   1  27
HETATM   27  C   UNL     1      -1.414   6.922 -29.803  1.00  0.00    -0.009 A 
HETATM   28  C   UNL     1      -0.012   7.001 -30.002  1.00  0.00    -0.051 A 
HETATM   29  C   UNL     1       0.846   7.220 -28.896  1.00  0.00     0.014 A 
HETATM   30  C   UNL     1       0.666   6.901 -31.339  1.00  0.00     0.049 C 
HETATM   31  C   UNL     1       0.362   7.390 -27.599  1.00  0.00    -0.061 A 
HETATM   32  C   UNL     1       1.295   7.673 -26.461  1.00  0.00     0.048 C 
HETATM   33  C   UNL     1      -1.011   7.371 -27.402  1.00  0.00     0.007 A 
HETATM   34  C   UNL     1      -1.874   7.149 -28.479  1.00  0.00     0.012 A 
ENDBRANCH   1  27
TORSDOF 6
ENDMDL
