MODEL 1
REMARK VINA RESULT:      -8.2      0.000      0.000
REMARK  5 active torsions:
REMARK  status: ('A' for Active; 'I' for Inactive)
REMARK    1  A    between atoms: C_6  and  C_7 
REMARK    2  A    between atoms: N_10  and  C_12 
REMARK    3  A    between atoms: C_12  and  C_13 
REMARK    4  A    between atoms: C_14  and  N_15 
REMARK    5  A    between atoms: N_15  and  C_16 
ROOT
HETATM    1  C   UNL     1      -5.125   0.099 -32.647  1.00  0.00    -0.006 A 
HETATM    2  C   UNL     1      -6.243  -0.198 -33.463  1.00  0.00     0.038 A 
HETATM    3  C   UNL     1      -6.243  -1.405 -34.190  1.00  0.00     0.030 A 
HETATM    4  C   UNL     1      -5.219  -2.340 -34.050  1.00  0.00     0.002 A 
HETATM    5  C   UNL     1      -4.177  -2.092 -33.170  1.00  0.00     0.001 A 
HETATM    6  C   UNL     1      -4.131  -0.888 -32.469  1.00  0.00     0.011 A 
ENDROOT
BRANCH   1   7
HETATM    7  C   UNL     1      -4.994   1.450 -31.977  1.00  0.00     0.275 C 
BRANCH   7   8
HETATM    8  N   UNL     1      -4.432   2.577 -32.842  1.00  0.00    -0.067 N 
HETATM    9  C   UNL     1      -5.459   3.629 -33.187  1.00  0.00     0.236 C 
HETATM   10  C   UNL     1      -4.857   4.633 -34.165  1.00  0.00     0.038 C 
HETATM   11  C   UNL     1      -3.517   5.238 -33.718  1.00  0.00     0.040 C 
HETATM   12  C   UNL     1      -2.565   4.152 -33.196  1.00  0.00     0.038 C 
HETATM   13  C   UNL     1      -3.222   3.210 -32.197  1.00  0.00     0.236 C 
HETATM   14  H   UNL     1      -4.117   2.142 -33.714  1.00  0.00     0.280 HD
BRANCH  11  15
HETATM   15  C   UNL     1      -3.662   6.366 -32.729  1.00  0.00     0.035 A 
HETATM   16  N   UNL     1      -2.703   7.352 -32.572  1.00  0.00    -0.278 N 
HETATM   17  C   UNL     1      -1.478   7.543 -33.319  1.00  0.00     0.179 C 
HETATM   18  N   UNL     1      -2.991   8.217 -31.587  1.00  0.00    -0.185 NA
HETATM   19  C   UNL     1      -4.209   7.870 -31.186  1.00  0.00     0.141 A 
HETATM   20  C   UNL     1      -4.675   6.726 -31.857  1.00  0.00     0.048 A 
ENDBRANCH  11  15
ENDBRANCH   7   8
ENDBRANCH   1   7
BRANCH   2  21
HETATM   21  N   UNL     1      -7.354   0.677 -33.521  1.00  0.00    -0.380 N 
HETATM   22  C   UNL     1      -7.742   1.039 -34.889  1.00  0.00     0.150 C 
BRANCH  21  23
HETATM   23  C   UNL     1      -8.382   0.459 -32.457  1.00  0.00     0.087 C 
HETATM   24  C   UNL     1      -9.740  -0.081 -32.930  1.00  0.00     0.053 C 
HETATM   25  C   UNL     1     -10.675   0.990 -33.454  1.00  0.00     0.236 C 
HETATM   26  N   UNL     1     -10.873   2.039 -32.391  1.00  0.00    -0.075 N 
HETATM   27  H   UNL     1     -11.266   1.578 -31.557  1.00  0.00     0.279 HD
HETATM   28  C   UNL     1     -11.914   3.055 -32.806  1.00  0.00     0.269 C 
HETATM   29  C   UNL     1      -9.580   2.699 -31.996  1.00  0.00     0.236 C 
HETATM   30  C   UNL     1      -8.569   1.663 -31.518  1.00  0.00     0.053 C 
ENDBRANCH  21  23
ENDBRANCH   2  21
TORSDOF 5
ENDMDL
MODEL 2
REMARK VINA RESULT:      -8.1      1.659      4.547
REMARK  5 active torsions:
REMARK  status: ('A' for Active; 'I' for Inactive)
REMARK    1  A    between atoms: C_6  and  C_7 
REMARK    2  A    between atoms: N_10  and  C_12 
REMARK    3  A    between atoms: C_12  and  C_13 
REMARK    4  A    between atoms: C_14  and  N_15 
REMARK    5  A    between atoms: N_15  and  C_16 
ROOT
HETATM    1  C   UNL     1      -7.626   1.769 -33.765  1.00  0.00    -0.006 A 
HETATM    2  C   UNL     1      -7.453   0.592 -32.997  1.00  0.00     0.038 A 
HETATM    3  C   UNL     1      -8.597  -0.041 -32.471  1.00  0.00     0.030 A 
HETATM    4  C   UNL     1      -9.881   0.412 -32.768  1.00  0.00     0.002 A 
HETATM    5  C   UNL     1     -10.050   1.503 -33.606  1.00  0.00     0.001 A 
HETATM    6  C   UNL     1      -8.935   2.173 -34.107  1.00  0.00     0.011 A 
ENDROOT
BRANCH   1   7
HETATM    7  C   UNL     1      -6.431   2.582 -34.213  1.00  0.00     0.275 C 
BRANCH   7   8
HETATM    8  N   UNL     1      -5.878   3.580 -33.197  1.00  0.00    -0.067 N 
HETATM    9  C   UNL     1      -4.503   3.214 -32.692  1.00  0.00     0.236 C 
HETATM   10  C   UNL     1      -4.090   4.176 -31.582  1.00  0.00     0.038 C 
HETATM   11  C   UNL     1      -4.210   5.664 -31.947  1.00  0.00     0.040 C 
HETATM   12  C   UNL     1      -5.553   5.960 -32.631  1.00  0.00     0.038 C 
HETATM   13  C   UNL     1      -5.882   4.985 -33.751  1.00  0.00     0.236 C 
HETATM   14  H   UNL     1      -6.522   3.568 -32.400  1.00  0.00     0.280 HD
BRANCH  11  15
HETATM   15  C   UNL     1      -3.051   6.184 -32.758  1.00  0.00     0.035 A 
HETATM   16  N   UNL     1      -2.533   7.457 -32.592  1.00  0.00    -0.278 N 
HETATM   17  C   UNL     1      -2.912   8.463 -31.624  1.00  0.00     0.179 C 
HETATM   18  N   UNL     1      -1.555   7.747 -33.465  1.00  0.00    -0.185 NA
HETATM   19  C   UNL     1      -1.347   6.610 -34.119  1.00  0.00     0.141 A 
HETATM   20  C   UNL     1      -2.247   5.606 -33.725  1.00  0.00     0.048 A 
ENDBRANCH  11  15
ENDBRANCH   7   8
ENDBRANCH   1   7
BRANCH   2  21
HETATM   21  N   UNL     1      -6.167   0.041 -32.791  1.00  0.00    -0.380 N 
HETATM   22  C   UNL     1      -6.034  -0.673 -31.516  1.00  0.00     0.150 C 
BRANCH  21  23
HETATM   23  C   UNL     1      -5.489  -0.453 -34.029  1.00  0.00     0.087 C 
HETATM   24  C   UNL     1      -6.348  -1.306 -34.975  1.00  0.00     0.053 C 
HETATM   25  C   UNL     1      -6.433  -2.765 -34.576  1.00  0.00     0.236 C 
HETATM   26  N   UNL     1      -5.042  -3.335 -34.480  1.00  0.00    -0.075 N 
HETATM   27  H   UNL     1      -4.589  -3.227 -35.400  1.00  0.00     0.279 HD
HETATM   28  C   UNL     1      -5.073  -4.826 -34.231  1.00  0.00     0.269 C 
HETATM   29  C   UNL     1      -4.204  -2.618 -33.457  1.00  0.00     0.236 C 
HETATM   30  C   UNL     1      -4.132  -1.127 -33.767  1.00  0.00     0.053 C 
ENDBRANCH  21  23
ENDBRANCH   2  21
TORSDOF 5
ENDMDL
MODEL 3
REMARK VINA RESULT:      -8.0      1.647      7.341
REMARK  5 active torsions:
REMARK  status: ('A' for Active; 'I' for Inactive)
REMARK    1  A    between atoms: C_6  and  C_7 
REMARK    2  A    between atoms: N_10  and  C_12 
REMARK    3  A    between atoms: C_12  and  C_13 
REMARK    4  A    between atoms: C_14  and  N_15 
REMARK    5  A    between atoms: N_15  and  C_16 
ROOT
HETATM    1  C   UNL     1      -5.143   0.659 -33.082  1.00  0.00    -0.006 A 
HETATM    2  C   UNL     1      -4.379   1.357 -32.117  1.00  0.00     0.038 A 
HETATM    3  C   UNL     1      -3.456   0.630 -31.337  1.00  0.00     0.030 A 
HETATM    4  C   UNL     1      -3.222  -0.725 -31.562  1.00  0.00     0.002 A 
HETATM    5  C   UNL     1      -3.898  -1.382 -32.579  1.00  0.00     0.001 A 
HETATM    6  C   UNL     1      -4.845  -0.697 -33.338  1.00  0.00     0.011 A 
ENDROOT
BRANCH   1   7
HETATM    7  C   UNL     1      -6.263   1.353 -33.828  1.00  0.00     0.275 C 
BRANCH   7   8
HETATM    8  N   UNL     1      -7.646   1.279 -33.185  1.00  0.00    -0.067 N 
HETATM    9  C   UNL     1      -8.303   2.630 -33.033  1.00  0.00     0.236 C 
HETATM   10  C   UNL     1      -9.608   2.483 -32.255  1.00  0.00     0.038 C 
HETATM   11  C   UNL     1     -10.567   1.418 -32.810  1.00  0.00     0.040 C 
HETATM   12  C   UNL     1      -9.821   0.113 -33.130  1.00  0.00     0.038 C 
HETATM   13  C   UNL     1      -8.551   0.333 -33.938  1.00  0.00     0.236 C 
HETATM   14  H   UNL     1      -7.510   0.885 -32.249  1.00  0.00     0.280 HD
BRANCH  11  15
HETATM   15  C   UNL     1     -11.381   1.890 -33.986  1.00  0.00     0.035 A 
HETATM   16  N   UNL     1     -12.568   1.286 -34.367  1.00  0.00    -0.278 N 
HETATM   17  C   UNL     1     -13.270   0.198 -33.721  1.00  0.00     0.179 C 
HETATM   18  N   UNL     1     -13.093   1.812 -35.484  1.00  0.00    -0.185 NA
HETATM   19  C   UNL     1     -12.313   2.851 -35.761  1.00  0.00     0.141 A 
HETATM   20  C   UNL     1     -11.233   2.947 -34.868  1.00  0.00     0.048 A 
ENDBRANCH  11  15
ENDBRANCH   7   8
ENDBRANCH   1   7
BRANCH   2  21
HETATM   21  N   UNL     1      -4.507   2.757 -31.959  1.00  0.00    -0.380 N 
HETATM   22  C   UNL     1      -5.014   3.154 -30.641  1.00  0.00     0.150 C 
BRANCH  21  23
HETATM   23  C   UNL     1      -3.465   3.566 -32.663  1.00  0.00     0.087 C 
HETATM   24  C   UNL     1      -2.377   4.187 -31.774  1.00  0.00     0.053 C 
HETATM   25  C   UNL     1      -2.789   5.493 -31.125  1.00  0.00     0.236 C 
HETATM   26  N   UNL     1      -3.208   6.468 -32.194  1.00  0.00    -0.075 N 
HETATM   27  H   UNL     1      -2.409   6.605 -32.830  1.00  0.00     0.279 HD
HETATM   28  C   UNL     1      -3.487   7.836 -31.613  1.00  0.00     0.269 C 
HETATM   29  C   UNL     1      -4.370   5.960 -33.003  1.00  0.00     0.236 C 
HETATM   30  C   UNL     1      -4.041   4.611 -33.633  1.00  0.00     0.053 C 
ENDBRANCH  21  23
ENDBRANCH   2  21
TORSDOF 5
ENDMDL
MODEL 4
REMARK VINA RESULT:      -7.9      2.072      7.503
REMARK  5 active torsions:
REMARK  status: ('A' for Active; 'I' for Inactive)
REMARK    1  A    between atoms: C_6  and  C_7 
REMARK    2  A    between atoms: N_10  and  C_12 
REMARK    3  A    between atoms: C_12  and  C_13 
REMARK    4  A    between atoms: C_14  and  N_15 
REMARK    5  A    between atoms: N_15  and  C_16 
ROOT
HETATM    1  C   UNL     1      -7.482   0.954 -34.138  1.00  0.00    -0.006 A 
HETATM    2  C   UNL     1      -6.701   0.808 -32.967  1.00  0.00     0.038 A 
HETATM    3  C   UNL     1      -5.999  -0.399 -32.774  1.00  0.00     0.030 A 
HETATM    4  C   UNL     1      -5.986  -1.397 -33.746  1.00  0.00     0.002 A 
HETATM    5  C   UNL     1      -6.667  -1.206 -34.939  1.00  0.00     0.001 A 
HETATM    6  C   UNL     1      -7.404  -0.039 -35.139  1.00  0.00     0.011 A 
ENDROOT
BRANCH   1   7
HETATM    7  C   UNL     1      -8.387   2.154 -34.319  1.00  0.00     0.275 C 
BRANCH   7   8
HETATM    8  N   UNL     1      -9.872   1.853 -34.513  1.00  0.00    -0.067 N 
HETATM    9  C   UNL     1     -10.480   1.097 -33.357  1.00  0.00     0.236 C 
HETATM   10  C   UNL     1     -11.918   0.711 -33.694  1.00  0.00     0.038 C 
HETATM   11  C   UNL     1     -12.798   1.878 -34.167  1.00  0.00     0.040 C 
HETATM   12  C   UNL     1     -12.068   2.737 -35.210  1.00  0.00     0.038 C 
HETATM   13  C   UNL     1     -10.655   3.114 -34.791  1.00  0.00     0.236 C 
HETATM   14  H   UNL     1      -9.940   1.265 -35.349  1.00  0.00     0.280 HD
BRANCH  11  15
HETATM   15  C   UNL     1     -13.343   2.721 -33.042  1.00  0.00     0.035 A 
HETATM   16  N   UNL     1     -14.648   2.616 -32.591  1.00  0.00    -0.278 N 
HETATM   17  C   UNL     1     -15.674   1.690 -33.018  1.00  0.00     0.179 C 
HETATM   18  N   UNL     1     -14.950   3.509 -31.636  1.00  0.00    -0.185 NA
HETATM   19  C   UNL     1     -13.797   4.114 -31.371  1.00  0.00     0.141 A 
HETATM   20  C   UNL     1     -12.766   3.669 -32.215  1.00  0.00     0.048 A 
ENDBRANCH  11  15
ENDBRANCH   7   8
ENDBRANCH   1   7
BRANCH   2  21
HETATM   21  N   UNL     1      -6.597   1.859 -32.026  1.00  0.00    -0.380 N 
HETATM   22  C   UNL     1      -7.450   1.676 -30.846  1.00  0.00     0.150 C 
BRANCH  21  23
HETATM   23  C   UNL     1      -5.234   2.464 -31.909  1.00  0.00     0.087 C 
HETATM   24  C   UNL     1      -4.936   3.209 -30.600  1.00  0.00     0.053 C 
HETATM   25  C   UNL     1      -5.446   4.636 -30.578  1.00  0.00     0.236 C 
HETATM   26  N   UNL     1      -4.867   5.387 -31.748  1.00  0.00    -0.075 N 
HETATM   27  H   UNL     1      -3.840   5.359 -31.669  1.00  0.00     0.279 HD
HETATM   28  C   UNL     1      -5.225   6.856 -31.692  1.00  0.00     0.269 C 
HETATM   29  C   UNL     1      -5.254   4.772 -33.065  1.00  0.00     0.236 C 
HETATM   30  C   UNL     1      -4.824   3.310 -33.125  1.00  0.00     0.053 C 
ENDBRANCH  21  23
ENDBRANCH   2  21
TORSDOF 5
ENDMDL
MODEL 5
REMARK VINA RESULT:      -7.4      3.442      5.890
REMARK  5 active torsions:
REMARK  status: ('A' for Active; 'I' for Inactive)
REMARK    1  A    between atoms: C_6  and  C_7 
REMARK    2  A    between atoms: N_10  and  C_12 
REMARK    3  A    between atoms: C_12  and  C_13 
REMARK    4  A    between atoms: C_14  and  N_15 
REMARK    5  A    between atoms: N_15  and  C_16 
ROOT
HETATM    1  C   UNL     1      -2.210   4.881 -32.557  1.00  0.00    -0.006 A 
HETATM    2  C   UNL     1      -3.614   4.720 -32.626  1.00  0.00     0.038 A 
HETATM    3  C   UNL     1      -4.255   4.934 -33.863  1.00  0.00     0.030 A 
HETATM    4  C   UNL     1      -3.529   5.205 -35.022  1.00  0.00     0.002 A 
HETATM    5  C   UNL     1      -2.145   5.258 -34.970  1.00  0.00     0.001 A 
HETATM    6  C   UNL     1      -1.488   5.092 -33.752  1.00  0.00     0.011 A 
ENDROOT
BRANCH   1   7
HETATM    7  C   UNL     1      -1.491   4.830 -31.226  1.00  0.00     0.275 C 
BRANCH   7   8
HETATM    8  N   UNL     1      -1.082   6.176 -30.630  1.00  0.00    -0.067 N 
HETATM    9  C   UNL     1      -2.261   7.052 -30.278  1.00  0.00     0.236 C 
HETATM   10  C   UNL     1      -1.766   8.424 -29.830  1.00  0.00     0.038 C 
HETATM   11  C   UNL     1      -0.702   8.389 -28.721  1.00  0.00     0.040 C 
HETATM   12  C   UNL     1       0.384   7.347 -29.027  1.00  0.00     0.038 C 
HETATM   13  C   UNL     1      -0.182   5.994 -29.431  1.00  0.00     0.236 C 
HETATM   14  H   UNL     1      -0.534   6.656 -31.350  1.00  0.00     0.280 HD
BRANCH  11  15
HETATM   15  C   UNL     1      -1.273   8.201 -27.340  1.00  0.00     0.035 A 
HETATM   16  N   UNL     1      -0.899   8.984 -26.261  1.00  0.00    -0.278 N 
HETATM   17  C   UNL     1      -0.001  10.119 -26.243  1.00  0.00     0.179 C 
HETATM   18  N   UNL     1      -1.468   8.601 -25.108  1.00  0.00    -0.185 NA
HETATM   19  C   UNL     1      -2.319   7.644 -25.459  1.00  0.00     0.141 A 
HETATM   20  C   UNL     1      -2.240   7.351 -26.831  1.00  0.00     0.048 A 
ENDBRANCH  11  15
ENDBRANCH   7   8
ENDBRANCH   1   7
BRANCH   2  21
HETATM   21  N   UNL     1      -4.358   4.319 -31.491  1.00  0.00    -0.380 N 
HETATM   22  C   UNL     1      -5.611   5.061 -31.320  1.00  0.00     0.150 C 
BRANCH  21  23
HETATM   23  C   UNL     1      -4.271   2.862 -31.167  1.00  0.00     0.087 C 
HETATM   24  C   UNL     1      -4.275   1.902 -32.366  1.00  0.00     0.053 C 
HETATM   25  C   UNL     1      -5.661   1.585 -32.892  1.00  0.00     0.236 C 
HETATM   26  N   UNL     1      -6.500   1.025 -31.773  1.00  0.00    -0.075 N 
HETATM   27  H   UNL     1      -6.034   0.177 -31.419  1.00  0.00     0.279 HD
HETATM   28  C   UNL     1      -7.846   0.554 -32.277  1.00  0.00     0.269 C 
HETATM   29  C   UNL     1      -6.642   1.993 -30.631  1.00  0.00     0.236 C 
HETATM   30  C   UNL     1      -5.274   2.402 -30.096  1.00  0.00     0.053 C 
ENDBRANCH  21  23
ENDBRANCH   2  21
TORSDOF 5
ENDMDL
MODEL 6
REMARK VINA RESULT:      -7.3     16.920     18.754
REMARK  5 active torsions:
REMARK  status: ('A' for Active; 'I' for Inactive)
REMARK    1  A    between atoms: C_6  and  C_7 
REMARK    2  A    between atoms: N_10  and  C_12 
REMARK    3  A    between atoms: C_12  and  C_13 
REMARK    4  A    between atoms: C_14  and  N_15 
REMARK    5  A    between atoms: N_15  and  C_16 
ROOT
HETATM    1  C   UNL     1      -2.917 -14.676 -39.288  1.00  0.00    -0.006 A 
HETATM    2  C   UNL     1      -2.411 -15.010 -38.010  1.00  0.00     0.038 A 
HETATM    3  C   UNL     1      -1.050 -14.763 -37.740  1.00  0.00     0.030 A 
HETATM    4  C   UNL     1      -0.230 -14.119 -38.665  1.00  0.00     0.002 A 
HETATM    5  C   UNL     1      -0.756 -13.698 -39.876  1.00  0.00     0.001 A 
HETATM    6  C   UNL     1      -2.089 -13.967 -40.186  1.00  0.00     0.011 A 
ENDROOT
BRANCH   1   7
HETATM    7  C   UNL     1      -4.322 -15.071 -39.690  1.00  0.00     0.275 C 
BRANCH   7   8
HETATM    8  N   UNL     1      -5.351 -13.942 -39.734  1.00  0.00    -0.067 N 
HETATM    9  C   UNL     1      -5.958 -13.745 -41.102  1.00  0.00     0.236 C 
HETATM   10  C   UNL     1      -6.859 -12.514 -41.092  1.00  0.00     0.038 C 
HETATM   11  C   UNL     1      -7.910 -12.500 -39.970  1.00  0.00     0.040 C 
HETATM   12  C   UNL     1      -7.287 -12.891 -38.622  1.00  0.00     0.038 C 
HETATM   13  C   UNL     1      -6.433 -14.147 -38.700  1.00  0.00     0.236 C 
HETATM   14  H   UNL     1      -4.850 -13.085 -39.482  1.00  0.00     0.280 HD
BRANCH  11  15
HETATM   15  C   UNL     1      -9.132 -13.328 -40.275  1.00  0.00     0.035 A 
HETATM   16  N   UNL     1     -10.392 -12.775 -40.431  1.00  0.00    -0.278 N 
HETATM   17  C   UNL     1     -10.769 -11.378 -40.413  1.00  0.00     0.179 C 
HETATM   18  N   UNL     1     -11.351 -13.694 -40.620  1.00  0.00    -0.185 NA
HETATM   19  C   UNL     1     -10.695 -14.844 -40.717  1.00  0.00     0.141 A 
HETATM   20  C   UNL     1      -9.316 -14.680 -40.508  1.00  0.00     0.048 A 
ENDBRANCH  11  15
ENDBRANCH   7   8
ENDBRANCH   1   7
BRANCH   2  21
HETATM   21  N   UNL     1      -3.256 -15.547 -37.010  1.00  0.00    -0.380 N 
HETATM   22  C   UNL     1      -3.364 -17.010 -37.058  1.00  0.00     0.150 C 
BRANCH  21  23
HETATM   23  C   UNL     1      -3.229 -14.816 -35.706  1.00  0.00     0.087 C 
HETATM   24  C   UNL     1      -3.466 -15.667 -34.449  1.00  0.00     0.053 C 
HETATM   25  C   UNL     1      -4.930 -15.918 -34.148  1.00  0.00     0.236 C 
HETATM   26  N   UNL     1      -5.644 -14.598 -34.025  1.00  0.00    -0.075 N 
HETATM   27  H   UNL     1      -5.196 -14.061 -33.268  1.00  0.00     0.279 HD
HETATM   28  C   UNL     1      -7.077 -14.786 -33.578  1.00  0.00     0.269 C 
HETATM   29  C   UNL     1      -5.559 -13.786 -35.289  1.00  0.00     0.236 C 
HETATM   30  C   UNL     1      -4.105 -13.553 -35.684  1.00  0.00     0.053 C 
ENDBRANCH  21  23
ENDBRANCH   2  21
TORSDOF 5
ENDMDL
MODEL 7
REMARK VINA RESULT:      -7.3      2.257      3.150
REMARK  5 active torsions:
REMARK  status: ('A' for Active; 'I' for Inactive)
REMARK    1  A    between atoms: C_6  and  C_7 
REMARK    2  A    between atoms: N_10  and  C_12 
REMARK    3  A    between atoms: C_12  and  C_13 
REMARK    4  A    between atoms: C_14  and  N_15 
REMARK    5  A    between atoms: N_15  and  C_16 
ROOT
HETATM    1  C   UNL     1      -6.841   2.024 -33.536  1.00  0.00    -0.006 A 
HETATM    2  C   UNL     1      -8.202   1.849 -33.191  1.00  0.00     0.038 A 
HETATM    3  C   UNL     1      -8.761   0.559 -33.293  1.00  0.00     0.030 A 
HETATM    4  C   UNL     1      -7.982  -0.546 -33.632  1.00  0.00     0.002 A 
HETATM    5  C   UNL     1      -6.625  -0.387 -33.867  1.00  0.00     0.001 A 
HETATM    6  C   UNL     1      -6.056   0.884 -33.814  1.00  0.00     0.011 A 
ENDROOT
BRANCH   1   7
HETATM    7  C   UNL     1      -6.234   3.410 -33.608  1.00  0.00     0.275 C 
BRANCH   7   8
HETATM    8  N   UNL     1      -4.741   3.506 -33.302  1.00  0.00    -0.067 N 
HETATM    9  C   UNL     1      -4.097   4.748 -33.871  1.00  0.00     0.236 C 
HETATM   10  C   UNL     1      -2.589   4.693 -33.648  1.00  0.00     0.038 C 
HETATM   11  C   UNL     1      -2.166   4.420 -32.196  1.00  0.00     0.040 C 
HETATM   12  C   UNL     1      -2.979   3.266 -31.590  1.00  0.00     0.038 C 
HETATM   13  C   UNL     1      -4.477   3.405 -31.818  1.00  0.00     0.236 C 
HETATM   14  H   UNL     1      -4.302   2.691 -33.742  1.00  0.00     0.280 HD
BRANCH  11  15
HETATM   15  C   UNL     1      -2.200   5.642 -31.314  1.00  0.00     0.035 A 
HETATM   16  N   UNL     1      -1.209   5.927 -30.390  1.00  0.00    -0.278 N 
HETATM   17  C   UNL     1       0.022   5.208 -30.142  1.00  0.00     0.179 C 
HETATM   18  N   UNL     1      -1.471   7.019 -29.656  1.00  0.00    -0.185 NA
HETATM   19  C   UNL     1      -2.576   7.523 -30.193  1.00  0.00     0.141 A 
HETATM   20  C   UNL     1      -3.077   6.710 -31.223  1.00  0.00     0.048 A 
ENDBRANCH  11  15
ENDBRANCH   7   8
ENDBRANCH   1   7
BRANCH   2  21
HETATM   21  N   UNL     1      -8.979   2.934 -32.721  1.00  0.00    -0.380 N 
HETATM   22  C   UNL     1      -9.938   3.440 -33.709  1.00  0.00     0.150 C 
BRANCH  21  23
HETATM   23  C   UNL     1      -9.325   2.874 -31.267  1.00  0.00     0.087 C 
HETATM   24  C   UNL     1     -10.490   3.767 -30.813  1.00  0.00     0.053 C 
HETATM   25  C   UNL     1     -10.090   5.203 -30.541  1.00  0.00     0.236 C 
HETATM   26  N   UNL     1      -8.987   5.225 -29.517  1.00  0.00    -0.075 N 
HETATM   27  H   UNL     1      -9.336   4.769 -28.661  1.00  0.00     0.279 HD
HETATM   28  C   UNL     1      -8.651   6.639 -29.098  1.00  0.00     0.269 C 
HETATM   29  C   UNL     1      -7.765   4.479 -29.981  1.00  0.00     0.236 C 
HETATM   30  C   UNL     1      -8.115   3.038 -30.333  1.00  0.00     0.053 C 
ENDBRANCH  21  23
ENDBRANCH   2  21
TORSDOF 5
ENDMDL
MODEL 8
REMARK VINA RESULT:      -7.2     16.775     19.042
REMARK  5 active torsions:
REMARK  status: ('A' for Active; 'I' for Inactive)
REMARK    1  A    between atoms: C_6  and  C_7 
REMARK    2  A    between atoms: N_10  and  C_12 
REMARK    3  A    between atoms: C_12  and  C_13 
REMARK    4  A    between atoms: C_14  and  N_15 
REMARK    5  A    between atoms: N_15  and  C_16 
ROOT
HETATM    1  C   UNL     1      -7.459 -14.295 -38.401  1.00  0.00    -0.006 A 
HETATM    2  C   UNL     1      -7.147 -14.244 -39.780  1.00  0.00     0.038 A 
HETATM    3  C   UNL     1      -8.122 -13.754 -40.672  1.00  0.00     0.030 A 
HETATM    4  C   UNL     1      -9.333 -13.239 -40.214  1.00  0.00     0.002 A 
HETATM    5  C   UNL     1      -9.592 -13.194 -38.853  1.00  0.00     0.001 A 
HETATM    6  C   UNL     1      -8.663 -13.711 -37.952  1.00  0.00     0.011 A 
ENDROOT
BRANCH   1   7
HETATM    7  C   UNL     1      -6.519 -14.965 -37.421  1.00  0.00     0.275 C 
BRANCH   7   8
HETATM    8  N   UNL     1      -7.043 -15.134 -35.996  1.00  0.00    -0.067 N 
HETATM    9  C   UNL     1      -6.909 -16.546 -35.477  1.00  0.00     0.236 C 
HETATM   10  C   UNL     1      -7.584 -16.660 -34.114  1.00  0.00     0.038 C 
HETATM   11  C   UNL     1      -7.134 -15.607 -33.088  1.00  0.00     0.040 C 
HETATM   12  C   UNL     1      -7.104 -14.204 -33.711  1.00  0.00     0.038 C 
HETATM   13  C   UNL     1      -6.384 -14.159 -35.050  1.00  0.00     0.236 C 
HETATM   14  H   UNL     1      -8.040 -14.900 -36.025  1.00  0.00     0.280 HD
BRANCH  11  15
HETATM   15  C   UNL     1      -5.830 -15.939 -32.412  1.00  0.00     0.035 A 
HETATM   16  N   UNL     1      -5.757 -16.695 -31.254  1.00  0.00    -0.278 N 
HETATM   17  C   UNL     1      -6.831 -17.346 -30.536  1.00  0.00     0.179 C 
HETATM   18  N   UNL     1      -4.508 -16.808 -30.775  1.00  0.00    -0.185 NA
HETATM   19  C   UNL     1      -3.745 -16.232 -31.697  1.00  0.00     0.141 A 
HETATM   20  C   UNL     1      -4.510 -15.672 -32.734  1.00  0.00     0.048 A 
ENDBRANCH  11  15
ENDBRANCH   7   8
ENDBRANCH   1   7
BRANCH   2  21
HETATM   21  N   UNL     1      -5.874 -14.642 -40.254  1.00  0.00    -0.380 N 
HETATM   22  C   UNL     1      -5.881 -15.944 -40.929  1.00  0.00     0.150 C 
BRANCH  21  23
HETATM   23  C   UNL     1      -5.007 -13.524 -40.739  1.00  0.00     0.087 C 
HETATM   24  C   UNL     1      -3.572 -13.903 -41.131  1.00  0.00     0.053 C 
HETATM   25  C   UNL     1      -2.617 -13.982 -39.956  1.00  0.00     0.236 C 
HETATM   26  N   UNL     1      -2.626 -12.667 -39.221  1.00  0.00    -0.075 N 
HETATM   27  H   UNL     1      -2.341 -11.930 -39.883  1.00  0.00     0.279 HD
HETATM   28  C   UNL     1      -1.581 -12.639 -38.129  1.00  0.00     0.269 C 
HETATM   29  C   UNL     1      -3.991 -12.321 -38.693  1.00  0.00     0.236 C 
HETATM   30  C   UNL     1      -5.015 -12.289 -39.822  1.00  0.00     0.053 C 
ENDBRANCH  21  23
ENDBRANCH   2  21
TORSDOF 5
ENDMDL
MODEL 9
REMARK VINA RESULT:      -6.9      2.193      7.919
REMARK  5 active torsions:
REMARK  status: ('A' for Active; 'I' for Inactive)
REMARK    1  A    between atoms: C_6  and  C_7 
REMARK    2  A    between atoms: N_10  and  C_12 
REMARK    3  A    between atoms: C_12  and  C_13 
REMARK    4  A    between atoms: C_14  and  N_15 
REMARK    5  A    between atoms: N_15  and  C_16 
ROOT
HETATM    1  C   UNL     1      -7.977   2.240 -33.747  1.00  0.00    -0.006 A 
HETATM    2  C   UNL     1      -7.274   1.834 -32.587  1.00  0.00     0.038 A 
HETATM    3  C   UNL     1      -7.066   0.456 -32.376  1.00  0.00     0.030 A 
HETATM    4  C   UNL     1      -7.452  -0.492 -33.322  1.00  0.00     0.002 A 
HETATM    5  C   UNL     1      -8.047  -0.081 -34.505  1.00  0.00     0.001 A 
HETATM    6  C   UNL     1      -8.302   1.272 -34.722  1.00  0.00     0.011 A 
ENDROOT
BRANCH   1   7
HETATM    7  C   UNL     1      -8.375   3.688 -33.941  1.00  0.00     0.275 C 
BRANCH   7   8
HETATM    8  N   UNL     1      -9.857   4.008 -33.755  1.00  0.00    -0.067 N 
HETATM    9  C   UNL     1     -10.669   3.812 -35.013  1.00  0.00     0.236 C 
HETATM   10  C   UNL     1     -12.100   4.290 -34.782  1.00  0.00     0.038 C 
HETATM   11  C   UNL     1     -12.780   3.694 -33.539  1.00  0.00     0.040 C 
HETATM   12  C   UNL     1     -11.847   3.742 -32.320  1.00  0.00     0.038 C 
HETATM   13  C   UNL     1     -10.450   3.216 -32.614  1.00  0.00     0.236 C 
HETATM   14  H   UNL     1      -9.909   4.998 -33.495  1.00  0.00     0.280 HD
BRANCH  11  15
HETATM   15  C   UNL     1     -13.333   2.309 -33.756  1.00  0.00     0.035 A 
HETATM   16  N   UNL     1     -14.406   1.810 -33.037  1.00  0.00    -0.278 N 
HETATM   17  C   UNL     1     -15.217   2.485 -32.047  1.00  0.00     0.179 C 
HETATM   18  N   UNL     1     -14.689   0.532 -33.332  1.00  0.00    -0.185 NA
HETATM   19  C   UNL     1     -13.879   0.236 -34.342  1.00  0.00     0.141 A 
HETATM   20  C   UNL     1     -13.013   1.300 -34.647  1.00  0.00     0.048 A 
ENDBRANCH  11  15
ENDBRANCH   7   8
ENDBRANCH   1   7
BRANCH   2  21
HETATM   21  N   UNL     1      -6.760   2.787 -31.677  1.00  0.00    -0.380 N 
HETATM   22  C   UNL     1      -7.471   2.815 -30.394  1.00  0.00     0.150 C 
BRANCH  21  23
HETATM   23  C   UNL     1      -5.279   2.985 -31.745  1.00  0.00     0.087 C 
HETATM   24  C   UNL     1      -4.633   3.673 -30.534  1.00  0.00     0.053 C 
HETATM   25  C   UNL     1      -4.721   5.185 -30.569  1.00  0.00     0.236 C 
HETATM   26  N   UNL     1      -4.101   5.688 -31.846  1.00  0.00    -0.075 N 
HETATM   27  H   UNL     1      -3.120   5.373 -31.870  1.00  0.00     0.279 HD
HETATM   28  C   UNL     1      -4.029   7.199 -31.865  1.00  0.00     0.269 C 
HETATM   29  C   UNL     1      -4.796   5.150 -33.066  1.00  0.00     0.236 C 
HETATM   30  C   UNL     1      -4.798   3.626 -33.058  1.00  0.00     0.053 C 
ENDBRANCH  21  23
ENDBRANCH   2  21
TORSDOF 5
ENDMDL
MODEL 10
REMARK VINA RESULT:      -6.9      1.381      2.250
REMARK  5 active torsions:
REMARK  status: ('A' for Active; 'I' for Inactive)
REMARK    1  A    between atoms: C_6  and  C_7 
REMARK    2  A    between atoms: N_10  and  C_12 
REMARK    3  A    between atoms: C_12  and  C_13 
REMARK    4  A    between atoms: C_14  and  N_15 
REMARK    5  A    between atoms: N_15  and  C_16 
ROOT
HETATM    1  C   UNL     1      -6.808   1.420 -33.445  1.00  0.00    -0.006 A 
HETATM    2  C   UNL     1      -8.055   0.802 -33.190  1.00  0.00     0.038 A 
HETATM    3  C   UNL     1      -8.191  -0.574 -33.465  1.00  0.00     0.030 A 
HETATM    4  C   UNL     1      -7.108  -1.342 -33.889  1.00  0.00     0.002 A 
HETATM    5  C   UNL     1      -5.862  -0.753 -34.037  1.00  0.00     0.001 A 
HETATM    6  C   UNL     1      -5.709   0.614 -33.811  1.00  0.00     0.011 A 
ENDROOT
BRANCH   1   7
HETATM    7  C   UNL     1      -6.653   2.922 -33.328  1.00  0.00     0.275 C 
BRANCH   7   8
HETATM    8  N   UNL     1      -5.242   3.470 -33.536  1.00  0.00    -0.067 N 
HETATM    9  C   UNL     1      -5.222   4.806 -34.240  1.00  0.00     0.236 C 
HETATM   10  C   UNL     1      -3.781   5.209 -34.536  1.00  0.00     0.038 C 
HETATM   11  C   UNL     1      -2.842   5.166 -33.320  1.00  0.00     0.040 C 
HETATM   12  C   UNL     1      -3.028   3.868 -32.521  1.00  0.00     0.038 C 
HETATM   13  C   UNL     1      -4.486   3.548 -32.230  1.00  0.00     0.236 C 
HETATM   14  H   UNL     1      -4.753   2.792 -34.128  1.00  0.00     0.280 HD
BRANCH  11  15
HETATM   15  C   UNL     1      -2.944   6.380 -32.433  1.00  0.00     0.035 A 
HETATM   16  N   UNL     1      -1.837   6.993 -31.872  1.00  0.00    -0.278 N 
HETATM   17  C   UNL     1      -0.439   6.673 -32.062  1.00  0.00     0.179 C 
HETATM   18  N   UNL     1      -2.154   8.009 -31.054  1.00  0.00    -0.185 NA
HETATM   19  C   UNL     1      -3.469   8.142 -31.184  1.00  0.00     0.141 A 
HETATM   20  C   UNL     1      -4.015   7.157 -32.024  1.00  0.00     0.048 A 
ENDBRANCH  11  15
ENDBRANCH   7   8
ENDBRANCH   1   7
BRANCH   2  21
HETATM   21  N   UNL     1      -9.132   1.535 -32.638  1.00  0.00    -0.380 N 
HETATM   22  C   UNL     1      -8.865   2.040 -31.288  1.00  0.00     0.150 C 
BRANCH  21  23
HETATM   23  C   UNL     1      -9.914   2.341 -33.626  1.00  0.00     0.087 C 
HETATM   24  C   UNL     1     -10.517   3.652 -33.101  1.00  0.00     0.053 C 
HETATM   25  C   UNL     1     -11.836   3.472 -32.376  1.00  0.00     0.236 C 
HETATM   26  N   UNL     1     -12.812   2.779 -33.290  1.00  0.00    -0.075 N 
HETATM   27  H   UNL     1     -12.928   3.360 -34.133  1.00  0.00     0.279 HD
HETATM   28  C   UNL     1     -14.190   2.706 -32.671  1.00  0.00     0.269 C 
HETATM   29  C   UNL     1     -12.324   1.422 -33.718  1.00  0.00     0.236 C 
HETATM   30  C   UNL     1     -10.965   1.528 -34.400  1.00  0.00     0.053 C 
ENDBRANCH  21  23
ENDBRANCH   2  21
TORSDOF 5
ENDMDL
