MODEL 1
REMARK VINA RESULT:      -9.9      0.000      0.000
REMARK  10 active torsions:
REMARK  status: ('A' for Active; 'I' for Inactive)
REMARK    1  A    between atoms: C_2  and  N_3 
REMARK    2  A    between atoms: N_3  and  C_4 
REMARK    3  A    between atoms: C_6  and  N_7 
REMARK    4  A    between atoms: N_10  and  C_12 
REMARK    5  A    between atoms: C_25  and  N_26 
REMARK    6  A    between atoms: N_26  and  C_27 
REMARK    7  A    between atoms: C_27  and  C_28 
REMARK    8  A    between atoms: C_28  and  O_29 
REMARK    9  A    between atoms: C_33  and  O_34 
REMARK   10  A    between atoms: O_34  and  C_35 
ROOT
HETATM    1  C   UNL     1      -3.825   1.815 -31.251  1.00  0.00     0.745 A 
HETATM    2  N   UNL     1      -3.061   2.759 -31.790  1.00  0.00     0.130 NA
HETATM    3  C   UNL     1      -3.334   4.013 -31.474  1.00  0.00     0.743 A 
HETATM    4  N   UNL     1      -4.346   4.350 -30.689  1.00  0.00    -0.030 NA
HETATM    5  C   UNL     1      -5.078   3.355 -30.206  1.00  0.00     0.238 A 
HETATM    6  N   UNL     1      -4.862   2.076 -30.473  1.00  0.00    -0.030 NA
ENDROOT
BRANCH   3   7
HETATM    7  N   UNL     1      -2.524   5.018 -32.009  1.00  0.00    -0.210 N 
HETATM    8  C   UNL     1      -1.079   4.832 -31.833  1.00  0.00     0.169 C 
HETATM    9  C   UNL     1      -0.640   5.268 -30.418  1.00  0.00     0.256 C 
HETATM   10  N   UNL     1      -1.063   6.738 -30.152  1.00  0.00    -0.059 N 
HETATM   11  H   UNL     1      -0.657   7.284 -30.922  1.00  0.00     0.281 HD
HETATM   12  C   UNL     1      -2.598   6.861 -30.342  1.00  0.00     0.256 C 
HETATM   13  C   UNL     1      -2.998   6.387 -31.761  1.00  0.00     0.169 C 
BRANCH  10  14
HETATM   14  C   UNL     1      -0.487   7.361 -28.864  1.00  0.00     0.129 C 
HETATM   15  C   UNL     1      -1.389   8.553 -28.438  1.00  0.00     0.043 C 
HETATM   16  C   UNL     1      -0.873   9.185 -27.135  1.00  0.00    -0.012 C 
HETATM   17  C   UNL     1       0.570   9.673 -27.352  1.00  0.00     0.009 C 
HETATM   18  C   UNL     1      -0.896   8.134 -26.017  1.00  0.00     0.009 C 
HETATM   19  C   UNL     1       1.476   8.491 -27.742  1.00  0.00    -0.012 C 
HETATM   20  C   UNL     1       0.961   7.860 -29.055  1.00  0.00     0.043 C 
HETATM   21  C   UNL     1       1.440   7.444 -26.617  1.00  0.00     0.009 C 
HETATM   22  C   UNL     1      -0.000   6.949 -26.402  1.00  0.00    -0.012 C 
HETATM   23  C   UNL     1      -0.513   6.321 -27.710  1.00  0.00     0.043 C 
ENDBRANCH  10  14
ENDBRANCH   3   7
BRANCH   1  24
HETATM   24  N   UNL     1      -3.581   0.472 -31.532  1.00  0.00    -0.188 N 
HETATM   25  H   UNL     1      -2.672   0.200 -31.177  1.00  0.00     0.184 HD
BRANCH  24  26
HETATM   26  C   UNL     1      -4.104  -0.363 -32.530  1.00  0.00     0.049 A 
HETATM   27  C   UNL     1      -5.210  -0.024 -33.315  1.00  0.00     0.033 A 
HETATM   28  C   UNL     1      -5.725  -0.904 -34.278  1.00  0.00     0.039 A 
HETATM   29  C   UNL     1      -5.154  -2.162 -34.455  1.00  0.00     0.078 A 
HETATM   30  C   UNL     1      -4.063  -2.521 -33.661  1.00  0.00     0.039 A 
HETATM   31  C   UNL     1      -3.546  -1.634 -32.710  1.00  0.00     0.033 A 
BRANCH  29  32
HETATM   32  O   UNL     1      -5.555  -3.118 -35.341  1.00  0.00    -0.255 OA
BRANCH  32  33
HETATM   33  C   UNL     1      -6.548  -4.038 -34.918  1.00  0.00     0.530 C 
HETATM   34  F   UNL     1      -5.998  -5.056 -34.221  1.00  0.00    -0.144 F 
HETATM   35  F   UNL     1      -7.482  -3.428 -34.158  1.00  0.00    -0.144 F 
HETATM   36  F   UNL     1      -7.157  -4.555 -36.006  1.00  0.00    -0.144 F 
ENDBRANCH  32  33
ENDBRANCH  29  32
ENDBRANCH  24  26
ENDBRANCH   1  24
BRANCH   5  37
HETATM   37  N   UNL     1      -6.115   3.729 -29.371  1.00  0.00    -0.258 NA
HETATM   38  H   UNL     1      -6.935   3.182 -29.616  1.00  0.00     0.130 HD
BRANCH  37  39
HETATM   39  C   UNL     1      -6.415   5.161 -29.305  1.00  0.00     0.121 C 
BRANCH  39  40
HETATM   40  C   UNL     1      -6.348   5.698 -27.869  1.00  0.00     0.178 C 
BRANCH  40  41
HETATM   41  O   UNL     1      -5.218   5.148 -27.190  1.00  0.00    -0.400 OA
HETATM   42  H   UNL     1      -5.564   4.551 -26.503  1.00  0.00     0.209 HD
ENDBRANCH  40  41
ENDBRANCH  39  40
ENDBRANCH  37  39
ENDBRANCH   5  37
TORSDOF 10
ENDMDL
MODEL 2
REMARK VINA RESULT:      -9.8      1.363      2.210
REMARK  10 active torsions:
REMARK  status: ('A' for Active; 'I' for Inactive)
REMARK    1  A    between atoms: C_2  and  N_3 
REMARK    2  A    between atoms: N_3  and  C_4 
REMARK    3  A    between atoms: C_6  and  N_7 
REMARK    4  A    between atoms: N_10  and  C_12 
REMARK    5  A    between atoms: C_25  and  N_26 
REMARK    6  A    between atoms: N_26  and  C_27 
REMARK    7  A    between atoms: C_27  and  C_28 
REMARK    8  A    between atoms: C_28  and  O_29 
REMARK    9  A    between atoms: C_33  and  O_34 
REMARK   10  A    between atoms: O_34  and  C_35 
ROOT
HETATM    1  C   UNL     1      -4.283   1.701 -31.049  1.00  0.00     0.745 A 
HETATM    2  N   UNL     1      -3.661   2.738 -31.601  1.00  0.00     0.130 NA
HETATM    3  C   UNL     1      -4.123   3.943 -31.318  1.00  0.00     0.743 A 
HETATM    4  N   UNL     1      -5.187   4.140 -30.554  1.00  0.00    -0.030 NA
HETATM    5  C   UNL     1      -5.769   3.057 -30.057  1.00  0.00     0.238 A 
HETATM    6  N   UNL     1      -5.360   1.820 -30.291  1.00  0.00    -0.030 NA
ENDROOT
BRANCH   3   7
HETATM    7  N   UNL     1      -3.465   5.047 -31.867  1.00  0.00    -0.210 N 
HETATM    8  C   UNL     1      -2.002   4.952 -31.922  1.00  0.00     0.169 C 
HETATM    9  C   UNL     1      -1.380   5.295 -30.550  1.00  0.00     0.256 C 
HETATM   10  N   UNL     1      -1.843   6.702 -30.086  1.00  0.00    -0.059 N 
HETATM   11  H   UNL     1      -1.592   7.341 -30.851  1.00  0.00     0.281 HD
HETATM   12  C   UNL     1      -3.394   6.729 -30.037  1.00  0.00     0.256 C 
HETATM   13  C   UNL     1      -3.977   6.350 -31.421  1.00  0.00     0.169 C 
BRANCH  10  14
HETATM   14  C   UNL     1      -1.117   7.253 -28.842  1.00  0.00     0.129 C 
HETATM   15  C   UNL     1       0.327   6.679 -28.810  1.00  0.00     0.043 C 
HETATM   16  C   UNL     1       1.104   7.231 -27.603  1.00  0.00    -0.012 C 
HETATM   17  C   UNL     1       0.360   6.848 -26.312  1.00  0.00     0.009 C 
HETATM   18  C   UNL     1       1.190   8.759 -27.711  1.00  0.00     0.009 C 
HETATM   19  C   UNL     1      -1.061   7.441 -26.322  1.00  0.00    -0.012 C 
HETATM   20  C   UNL     1      -1.843   6.881 -27.531  1.00  0.00     0.043 C 
HETATM   21  C   UNL     1      -0.960   8.971 -26.435  1.00  0.00     0.009 C 
HETATM   22  C   UNL     1      -0.223   9.358 -27.728  1.00  0.00    -0.012 C 
HETATM   23  C   UNL     1      -1.002   8.800 -28.933  1.00  0.00     0.043 C 
ENDBRANCH  10  14
ENDBRANCH   3   7
BRANCH   1  24
HETATM   24  N   UNL     1      -3.835   0.405 -31.295  1.00  0.00    -0.188 N 
HETATM   25  H   UNL     1      -2.884   0.295 -30.967  1.00  0.00     0.184 HD
BRANCH  24  26
HETATM   26  C   UNL     1      -4.250  -0.541 -32.244  1.00  0.00     0.049 A 
HETATM   27  C   UNL     1      -3.632  -1.784 -32.414  1.00  0.00     0.033 A 
HETATM   28  C   UNL     1      -4.054  -2.685 -33.401  1.00  0.00     0.039 A 
HETATM   29  C   UNL     1      -5.094  -2.346 -34.263  1.00  0.00     0.078 A 
HETATM   30  C   UNL     1      -5.705  -1.100 -34.118  1.00  0.00     0.039 A 
HETATM   31  C   UNL     1      -5.287  -0.208 -33.123  1.00  0.00     0.033 A 
BRANCH  29  32
HETATM   32  O   UNL     1      -5.599  -3.117 -35.268  1.00  0.00    -0.255 OA
BRANCH  32  33
HETATM   33  C   UNL     1      -6.453  -4.192 -34.912  1.00  0.00     0.530 C 
HETATM   34  F   UNL     1      -7.428  -3.778 -34.073  1.00  0.00    -0.144 F 
HETATM   35  F   UNL     1      -7.013  -4.751 -36.006  1.00  0.00    -0.144 F 
HETATM   36  F   UNL     1      -5.727  -5.136 -34.278  1.00  0.00    -0.144 F 
ENDBRANCH  32  33
ENDBRANCH  29  32
ENDBRANCH  24  26
ENDBRANCH   1  24
BRANCH   5  37
HETATM   37  N   UNL     1      -6.863   3.289 -29.244  1.00  0.00    -0.258 NA
HETATM   38  H   UNL     1      -7.152   2.405 -28.837  1.00  0.00     0.130 HD
BRANCH  37  39
HETATM   39  C   UNL     1      -7.989   4.003 -29.851  1.00  0.00     0.121 C 
BRANCH  39  40
HETATM   40  C   UNL     1      -8.699   3.158 -30.918  1.00  0.00     0.178 C 
BRANCH  40  41
HETATM   41  O   UNL     1      -9.665   2.302 -30.305  1.00  0.00    -0.400 OA
HETATM   42  H   UNL     1      -9.764   1.527 -30.885  1.00  0.00     0.209 HD
ENDBRANCH  40  41
ENDBRANCH  39  40
ENDBRANCH  37  39
ENDBRANCH   5  37
TORSDOF 10
ENDMDL
MODEL 3
REMARK VINA RESULT:      -9.7      3.632      5.615
REMARK  10 active torsions:
REMARK  status: ('A' for Active; 'I' for Inactive)
REMARK    1  A    between atoms: C_2  and  N_3 
REMARK    2  A    between atoms: N_3  and  C_4 
REMARK    3  A    between atoms: C_6  and  N_7 
REMARK    4  A    between atoms: N_10  and  C_12 
REMARK    5  A    between atoms: C_25  and  N_26 
REMARK    6  A    between atoms: N_26  and  C_27 
REMARK    7  A    between atoms: C_27  and  C_28 
REMARK    8  A    between atoms: C_28  and  O_29 
REMARK    9  A    between atoms: C_33  and  O_34 
REMARK   10  A    between atoms: O_34  and  C_35 
ROOT
HETATM    1  C   UNL     1      -8.277   1.507 -32.622  1.00  0.00     0.745 A 
HETATM    2  N   UNL     1      -7.868   2.518 -31.863  1.00  0.00     0.130 NA
HETATM    3  C   UNL     1      -8.279   3.730 -32.194  1.00  0.00     0.743 A 
HETATM    4  N   UNL     1      -9.034   3.964 -33.257  1.00  0.00    -0.030 NA
HETATM    5  C   UNL     1      -9.385   2.908 -33.979  1.00  0.00     0.238 A 
HETATM    6  N   UNL     1      -9.018   1.666 -33.706  1.00  0.00    -0.030 NA
ENDROOT
BRANCH   3   7
HETATM    7  N   UNL     1      -7.881   4.803 -31.393  1.00  0.00    -0.210 N 
HETATM    8  C   UNL     1      -7.633   6.066 -32.097  1.00  0.00     0.169 C 
HETATM    9  C   UNL     1      -6.232   6.064 -32.747  1.00  0.00     0.256 C 
HETATM   10  N   UNL     1      -5.143   5.785 -31.676  1.00  0.00    -0.059 N 
HETATM   11  H   UNL     1      -5.285   6.496 -30.947  1.00  0.00     0.281 HD
HETATM   12  C   UNL     1      -5.457   4.434 -30.980  1.00  0.00     0.256 C 
HETATM   13  C   UNL     1      -6.880   4.467 -30.370  1.00  0.00     0.169 C 
BRANCH  10  14
HETATM   14  C   UNL     1      -3.689   5.979 -32.154  1.00  0.00     0.129 C 
HETATM   15  C   UNL     1      -3.648   5.837 -33.701  1.00  0.00     0.043 C 
HETATM   16  C   UNL     1      -2.221   6.059 -34.229  1.00  0.00    -0.012 C 
HETATM   17  C   UNL     1      -1.282   5.026 -33.582  1.00  0.00     0.009 C 
HETATM   18  C   UNL     1      -1.758   7.474 -33.857  1.00  0.00     0.009 C 
HETATM   19  C   UNL     1      -1.293   5.183 -32.051  1.00  0.00    -0.012 C 
HETATM   20  C   UNL     1      -2.726   4.953 -31.521  1.00  0.00     0.043 C 
HETATM   21  C   UNL     1      -0.832   6.605 -31.694  1.00  0.00     0.009 C 
HETATM   22  C   UNL     1      -1.772   7.642 -32.333  1.00  0.00    -0.012 C 
HETATM   23  C   UNL     1      -3.200   7.412 -31.805  1.00  0.00     0.043 C 
ENDBRANCH  10  14
ENDBRANCH   3   7
BRANCH   1  24
HETATM   24  N   UNL     1      -7.892   0.203 -32.318  1.00  0.00    -0.188 N 
HETATM   25  H   UNL     1      -8.081   0.000 -31.345  1.00  0.00     0.184 HD
BRANCH  24  26
HETATM   26  C   UNL     1      -6.949  -0.637 -32.928  1.00  0.00     0.049 A 
HETATM   27  C   UNL     1      -7.256  -1.500 -33.985  1.00  0.00     0.033 A 
HETATM   28  C   UNL     1      -6.292  -2.350 -34.543  1.00  0.00     0.039 A 
HETATM   29  C   UNL     1      -4.997  -2.375 -34.031  1.00  0.00     0.078 A 
HETATM   30  C   UNL     1      -4.683  -1.535 -32.962  1.00  0.00     0.039 A 
HETATM   31  C   UNL     1      -5.647  -0.678 -32.416  1.00  0.00     0.033 A 
BRANCH  29  32
HETATM   32  O   UNL     1      -3.966  -3.155 -34.467  1.00  0.00    -0.255 OA
BRANCH  32  33
HETATM   33  C   UNL     1      -3.755  -4.396 -33.815  1.00  0.00     0.530 C 
HETATM   34  F   UNL     1      -3.385  -4.210 -32.529  1.00  0.00    -0.144 F 
HETATM   35  F   UNL     1      -4.867  -5.161 -33.854  1.00  0.00    -0.144 F 
HETATM   36  F   UNL     1      -2.763  -5.058 -34.445  1.00  0.00    -0.144 F 
ENDBRANCH  32  33
ENDBRANCH  29  32
ENDBRANCH  24  26
ENDBRANCH   1  24
BRANCH   5  37
HETATM   37  N   UNL     1     -10.193   3.175 -35.070  1.00  0.00    -0.258 NA
HETATM   38  H   UNL     1      -9.764   3.922 -35.608  1.00  0.00     0.130 HD
BRANCH  37  39
HETATM   39  C   UNL     1     -11.604   3.447 -34.788  1.00  0.00     0.121 C 
BRANCH  39  40
HETATM   40  C   UNL     1     -12.505   2.262 -35.162  1.00  0.00     0.178 C 
BRANCH  40  41
HETATM   41  O   UNL     1     -12.344   1.939 -36.545  1.00  0.00    -0.400 OA
HETATM   42  H   UNL     1     -11.737   2.600 -36.921  1.00  0.00     0.209 HD
ENDBRANCH  40  41
ENDBRANCH  39  40
ENDBRANCH  37  39
ENDBRANCH   5  37
TORSDOF 10
ENDMDL
MODEL 4
REMARK VINA RESULT:      -9.5      3.847      7.814
REMARK  10 active torsions:
REMARK  status: ('A' for Active; 'I' for Inactive)
REMARK    1  A    between atoms: C_2  and  N_3 
REMARK    2  A    between atoms: N_3  and  C_4 
REMARK    3  A    between atoms: C_6  and  N_7 
REMARK    4  A    between atoms: N_10  and  C_12 
REMARK    5  A    between atoms: C_25  and  N_26 
REMARK    6  A    between atoms: N_26  and  C_27 
REMARK    7  A    between atoms: C_27  and  C_28 
REMARK    8  A    between atoms: C_28  and  O_29 
REMARK    9  A    between atoms: C_33  and  O_34 
REMARK   10  A    between atoms: O_34  and  C_35 
ROOT
HETATM    1  C   UNL     1      -4.111   1.744 -31.216  1.00  0.00     0.745 A 
HETATM    2  N   UNL     1      -5.119   2.467 -30.740  1.00  0.00     0.130 NA
HETATM    3  C   UNL     1      -5.018   3.781 -30.830  1.00  0.00     0.743 A 
HETATM    4  N   UNL     1      -3.949   4.385 -31.329  1.00  0.00    -0.030 NA
HETATM    5  C   UNL     1      -2.974   3.599 -31.763  1.00  0.00     0.238 A 
HETATM    6  N   UNL     1      -3.006   2.276 -31.712  1.00  0.00    -0.030 NA
ENDROOT
BRANCH   3   7
HETATM    7  N   UNL     1      -6.080   4.558 -30.360  1.00  0.00    -0.210 N 
HETATM    8  C   UNL     1      -7.177   3.817 -29.726  1.00  0.00     0.169 C 
HETATM    9  C   UNL     1      -8.120   3.218 -30.793  1.00  0.00     0.256 C 
HETATM   10  N   UNL     1      -8.653   4.335 -31.729  1.00  0.00    -0.059 N 
HETATM   11  H   UNL     1      -9.083   5.032 -31.109  1.00  0.00     0.281 HD
HETATM   12  C   UNL     1      -7.446   5.068 -32.374  1.00  0.00     0.256 C 
HETATM   13  C   UNL     1      -6.512   5.626 -31.272  1.00  0.00     0.169 C 
BRANCH  10  14
HETATM   14  C   UNL     1      -9.776   3.901 -32.693  1.00  0.00     0.129 C 
HETATM   15  C   UNL     1     -10.002   2.372 -32.541  1.00  0.00     0.043 C 
HETATM   16  C   UNL     1     -11.142   1.898 -33.460  1.00  0.00    -0.012 C 
HETATM   17  C   UNL     1     -10.780   2.232 -34.918  1.00  0.00     0.009 C 
HETATM   18  C   UNL     1     -12.438   2.624 -33.075  1.00  0.00     0.009 C 
HETATM   19  C   UNL     1     -10.586   3.749 -35.082  1.00  0.00    -0.012 C 
HETATM   20  C   UNL     1      -9.437   4.224 -34.164  1.00  0.00     0.043 C 
HETATM   21  C   UNL     1     -11.889   4.463 -34.690  1.00  0.00     0.009 C 
HETATM   22  C   UNL     1     -12.251   4.138 -33.230  1.00  0.00    -0.012 C 
HETATM   23  C   UNL     1     -11.106   4.610 -32.316  1.00  0.00     0.043 C 
ENDBRANCH  10  14
ENDBRANCH   3   7
BRANCH   1  24
HETATM   24  N   UNL     1      -4.162   0.352 -31.166  1.00  0.00    -0.188 N 
HETATM   25  H   UNL     1      -3.560   0.006 -30.430  1.00  0.00     0.184 HD
BRANCH  24  26
HETATM   26  C   UNL     1      -4.493  -0.586 -32.155  1.00  0.00     0.049 A 
HETATM   27  C   UNL     1      -3.727  -1.724 -32.423  1.00  0.00     0.033 A 
HETATM   28  C   UNL     1      -4.073  -2.618 -33.446  1.00  0.00     0.039 A 
HETATM   29  C   UNL     1      -5.187  -2.374 -34.245  1.00  0.00     0.078 A 
HETATM   30  C   UNL     1      -5.948  -1.229 -34.002  1.00  0.00     0.039 A 
HETATM   31  C   UNL     1      -5.605  -0.346 -32.971  1.00  0.00     0.033 A 
BRANCH  29  32
HETATM   32  O   UNL     1      -5.634  -3.148 -35.275  1.00  0.00    -0.255 OA
BRANCH  32  33
HETATM   33  C   UNL     1      -6.357  -4.324 -34.953  1.00  0.00     0.530 C 
HETATM   34  F   UNL     1      -5.583  -5.197 -34.272  1.00  0.00    -0.144 F 
HETATM   35  F   UNL     1      -7.454  -4.035 -34.221  1.00  0.00    -0.144 F 
HETATM   36  F   UNL     1      -6.755  -4.920 -36.096  1.00  0.00    -0.144 F 
ENDBRANCH  32  33
ENDBRANCH  29  32
ENDBRANCH  24  26
ENDBRANCH   1  24
BRANCH   5  37
HETATM   37  N   UNL     1      -1.879   4.251 -32.301  1.00  0.00    -0.258 NA
HETATM   38  H   UNL     1      -1.208   4.415 -31.556  1.00  0.00     0.130 HD
BRANCH  37  39
HETATM   39  C   UNL     1      -2.154   5.470 -33.064  1.00  0.00     0.121 C 
BRANCH  39  40
HETATM   40  C   UNL     1      -2.290   5.191 -34.567  1.00  0.00     0.178 C 
BRANCH  40  41
HETATM   41  O   UNL     1      -3.367   5.955 -35.114  1.00  0.00    -0.400 OA
HETATM   42  H   UNL     1      -4.090   5.931 -34.463  1.00  0.00     0.209 HD
ENDBRANCH  40  41
ENDBRANCH  39  40
ENDBRANCH  37  39
ENDBRANCH   5  37
TORSDOF 10
ENDMDL
MODEL 5
REMARK VINA RESULT:      -9.3      3.941      7.652
REMARK  10 active torsions:
REMARK  status: ('A' for Active; 'I' for Inactive)
REMARK    1  A    between atoms: C_2  and  N_3 
REMARK    2  A    between atoms: N_3  and  C_4 
REMARK    3  A    between atoms: C_6  and  N_7 
REMARK    4  A    between atoms: N_10  and  C_12 
REMARK    5  A    between atoms: C_25  and  N_26 
REMARK    6  A    between atoms: N_26  and  C_27 
REMARK    7  A    between atoms: C_27  and  C_28 
REMARK    8  A    between atoms: C_28  and  O_29 
REMARK    9  A    between atoms: C_33  and  O_34 
REMARK   10  A    between atoms: O_34  and  C_35 
ROOT
HETATM    1  C   UNL     1      -4.111   1.752 -31.104  1.00  0.00     0.745 A 
HETATM    2  N   UNL     1      -5.098   2.454 -30.560  1.00  0.00     0.130 NA
HETATM    3  C   UNL     1      -5.014   3.772 -30.630  1.00  0.00     0.743 A 
HETATM    4  N   UNL     1      -3.982   4.395 -31.176  1.00  0.00    -0.030 NA
HETATM    5  C   UNL     1      -3.024   3.628 -31.679  1.00  0.00     0.238 A 
HETATM    6  N   UNL     1      -3.041   2.305 -31.651  1.00  0.00    -0.030 NA
ENDROOT
BRANCH   3   7
HETATM    7  N   UNL     1      -6.057   4.527 -30.087  1.00  0.00    -0.210 N 
HETATM    8  C   UNL     1      -7.172   3.759 -29.523  1.00  0.00     0.169 C 
HETATM    9  C   UNL     1      -8.130   3.287 -30.639  1.00  0.00     0.256 C 
HETATM   10  N   UNL     1      -8.634   4.501 -31.466  1.00  0.00    -0.059 N 
HETATM   11  H   UNL     1      -9.046   5.147 -30.781  1.00  0.00     0.281 HD
HETATM   12  C   UNL     1      -7.408   5.259 -32.041  1.00  0.00     0.256 C 
HETATM   13  C   UNL     1      -6.460   5.687 -30.894  1.00  0.00     0.169 C 
BRANCH  10  14
HETATM   14  C   UNL     1      -9.767   4.188 -32.464  1.00  0.00     0.129 C 
HETATM   15  C   UNL     1     -10.049   5.457 -33.314  1.00  0.00     0.043 C 
HETATM   16  C   UNL     1     -11.151   5.182 -34.351  1.00  0.00    -0.012 C 
HETATM   17  C   UNL     1     -12.432   4.748 -33.617  1.00  0.00     0.009 C 
HETATM   18  C   UNL     1     -10.694   4.058 -35.290  1.00  0.00     0.009 C 
HETATM   19  C   UNL     1     -12.168   3.472 -32.798  1.00  0.00    -0.012 C 
HETATM   20  C   UNL     1     -11.066   3.752 -31.752  1.00  0.00     0.043 C 
HETATM   21  C   UNL     1     -11.706   2.357 -33.749  1.00  0.00     0.009 C 
HETATM   22  C   UNL     1     -10.422   2.783 -34.480  1.00  0.00    -0.012 C 
HETATM   23  C   UNL     1      -9.324   3.062 -33.438  1.00  0.00     0.043 C 
ENDBRANCH  10  14
ENDBRANCH   3   7
BRANCH   1  24
HETATM   24  N   UNL     1      -4.146   0.359 -31.078  1.00  0.00    -0.188 N 
HETATM   25  H   UNL     1      -3.523   0.007 -30.362  1.00  0.00     0.184 HD
BRANCH  24  26
HETATM   26  C   UNL     1      -4.488  -0.566 -32.075  1.00  0.00     0.049 A 
HETATM   27  C   UNL     1      -3.738  -1.713 -32.353  1.00  0.00     0.033 A 
HETATM   28  C   UNL     1      -4.095  -2.593 -33.384  1.00  0.00     0.039 A 
HETATM   29  C   UNL     1      -5.204  -2.325 -34.182  1.00  0.00     0.078 A 
HETATM   30  C   UNL     1      -5.949  -1.172 -33.930  1.00  0.00     0.039 A 
HETATM   31  C   UNL     1      -5.595  -0.302 -32.891  1.00  0.00     0.033 A 
BRANCH  29  32
HETATM   32  O   UNL     1      -5.660  -3.084 -35.220  1.00  0.00    -0.255 OA
BRANCH  32  33
HETATM   33  C   UNL     1      -6.416  -4.243 -34.910  1.00  0.00     0.530 C 
HETATM   34  F   UNL     1      -5.652  -5.165 -34.283  1.00  0.00    -0.144 F 
HETATM   35  F   UNL     1      -7.476  -3.937 -34.132  1.00  0.00    -0.144 F 
HETATM   36  F   UNL     1      -6.873  -4.787 -36.056  1.00  0.00    -0.144 F 
ENDBRANCH  32  33
ENDBRANCH  29  32
ENDBRANCH  24  26
ENDBRANCH   1  24
BRANCH   5  37
HETATM   37  N   UNL     1      -1.967   4.302 -32.264  1.00  0.00    -0.258 NA
HETATM   38  H   UNL     1      -1.771   5.130 -31.709  1.00  0.00     0.130 HD
BRANCH  37  39
HETATM   39  C   UNL     1      -2.102   4.619 -33.687  1.00  0.00     0.121 C 
BRANCH  39  40
HETATM   40  C   UNL     1      -2.685   6.021 -33.913  1.00  0.00     0.178 C 
BRANCH  40  41
HETATM   41  O   UNL     1      -4.108   5.951 -34.021  1.00  0.00    -0.400 OA
HETATM   42  H   UNL     1      -4.306   5.470 -34.843  1.00  0.00     0.209 HD
ENDBRANCH  40  41
ENDBRANCH  39  40
ENDBRANCH  37  39
ENDBRANCH   5  37
TORSDOF 10
ENDMDL
MODEL 6
REMARK VINA RESULT:      -9.2      3.565      5.319
REMARK  10 active torsions:
REMARK  status: ('A' for Active; 'I' for Inactive)
REMARK    1  A    between atoms: C_2  and  N_3 
REMARK    2  A    between atoms: N_3  and  C_4 
REMARK    3  A    between atoms: C_6  and  N_7 
REMARK    4  A    between atoms: N_10  and  C_12 
REMARK    5  A    between atoms: C_25  and  N_26 
REMARK    6  A    between atoms: N_26  and  C_27 
REMARK    7  A    between atoms: C_27  and  C_28 
REMARK    8  A    between atoms: C_28  and  O_29 
REMARK    9  A    between atoms: C_33  and  O_34 
REMARK   10  A    between atoms: O_34  and  C_35 
ROOT
HETATM    1  C   UNL     1      -8.323   2.134 -31.303  1.00  0.00     0.745 A 
HETATM    2  N   UNL     1      -7.667   3.129 -30.716  1.00  0.00     0.130 NA
HETATM    3  C   UNL     1      -8.202   4.336 -30.790  1.00  0.00     0.743 A 
HETATM    4  N   UNL     1      -9.323   4.582 -31.452  1.00  0.00    -0.030 NA
HETATM    5  C   UNL     1      -9.910   3.543 -32.031  1.00  0.00     0.238 A 
HETATM    6  N   UNL     1      -9.437   2.307 -31.995  1.00  0.00    -0.030 NA
ENDROOT
BRANCH   3   7
HETATM    7  N   UNL     1      -7.541   5.390 -30.156  1.00  0.00    -0.210 N 
HETATM    8  C   UNL     1      -7.363   6.605 -30.959  1.00  0.00     0.169 C 
HETATM    9  C   UNL     1      -6.158   6.458 -31.914  1.00  0.00     0.256 C 
HETATM   10  N   UNL     1      -4.874   6.111 -31.112  1.00  0.00    -0.059 N 
HETATM   11  H   UNL     1      -4.783   6.853 -30.406  1.00  0.00     0.281 HD
HETATM   12  C   UNL     1      -5.126   4.815 -30.297  1.00  0.00     0.256 C 
HETATM   13  C   UNL     1      -6.359   4.994 -29.377  1.00  0.00     0.169 C 
BRANCH  10  14
HETATM   14  C   UNL     1      -3.563   6.159 -31.922  1.00  0.00     0.129 C 
HETATM   15  C   UNL     1      -2.649   4.989 -31.464  1.00  0.00     0.043 C 
HETATM   16  C   UNL     1      -1.340   4.974 -32.272  1.00  0.00    -0.012 C 
HETATM   17  C   UNL     1      -0.614   6.316 -32.072  1.00  0.00     0.009 C 
HETATM   18  C   UNL     1      -1.665   4.785 -33.760  1.00  0.00     0.009 C 
HETATM   19  C   UNL     1      -1.501   7.477 -32.554  1.00  0.00    -0.012 C 
HETATM   20  C   UNL     1      -2.813   7.495 -31.737  1.00  0.00     0.043 C 
HETATM   21  C   UNL     1      -1.823   7.273 -34.043  1.00  0.00     0.009 C 
HETATM   22  C   UNL     1      -2.556   5.936 -34.247  1.00  0.00    -0.012 C 
HETATM   23  C   UNL     1      -3.862   5.954 -33.432  1.00  0.00     0.043 C 
ENDBRANCH  10  14
ENDBRANCH   3   7
BRANCH   1  24
HETATM   24  N   UNL     1      -7.821   0.836 -31.248  1.00  0.00    -0.188 N 
HETATM   25  H   UNL     1      -7.478   0.633 -30.318  1.00  0.00     0.184 HD
BRANCH  24  26
HETATM   26  C   UNL     1      -7.318   0.007 -32.262  1.00  0.00     0.049 A 
HETATM   27  C   UNL     1      -8.019  -0.284 -33.437  1.00  0.00     0.033 A 
HETATM   28  C   UNL     1      -7.496  -1.148 -34.409  1.00  0.00     0.039 A 
HETATM   29  C   UNL     1      -6.263  -1.765 -34.210  1.00  0.00     0.078 A 
HETATM   30  C   UNL     1      -5.563  -1.500 -33.032  1.00  0.00     0.039 A 
HETATM   31  C   UNL     1      -6.085  -0.627 -32.069  1.00  0.00     0.033 A 
BRANCH  29  32
HETATM   32  O   UNL     1      -5.641  -2.630 -35.061  1.00  0.00    -0.255 OA
BRANCH  32  33
HETATM   33  C   UNL     1      -5.999  -4.000 -34.988  1.00  0.00     0.530 C 
HETATM   34  F   UNL     1      -7.177  -4.160 -34.346  1.00  0.00    -0.144 F 
HETATM   35  F   UNL     1      -6.084  -4.546 -36.221  1.00  0.00    -0.144 F 
HETATM   36  F   UNL     1      -5.050  -4.664 -34.295  1.00  0.00    -0.144 F 
ENDBRANCH  32  33
ENDBRANCH  29  32
ENDBRANCH  24  26
ENDBRANCH   1  24
BRANCH   5  37
HETATM   37  N   UNL     1     -11.090   3.821 -32.696  1.00  0.00    -0.258 NA
HETATM   38  H   UNL     1     -11.655   4.424 -32.105  1.00  0.00     0.130 HD
BRANCH  37  39
HETATM   39  C   UNL     1     -11.851   2.670 -33.185  1.00  0.00     0.121 C 
BRANCH  39  40
HETATM   40  C   UNL     1     -13.365   2.920 -33.146  1.00  0.00     0.178 C 
BRANCH  40  41
HETATM   41  O   UNL     1     -13.973   2.106 -32.141  1.00  0.00    -0.400 OA
HETATM   42  H   UNL     1     -14.606   2.671 -31.665  1.00  0.00     0.209 HD
ENDBRANCH  40  41
ENDBRANCH  39  40
ENDBRANCH  37  39
ENDBRANCH   5  37
TORSDOF 10
ENDMDL
MODEL 7
REMARK VINA RESULT:      -9.0      3.112      4.597
REMARK  10 active torsions:
REMARK  status: ('A' for Active; 'I' for Inactive)
REMARK    1  A    between atoms: C_2  and  N_3 
REMARK    2  A    between atoms: N_3  and  C_4 
REMARK    3  A    between atoms: C_6  and  N_7 
REMARK    4  A    between atoms: N_10  and  C_12 
REMARK    5  A    between atoms: C_25  and  N_26 
REMARK    6  A    between atoms: N_26  and  C_27 
REMARK    7  A    between atoms: C_27  and  C_28 
REMARK    8  A    between atoms: C_28  and  O_29 
REMARK    9  A    between atoms: C_33  and  O_34 
REMARK   10  A    between atoms: O_34  and  C_35 
ROOT
HETATM    1  C   UNL     1      -5.193   3.525 -31.516  1.00  0.00     0.745 A 
HETATM    2  N   UNL     1      -4.435   4.563 -31.854  1.00  0.00     0.130 NA
HETATM    3  C   UNL     1      -3.131   4.364 -31.926  1.00  0.00     0.743 A 
HETATM    4  N   UNL     1      -2.568   3.200 -31.638  1.00  0.00    -0.030 NA
HETATM    5  C   UNL     1      -3.385   2.217 -31.287  1.00  0.00     0.238 A 
HETATM    6  N   UNL     1      -4.700   2.339 -31.198  1.00  0.00    -0.030 NA
ENDROOT
BRANCH   3   7
HETATM    7  N   UNL     1      -2.321   5.437 -32.307  1.00  0.00    -0.210 N 
HETATM    8  C   UNL     1      -0.882   5.260 -32.076  1.00  0.00     0.169 C 
HETATM    9  C   UNL     1      -0.525   5.547 -30.601  1.00  0.00     0.256 C 
HETATM   10  N   UNL     1      -0.997   6.971 -30.201  1.00  0.00    -0.059 N 
HETATM   11  H   UNL     1      -0.567   7.606 -30.885  1.00  0.00     0.281 HD
HETATM   12  C   UNL     1      -2.523   7.085 -30.457  1.00  0.00     0.256 C 
HETATM   13  C   UNL     1      -2.840   6.761 -31.937  1.00  0.00     0.169 C 
BRANCH  10  14
HETATM   14  C   UNL     1      -0.502   7.462 -28.825  1.00  0.00     0.129 C 
HETATM   15  C   UNL     1       0.960   7.968 -28.970  1.00  0.00     0.043 C 
HETATM   16  C   UNL     1       1.485   8.503 -27.627  1.00  0.00    -0.012 C 
HETATM   17  C   UNL     1       1.422   7.375 -26.581  1.00  0.00     0.009 C 
HETATM   18  C   UNL     1       0.607   9.675 -27.169  1.00  0.00     0.009 C 
HETATM   19  C   UNL     1      -0.028   6.891 -26.409  1.00  0.00    -0.012 C 
HETATM   20  C   UNL     1      -0.553   6.349 -27.757  1.00  0.00     0.043 C 
HETATM   21  C   UNL     1      -0.897   8.075 -25.955  1.00  0.00     0.009 C 
HETATM   22  C   UNL     1      -0.843   9.202 -27.001  1.00  0.00    -0.012 C 
HETATM   23  C   UNL     1      -1.366   8.661 -28.344  1.00  0.00     0.043 C 
ENDBRANCH  10  14
ENDBRANCH   3   7
BRANCH   1  24
HETATM   24  N   UNL     1      -6.577   3.665 -31.437  1.00  0.00    -0.188 N 
HETATM   25  H   UNL     1      -6.836   4.090 -30.556  1.00  0.00     0.184 HD
BRANCH  24  26
HETATM   26  C   UNL     1      -7.605   2.962 -32.083  1.00  0.00     0.049 A 
HETATM   27  C   UNL     1      -8.254   1.858 -31.521  1.00  0.00     0.033 A 
HETATM   28  C   UNL     1      -9.252   1.161 -32.216  1.00  0.00     0.039 A 
HETATM   29  C   UNL     1      -9.603   1.541 -33.508  1.00  0.00     0.078 A 
HETATM   30  C   UNL     1      -8.947   2.627 -34.089  1.00  0.00     0.039 A 
HETATM   31  C   UNL     1      -7.959   3.328 -33.386  1.00  0.00     0.033 A 
BRANCH  29  32
HETATM   32  O   UNL     1     -10.543   0.951 -34.301  1.00  0.00    -0.255 OA
BRANCH  32  33
HETATM   33  C   UNL     1     -11.907   1.133 -33.956  1.00  0.00     0.530 C 
HETATM   34  F   UNL     1     -12.060   2.194 -33.133  1.00  0.00    -0.144 F 
HETATM   35  F   UNL     1     -12.668   1.308 -35.058  1.00  0.00    -0.144 F 
HETATM   36  F   UNL     1     -12.344   0.033 -33.308  1.00  0.00    -0.144 F 
ENDBRANCH  32  33
ENDBRANCH  29  32
ENDBRANCH  24  26
ENDBRANCH   1  24
BRANCH   5  37
HETATM   37  N   UNL     1      -2.776   1.006 -31.013  1.00  0.00    -0.258 NA
HETATM   38  H   UNL     1      -1.944   0.929 -31.591  1.00  0.00     0.130 HD
BRANCH  37  39
HETATM   39  C   UNL     1      -3.619  -0.187 -31.112  1.00  0.00     0.121 C 
BRANCH  39  40
HETATM   40  C   UNL     1      -3.109  -1.168 -32.177  1.00  0.00     0.178 C 
BRANCH  40  41
HETATM   41  O   UNL     1      -2.643  -2.368 -31.557  1.00  0.00    -0.400 OA
HETATM   42  H   UNL     1      -2.920  -3.107 -32.128  1.00  0.00     0.209 HD
ENDBRANCH  40  41
ENDBRANCH  39  40
ENDBRANCH  37  39
ENDBRANCH   5  37
TORSDOF 10
ENDMDL
MODEL 8
REMARK VINA RESULT:      -8.7      5.072      7.366
REMARK  10 active torsions:
REMARK  status: ('A' for Active; 'I' for Inactive)
REMARK    1  A    between atoms: C_2  and  N_3 
REMARK    2  A    between atoms: N_3  and  C_4 
REMARK    3  A    between atoms: C_6  and  N_7 
REMARK    4  A    between atoms: N_10  and  C_12 
REMARK    5  A    between atoms: C_25  and  N_26 
REMARK    6  A    between atoms: N_26  and  C_27 
REMARK    7  A    between atoms: C_27  and  C_28 
REMARK    8  A    between atoms: C_28  and  O_29 
REMARK    9  A    between atoms: C_33  and  O_34 
REMARK   10  A    between atoms: O_34  and  C_35 
ROOT
HETATM    1  C   UNL     1      -8.091   1.830 -33.863  1.00  0.00     0.745 A 
HETATM    2  N   UNL     1      -7.752   2.439 -32.732  1.00  0.00     0.130 NA
HETATM    3  C   UNL     1      -6.729   1.943 -32.059  1.00  0.00     0.743 A 
HETATM    4  N   UNL     1      -6.074   0.859 -32.448  1.00  0.00    -0.030 NA
HETATM    5  C   UNL     1      -6.483   0.292 -33.574  1.00  0.00     0.238 A 
HETATM    6  N   UNL     1      -7.495   0.734 -34.304  1.00  0.00    -0.030 NA
ENDROOT
BRANCH   3   7
HETATM    7  N   UNL     1      -6.340   2.588 -30.882  1.00  0.00    -0.210 N 
HETATM    8  C   UNL     1      -6.645   4.021 -30.811  1.00  0.00     0.169 C 
HETATM    9  C   UNL     1      -5.587   4.844 -31.580  1.00  0.00     0.256 C 
HETATM   10  N   UNL     1      -4.166   4.535 -31.036  1.00  0.00    -0.059 N 
HETATM   11  H   UNL     1      -4.212   4.719 -30.026  1.00  0.00     0.281 HD
HETATM   12  C   UNL     1      -3.905   3.010 -31.152  1.00  0.00     0.256 C 
HETATM   13  C   UNL     1      -5.002   2.223 -30.395  1.00  0.00     0.169 C 
BRANCH  10  14
HETATM   14  C   UNL     1      -3.049   5.457 -31.567  1.00  0.00     0.129 C 
HETATM   15  C   UNL     1      -2.620   6.427 -30.431  1.00  0.00     0.043 C 
HETATM   16  C   UNL     1      -1.478   7.344 -30.904  1.00  0.00    -0.012 C 
HETATM   17  C   UNL     1      -1.956   8.147 -32.127  1.00  0.00     0.009 C 
HETATM   18  C   UNL     1      -0.268   6.486 -31.295  1.00  0.00     0.009 C 
HETATM   19  C   UNL     1      -2.352   7.192 -33.267  1.00  0.00    -0.012 C 
HETATM   20  C   UNL     1      -3.502   6.275 -32.794  1.00  0.00     0.043 C 
HETATM   21  C   UNL     1      -1.132   6.336 -33.645  1.00  0.00     0.009 C 
HETATM   22  C   UNL     1      -0.656   5.526 -32.427  1.00  0.00    -0.012 C 
HETATM   23  C   UNL     1      -1.803   4.614 -31.956  1.00  0.00     0.043 C 
ENDBRANCH  10  14
ENDBRANCH   3   7
BRANCH   1  24
HETATM   24  N   UNL     1      -9.152   2.312 -34.627  1.00  0.00    -0.188 N 
HETATM   25  H   UNL     1      -8.828   3.036 -35.256  1.00  0.00     0.184 HD
BRANCH  24  26
HETATM   26  C   UNL     1     -10.532   2.312 -34.378  1.00  0.00     0.049 A 
HETATM   27  C   UNL     1     -11.354   3.420 -34.604  1.00  0.00     0.033 A 
HETATM   28  C   UNL     1     -12.724   3.391 -34.306  1.00  0.00     0.039 A 
HETATM   29  C   UNL     1     -13.296   2.252 -33.746  1.00  0.00     0.078 A 
HETATM   30  C   UNL     1     -12.482   1.146 -33.496  1.00  0.00     0.039 A 
HETATM   31  C   UNL     1     -11.117   1.177 -33.806  1.00  0.00     0.033 A 
BRANCH  29  32
HETATM   32  O   UNL     1     -14.605   2.087 -33.400  1.00  0.00    -0.255 OA
BRANCH  32  33
HETATM   33  C   UNL     1     -15.049   2.683 -32.192  1.00  0.00     0.530 C 
HETATM   34  F   UNL     1     -15.631   3.880 -32.428  1.00  0.00    -0.144 F 
HETATM   35  F   UNL     1     -15.923   1.881 -31.546  1.00  0.00    -0.144 F 
HETATM   36  F   UNL     1     -13.985   2.886 -31.387  1.00  0.00    -0.144 F 
ENDBRANCH  32  33
ENDBRANCH  29  32
ENDBRANCH  24  26
ENDBRANCH   1  24
BRANCH   5  37
HETATM   37  N   UNL     1      -5.770  -0.825 -33.972  1.00  0.00    -0.258 NA
HETATM   38  H   UNL     1      -4.870  -0.518 -34.328  1.00  0.00     0.130 HD
BRANCH  37  39
HETATM   39  C   UNL     1      -6.444  -1.734 -34.901  1.00  0.00     0.121 C 
BRANCH  39  40
HETATM   40  C   UNL     1      -5.807  -3.130 -34.907  1.00  0.00     0.178 C 
BRANCH  40  41
HETATM   41  O   UNL     1      -6.796  -4.124 -34.633  1.00  0.00    -0.400 OA
HETATM   42  H   UNL     1      -6.330  -4.887 -34.249  1.00  0.00     0.209 HD
ENDBRANCH  40  41
ENDBRANCH  39  40
ENDBRANCH  37  39
ENDBRANCH   5  37
TORSDOF 10
ENDMDL
MODEL 9
REMARK VINA RESULT:      -8.7      4.980      7.593
REMARK  10 active torsions:
REMARK  status: ('A' for Active; 'I' for Inactive)
REMARK    1  A    between atoms: C_2  and  N_3 
REMARK    2  A    between atoms: N_3  and  C_4 
REMARK    3  A    between atoms: C_6  and  N_7 
REMARK    4  A    between atoms: N_10  and  C_12 
REMARK    5  A    between atoms: C_25  and  N_26 
REMARK    6  A    between atoms: N_26  and  C_27 
REMARK    7  A    between atoms: C_27  and  C_28 
REMARK    8  A    between atoms: C_28  and  O_29 
REMARK    9  A    between atoms: C_33  and  O_34 
REMARK   10  A    between atoms: O_34  and  C_35 
ROOT
HETATM    1  C   UNL     1      -8.461   0.273 -32.536  1.00  0.00     0.745 A 
HETATM    2  N   UNL     1      -7.622   0.602 -31.560  1.00  0.00     0.130 NA
HETATM    3  C   UNL     1      -6.364   0.215 -31.686  1.00  0.00     0.743 A 
HETATM    4  N   UNL     1      -5.936  -0.508 -32.710  1.00  0.00    -0.030 NA
HETATM    5  C   UNL     1      -6.836  -0.817 -33.634  1.00  0.00     0.238 A 
HETATM    6  N   UNL     1      -8.110  -0.460 -33.580  1.00  0.00    -0.030 NA
ENDROOT
BRANCH   3   7
HETATM    7  N   UNL     1      -5.461   0.575 -30.682  1.00  0.00    -0.210 N 
HETATM    8  C   UNL     1      -5.745   1.840 -29.995  1.00  0.00     0.169 C 
HETATM    9  C   UNL     1      -5.253   3.041 -30.833  1.00  0.00     0.256 C 
HETATM   10  N   UNL     1      -3.741   2.891 -31.152  1.00  0.00    -0.059 N 
HETATM   11  H   UNL     1      -3.278   2.777 -30.241  1.00  0.00     0.281 HD
HETATM   12  C   UNL     1      -3.513   1.544 -31.887  1.00  0.00     0.256 C 
HETATM   13  C   UNL     1      -4.047   0.372 -31.027  1.00  0.00     0.169 C 
BRANCH  10  14
HETATM   14  C   UNL     1      -3.080   4.131 -31.789  1.00  0.00     0.129 C 
HETATM   15  C   UNL     1      -4.102   5.301 -31.782  1.00  0.00     0.043 C 
HETATM   16  C   UNL     1      -3.474   6.573 -32.377  1.00  0.00    -0.012 C 
HETATM   17  C   UNL     1      -3.022   6.281 -33.818  1.00  0.00     0.009 C 
HETATM   18  C   UNL     1      -2.260   6.982 -31.532  1.00  0.00     0.009 C 
HETATM   19  C   UNL     1      -1.986   5.144 -33.829  1.00  0.00    -0.012 C 
HETATM   20  C   UNL     1      -2.619   3.865 -33.237  1.00  0.00     0.043 C 
HETATM   21  C   UNL     1      -0.778   5.564 -32.976  1.00  0.00     0.009 C 
HETATM   22  C   UNL     1      -1.224   5.851 -31.532  1.00  0.00    -0.012 C 
HETATM   23  C   UNL     1      -1.855   4.576 -30.944  1.00  0.00     0.043 C 
ENDBRANCH  10  14
ENDBRANCH   3   7
BRANCH   1  24
HETATM   24  N   UNL     1      -9.797   0.664 -32.472  1.00  0.00    -0.188 N 
HETATM   25  H   UNL     1     -10.332  -0.007 -31.935  1.00  0.00     0.184 HD
BRANCH  24  26
HETATM   26  C   UNL     1     -10.553   1.480 -33.327  1.00  0.00     0.049 A 
HETATM   27  C   UNL     1     -11.855   1.172 -33.733  1.00  0.00     0.033 A 
HETATM   28  C   UNL     1     -12.562   1.996 -34.618  1.00  0.00     0.039 A 
HETATM   29  C   UNL     1     -11.965   3.141 -35.141  1.00  0.00     0.078 A 
HETATM   30  C   UNL     1     -10.658   3.448 -34.761  1.00  0.00     0.039 A 
HETATM   31  C   UNL     1      -9.960   2.627 -33.867  1.00  0.00     0.033 A 
BRANCH  29  32
HETATM   32  O   UNL     1     -12.529   4.024 -36.014  1.00  0.00    -0.255 OA
BRANCH  32  33
HETATM   33  C   UNL     1     -12.887   5.304 -35.520  1.00  0.00     0.530 C 
HETATM   34  F   UNL     1     -11.806   6.111 -35.436  1.00  0.00    -0.144 F 
HETATM   35  F   UNL     1     -13.819   5.885 -36.306  1.00  0.00    -0.144 F 
HETATM   36  F   UNL     1     -13.404   5.166 -34.281  1.00  0.00    -0.144 F 
ENDBRANCH  32  33
ENDBRANCH  29  32
ENDBRANCH  24  26
ENDBRANCH   1  24
BRANCH   5  37
HETATM   37  N   UNL     1      -6.361  -1.552 -34.705  1.00  0.00    -0.258 NA
HETATM   38  H   UNL     1      -6.864  -1.264 -35.538  1.00  0.00     0.130 HD
BRANCH  37  39
HETATM   39  C   UNL     1      -6.358  -3.008 -34.546  1.00  0.00     0.121 C 
BRANCH  39  40
HETATM   40  C   UNL     1      -4.936  -3.587 -34.563  1.00  0.00     0.178 C 
BRANCH  40  41
HETATM   41  O   UNL     1      -4.104  -2.875 -33.644  1.00  0.00    -0.400 OA
HETATM   42  H   UNL     1      -4.340  -1.934 -33.720  1.00  0.00     0.209 HD
ENDBRANCH  40  41
ENDBRANCH  39  40
ENDBRANCH  37  39
ENDBRANCH   5  37
TORSDOF 10
ENDMDL
MODEL 10
REMARK VINA RESULT:      -8.3     18.743     20.336
REMARK  10 active torsions:
REMARK  status: ('A' for Active; 'I' for Inactive)
REMARK    1  A    between atoms: C_2  and  N_3 
REMARK    2  A    between atoms: N_3  and  C_4 
REMARK    3  A    between atoms: C_6  and  N_7 
REMARK    4  A    between atoms: N_10  and  C_12 
REMARK    5  A    between atoms: C_25  and  N_26 
REMARK    6  A    between atoms: N_26  and  C_27 
REMARK    7  A    between atoms: C_27  and  C_28 
REMARK    8  A    between atoms: C_28  and  O_29 
REMARK    9  A    between atoms: C_33  and  O_34 
REMARK   10  A    between atoms: O_34  and  C_35 
ROOT
HETATM    1  C   UNL     1      -5.954 -14.792 -33.835  1.00  0.00     0.745 A 
HETATM    2  N   UNL     1      -5.041 -15.631 -34.310  1.00  0.00     0.130 NA
HETATM    3  C   UNL     1      -4.353 -16.340 -33.432  1.00  0.00     0.743 A 
HETATM    4  N   UNL     1      -4.515 -16.211 -32.124  1.00  0.00    -0.030 NA
HETATM    5  C   UNL     1      -5.429 -15.337 -31.723  1.00  0.00     0.238 A 
HETATM    6  N   UNL     1      -6.159 -14.597 -32.543  1.00  0.00    -0.030 NA
ENDROOT
BRANCH   3   7
HETATM    7  N   UNL     1      -3.407 -17.249 -33.914  1.00  0.00    -0.210 N 
HETATM    8  C   UNL     1      -2.009 -16.813 -33.834  1.00  0.00     0.169 C 
HETATM    9  C   UNL     1      -1.662 -15.869 -35.006  1.00  0.00     0.256 C 
HETATM   10  N   UNL     1      -1.967 -16.561 -36.362  1.00  0.00    -0.059 N 
HETATM   11  H   UNL     1      -1.443 -17.445 -36.344  1.00  0.00     0.281 HD
HETATM   12  C   UNL     1      -3.460 -16.983 -36.385  1.00  0.00     0.256 C 
HETATM   13  C   UNL     1      -3.772 -17.902 -35.179  1.00  0.00     0.169 C 
BRANCH  10  14
HETATM   14  C   UNL     1      -1.455 -15.811 -37.609  1.00  0.00     0.129 C 
HETATM   15  C   UNL     1      -0.214 -16.559 -38.169  1.00  0.00     0.043 C 
HETATM   16  C   UNL     1       0.311 -15.866 -39.438  1.00  0.00    -0.012 C 
HETATM   17  C   UNL     1       0.685 -14.414 -39.096  1.00  0.00     0.009 C 
HETATM   18  C   UNL     1      -0.787 -15.873 -40.510  1.00  0.00     0.009 C 
HETATM   19  C   UNL     1      -0.548 -13.657 -38.571  1.00  0.00    -0.012 C 
HETATM   20  C   UNL     1      -1.071 -14.350 -37.293  1.00  0.00     0.043 C 
HETATM   21  C   UNL     1      -1.640 -13.676 -39.652  1.00  0.00     0.009 C 
HETATM   22  C   UNL     1      -2.023 -15.127 -39.992  1.00  0.00    -0.012 C 
HETATM   23  C   UNL     1      -2.543 -15.817 -38.718  1.00  0.00     0.043 C 
ENDBRANCH  10  14
ENDBRANCH   3   7
BRANCH   1  24
HETATM   24  N   UNL     1      -6.723 -14.026 -34.709  1.00  0.00    -0.188 N 
HETATM   25  H   UNL     1      -7.707 -14.136 -34.497  1.00  0.00     0.184 HD
BRANCH  24  26
HETATM   26  C   UNL     1      -6.442 -13.552 -35.999  1.00  0.00     0.049 A 
HETATM   27  C   UNL     1      -7.426 -13.317 -36.964  1.00  0.00     0.033 A 
HETATM   28  C   UNL     1      -7.099 -12.878 -38.254  1.00  0.00     0.039 A 
HETATM   29  C   UNL     1      -5.767 -12.691 -38.616  1.00  0.00     0.078 A 
HETATM   30  C   UNL     1      -4.774 -12.944 -37.668  1.00  0.00     0.039 A 
HETATM   31  C   UNL     1      -5.107 -13.371 -36.377  1.00  0.00     0.033 A 
BRANCH  29  32
HETATM   32  O   UNL     1      -5.306 -12.279 -39.831  1.00  0.00    -0.255 OA
BRANCH  32  33
HETATM   33  C   UNL     1      -5.380 -13.195 -40.911  1.00  0.00     0.530 C 
HETATM   34  F   UNL     1      -4.277 -13.118 -41.688  1.00  0.00    -0.144 F 
HETATM   35  F   UNL     1      -5.524 -14.462 -40.465  1.00  0.00    -0.144 F 
HETATM   36  F   UNL     1      -6.451 -12.889 -41.672  1.00  0.00    -0.144 F 
ENDBRANCH  32  33
ENDBRANCH  29  32
ENDBRANCH  24  26
ENDBRANCH   1  24
BRANCH   5  37
HETATM   37  N   UNL     1      -5.596 -15.236 -30.354  1.00  0.00    -0.258 NA
HETATM   38  H   UNL     1      -5.023 -14.467 -30.019  1.00  0.00     0.130 HD
BRANCH  37  39
HETATM   39  C   UNL     1      -5.377 -16.458 -29.577  1.00  0.00     0.121 C 
BRANCH  39  40
HETATM   40  C   UNL     1      -6.669 -17.266 -29.398  1.00  0.00     0.178 C 
BRANCH  40  41
HETATM   41  O   UNL     1      -7.412 -16.766 -28.285  1.00  0.00    -0.400 OA
HETATM   42  H   UNL     1      -7.619 -17.529 -27.717  1.00  0.00     0.209 HD
ENDBRANCH  40  41
ENDBRANCH  39  40
ENDBRANCH  37  39
ENDBRANCH   5  37
TORSDOF 10
ENDMDL
