MODEL 1
REMARK VINA RESULT:      -8.2      0.000      0.000
REMARK  5 active torsions:
REMARK  status: ('A' for Active; 'I' for Inactive)
REMARK    1  A    between atoms: C_8  and  N_9 
REMARK       I    between atoms: N_9  and  C_10 
REMARK    2  A    between atoms: C_10  and  C_11 
REMARK    3  A    between atoms: C_11  and  N_12 
REMARK    4  A    between atoms: N_12  and  C_13 
REMARK    5  A    between atoms: C_13  and  C_14 
ROOT
HETATM    1  C   UNL     1      -3.325   2.157 -31.473  1.00  0.00     0.372 C 
ENDROOT
BRANCH   1   2
HETATM    2  C   UNL     1      -3.393   3.649 -31.839  1.00  0.00     0.250 C 
HETATM    3  N   UNL     1      -2.349   4.033 -32.652  1.00  0.00    -0.322 N 
HETATM    4  H   UNL     1      -1.705   3.282 -32.890  1.00  0.00     0.169 HD
HETATM    5  O   UNL     1      -4.319   4.345 -31.439  1.00  0.00    -0.271 OA
BRANCH   3   6
HETATM    6  C   UNL     1      -2.060   5.294 -33.138  1.00  0.00     0.085 A 
HETATM    7  C   UNL     1      -2.688   5.792 -34.265  1.00  0.00     0.052 A 
HETATM    8  C   UNL     1      -3.715   5.225 -35.171  1.00  0.00     0.072 C 
HETATM    9  N   UNL     1      -2.165   7.037 -34.466  1.00  0.00    -0.280 N 
HETATM   10  H   UNL     1      -2.387   7.700 -35.200  1.00  0.00     0.189 HD
HETATM   11  N   UNL     1      -1.246   7.389 -33.563  1.00  0.00    -0.177 NA
HETATM   12  C   UNL     1      -1.171   6.333 -32.736  1.00  0.00     0.079 A 
HETATM   13  C   UNL     1      -0.222   6.406 -31.598  1.00  0.00     0.075 C 
ENDBRANCH   3   6
ENDBRANCH   1   2
BRANCH   1  14
HETATM   14  N   UNL     1      -4.059   1.347 -32.472  1.00  0.00     0.100 N 
HETATM   15  H   UNL     1      -3.379   1.005 -33.156  1.00  0.00     0.317 HD
BRANCH  14  16
HETATM   16  C   UNL     1      -4.759   0.176 -31.909  1.00  0.00     0.251 C 
HETATM   17  C   UNL     1      -5.984   0.602 -31.081  1.00  0.00     0.048 C 
BRANCH  16  18
HETATM   18  C   UNL     1      -5.003  -0.930 -32.932  1.00  0.00    -0.002 A 
HETATM   19  C   UNL     1      -4.193  -2.092 -32.981  1.00  0.00     0.064 A 
HETATM   20 CL   UNL     1      -2.878  -2.293 -31.860  1.00  0.00    -0.082 Cl
HETATM   21  C   UNL     1      -4.447  -3.091 -33.939  1.00  0.00     0.056 A 
HETATM   22 CL   UNL     1      -3.508  -4.542 -34.047  1.00  0.00    -0.083 Cl
HETATM   23  C   UNL     1      -5.490  -2.946 -34.855  1.00  0.00     0.026 A 
HETATM   24  C   UNL     1      -6.283  -1.804 -34.829  1.00  0.00     0.002 A 
HETATM   25  C   UNL     1      -6.041  -0.808 -33.881  1.00  0.00     0.011 A 
ENDBRANCH  16  18
ENDBRANCH  14  16
ENDBRANCH   1  14
TORSDOF 5
ENDMDL
MODEL 2
REMARK VINA RESULT:      -8.1      0.352      1.749
REMARK  5 active torsions:
REMARK  status: ('A' for Active; 'I' for Inactive)
REMARK    1  A    between atoms: C_8  and  N_9 
REMARK       I    between atoms: N_9  and  C_10 
REMARK    2  A    between atoms: C_10  and  C_11 
REMARK    3  A    between atoms: C_11  and  N_12 
REMARK    4  A    between atoms: N_12  and  C_13 
REMARK    5  A    between atoms: C_13  and  C_14 
ROOT
HETATM    1  C   UNL     1      -3.383   1.924 -31.277  1.00  0.00     0.372 C 
ENDROOT
BRANCH   1   2
HETATM    2  C   UNL     1      -3.384   3.409 -31.674  1.00  0.00     0.250 C 
HETATM    3  N   UNL     1      -2.388   3.707 -32.578  1.00  0.00    -0.322 N 
HETATM    4  H   UNL     1      -1.816   2.909 -32.848  1.00  0.00     0.169 HD
HETATM    5  O   UNL     1      -4.227   4.174 -31.219  1.00  0.00    -0.271 OA
BRANCH   3   6
HETATM    6  C   UNL     1      -2.058   4.935 -33.119  1.00  0.00     0.085 A 
HETATM    7  C   UNL     1      -1.067   5.723 -32.564  1.00  0.00     0.052 A 
HETATM    8  C   UNL     1      -0.175   5.533 -31.396  1.00  0.00     0.072 C 
HETATM    9  N   UNL     1      -1.014   6.852 -33.329  1.00  0.00    -0.280 N 
HETATM   10  H   UNL     1      -0.405   7.655 -33.221  1.00  0.00     0.189 HD
HETATM   11  N   UNL     1      -1.892   6.864 -34.336  1.00  0.00    -0.177 NA
HETATM   12  C   UNL     1      -2.539   5.693 -34.226  1.00  0.00     0.079 A 
HETATM   13  C   UNL     1      -3.601   5.389 -35.217  1.00  0.00     0.075 C 
ENDBRANCH   3   6
ENDBRANCH   1   2
BRANCH   1  14
HETATM   14  N   UNL     1      -3.938   1.097 -32.373  1.00  0.00     0.100 N 
HETATM   15  H   UNL     1      -3.154   0.646 -32.851  1.00  0.00     0.317 HD
BRANCH  14  16
HETATM   16  C   UNL     1      -4.862   0.036 -31.926  1.00  0.00     0.251 C 
HETATM   17  C   UNL     1      -6.157   0.631 -31.345  1.00  0.00     0.048 C 
BRANCH  16  18
HETATM   18  C   UNL     1      -5.047  -1.076 -32.955  1.00  0.00    -0.002 A 
HETATM   19  C   UNL     1      -4.200  -2.211 -32.986  1.00  0.00     0.064 A 
HETATM   20 CL   UNL     1      -2.905  -2.372 -31.835  1.00  0.00    -0.082 Cl
HETATM   21  C   UNL     1      -4.399  -3.217 -33.950  1.00  0.00     0.056 A 
HETATM   22 CL   UNL     1      -3.412  -4.637 -34.037  1.00  0.00    -0.083 Cl
HETATM   23  C   UNL     1      -5.425  -3.104 -34.890  1.00  0.00     0.026 A 
HETATM   24  C   UNL     1      -6.255  -1.988 -34.881  1.00  0.00     0.002 A 
HETATM   25  C   UNL     1      -6.066  -0.986 -33.927  1.00  0.00     0.011 A 
ENDBRANCH  16  18
ENDBRANCH  14  16
ENDBRANCH   1  14
TORSDOF 5
ENDMDL
MODEL 3
REMARK VINA RESULT:      -7.4      3.449      5.225
REMARK  5 active torsions:
REMARK  status: ('A' for Active; 'I' for Inactive)
REMARK    1  A    between atoms: C_8  and  N_9 
REMARK       I    between atoms: N_9  and  C_10 
REMARK    2  A    between atoms: C_10  and  C_11 
REMARK    3  A    between atoms: C_11  and  N_12 
REMARK    4  A    between atoms: N_12  and  C_13 
REMARK    5  A    between atoms: C_13  and  C_14 
ROOT
HETATM    1  C   UNL     1      -5.442   2.518 -32.020  1.00  0.00     0.372 C 
ENDROOT
BRANCH   1   2
HETATM    2  C   UNL     1      -6.412   2.855 -33.165  1.00  0.00     0.250 C 
HETATM    3  N   UNL     1      -7.729   2.687 -32.798  1.00  0.00    -0.322 N 
HETATM    4  H   UNL     1      -7.860   2.377 -31.837  1.00  0.00     0.169 HD
HETATM    5  O   UNL     1      -5.986   3.252 -34.244  1.00  0.00    -0.271 OA
BRANCH   3   6
HETATM    6  C   UNL     1      -8.863   2.848 -33.571  1.00  0.00     0.085 A 
HETATM    7  C   UNL     1      -9.698   1.783 -33.855  1.00  0.00     0.052 A 
HETATM    8  C   UNL     1      -9.656   0.351 -33.478  1.00  0.00     0.072 C 
HETATM    9  N   UNL     1     -10.696   2.288 -34.637  1.00  0.00    -0.280 N 
HETATM   10  H   UNL     1     -11.488   1.799 -35.037  1.00  0.00     0.189 HD
HETATM   11  N   UNL     1     -10.577   3.595 -34.888  1.00  0.00    -0.177 NA
HETATM   12  C   UNL     1      -9.459   3.957 -34.238  1.00  0.00     0.079 A 
HETATM   13  C   UNL     1      -9.039   5.379 -34.315  1.00  0.00     0.075 C 
ENDBRANCH   3   6
ENDBRANCH   1   2
BRANCH   1  14
HETATM   14  N   UNL     1      -4.505   1.449 -32.436  1.00  0.00     0.100 N 
HETATM   15  H   UNL     1      -3.566   1.724 -32.137  1.00  0.00     0.317 HD
BRANCH  14  16
HETATM   16  C   UNL     1      -4.795   0.125 -31.850  1.00  0.00     0.251 C 
HETATM   17  C   UNL     1      -5.852   0.227 -30.737  1.00  0.00     0.048 C 
BRANCH  16  18
HETATM   18  C   UNL     1      -5.038  -0.958 -32.898  1.00  0.00    -0.002 A 
HETATM   19  C   UNL     1      -4.224  -2.114 -32.977  1.00  0.00     0.064 A 
HETATM   20 CL   UNL     1      -2.903  -2.335 -31.866  1.00  0.00    -0.082 Cl
HETATM   21  C   UNL     1      -4.476  -3.092 -33.957  1.00  0.00     0.056 A 
HETATM   22 CL   UNL     1      -3.531  -4.535 -34.102  1.00  0.00    -0.083 Cl
HETATM   23  C   UNL     1      -5.524  -2.930 -34.866  1.00  0.00     0.026 A 
HETATM   24  C   UNL     1      -6.322  -1.793 -34.809  1.00  0.00     0.002 A 
HETATM   25  C   UNL     1      -6.080  -0.819 -33.840  1.00  0.00     0.011 A 
ENDBRANCH  16  18
ENDBRANCH  14  16
ENDBRANCH   1  14
TORSDOF 5
ENDMDL
MODEL 4
REMARK VINA RESULT:      -7.4      1.905      2.217
REMARK  5 active torsions:
REMARK  status: ('A' for Active; 'I' for Inactive)
REMARK    1  A    between atoms: C_8  and  N_9 
REMARK       I    between atoms: N_9  and  C_10 
REMARK    2  A    between atoms: C_10  and  C_11 
REMARK    3  A    between atoms: C_11  and  N_12 
REMARK    4  A    between atoms: N_12  and  C_13 
REMARK    5  A    between atoms: C_13  and  C_14 
ROOT
HETATM    1  C   UNL     1      -3.368   2.289 -31.361  1.00  0.00     0.372 C 
ENDROOT
BRANCH   1   2
HETATM    2  C   UNL     1      -3.313   3.793 -31.677  1.00  0.00     0.250 C 
HETATM    3  N   UNL     1      -2.374   4.088 -32.641  1.00  0.00    -0.322 N 
HETATM    4  H   UNL     1      -1.872   3.278 -32.998  1.00  0.00     0.169 HD
HETATM    5  O   UNL     1      -4.073   4.574 -31.115  1.00  0.00    -0.271 OA
BRANCH   3   6
HETATM    6  C   UNL     1      -2.017   5.326 -33.139  1.00  0.00     0.085 A 
HETATM    7  C   UNL     1      -2.610   5.843 -34.276  1.00  0.00     0.052 A 
HETATM    8  C   UNL     1      -3.660   5.321 -35.182  1.00  0.00     0.072 C 
HETATM    9  N   UNL     1      -2.022   7.057 -34.487  1.00  0.00    -0.280 N 
HETATM   10  H   UNL     1      -2.204   7.722 -35.230  1.00  0.00     0.189 HD
HETATM   11  N   UNL     1      -1.091   7.370 -33.582  1.00  0.00    -0.177 NA
HETATM   12  C   UNL     1      -1.077   6.321 -32.743  1.00  0.00     0.079 A 
HETATM   13  C   UNL     1      -0.132   6.358 -31.599  1.00  0.00     0.075 C 
ENDBRANCH   3   6
ENDBRANCH   1   2
BRANCH   1  14
HETATM   14  N   UNL     1      -4.687   1.931 -30.789  1.00  0.00     0.100 N 
HETATM   15  H   UNL     1      -5.407   2.274 -31.429  1.00  0.00     0.317 HD
BRANCH  14  16
HETATM   16  C   UNL     1      -4.897   0.480 -30.611  1.00  0.00     0.251 C 
HETATM   17  C   UNL     1      -5.964   0.198 -29.539  1.00  0.00     0.048 C 
BRANCH  16  18
HETATM   18  C   UNL     1      -5.068  -0.271 -31.929  1.00  0.00    -0.002 A 
HETATM   19  C   UNL     1      -6.102   0.052 -32.842  1.00  0.00     0.064 A 
HETATM   20 CL   UNL     1      -7.224   1.331 -32.481  1.00  0.00    -0.082 Cl
HETATM   21  C   UNL     1      -6.230  -0.663 -34.048  1.00  0.00     0.056 A 
HETATM   22 CL   UNL     1      -7.460  -0.313 -35.215  1.00  0.00    -0.083 Cl
HETATM   23  C   UNL     1      -5.348  -1.701 -34.353  1.00  0.00     0.026 A 
HETATM   24  C   UNL     1      -4.337  -2.038 -33.459  1.00  0.00     0.002 A 
HETATM   25  C   UNL     1      -4.201  -1.334 -32.262  1.00  0.00     0.011 A 
ENDBRANCH  16  18
ENDBRANCH  14  16
ENDBRANCH   1  14
TORSDOF 5
ENDMDL
MODEL 5
REMARK VINA RESULT:      -7.3      5.202      7.394
REMARK  5 active torsions:
REMARK  status: ('A' for Active; 'I' for Inactive)
REMARK    1  A    between atoms: C_8  and  N_9 
REMARK       I    between atoms: N_9  and  C_10 
REMARK    2  A    between atoms: C_10  and  C_11 
REMARK    3  A    between atoms: C_11  and  N_12 
REMARK    4  A    between atoms: N_12  and  C_13 
REMARK    5  A    between atoms: C_13  and  C_14 
ROOT
HETATM    1  C   UNL     1      -8.901   1.507 -31.386  1.00  0.00     0.372 C 
ENDROOT
BRANCH   1   2
HETATM    2  C   UNL     1      -9.828   1.102 -32.544  1.00  0.00     0.250 C 
HETATM    3  N   UNL     1     -10.532   2.174 -33.047  1.00  0.00    -0.322 N 
HETATM    4  H   UNL     1     -10.330   3.060 -32.587  1.00  0.00     0.169 HD
HETATM    5  O   UNL     1      -9.857  -0.058 -32.940  1.00  0.00    -0.271 OA
BRANCH   3   6
HETATM    6  C   UNL     1     -11.483   2.182 -34.049  1.00  0.00     0.085 A 
HETATM    7  C   UNL     1     -11.474   3.144 -35.042  1.00  0.00     0.052 A 
HETATM    8  C   UNL     1     -10.580   4.295 -35.312  1.00  0.00     0.072 C 
HETATM    9  N   UNL     1     -12.542   2.863 -35.845  1.00  0.00    -0.280 N 
HETATM   10  H   UNL     1     -12.850   3.358 -36.674  1.00  0.00     0.189 HD
HETATM   11  N   UNL     1     -13.246   1.798 -35.454  1.00  0.00    -0.177 NA
HETATM   12  C   UNL     1     -12.609   1.363 -34.355  1.00  0.00     0.079 A 
HETATM   13  C   UNL     1     -13.150   0.166 -33.665  1.00  0.00     0.075 C 
ENDBRANCH   3   6
ENDBRANCH   1   2
BRANCH   1  14
HETATM   14  N   UNL     1      -7.719   0.616 -31.337  1.00  0.00     0.100 N 
HETATM   15  H   UNL     1      -8.037  -0.336 -31.532  1.00  0.00     0.317 HD
BRANCH  14  16
HETATM   16  C   UNL     1      -6.667   0.949 -32.319  1.00  0.00     0.251 C 
HETATM   17  C   UNL     1      -5.965   2.270 -31.960  1.00  0.00     0.048 C 
BRANCH  16  18
HETATM   18  C   UNL     1      -5.745  -0.226 -32.636  1.00  0.00    -0.002 A 
HETATM   19  C   UNL     1      -5.948  -1.046 -33.772  1.00  0.00     0.064 A 
HETATM   20 CL   UNL     1      -7.274  -0.735 -34.855  1.00  0.00    -0.082 Cl
HETATM   21  C   UNL     1      -5.079  -2.122 -34.033  1.00  0.00     0.056 A 
HETATM   22 CL   UNL     1      -5.259  -3.156 -35.410  1.00  0.00    -0.083 Cl
HETATM   23  C   UNL     1      -4.015  -2.398 -33.173  1.00  0.00     0.026 A 
HETATM   24  C   UNL     1      -3.813  -1.610 -32.045  1.00  0.00     0.002 A 
HETATM   25  C   UNL     1      -4.668  -0.540 -31.779  1.00  0.00     0.011 A 
ENDBRANCH  16  18
ENDBRANCH  14  16
ENDBRANCH   1  14
TORSDOF 5
ENDMDL
MODEL 6
REMARK VINA RESULT:      -7.3      5.160      7.492
REMARK  5 active torsions:
REMARK  status: ('A' for Active; 'I' for Inactive)
REMARK    1  A    between atoms: C_8  and  N_9 
REMARK       I    between atoms: N_9  and  C_10 
REMARK    2  A    between atoms: C_10  and  C_11 
REMARK    3  A    between atoms: C_11  and  N_12 
REMARK    4  A    between atoms: N_12  and  C_13 
REMARK    5  A    between atoms: C_13  and  C_14 
ROOT
HETATM    1  C   UNL     1      -8.651   0.890 -31.696  1.00  0.00     0.372 C 
ENDROOT
BRANCH   1   2
HETATM    2  C   UNL     1      -9.783   1.742 -32.291  1.00  0.00     0.250 C 
HETATM    3  N   UNL     1     -10.521   1.049 -33.225  1.00  0.00    -0.322 N 
HETATM    4  H   UNL     1     -10.215   0.089 -33.372  1.00  0.00     0.169 HD
HETATM    5  O   UNL     1      -9.965   2.892 -31.904  1.00  0.00    -0.271 OA
BRANCH   3   6
HETATM    6  C   UNL     1     -11.576   1.502 -33.993  1.00  0.00     0.085 A 
HETATM    7  C   UNL     1     -12.759   0.792 -34.083  1.00  0.00     0.052 A 
HETATM    8  C   UNL     1     -13.208  -0.484 -33.476  1.00  0.00     0.072 C 
HETATM    9  N   UNL     1     -13.565   1.509 -34.919  1.00  0.00    -0.280 N 
HETATM   10  H   UNL     1     -14.509   1.294 -35.218  1.00  0.00     0.189 HD
HETATM   11  N   UNL     1     -13.002   2.628 -35.383  1.00  0.00    -0.177 NA
HETATM   12  C   UNL     1     -11.782   2.643 -34.822  1.00  0.00     0.079 A 
HETATM   13  C   UNL     1     -10.885   3.782 -35.140  1.00  0.00     0.075 C 
ENDBRANCH   3   6
ENDBRANCH   1   2
BRANCH   1  14
HETATM   14  N   UNL     1      -7.372   1.636 -31.727  1.00  0.00     0.100 N 
HETATM   15  H   UNL     1      -6.772   1.258 -30.990  1.00  0.00     0.317 HD
BRANCH  14  16
HETATM   16  C   UNL     1      -6.638   1.529 -33.004  1.00  0.00     0.251 C 
HETATM   17  C   UNL     1      -5.918   2.844 -33.346  1.00  0.00     0.048 C 
BRANCH  16  18
HETATM   18  C   UNL     1      -5.791   0.263 -33.107  1.00  0.00    -0.002 A 
HETATM   19  C   UNL     1      -6.075  -0.747 -34.059  1.00  0.00     0.064 A 
HETATM   20 CL   UNL     1      -7.417  -0.573 -35.152  1.00  0.00    -0.082 Cl
HETATM   21  C   UNL     1      -5.272  -1.902 -34.125  1.00  0.00     0.056 A 
HETATM   22 CL   UNL     1      -5.552  -3.169 -35.271  1.00  0.00    -0.083 Cl
HETATM   23  C   UNL     1      -4.197  -2.069 -33.250  1.00  0.00     0.026 A 
HETATM   24  C   UNL     1      -3.917  -1.092 -32.302  1.00  0.00     0.002 A 
HETATM   25  C   UNL     1      -4.705   0.058 -32.230  1.00  0.00     0.011 A 
ENDBRANCH  16  18
ENDBRANCH  14  16
ENDBRANCH   1  14
TORSDOF 5
ENDMDL
MODEL 7
REMARK VINA RESULT:      -7.2      4.295      5.748
REMARK  5 active torsions:
REMARK  status: ('A' for Active; 'I' for Inactive)
REMARK    1  A    between atoms: C_8  and  N_9 
REMARK       I    between atoms: N_9  and  C_10 
REMARK    2  A    between atoms: C_10  and  C_11 
REMARK    3  A    between atoms: C_11  and  N_12 
REMARK    4  A    between atoms: N_12  and  C_13 
REMARK    5  A    between atoms: C_13  and  C_14 
ROOT
HETATM    1  C   UNL     1      -5.059   1.327 -32.790  1.00  0.00     0.372 C 
ENDROOT
BRANCH   1   2
HETATM    2  C   UNL     1      -6.365   2.035 -33.189  1.00  0.00     0.250 C 
HETATM    3  N   UNL     1      -7.389   1.772 -32.306  1.00  0.00    -0.322 N 
HETATM    4  H   UNL     1      -7.129   1.165 -31.531  1.00  0.00     0.169 HD
HETATM    5  O   UNL     1      -6.402   2.760 -34.177  1.00  0.00    -0.271 OA
BRANCH   3   6
HETATM    6  C   UNL     1      -8.704   2.194 -32.367  1.00  0.00     0.085 A 
HETATM    7  C   UNL     1      -9.737   1.302 -32.586  1.00  0.00     0.052 A 
HETATM    8  C   UNL     1      -9.764  -0.166 -32.791  1.00  0.00     0.072 C 
HETATM    9  N   UNL     1     -10.880   2.048 -32.598  1.00  0.00    -0.280 N 
HETATM   10  H   UNL     1     -11.834   1.732 -32.733  1.00  0.00     0.189 HD
HETATM   11  N   UNL     1     -10.675   3.354 -32.406  1.00  0.00    -0.177 NA
HETATM   12  C   UNL     1      -9.345   3.463 -32.258  1.00  0.00     0.079 A 
HETATM   13  C   UNL     1      -8.779   4.815 -32.022  1.00  0.00     0.075 C 
ENDBRANCH   3   6
ENDBRANCH   1   2
BRANCH   1  14
HETATM   14  N   UNL     1      -5.234  -0.143 -32.840  1.00  0.00     0.100 N 
HETATM   15  H   UNL     1      -5.928  -0.350 -33.563  1.00  0.00     0.317 HD
BRANCH  14  16
HETATM   16  C   UNL     1      -4.004  -0.890 -33.170  1.00  0.00     0.251 C 
HETATM   17  C   UNL     1      -2.907  -0.651 -32.119  1.00  0.00     0.048 C 
BRANCH  16  18
HETATM   18  C   UNL     1      -4.265  -2.349 -33.536  1.00  0.00    -0.002 A 
HETATM   19  C   UNL     1      -5.336  -2.724 -34.384  1.00  0.00     0.064 A 
HETATM   20 CL   UNL     1      -6.402  -1.516 -35.040  1.00  0.00    -0.082 Cl
HETATM   21  C   UNL     1      -5.547  -4.079 -34.699  1.00  0.00     0.056 A 
HETATM   22 CL   UNL     1      -6.826  -4.608 -35.739  1.00  0.00    -0.083 Cl
HETATM   23  C   UNL     1      -4.711  -5.067 -34.175  1.00  0.00     0.026 A 
HETATM   24  C   UNL     1      -3.665  -4.714 -33.330  1.00  0.00     0.002 A 
HETATM   25  C   UNL     1      -3.446  -3.373 -33.013  1.00  0.00     0.011 A 
ENDBRANCH  16  18
ENDBRANCH  14  16
ENDBRANCH   1  14
TORSDOF 5
ENDMDL
MODEL 8
REMARK VINA RESULT:      -7.1      6.344      8.608
REMARK  5 active torsions:
REMARK  status: ('A' for Active; 'I' for Inactive)
REMARK    1  A    between atoms: C_8  and  N_9 
REMARK       I    between atoms: N_9  and  C_10 
REMARK    2  A    between atoms: C_10  and  C_11 
REMARK    3  A    between atoms: C_11  and  N_12 
REMARK    4  A    between atoms: N_12  and  C_13 
REMARK    5  A    between atoms: C_13  and  C_14 
ROOT
HETATM    1  C   UNL     1      -9.551   2.658 -34.099  1.00  0.00     0.372 C 
ENDROOT
BRANCH   1   2
HETATM    2  C   UNL     1     -11.063   2.705 -34.376  1.00  0.00     0.250 C 
HETATM    3  N   UNL     1     -11.807   2.440 -33.247  1.00  0.00    -0.322 N 
HETATM    4  H   UNL     1     -11.253   2.264 -32.412  1.00  0.00     0.169 HD
HETATM    5  O   UNL     1     -11.482   2.984 -35.494  1.00  0.00    -0.271 OA
BRANCH   3   6
HETATM    6  C   UNL     1     -13.181   2.351 -33.127  1.00  0.00     0.085 A 
HETATM    7  C   UNL     1     -13.946   3.448 -32.775  1.00  0.00     0.052 A 
HETATM    8  C   UNL     1     -13.595   4.854 -32.467  1.00  0.00     0.072 C 
HETATM    9  N   UNL     1     -15.237   3.008 -32.739  1.00  0.00    -0.280 N 
HETATM   10  H   UNL     1     -16.074   3.536 -32.517  1.00  0.00     0.189 HD
HETATM   11  N   UNL     1     -15.375   1.713 -33.035  1.00  0.00    -0.177 NA
HETATM   12  C   UNL     1     -14.124   1.293 -33.281  1.00  0.00     0.079 A 
HETATM   13  C   UNL     1     -13.927  -0.131 -33.650  1.00  0.00     0.075 C 
ENDBRANCH   3   6
ENDBRANCH   1   2
BRANCH   1  14
HETATM   14  N   UNL     1      -9.004   1.327 -34.450  1.00  0.00     0.100 N 
HETATM   15  H   UNL     1      -8.192   1.474 -35.054  1.00  0.00     0.317 HD
BRANCH  14  16
HETATM   16  C   UNL     1      -8.564   0.526 -33.290  1.00  0.00     0.251 C 
HETATM   17  C   UNL     1      -9.740  -0.243 -32.664  1.00  0.00     0.048 C 
BRANCH  16  18
HETATM   18  C   UNL     1      -7.307  -0.295 -33.566  1.00  0.00    -0.002 A 
HETATM   19  C   UNL     1      -6.020   0.170 -33.204  1.00  0.00     0.064 A 
HETATM   20 CL   UNL     1      -5.830   1.713 -32.423  1.00  0.00    -0.082 Cl
HETATM   21  C   UNL     1      -4.882  -0.613 -33.475  1.00  0.00     0.056 A 
HETATM   22 CL   UNL     1      -3.280  -0.115 -33.048  1.00  0.00    -0.083 Cl
HETATM   23  C   UNL     1      -5.009  -1.850 -34.111  1.00  0.00     0.026 A 
HETATM   24  C   UNL     1      -6.266  -2.312 -34.486  1.00  0.00     0.002 A 
HETATM   25  C   UNL     1      -7.400  -1.543 -34.219  1.00  0.00     0.011 A 
ENDBRANCH  16  18
ENDBRANCH  14  16
ENDBRANCH   1  14
TORSDOF 5
ENDMDL
MODEL 9
REMARK VINA RESULT:      -7.0     16.747     17.670
REMARK  5 active torsions:
REMARK  status: ('A' for Active; 'I' for Inactive)
REMARK    1  A    between atoms: C_8  and  N_9 
REMARK       I    between atoms: N_9  and  C_10 
REMARK    2  A    between atoms: C_10  and  C_11 
REMARK    3  A    between atoms: C_11  and  N_12 
REMARK    4  A    between atoms: N_12  and  C_13 
REMARK    5  A    between atoms: C_13  and  C_14 
ROOT
HETATM    1  C   UNL     1      -4.656 -13.807 -36.297  1.00  0.00     0.372 C 
ENDROOT
BRANCH   1   2
HETATM    2  C   UNL     1      -4.210 -13.233 -37.651  1.00  0.00     0.250 C 
HETATM    3  N   UNL     1      -4.164 -14.196 -38.635  1.00  0.00    -0.322 N 
HETATM    4  H   UNL     1      -4.436 -15.126 -38.323  1.00  0.00     0.169 HD
HETATM    5  O   UNL     1      -3.970 -12.037 -37.771  1.00  0.00    -0.271 OA
BRANCH   3   6
HETATM    6  C   UNL     1      -3.767 -14.060 -39.952  1.00  0.00     0.085 A 
HETATM    7  C   UNL     1      -2.438 -14.164 -40.317  1.00  0.00     0.052 A 
HETATM    8  C   UNL     1      -1.204 -14.420 -39.538  1.00  0.00     0.072 C 
HETATM    9  N   UNL     1      -2.405 -13.969 -41.668  1.00  0.00    -0.280 N 
HETATM   10  H   UNL     1      -1.598 -13.974 -42.283  1.00  0.00     0.189 HD
HETATM   11  N   UNL     1      -3.604 -13.743 -42.211  1.00  0.00    -0.177 NA
HETATM   12  C   UNL     1      -4.454 -13.800 -41.173  1.00  0.00     0.079 A 
HETATM   13  C   UNL     1      -5.898 -13.588 -41.445  1.00  0.00     0.075 C 
ENDBRANCH   3   6
ENDBRANCH   1   2
BRANCH   1  14
HETATM   14  N   UNL     1      -5.660 -14.878 -36.496  1.00  0.00     0.100 N 
HETATM   15  H   UNL     1      -5.425 -15.647 -35.864  1.00  0.00     0.317 HD
BRANCH  14  16
HETATM   16  C   UNL     1      -7.049 -14.469 -36.210  1.00  0.00     0.251 C 
HETATM   17  C   UNL     1      -7.103 -13.420 -35.085  1.00  0.00     0.048 C 
BRANCH  16  18
HETATM   18  C   UNL     1      -7.851 -14.136 -37.466  1.00  0.00    -0.002 A 
HETATM   19  C   UNL     1      -8.554 -15.131 -38.187  1.00  0.00     0.064 A 
HETATM   20 CL   UNL     1      -8.523 -16.787 -37.655  1.00  0.00    -0.082 Cl
HETATM   21  C   UNL     1      -9.282 -14.788 -39.341  1.00  0.00     0.056 A 
HETATM   22 CL   UNL     1     -10.175 -15.949 -40.263  1.00  0.00    -0.083 Cl
HETATM   23  C   UNL     1      -9.311 -13.467 -39.793  1.00  0.00     0.026 A 
HETATM   24  C   UNL     1      -8.613 -12.482 -39.103  1.00  0.00     0.002 A 
HETATM   25  C   UNL     1      -7.890 -12.813 -37.956  1.00  0.00     0.011 A 
ENDBRANCH  16  18
ENDBRANCH  14  16
ENDBRANCH   1  14
TORSDOF 5
ENDMDL
MODEL 10
REMARK VINA RESULT:      -6.9      5.126      6.661
REMARK  5 active torsions:
REMARK  status: ('A' for Active; 'I' for Inactive)
REMARK    1  A    between atoms: C_8  and  N_9 
REMARK       I    between atoms: N_9  and  C_10 
REMARK    2  A    between atoms: C_10  and  C_11 
REMARK    3  A    between atoms: C_11  and  N_12 
REMARK    4  A    between atoms: N_12  and  C_13 
REMARK    5  A    between atoms: C_13  and  C_14 
ROOT
HETATM    1  C   UNL     1      -7.613   2.856 -33.095  1.00  0.00     0.372 C 
ENDROOT
BRANCH   1   2
HETATM    2  C   UNL     1      -8.974   3.566 -33.188  1.00  0.00     0.250 C 
HETATM    3  N   UNL     1      -9.644   3.256 -34.351  1.00  0.00    -0.322 N 
HETATM    4  H   UNL     1      -9.148   2.608 -34.960  1.00  0.00     0.169 HD
HETATM    5  O   UNL     1      -9.363   4.286 -32.275  1.00  0.00    -0.271 OA
BRANCH   3   6
HETATM    6  C   UNL     1     -10.861   3.737 -34.795  1.00  0.00     0.085 A 
HETATM    7  C   UNL     1     -11.966   2.913 -34.899  1.00  0.00     0.052 A 
HETATM    8  C   UNL     1     -12.171   1.474 -34.611  1.00  0.00     0.072 C 
HETATM    9  N   UNL     1     -12.976   3.700 -35.371  1.00  0.00    -0.280 N 
HETATM   10  H   UNL     1     -13.934   3.437 -35.573  1.00  0.00     0.189 HD
HETATM   11  N   UNL     1     -12.618   4.969 -35.585  1.00  0.00    -0.177 NA
HETATM   12  C   UNL     1     -11.323   5.012 -35.232  1.00  0.00     0.079 A 
HETATM   13  C   UNL     1     -10.613   6.310 -35.352  1.00  0.00     0.075 C 
ENDBRANCH   3   6
ENDBRANCH   1   2
BRANCH   1  14
HETATM   14  N   UNL     1      -7.635   1.596 -33.871  1.00  0.00     0.100 N 
HETATM   15  H   UNL     1      -6.766   1.545 -34.408  1.00  0.00     0.317 HD
BRANCH  14  16
HETATM   16  C   UNL     1      -7.724   0.375 -33.045  1.00  0.00     0.251 C 
HETATM   17  C   UNL     1      -9.169  -0.150 -32.978  1.00  0.00     0.048 C 
BRANCH  16  18
HETATM   18  C   UNL     1      -6.658  -0.663 -33.386  1.00  0.00    -0.002 A 
HETATM   19  C   UNL     1      -5.501  -0.832 -32.587  1.00  0.00     0.064 A 
HETATM   20 CL   UNL     1      -5.257   0.154 -31.174  1.00  0.00    -0.082 Cl
HETATM   21  C   UNL     1      -4.537  -1.798 -32.932  1.00  0.00     0.056 A 
HETATM   22 CL   UNL     1      -3.107  -2.069 -31.994  1.00  0.00    -0.083 Cl
HETATM   23  C   UNL     1      -4.706  -2.593 -34.067  1.00  0.00     0.026 A 
HETATM   24  C   UNL     1      -5.830  -2.427 -34.869  1.00  0.00     0.002 A 
HETATM   25  C   UNL     1      -6.792  -1.473 -34.534  1.00  0.00     0.011 A 
ENDBRANCH  16  18
ENDBRANCH  14  16
ENDBRANCH   1  14
TORSDOF 5
ENDMDL
