MODEL 1
REMARK VINA RESULT:      -9.4      0.000      0.000
REMARK  6 active torsions:
REMARK  status: ('A' for Active; 'I' for Inactive)
REMARK    1  A    between atoms: C_4  and  N_5 
REMARK    2  A    between atoms: C_6  and  S_7 
REMARK    3  A    between atoms: S_7  and  C_8 
REMARK    4  A    between atoms: C_8  and  C_9 
REMARK       I    between atoms: C_9  and  N_10 
REMARK    5  A    between atoms: N_10  and  C_11 
REMARK    6  A    between atoms: C_24  and  C_25 
ROOT
HETATM    1  N   UNL     1      -5.127   1.336 -32.438  1.00  0.00    -0.271 N 
HETATM    2  C   UNL     1      -4.764   2.548 -31.867  1.00  0.00     0.197 A 
HETATM    3  N   UNL     1      -3.540   2.485 -31.399  1.00  0.00    -0.122 NA
HETATM    4  N   UNL     1      -3.059   1.234 -31.645  1.00  0.00    -0.128 NA
HETATM    5  C   UNL     1      -4.007   0.524 -32.233  1.00  0.00     0.169 A 
ENDROOT
BRANCH   2   6
HETATM    6  S   UNL     1      -5.687   4.020 -31.912  1.00  0.00    -0.080 SA
BRANCH   6   7
HETATM    7  C   UNL     1      -6.771   3.763 -30.473  1.00  0.00     0.185 C 
BRANCH   7   8
HETATM    8  C   UNL     1      -8.192   3.458 -30.919  1.00  0.00     0.231 C 
HETATM    9  N   UNL     1      -8.409   3.732 -32.262  1.00  0.00    -0.326 N 
HETATM   10  H   UNL     1      -7.666   4.230 -32.738  1.00  0.00     0.169 HD
HETATM   11  O   UNL     1      -9.007   2.972 -30.139  1.00  0.00    -0.272 OA
BRANCH   9  12
HETATM   12  C   UNL     1      -9.568   3.459 -33.019  1.00  0.00     0.037 A 
HETATM   13  C   UNL     1     -10.587   2.599 -32.591  1.00  0.00     0.061 A 
HETATM   14  C   UNL     1     -11.649   2.409 -33.446  1.00  0.00     0.065 A 
HETATM   15  C   UNL     1     -11.733   3.036 -34.686  1.00  0.00     0.063 A 
HETATM   16  N   UNL     1     -12.780   1.614 -33.292  1.00  0.00    -0.306 N 
HETATM   17  N   UNL     1     -12.915   2.630 -35.294  1.00  0.00    -0.307 N 
HETATM   18  C   UNL     1     -10.758   3.887 -35.139  1.00  0.00     0.034 A 
HETATM   19  C   UNL     1     -13.580   1.741 -34.436  1.00  0.00     0.325 A 
HETATM   20  H   UNL     1     -13.267   2.902 -36.197  1.00  0.00     0.170 HD
HETATM   21  O   UNL     1     -14.644   1.186 -34.649  1.00  0.00    -0.247 OA
HETATM   22  C   UNL     1      -9.662   4.093 -34.288  1.00  0.00     0.032 A 
HETATM   23  H   UNL     1     -13.012   1.033 -32.503  1.00  0.00     0.170 HD
ENDBRANCH   9  12
ENDBRANCH   7   8
ENDBRANCH   6   7
ENDBRANCH   2   6
BRANCH   1  24
HETATM   24  C   UNL     1      -6.334   0.989 -33.110  1.00  0.00     0.043 A 
HETATM   25  C   UNL     1      -6.531   1.376 -34.443  1.00  0.00     0.030 A 
HETATM   26  C   UNL     1      -7.702   1.018 -35.114  1.00  0.00     0.002 A 
HETATM   27  C   UNL     1      -8.682   0.273 -34.461  1.00  0.00     0.000 A 
HETATM   28  C   UNL     1      -8.493  -0.114 -33.136  1.00  0.00     0.002 A 
HETATM   29  C   UNL     1      -7.324   0.241 -32.458  1.00  0.00     0.030 A 
ENDBRANCH   1  24
BRANCH   5  30
HETATM   30  C   UNL     1      -3.873  -0.908 -32.515  1.00  0.00     0.012 A 
HETATM   31  C   UNL     1      -3.175  -1.769 -31.656  1.00  0.00     0.017 A 
HETATM   32  C   UNL     1      -3.047  -3.128 -31.962  1.00  0.00     0.025 A 
HETATM   33  C   UNL     1      -3.605  -3.629 -33.136  1.00  0.00     0.034 A 
HETATM   34 CL   UNL     1      -3.448  -5.300 -33.511  1.00  0.00    -0.084 Cl
HETATM   35  C   UNL     1      -4.282  -2.783 -34.011  1.00  0.00     0.025 A 
HETATM   36  C   UNL     1      -4.409  -1.427 -33.704  1.00  0.00     0.017 A 
ENDBRANCH   5  30
TORSDOF 6
ENDMDL
MODEL 2
REMARK VINA RESULT:      -9.2      1.684      1.930
REMARK  6 active torsions:
REMARK  status: ('A' for Active; 'I' for Inactive)
REMARK    1  A    between atoms: C_4  and  N_5 
REMARK    2  A    between atoms: C_6  and  S_7 
REMARK    3  A    between atoms: S_7  and  C_8 
REMARK    4  A    between atoms: C_8  and  C_9 
REMARK       I    between atoms: C_9  and  N_10 
REMARK    5  A    between atoms: N_10  and  C_11 
REMARK    6  A    between atoms: C_24  and  C_25 
ROOT
HETATM    1  N   UNL     1      -5.888   1.794 -32.363  1.00  0.00    -0.271 N 
HETATM    2  C   UNL     1      -5.605   3.121 -32.071  1.00  0.00     0.197 A 
HETATM    3  N   UNL     1      -4.308   3.318 -32.051  1.00  0.00    -0.122 NA
HETATM    4  N   UNL     1      -3.697   2.132 -32.329  1.00  0.00    -0.128 NA
HETATM    5  C   UNL     1      -4.626   1.203 -32.482  1.00  0.00     0.169 A 
ENDROOT
BRANCH   2   6
HETATM    6  S   UNL     1      -6.761   4.411 -31.934  1.00  0.00    -0.080 SA
BRANCH   6   7
HETATM    7  C   UNL     1      -6.998   4.815 -33.693  1.00  0.00     0.185 C 
BRANCH   7   8
HETATM    8  C   UNL     1      -8.467   4.728 -34.071  1.00  0.00     0.231 C 
HETATM    9  N   UNL     1      -9.113   3.645 -33.490  1.00  0.00    -0.326 N 
HETATM   10  H   UNL     1      -8.517   2.974 -33.021  1.00  0.00     0.169 HD
HETATM   11  O   UNL     1      -8.988   5.585 -34.780  1.00  0.00    -0.272 OA
BRANCH   9  12
HETATM   12  C   UNL     1     -10.490   3.338 -33.538  1.00  0.00     0.037 A 
HETATM   13  C   UNL     1     -11.335   3.402 -32.424  1.00  0.00     0.061 A 
HETATM   14  C   UNL     1     -12.653   3.050 -32.614  1.00  0.00     0.065 A 
HETATM   15  C   UNL     1     -13.149   2.649 -33.851  1.00  0.00     0.063 A 
HETATM   16  N   UNL     1     -13.700   3.009 -31.700  1.00  0.00    -0.306 N 
HETATM   17  N   UNL     1     -14.501   2.363 -33.700  1.00  0.00    -0.307 N 
HETATM   18  C   UNL     1     -12.353   2.577 -34.965  1.00  0.00     0.034 A 
HETATM   19  C   UNL     1     -14.860   2.582 -32.361  1.00  0.00     0.325 A 
HETATM   20  H   UNL     1     -15.144   2.046 -34.406  1.00  0.00     0.170 HD
HETATM   21  O   UNL     1     -15.965   2.427 -31.873  1.00  0.00    -0.247 OA
HETATM   22  C   UNL     1     -11.005   2.925 -34.797  1.00  0.00     0.032 A 
HETATM   23  H   UNL     1     -13.662   3.240 -30.720  1.00  0.00     0.170 HD
ENDBRANCH   9  12
ENDBRANCH   7   8
ENDBRANCH   6   7
ENDBRANCH   2   6
BRANCH   1  24
HETATM   24  C   UNL     1      -7.155   1.167 -32.540  1.00  0.00     0.043 A 
HETATM   25  C   UNL     1      -7.557   0.747 -33.816  1.00  0.00     0.030 A 
HETATM   26  C   UNL     1      -8.787   0.110 -33.991  1.00  0.00     0.002 A 
HETATM   27  C   UNL     1      -9.623  -0.110 -32.899  1.00  0.00     0.000 A 
HETATM   28  C   UNL     1      -9.230   0.306 -31.628  1.00  0.00     0.002 A 
HETATM   29  C   UNL     1      -8.000   0.943 -31.445  1.00  0.00     0.030 A 
ENDBRANCH   1  24
BRANCH   5  30
HETATM   30  C   UNL     1      -4.313  -0.218 -32.656  1.00  0.00     0.012 A 
HETATM   31  C   UNL     1      -3.552  -0.928 -31.716  1.00  0.00     0.017 A 
HETATM   32  C   UNL     1      -3.253  -2.279 -31.919  1.00  0.00     0.025 A 
HETATM   33  C   UNL     1      -3.701  -2.923 -33.070  1.00  0.00     0.034 A 
HETATM   34 CL   UNL     1      -3.334  -4.584 -33.318  1.00  0.00    -0.084 Cl
HETATM   35  C   UNL     1      -4.439  -2.226 -34.024  1.00  0.00     0.025 A 
HETATM   36  C   UNL     1      -4.737  -0.877 -33.820  1.00  0.00     0.017 A 
ENDBRANCH   5  30
TORSDOF 6
ENDMDL
MODEL 3
REMARK VINA RESULT:      -9.0      6.165      8.813
REMARK  6 active torsions:
REMARK  status: ('A' for Active; 'I' for Inactive)
REMARK    1  A    between atoms: C_4  and  N_5 
REMARK    2  A    between atoms: C_6  and  S_7 
REMARK    3  A    between atoms: S_7  and  C_8 
REMARK    4  A    between atoms: C_8  and  C_9 
REMARK       I    between atoms: C_9  and  N_10 
REMARK    5  A    between atoms: N_10  and  C_11 
REMARK    6  A    between atoms: C_24  and  C_25 
ROOT
HETATM    1  N   UNL     1      -1.682   6.260 -30.414  1.00  0.00    -0.271 N 
HETATM    2  C   UNL     1      -1.773   5.289 -31.402  1.00  0.00     0.197 A 
HETATM    3  N   UNL     1      -0.778   4.439 -31.300  1.00  0.00    -0.122 NA
HETATM    4  N   UNL     1      -0.003   4.822 -30.247  1.00  0.00    -0.128 NA
HETATM    5  C   UNL     1      -0.508   5.928 -29.729  1.00  0.00     0.169 A 
ENDROOT
BRANCH   2   6
HETATM    6  S   UNL     1      -3.094   5.075 -32.510  1.00  0.00    -0.080 SA
BRANCH   6   7
HETATM    7  C   UNL     1      -4.077   3.842 -31.600  1.00  0.00     0.185 C 
BRANCH   7   8
HETATM    8  C   UNL     1      -4.741   2.870 -32.561  1.00  0.00     0.231 C 
HETATM    9  N   UNL     1      -4.595   1.544 -32.178  1.00  0.00    -0.326 N 
HETATM   10  H   UNL     1      -3.954   1.373 -31.412  1.00  0.00     0.169 HD
HETATM   11  O   UNL     1      -5.373   3.275 -33.532  1.00  0.00    -0.272 OA
BRANCH   9  12
HETATM   12  C   UNL     1      -5.180   0.406 -32.774  1.00  0.00     0.037 A 
HETATM   13  C   UNL     1      -4.445  -0.704 -33.206  1.00  0.00     0.061 A 
HETATM   14  C   UNL     1      -5.149  -1.733 -33.793  1.00  0.00     0.065 A 
HETATM   15  C   UNL     1      -6.530  -1.696 -33.957  1.00  0.00     0.063 A 
HETATM   16  N   UNL     1      -4.688  -2.936 -34.317  1.00  0.00    -0.306 N 
HETATM   17  N   UNL     1      -6.920  -2.876 -34.580  1.00  0.00    -0.307 N 
HETATM   18  C   UNL     1      -7.284  -0.628 -33.544  1.00  0.00     0.034 A 
HETATM   19  C   UNL     1      -5.781  -3.661 -34.812  1.00  0.00     0.325 A 
HETATM   20  H   UNL     1      -7.852  -3.155 -34.840  1.00  0.00     0.170 HD
HETATM   21  O   UNL     1      -5.750  -4.756 -35.345  1.00  0.00    -0.247 OA
HETATM   22  C   UNL     1      -6.591   0.436 -32.948  1.00  0.00     0.032 A 
HETATM   23  H   UNL     1      -3.734  -3.259 -34.351  1.00  0.00     0.170 HD
ENDBRANCH   9  12
ENDBRANCH   7   8
ENDBRANCH   6   7
ENDBRANCH   2   6
BRANCH   1  24
HETATM   24  C   UNL     1      -2.577   7.330 -30.124  1.00  0.00     0.043 A 
HETATM   25  C   UNL     1      -2.450   8.552 -30.801  1.00  0.00     0.030 A 
HETATM   26  C   UNL     1      -3.340   9.596 -30.538  1.00  0.00     0.002 A 
HETATM   27  C   UNL     1      -4.357   9.429 -29.601  1.00  0.00     0.000 A 
HETATM   28  C   UNL     1      -4.488   8.218 -28.925  1.00  0.00     0.002 A 
HETATM   29  C   UNL     1      -3.602   7.169 -29.182  1.00  0.00     0.030 A 
ENDBRANCH   1  24
BRANCH   5  30
HETATM   30  C   UNL     1       0.156   6.687 -28.665  1.00  0.00     0.012 A 
HETATM   31  C   UNL     1       0.006   6.350 -27.312  1.00  0.00     0.017 A 
HETATM   32  C   UNL     1       0.637   7.105 -26.318  1.00  0.00     0.025 A 
HETATM   33  C   UNL     1       1.408   8.210 -26.671  1.00  0.00     0.034 A 
HETATM   34 CL   UNL     1       2.184   9.137 -25.448  1.00  0.00    -0.084 Cl
HETATM   35  C   UNL     1       1.548   8.572 -28.009  1.00  0.00     0.025 A 
HETATM   36  C   UNL     1       0.919   7.816 -29.001  1.00  0.00     0.017 A 
ENDBRANCH   5  30
TORSDOF 6
ENDMDL
MODEL 4
REMARK VINA RESULT:      -8.9      1.936      3.311
REMARK  6 active torsions:
REMARK  status: ('A' for Active; 'I' for Inactive)
REMARK    1  A    between atoms: C_4  and  N_5 
REMARK    2  A    between atoms: C_6  and  S_7 
REMARK    3  A    between atoms: S_7  and  C_8 
REMARK    4  A    between atoms: C_8  and  C_9 
REMARK       I    between atoms: C_9  and  N_10 
REMARK    5  A    between atoms: N_10  and  C_11 
REMARK    6  A    between atoms: C_24  and  C_25 
ROOT
HETATM    1  N   UNL     1      -6.144   3.066 -31.832  1.00  0.00    -0.271 N 
HETATM    2  C   UNL     1      -7.005   3.697 -30.944  1.00  0.00     0.197 A 
HETATM    3  N   UNL     1      -7.721   2.811 -30.294  1.00  0.00    -0.122 NA
HETATM    4  N   UNL     1      -7.358   1.573 -30.731  1.00  0.00    -0.128 NA
HETATM    5  C   UNL     1      -6.443   1.708 -31.676  1.00  0.00     0.169 A 
ENDROOT
BRANCH   2   6
HETATM    6  S   UNL     1      -7.029   5.394 -30.571  1.00  0.00    -0.080 SA
BRANCH   6   7
HETATM    7  C   UNL     1      -8.173   5.987 -31.858  1.00  0.00     0.185 C 
BRANCH   7   8
HETATM    8  C   UNL     1      -9.417   5.116 -31.912  1.00  0.00     0.231 C 
HETATM    9  N   UNL     1      -9.429   4.253 -32.999  1.00  0.00    -0.326 N 
HETATM   10  H   UNL     1      -8.705   4.404 -33.691  1.00  0.00     0.169 HD
HETATM   11  O   UNL     1     -10.269   5.177 -31.029  1.00  0.00    -0.272 OA
BRANCH   9  12
HETATM   12  C   UNL     1     -10.369   3.239 -33.283  1.00  0.00     0.037 A 
HETATM   13  C   UNL     1     -11.687   3.496 -33.677  1.00  0.00     0.061 A 
HETATM   14  C   UNL     1     -12.500   2.406 -33.898  1.00  0.00     0.065 A 
HETATM   15  C   UNL     1     -12.054   1.097 -33.745  1.00  0.00     0.063 A 
HETATM   16  N   UNL     1     -13.836   2.360 -34.281  1.00  0.00    -0.306 N 
HETATM   17  N   UNL     1     -13.113   0.245 -34.037  1.00  0.00    -0.307 N 
HETATM   18  C   UNL     1     -10.769   0.805 -33.364  1.00  0.00     0.034 A 
HETATM   19  C   UNL     1     -14.234   1.019 -34.373  1.00  0.00     0.325 A 
HETATM   20  H   UNL     1     -13.115  -0.761 -34.018  1.00  0.00     0.170 HD
HETATM   21  O   UNL     1     -15.337   0.603 -34.679  1.00  0.00    -0.247 OA
HETATM   22  C   UNL     1      -9.922   1.898 -33.128  1.00  0.00     0.032 A 
HETATM   23  H   UNL     1     -14.443   3.143 -34.468  1.00  0.00     0.170 HD
ENDBRANCH   9  12
ENDBRANCH   7   8
ENDBRANCH   6   7
ENDBRANCH   2   6
BRANCH   1  24
HETATM   24  C   UNL     1      -5.159   3.640 -32.686  1.00  0.00     0.043 A 
HETATM   25  C   UNL     1      -5.546   4.283 -33.870  1.00  0.00     0.030 A 
HETATM   26  C   UNL     1      -4.586   4.868 -34.698  1.00  0.00     0.002 A 
HETATM   27  C   UNL     1      -3.238   4.816 -34.352  1.00  0.00     0.000 A 
HETATM   28  C   UNL     1      -2.846   4.177 -33.177  1.00  0.00     0.002 A 
HETATM   29  C   UNL     1      -3.801   3.590 -32.343  1.00  0.00     0.030 A 
ENDBRANCH   1  24
BRANCH   5  30
HETATM   30  C   UNL     1      -5.932   0.580 -32.460  1.00  0.00     0.012 A 
HETATM   31  C   UNL     1      -6.591   0.119 -33.609  1.00  0.00     0.017 A 
HETATM   32  C   UNL     1      -6.088  -0.972 -34.326  1.00  0.00     0.025 A 
HETATM   33  C   UNL     1      -4.933  -1.616 -33.889  1.00  0.00     0.034 A 
HETATM   34 CL   UNL     1      -4.315  -2.957 -34.771  1.00  0.00    -0.084 Cl
HETATM   35  C   UNL     1      -4.279  -1.184 -32.737  1.00  0.00     0.025 A 
HETATM   36  C   UNL     1      -4.781  -0.094 -32.023  1.00  0.00     0.017 A 
ENDBRANCH   5  30
TORSDOF 6
ENDMDL
MODEL 5
REMARK VINA RESULT:      -8.7      2.226      3.386
REMARK  6 active torsions:
REMARK  status: ('A' for Active; 'I' for Inactive)
REMARK    1  A    between atoms: C_4  and  N_5 
REMARK    2  A    between atoms: C_6  and  S_7 
REMARK    3  A    between atoms: S_7  and  C_8 
REMARK    4  A    between atoms: C_8  and  C_9 
REMARK       I    between atoms: C_9  and  N_10 
REMARK    5  A    between atoms: N_10  and  C_11 
REMARK    6  A    between atoms: C_24  and  C_25 
ROOT
HETATM    1  N   UNL     1      -5.548   3.709 -32.032  1.00  0.00    -0.271 N 
HETATM    2  C   UNL     1      -6.307   4.494 -31.175  1.00  0.00     0.197 A 
HETATM    3  N   UNL     1      -7.066   3.740 -30.415  1.00  0.00    -0.122 NA
HETATM    4  N   UNL     1      -6.833   2.439 -30.746  1.00  0.00    -0.128 NA
HETATM    5  C   UNL     1      -5.956   2.404 -31.735  1.00  0.00     0.169 A 
ENDROOT
BRANCH   2   6
HETATM    6  S   UNL     1      -6.167   6.214 -30.966  1.00  0.00    -0.080 SA
BRANCH   6   7
HETATM    7  C   UNL     1      -7.040   6.789 -32.456  1.00  0.00     0.185 C 
BRANCH   7   8
HETATM    8  C   UNL     1      -8.401   6.121 -32.572  1.00  0.00     0.231 C 
HETATM    9  N   UNL     1      -8.457   5.175 -33.586  1.00  0.00    -0.326 N 
HETATM   10  H   UNL     1      -7.659   5.149 -34.210  1.00  0.00     0.169 HD
HETATM   11  O   UNL     1      -9.306   6.393 -31.787  1.00  0.00    -0.272 OA
BRANCH   9  12
HETATM   12  C   UNL     1      -9.520   4.298 -33.887  1.00  0.00     0.037 A 
HETATM   13  C   UNL     1      -9.807   3.146 -33.146  1.00  0.00     0.061 A 
HETATM   14  C   UNL     1     -10.862   2.371 -33.572  1.00  0.00     0.065 A 
HETATM   15  C   UNL     1     -11.629   2.699 -34.686  1.00  0.00     0.063 A 
HETATM   16  N   UNL     1     -11.360   1.184 -33.044  1.00  0.00    -0.306 N 
HETATM   17  N   UNL     1     -12.600   1.717 -34.843  1.00  0.00    -0.307 N 
HETATM   18  C   UNL     1     -11.381   3.820 -35.436  1.00  0.00     0.034 A 
HETATM   19  C   UNL     1     -12.445   0.763 -33.826  1.00  0.00     0.325 A 
HETATM   20  H   UNL     1     -13.309   1.662 -35.556  1.00  0.00     0.170 HD
HETATM   21  O   UNL     1     -13.121  -0.237 -33.660  1.00  0.00    -0.247 OA
HETATM   22  C   UNL     1     -10.308   4.624 -35.025  1.00  0.00     0.032 A 
HETATM   23  H   UNL     1     -11.020   0.687 -32.237  1.00  0.00     0.170 HD
ENDBRANCH   9  12
ENDBRANCH   7   8
ENDBRANCH   6   7
ENDBRANCH   2   6
BRANCH   1  24
HETATM   24  C   UNL     1      -4.559   4.111 -32.975  1.00  0.00     0.043 A 
HETATM   25  C   UNL     1      -4.947   4.618 -34.224  1.00  0.00     0.030 A 
HETATM   26  C   UNL     1      -3.981   5.036 -35.143  1.00  0.00     0.002 A 
HETATM   27  C   UNL     1      -2.628   4.949 -34.824  1.00  0.00     0.000 A 
HETATM   28  C   UNL     1      -2.236   4.444 -33.585  1.00  0.00     0.002 A 
HETATM   29  C   UNL     1      -3.196   4.025 -32.661  1.00  0.00     0.030 A 
ENDBRANCH   1  24
BRANCH   5  30
HETATM   30  C   UNL     1      -5.582   1.167 -32.427  1.00  0.00     0.012 A 
HETATM   31  C   UNL     1      -4.373   0.507 -32.160  1.00  0.00     0.017 A 
HETATM   32  C   UNL     1      -4.036  -0.661 -32.851  1.00  0.00     0.025 A 
HETATM   33  C   UNL     1      -4.897  -1.167 -33.822  1.00  0.00     0.034 A 
HETATM   34 CL   UNL     1      -4.481  -2.604 -34.670  1.00  0.00    -0.084 Cl
HETATM   35  C   UNL     1      -6.091  -0.511 -34.114  1.00  0.00     0.025 A 
HETATM   36  C   UNL     1      -6.428   0.655 -33.423  1.00  0.00     0.017 A 
ENDBRANCH   5  30
TORSDOF 6
ENDMDL
MODEL 6
REMARK VINA RESULT:      -8.7      4.494      7.962
REMARK  6 active torsions:
REMARK  status: ('A' for Active; 'I' for Inactive)
REMARK    1  A    between atoms: C_4  and  N_5 
REMARK    2  A    between atoms: C_6  and  S_7 
REMARK    3  A    between atoms: S_7  and  C_8 
REMARK    4  A    between atoms: C_8  and  C_9 
REMARK       I    between atoms: C_9  and  N_10 
REMARK    5  A    between atoms: N_10  and  C_11 
REMARK    6  A    between atoms: C_24  and  C_25 
ROOT
HETATM    1  N   UNL     1      -5.079   1.344 -32.217  1.00  0.00    -0.271 N 
HETATM    2  C   UNL     1      -4.625   2.508 -31.612  1.00  0.00     0.197 A 
HETATM    3  N   UNL     1      -3.359   2.392 -31.288  1.00  0.00    -0.122 NA
HETATM    4  N   UNL     1      -2.939   1.153 -31.668  1.00  0.00    -0.128 NA
HETATM    5  C   UNL     1      -3.963   0.500 -32.192  1.00  0.00     0.169 A 
ENDROOT
BRANCH   2   6
HETATM    6  S   UNL     1      -5.510   3.995 -31.458  1.00  0.00    -0.080 SA
BRANCH   6   7
HETATM    7  C   UNL     1      -4.766   4.951 -32.816  1.00  0.00     0.185 C 
BRANCH   7   8
HETATM    8  C   UNL     1      -3.779   5.973 -32.276  1.00  0.00     0.231 C 
HETATM    9  N   UNL     1      -3.089   5.523 -31.159  1.00  0.00    -0.326 N 
HETATM   10  H   UNL     1      -3.421   4.655 -30.755  1.00  0.00     0.169 HD
HETATM   11  O   UNL     1      -3.614   7.051 -32.841  1.00  0.00    -0.272 OA
BRANCH   9  12
HETATM   12  C   UNL     1      -2.029   6.166 -30.486  1.00  0.00     0.037 A 
HETATM   13  C   UNL     1      -2.209   6.984 -29.364  1.00  0.00     0.061 A 
HETATM   14  C   UNL     1      -1.084   7.566 -28.824  1.00  0.00     0.065 A 
HETATM   15  C   UNL     1       0.189   7.363 -29.350  1.00  0.00     0.063 A 
HETATM   16  N   UNL     1      -0.964   8.421 -27.733  1.00  0.00    -0.306 N 
HETATM   17  N   UNL     1       1.092   8.090 -28.582  1.00  0.00    -0.307 N 
HETATM   18  C   UNL     1       0.406   6.567 -30.445  1.00  0.00     0.034 A 
HETATM   19  C   UNL     1       0.387   8.757 -27.568  1.00  0.00     0.325 A 
HETATM   20  H   UNL     1       2.089   8.155 -28.704  1.00  0.00     0.170 HD
HETATM   21  O   UNL     1       0.859   9.487 -26.716  1.00  0.00    -0.247 OA
HETATM   22  C   UNL     1      -0.725   5.966 -31.017  1.00  0.00     0.032 A 
HETATM   23  H   UNL     1      -1.706   8.760 -27.142  1.00  0.00     0.170 HD
ENDBRANCH   9  12
ENDBRANCH   7   8
ENDBRANCH   6   7
ENDBRANCH   2   6
BRANCH   1  24
HETATM   24  C   UNL     1      -6.361   1.063 -32.772  1.00  0.00     0.043 A 
HETATM   25  C   UNL     1      -7.350   0.462 -31.980  1.00  0.00     0.030 A 
HETATM   26  C   UNL     1      -8.616   0.207 -32.512  1.00  0.00     0.002 A 
HETATM   27  C   UNL     1      -8.902   0.547 -33.832  1.00  0.00     0.000 A 
HETATM   28  C   UNL     1      -7.923   1.144 -34.624  1.00  0.00     0.002 A 
HETATM   29  C   UNL     1      -6.654   1.402 -34.099  1.00  0.00     0.030 A 
ENDBRANCH   1  24
BRANCH   5  30
HETATM   30  C   UNL     1      -3.896  -0.912 -32.580  1.00  0.00     0.012 A 
HETATM   31  C   UNL     1      -4.531  -1.391 -33.736  1.00  0.00     0.017 A 
HETATM   32  C   UNL     1      -4.465  -2.747 -34.071  1.00  0.00     0.025 A 
HETATM   33  C   UNL     1      -3.778  -3.633 -33.244  1.00  0.00     0.034 A 
HETATM   34 CL   UNL     1      -3.697  -5.301 -33.657  1.00  0.00    -0.084 Cl
HETATM   35  C   UNL     1      -3.162  -3.177 -32.081  1.00  0.00     0.025 A 
HETATM   36  C   UNL     1      -3.227  -1.822 -31.748  1.00  0.00     0.017 A 
ENDBRANCH   5  30
TORSDOF 6
ENDMDL
MODEL 7
REMARK VINA RESULT:      -8.7      3.385      6.710
REMARK  6 active torsions:
REMARK  status: ('A' for Active; 'I' for Inactive)
REMARK    1  A    between atoms: C_4  and  N_5 
REMARK    2  A    between atoms: C_6  and  S_7 
REMARK    3  A    between atoms: S_7  and  C_8 
REMARK    4  A    between atoms: C_8  and  C_9 
REMARK       I    between atoms: C_9  and  N_10 
REMARK    5  A    between atoms: N_10  and  C_11 
REMARK    6  A    between atoms: C_24  and  C_25 
ROOT
HETATM    1  N   UNL     1      -7.360   0.748 -33.262  1.00  0.00    -0.271 N 
HETATM    2  C   UNL     1      -8.281   1.637 -33.800  1.00  0.00     0.197 A 
HETATM    3  N   UNL     1      -8.723   1.195 -34.954  1.00  0.00    -0.122 NA
HETATM    4  N   UNL     1      -8.110   0.006 -35.212  1.00  0.00    -0.128 NA
HETATM    5  C   UNL     1      -7.265  -0.258 -34.229  1.00  0.00     0.169 A 
ENDROOT
BRANCH   2   6
HETATM    6  S   UNL     1      -8.931   3.042 -33.011  1.00  0.00    -0.080 SA
BRANCH   6   7
HETATM    7  C   UNL     1      -8.296   4.347 -34.110  1.00  0.00     0.185 C 
BRANCH   7   8
HETATM    8  C   UNL     1      -7.069   5.008 -33.503  1.00  0.00     0.231 C 
HETATM    9  N   UNL     1      -5.881   4.393 -33.875  1.00  0.00    -0.326 N 
HETATM   10  H   UNL     1      -5.975   3.512 -34.366  1.00  0.00     0.169 HD
HETATM   11  O   UNL     1      -7.174   6.013 -32.805  1.00  0.00    -0.272 OA
BRANCH   9  12
HETATM   12  C   UNL     1      -4.566   4.817 -33.588  1.00  0.00     0.037 A 
HETATM   13  C   UNL     1      -4.013   4.804 -32.302  1.00  0.00     0.061 A 
HETATM   14  C   UNL     1      -2.723   5.270 -32.168  1.00  0.00     0.065 A 
HETATM   15  C   UNL     1      -1.981   5.736 -33.249  1.00  0.00     0.063 A 
HETATM   16  N   UNL     1      -1.936   5.381 -31.028  1.00  0.00    -0.306 N 
HETATM   17  N   UNL     1      -0.735   6.132 -32.775  1.00  0.00    -0.307 N 
HETATM   18  C   UNL     1      -2.487   5.762 -34.523  1.00  0.00     0.034 A 
HETATM   19  C   UNL     1      -0.692   5.918 -31.389  1.00  0.00     0.325 A 
HETATM   20  H   UNL     1       0.030   6.516 -33.305  1.00  0.00     0.170 HD
HETATM   21  O   UNL     1       0.244   6.157 -30.648  1.00  0.00    -0.247 OA
HETATM   22  C   UNL     1      -3.800   5.297 -34.685  1.00  0.00     0.032 A 
HETATM   23  H   UNL     1      -2.189   5.129 -30.086  1.00  0.00     0.170 HD
ENDBRANCH   9  12
ENDBRANCH   7   8
ENDBRANCH   6   7
ENDBRANCH   2   6
BRANCH   1  24
HETATM   24  C   UNL     1      -6.685   0.807 -32.009  1.00  0.00     0.043 A 
HETATM   25  C   UNL     1      -7.098  -0.016 -30.951  1.00  0.00     0.030 A 
HETATM   26  C   UNL     1      -6.424   0.021 -29.728  1.00  0.00     0.002 A 
HETATM   27  C   UNL     1      -5.339   0.876 -29.553  1.00  0.00     0.000 A 
HETATM   28  C   UNL     1      -4.925   1.698 -30.600  1.00  0.00     0.002 A 
HETATM   29  C   UNL     1      -5.594   1.667 -31.826  1.00  0.00     0.030 A 
ENDBRANCH   1  24
BRANCH   5  30
HETATM   30  C   UNL     1      -6.340  -1.394 -34.255  1.00  0.00     0.012 A 
HETATM   31  C   UNL     1      -6.749  -2.672 -34.666  1.00  0.00     0.017 A 
HETATM   32  C   UNL     1      -5.847  -3.741 -34.661  1.00  0.00     0.025 A 
HETATM   33  C   UNL     1      -4.537  -3.542 -34.232  1.00  0.00     0.034 A 
HETATM   34 CL   UNL     1      -3.429  -4.857 -34.227  1.00  0.00    -0.084 Cl
HETATM   35  C   UNL     1      -4.121  -2.284 -33.800  1.00  0.00     0.025 A 
HETATM   36  C   UNL     1      -5.023  -1.217 -33.806  1.00  0.00     0.017 A 
ENDBRANCH   5  30
TORSDOF 6
ENDMDL
MODEL 8
REMARK VINA RESULT:      -8.6      4.928      9.118
REMARK  6 active torsions:
REMARK  status: ('A' for Active; 'I' for Inactive)
REMARK    1  A    between atoms: C_4  and  N_5 
REMARK    2  A    between atoms: C_6  and  S_7 
REMARK    3  A    between atoms: S_7  and  C_8 
REMARK    4  A    between atoms: C_8  and  C_9 
REMARK       I    between atoms: C_9  and  N_10 
REMARK    5  A    between atoms: N_10  and  C_11 
REMARK    6  A    between atoms: C_24  and  C_25 
ROOT
HETATM    1  N   UNL     1      -7.410   2.800 -33.916  1.00  0.00    -0.271 N 
HETATM    2  C   UNL     1      -6.516   3.861 -33.871  1.00  0.00     0.197 A 
HETATM    3  N   UNL     1      -7.162   5.003 -33.857  1.00  0.00    -0.122 NA
HETATM    4  N   UNL     1      -8.497   4.732 -33.893  1.00  0.00    -0.128 NA
HETATM    5  C   UNL     1      -8.662   3.422 -33.966  1.00  0.00     0.169 A 
ENDROOT
BRANCH   2   6
HETATM    6  S   UNL     1      -4.795   3.743 -33.665  1.00  0.00    -0.080 SA
BRANCH   6   7
HETATM    7  C   UNL     1      -4.257   5.183 -34.640  1.00  0.00     0.185 C 
BRANCH   7   8
HETATM    8  C   UNL     1      -3.209   5.983 -33.884  1.00  0.00     0.231 C 
HETATM    9  N   UNL     1      -3.057   5.570 -32.568  1.00  0.00    -0.326 N 
HETATM   10  H   UNL     1      -3.746   4.909 -32.229  1.00  0.00     0.169 HD
HETATM   11  O   UNL     1      -2.557   6.859 -34.446  1.00  0.00    -0.272 OA
BRANCH   9  12
HETATM   12  C   UNL     1      -2.100   6.016 -31.631  1.00  0.00     0.037 A 
HETATM   13  C   UNL     1      -2.332   7.058 -30.726  1.00  0.00     0.061 A 
HETATM   14  C   UNL     1      -1.296   7.402 -29.885  1.00  0.00     0.065 A 
HETATM   15  C   UNL     1      -0.065   6.754 -29.912  1.00  0.00     0.063 A 
HETATM   16  N   UNL     1      -1.239   8.390 -28.908  1.00  0.00    -0.306 N 
HETATM   17  N   UNL     1       0.750   7.341 -28.951  1.00  0.00    -0.307 N 
HETATM   18  C   UNL     1       0.199   5.728 -30.782  1.00  0.00     0.034 A 
HETATM   19  C   UNL     1       0.032   8.365 -28.315  1.00  0.00     0.325 A 
HETATM   20  H   UNL     1       1.701   7.102 -28.723  1.00  0.00     0.170 HD
HETATM   21  O   UNL     1       0.438   9.091 -27.425  1.00  0.00    -0.247 OA
HETATM   22  C   UNL     1      -0.838   5.362 -31.653  1.00  0.00     0.032 A 
HETATM   23  H   UNL     1      -1.970   9.032 -28.647  1.00  0.00     0.170 HD
ENDBRANCH   9  12
ENDBRANCH   7   8
ENDBRANCH   6   7
ENDBRANCH   2   6
BRANCH   1  24
HETATM   24  C   UNL     1      -7.142   1.401 -33.886  1.00  0.00     0.043 A 
HETATM   25  C   UNL     1      -6.867   0.767 -32.666  1.00  0.00     0.030 A 
HETATM   26  C   UNL     1      -6.627  -0.609 -32.628  1.00  0.00     0.002 A 
HETATM   27  C   UNL     1      -6.659  -1.357 -33.803  1.00  0.00     0.000 A 
HETATM   28  C   UNL     1      -6.930  -0.732 -35.019  1.00  0.00     0.002 A 
HETATM   29  C   UNL     1      -7.171   0.643 -35.065  1.00  0.00     0.030 A 
ENDBRANCH   1  24
BRANCH   5  30
HETATM   30  C   UNL     1      -9.971   2.792 -34.158  1.00  0.00     0.012 A 
HETATM   31  C   UNL     1     -10.913   3.303 -35.064  1.00  0.00     0.017 A 
HETATM   32  C   UNL     1     -12.161   2.690 -35.211  1.00  0.00     0.025 A 
HETATM   33  C   UNL     1     -12.480   1.573 -34.443  1.00  0.00     0.034 A 
HETATM   34 CL   UNL     1     -14.015   0.820 -34.626  1.00  0.00    -0.084 Cl
HETATM   35  C   UNL     1     -11.565   1.066 -33.523  1.00  0.00     0.025 A 
HETATM   36  C   UNL     1     -10.317   1.678 -33.378  1.00  0.00     0.017 A 
ENDBRANCH   5  30
TORSDOF 6
ENDMDL
MODEL 9
REMARK VINA RESULT:      -8.6      2.421      3.831
REMARK  6 active torsions:
REMARK  status: ('A' for Active; 'I' for Inactive)
REMARK    1  A    between atoms: C_4  and  N_5 
REMARK    2  A    between atoms: C_6  and  S_7 
REMARK    3  A    between atoms: S_7  and  C_8 
REMARK    4  A    between atoms: C_8  and  C_9 
REMARK       I    between atoms: C_9  and  N_10 
REMARK    5  A    between atoms: N_10  and  C_11 
REMARK    6  A    between atoms: C_24  and  C_25 
ROOT
HETATM    1  N   UNL     1      -4.697   4.103 -31.699  1.00  0.00    -0.271 N 
HETATM    2  C   UNL     1      -5.287   4.905 -30.731  1.00  0.00     0.197 A 
HETATM    3  N   UNL     1      -5.914   4.167 -29.846  1.00  0.00    -0.122 NA
HETATM    4  N   UNL     1      -5.758   2.860 -30.200  1.00  0.00    -0.128 NA
HETATM    5  C   UNL     1      -5.065   2.806 -31.325  1.00  0.00     0.169 A 
ENDROOT
BRANCH   2   6
HETATM    6  S   UNL     1      -5.091   6.623 -30.565  1.00  0.00    -0.080 SA
BRANCH   6   7
HETATM    7  C   UNL     1      -6.198   7.201 -31.889  1.00  0.00     0.185 C 
BRANCH   7   8
HETATM    8  C   UNL     1      -7.474   6.376 -31.920  1.00  0.00     0.231 C 
HETATM    9  N   UNL     1      -7.538   5.517 -33.009  1.00  0.00    -0.326 N 
HETATM   10  H   UNL     1      -6.824   5.645 -33.716  1.00  0.00     0.169 HD
HETATM   11  O   UNL     1      -8.304   6.463 -31.019  1.00  0.00    -0.272 OA
BRANCH   9  12
HETATM   12  C   UNL     1      -8.519   4.539 -33.276  1.00  0.00     0.037 A 
HETATM   13  C   UNL     1      -9.394   4.599 -34.368  1.00  0.00     0.061 A 
HETATM   14  C   UNL     1     -10.317   3.584 -34.490  1.00  0.00     0.065 A 
HETATM   15  C   UNL     1     -10.396   2.532 -33.583  1.00  0.00     0.063 A 
HETATM   16  N   UNL     1     -11.302   3.393 -35.453  1.00  0.00    -0.306 N 
HETATM   17  N   UNL     1     -11.426   1.692 -33.988  1.00  0.00    -0.307 N 
HETATM   18  C   UNL     1      -9.555   2.436 -32.504  1.00  0.00     0.034 A 
HETATM   19  C   UNL     1     -12.003   2.217 -35.154  1.00  0.00     0.325 A 
HETATM   20  H   UNL     1     -11.739   0.844 -33.544  1.00  0.00     0.170 HD
HETATM   21  O   UNL     1     -12.934   1.742 -35.780  1.00  0.00    -0.247 OA
HETATM   22  C   UNL     1      -8.608   3.461 -32.354  1.00  0.00     0.032 A 
HETATM   23  H   UNL     1     -11.503   3.985 -36.243  1.00  0.00     0.170 HD
ENDBRANCH   9  12
ENDBRANCH   7   8
ENDBRANCH   6   7
ENDBRANCH   2   6
BRANCH   1  24
HETATM   24  C   UNL     1      -3.878   4.484 -32.801  1.00  0.00     0.043 A 
HETATM   25  C   UNL     1      -2.484   4.516 -32.659  1.00  0.00     0.030 A 
HETATM   26  C   UNL     1      -1.675   4.866 -33.743  1.00  0.00     0.002 A 
HETATM   27  C   UNL     1      -2.251   5.186 -34.970  1.00  0.00     0.000 A 
HETATM   28  C   UNL     1      -3.636   5.157 -35.117  1.00  0.00     0.002 A 
HETATM   29  C   UNL     1      -4.451   4.808 -34.038  1.00  0.00     0.030 A 
ENDBRANCH   1  24
BRANCH   5  30
HETATM   30  C   UNL     1      -4.831   1.559 -32.060  1.00  0.00     0.012 A 
HETATM   31  C   UNL     1      -5.778   1.040 -32.955  1.00  0.00     0.017 A 
HETATM   32  C   UNL     1      -5.534  -0.161 -33.628  1.00  0.00     0.025 A 
HETATM   33  C   UNL     1      -4.350  -0.858 -33.397  1.00  0.00     0.034 A 
HETATM   34 CL   UNL     1      -4.051  -2.335 -34.224  1.00  0.00    -0.084 Cl
HETATM   35  C   UNL     1      -3.410  -0.368 -32.493  1.00  0.00     0.025 A 
HETATM   36  C   UNL     1      -3.653   0.834 -31.823  1.00  0.00     0.017 A 
ENDBRANCH   5  30
TORSDOF 6
ENDMDL
MODEL 10
REMARK VINA RESULT:      -8.4      6.146      9.783
REMARK  6 active torsions:
REMARK  status: ('A' for Active; 'I' for Inactive)
REMARK    1  A    between atoms: C_4  and  N_5 
REMARK    2  A    between atoms: C_6  and  S_7 
REMARK    3  A    between atoms: S_7  and  C_8 
REMARK    4  A    between atoms: C_8  and  C_9 
REMARK       I    between atoms: C_9  and  N_10 
REMARK    5  A    between atoms: N_10  and  C_11 
REMARK    6  A    between atoms: C_24  and  C_25 
ROOT
HETATM    1  N   UNL     1      -5.048   3.935 -31.785  1.00  0.00    -0.271 N 
HETATM    2  C   UNL     1      -5.623   4.718 -30.793  1.00  0.00     0.197 A 
HETATM    3  N   UNL     1      -6.309   3.971 -29.960  1.00  0.00    -0.122 NA
HETATM    4  N   UNL     1      -6.209   2.678 -30.375  1.00  0.00    -0.128 NA
HETATM    5  C   UNL     1      -5.490   2.642 -31.484  1.00  0.00     0.169 A 
ENDROOT
BRANCH   2   6
HETATM    6  S   UNL     1      -5.346   6.414 -30.536  1.00  0.00    -0.080 SA
BRANCH   6   7
HETATM    7  C   UNL     1      -4.826   6.392 -28.792  1.00  0.00     0.185 C 
BRANCH   7   8
HETATM    8  C   UNL     1      -3.669   7.352 -28.565  1.00  0.00     0.231 C 
HETATM    9  N   UNL     1      -2.665   6.813 -27.771  1.00  0.00    -0.326 N 
HETATM   10  H   UNL     1      -2.881   5.930 -27.324  1.00  0.00     0.169 HD
HETATM   11  O   UNL     1      -3.653   8.459 -29.096  1.00  0.00    -0.272 OA
BRANCH   9  12
HETATM   12  C   UNL     1      -1.412   7.385 -27.463  1.00  0.00     0.037 A 
HETATM   13  C   UNL     1      -1.126   8.007 -26.242  1.00  0.00     0.061 A 
HETATM   14  C   UNL     1       0.134   8.542 -26.090  1.00  0.00     0.065 A 
HETATM   15  C   UNL     1       1.100   8.477 -27.090  1.00  0.00     0.063 A 
HETATM   16  N   UNL     1       0.685   9.217 -25.006  1.00  0.00    -0.306 N 
HETATM   17  N   UNL     1       2.246   9.109 -26.622  1.00  0.00    -0.307 N 
HETATM   18  C   UNL     1       0.858   7.874 -28.297  1.00  0.00     0.034 A 
HETATM   19  C   UNL     1       2.003   9.578 -25.322  1.00  0.00     0.325 A 
HETATM   20  H   UNL     1       3.120   9.234 -27.106  1.00  0.00     0.170 HD
HETATM   21  O   UNL     1       2.785  10.183 -24.611  1.00  0.00    -0.247 OA
HETATM   22  C   UNL     1      -0.420   7.325 -28.479  1.00  0.00     0.032 A 
HETATM   23  H   UNL     1       0.238   9.428 -24.129  1.00  0.00     0.170 HD
ENDBRANCH   9  12
ENDBRANCH   7   8
ENDBRANCH   6   7
ENDBRANCH   2   6
BRANCH   1  24
HETATM   24  C   UNL     1      -4.183   4.327 -32.846  1.00  0.00     0.043 A 
HETATM   25  C   UNL     1      -2.793   4.229 -32.689  1.00  0.00     0.030 A 
HETATM   26  C   UNL     1      -1.941   4.590 -33.736  1.00  0.00     0.002 A 
HETATM   27  C   UNL     1      -2.468   5.049 -34.941  1.00  0.00     0.000 A 
HETATM   28  C   UNL     1      -3.849   5.150 -35.102  1.00  0.00     0.002 A 
HETATM   29  C   UNL     1      -4.707   4.791 -34.060  1.00  0.00     0.030 A 
ENDBRANCH   1  24
BRANCH   5  30
HETATM   30  C   UNL     1      -5.299   1.423 -32.274  1.00  0.00     0.012 A 
HETATM   31  C   UNL     1      -6.117   1.118 -33.373  1.00  0.00     0.017 A 
HETATM   32  C   UNL     1      -5.922  -0.063 -34.096  1.00  0.00     0.025 A 
HETATM   33  C   UNL     1      -4.920  -0.953 -33.716  1.00  0.00     0.034 A 
HETATM   34 CL   UNL     1      -4.682  -2.404 -34.606  1.00  0.00    -0.084 Cl
HETATM   35  C   UNL     1      -4.114  -0.676 -32.613  1.00  0.00     0.025 A 
HETATM   36  C   UNL     1      -4.309   0.505 -31.892  1.00  0.00     0.017 A 
ENDBRANCH   5  30
TORSDOF 6
ENDMDL
