MODEL 1
REMARK VINA RESULT:      -8.7      0.000      0.000
REMARK  6 active torsions:
REMARK  status: ('A' for Active; 'I' for Inactive)
REMARK    1  A    between atoms: C_2  and  C_3 
REMARK       I    between atoms: C_3  and  N_4 
REMARK    2  A    between atoms: N_4  and  C_5 
REMARK    3  A    between atoms: C_8  and  N_9 
REMARK       I    between atoms: N_9  and  C_10 
REMARK    4  A    between atoms: C_10  and  C_11 
REMARK    5  A    between atoms: C_16  and  C_17 
REMARK    6  A    between atoms: C_23  and  C_24 
ROOT
HETATM    1  C   UNL     1      -4.449   5.080 -30.761  1.00  0.00     0.148 A 
HETATM    2  N   UNL     1      -3.334   5.311 -31.492  1.00  0.00    -0.165 NA
HETATM    3  N   UNL     1      -2.755   6.354 -30.866  1.00  0.00    -0.240 N 
HETATM    4  C   UNL     1      -3.460   6.807 -29.784  1.00  0.00     0.123 A 
HETATM    5  N   UNL     1      -3.048   7.873 -29.064  1.00  0.00    -0.364 N 
HETATM    6  C   UNL     1      -1.714   8.447 -29.250  1.00  0.00     0.143 C 
HETATM    7  C   UNL     1      -1.313   8.348 -30.733  1.00  0.00     0.068 C 
HETATM    8  C   UNL     1      -1.532   6.956 -31.359  1.00  0.00     0.221 C 
HETATM    9  C   UNL     1      -4.560   6.000 -29.683  1.00  0.00     0.089 A 
HETATM   10  H   UNL     1      -3.487   8.091 -28.172  1.00  0.00     0.162 HD
ENDROOT
BRANCH   1  11
HETATM   11  C   UNL     1      -5.395   4.000 -31.100  1.00  0.00     0.276 C 
HETATM   12  N   UNL     1      -4.789   3.009 -31.848  1.00  0.00    -0.322 N 
HETATM   13  H   UNL     1      -3.797   3.173 -32.004  1.00  0.00     0.169 HD
HETATM   14  O   UNL     1      -6.560   4.028 -30.721  1.00  0.00    -0.266 OA
BRANCH  12  15
HETATM   15  C   UNL     1      -5.366   1.855 -32.400  1.00  0.00     0.035 A 
HETATM   16  C   UNL     1      -6.115   1.844 -33.575  1.00  0.00     0.032 A 
HETATM   17  C   UNL     1      -6.629   0.642 -34.084  1.00  0.00     0.032 A 
HETATM   18  C   UNL     1      -6.403  -0.566 -33.426  1.00  0.00     0.034 A 
HETATM   19  C   UNL     1      -5.663  -0.551 -32.239  1.00  0.00     0.032 A 
HETATM   20  C   UNL     1      -5.148   0.648 -31.731  1.00  0.00     0.032 A 
BRANCH  18  21
HETATM   21  N   UNL     1      -6.854  -1.820 -33.888  1.00  0.00    -0.327 N 
HETATM   22  C   UNL     1      -6.149  -2.747 -34.634  1.00  0.00     0.221 C 
HETATM   23  O   UNL     1      -4.998  -2.632 -35.041  1.00  0.00    -0.273 OA
HETATM   24  H   UNL     1      -7.802  -2.061 -33.636  1.00  0.00     0.169 HD
BRANCH  22  25
HETATM   25  C   UNL     1      -6.920  -4.036 -34.881  1.00  0.00     0.098 C 
HETATM   26  C   UNL     1      -6.065  -5.173 -35.413  1.00  0.00     0.014 C 
ENDBRANCH  22  25
ENDBRANCH  18  21
ENDBRANCH  12  15
ENDBRANCH   1  11
BRANCH   8  27
HETATM   27  C   UNL     1      -0.367   6.010 -31.171  1.00  0.00     0.409 C 
HETATM   28  F   UNL     1      -0.256   5.138 -32.203  1.00  0.00    -0.169 F 
HETATM   29  F   UNL     1       0.801   6.701 -31.140  1.00  0.00    -0.169 F 
HETATM   30  F   UNL     1      -0.432   5.284 -30.041  1.00  0.00    -0.169 F 
ENDBRANCH   8  27
BRANCH   6  31
HETATM   31  C   UNL     1      -0.668   7.924 -28.322  1.00  0.00     0.075 A 
HETATM   32  O   UNL     1      -1.078   6.997 -27.407  1.00  0.00    -0.325 OA
HETATM   33  C   UNL     1       0.013   6.642 -26.682  1.00  0.00     0.142 A 
HETATM   34  C   UNL     1       1.124   7.323 -27.118  1.00  0.00     0.027 A 
HETATM   35  C   UNL     1       0.689   8.145 -28.184  1.00  0.00     0.037 A 
ENDBRANCH   6  31
TORSDOF 6
ENDMDL
MODEL 2
REMARK VINA RESULT:      -8.2      1.729      2.179
REMARK  6 active torsions:
REMARK  status: ('A' for Active; 'I' for Inactive)
REMARK    1  A    between atoms: C_2  and  C_3 
REMARK       I    between atoms: C_3  and  N_4 
REMARK    2  A    between atoms: N_4  and  C_5 
REMARK    3  A    between atoms: C_8  and  N_9 
REMARK       I    between atoms: N_9  and  C_10 
REMARK    4  A    between atoms: C_10  and  C_11 
REMARK    5  A    between atoms: C_16  and  C_17 
REMARK    6  A    between atoms: C_23  and  C_24 
ROOT
HETATM    1  C   UNL     1      -3.197   5.219 -31.331  1.00  0.00     0.148 A 
HETATM    2  N   UNL     1      -2.017   5.879 -31.255  1.00  0.00    -0.165 NA
HETATM    3  N   UNL     1      -2.295   6.933 -30.463  1.00  0.00    -0.240 N 
HETATM    4  C   UNL     1      -3.598   6.984 -30.051  1.00  0.00     0.123 A 
HETATM    5  N   UNL     1      -4.062   7.997 -29.286  1.00  0.00    -0.364 N 
HETATM    6  C   UNL     1      -3.151   8.957 -28.662  1.00  0.00     0.143 C 
HETATM    7  C   UNL     1      -1.955   9.215 -29.597  1.00  0.00     0.068 C 
HETATM    8  C   UNL     1      -1.296   7.936 -30.152  1.00  0.00     0.221 C 
HETATM    9  C   UNL     1      -4.210   5.885 -30.589  1.00  0.00     0.089 A 
HETATM   10  H   UNL     1      -4.980   7.933 -28.851  1.00  0.00     0.162 HD
ENDROOT
BRANCH   1  11
HETATM   11  C   UNL     1      -3.348   3.977 -32.112  1.00  0.00     0.276 C 
HETATM   12  N   UNL     1      -4.466   3.264 -31.724  1.00  0.00    -0.322 N 
HETATM   13  H   UNL     1      -5.009   3.731 -31.001  1.00  0.00     0.169 HD
HETATM   14  O   UNL     1      -2.553   3.676 -32.994  1.00  0.00    -0.266 OA
BRANCH  12  15
HETATM   15  C   UNL     1      -4.914   2.019 -32.190  1.00  0.00     0.035 A 
HETATM   16  C   UNL     1      -4.546   0.798 -31.628  1.00  0.00     0.032 A 
HETATM   17  C   UNL     1      -5.065  -0.406 -32.128  1.00  0.00     0.032 A 
HETATM   18  C   UNL     1      -5.959  -0.407 -33.198  1.00  0.00     0.034 A 
HETATM   19  C   UNL     1      -6.316   0.819 -33.771  1.00  0.00     0.032 A 
HETATM   20  C   UNL     1      -5.798   2.020 -33.271  1.00  0.00     0.032 A 
BRANCH  18  21
HETATM   21  N   UNL     1      -6.552  -1.567 -33.737  1.00  0.00    -0.327 N 
HETATM   22  C   UNL     1      -5.924  -2.601 -34.407  1.00  0.00     0.221 C 
HETATM   23  O   UNL     1      -4.727  -2.682 -34.666  1.00  0.00    -0.273 OA
HETATM   24  H   UNL     1      -7.551  -1.644 -33.610  1.00  0.00     0.169 HD
BRANCH  22  25
HETATM   25  C   UNL     1      -6.862  -3.742 -34.774  1.00  0.00     0.098 C 
HETATM   26  C   UNL     1      -6.196  -4.860 -35.556  1.00  0.00     0.014 C 
ENDBRANCH  22  25
ENDBRANCH  18  21
ENDBRANCH  12  15
ENDBRANCH   1  11
BRANCH   8  27
HETATM   27  C   UNL     1      -0.230   7.355 -29.251  1.00  0.00     0.409 C 
HETATM   28  F   UNL     1       0.771   6.779 -29.961  1.00  0.00    -0.169 F 
HETATM   29  F   UNL     1       0.352   8.337 -28.516  1.00  0.00    -0.169 F 
HETATM   30  F   UNL     1      -0.690   6.430 -28.389  1.00  0.00    -0.169 F 
ENDBRANCH   8  27
BRANCH   6  31
HETATM   31  C   UNL     1      -2.743   8.624 -27.265  1.00  0.00     0.075 A 
HETATM   32  O   UNL     1      -1.829   9.456 -26.685  1.00  0.00    -0.325 OA
HETATM   33  C   UNL     1      -1.611   8.996 -25.427  1.00  0.00     0.142 A 
HETATM   34  C   UNL     1      -2.374   7.879 -25.184  1.00  0.00     0.027 A 
HETATM   35  C   UNL     1      -3.114   7.642 -26.366  1.00  0.00     0.037 A 
ENDBRANCH   6  31
TORSDOF 6
ENDMDL
MODEL 3
REMARK VINA RESULT:      -8.1      2.951      3.644
REMARK  6 active torsions:
REMARK  status: ('A' for Active; 'I' for Inactive)
REMARK    1  A    between atoms: C_2  and  C_3 
REMARK       I    between atoms: C_3  and  N_4 
REMARK    2  A    between atoms: N_4  and  C_5 
REMARK    3  A    between atoms: C_8  and  N_9 
REMARK       I    between atoms: N_9  and  C_10 
REMARK    4  A    between atoms: C_10  and  C_11 
REMARK    5  A    between atoms: C_16  and  C_17 
REMARK    6  A    between atoms: C_23  and  C_24 
ROOT
HETATM    1  C   UNL     1      -4.327   4.716 -31.048  1.00  0.00     0.148 A 
HETATM    2  N   UNL     1      -3.191   4.945 -31.749  1.00  0.00    -0.165 NA
HETATM    3  N   UNL     1      -2.662   6.028 -31.148  1.00  0.00    -0.240 N 
HETATM    4  C   UNL     1      -3.417   6.509 -30.114  1.00  0.00     0.123 A 
HETATM    5  N   UNL     1      -3.058   7.615 -29.427  1.00  0.00    -0.364 N 
HETATM    6  C   UNL     1      -1.733   8.215 -29.590  1.00  0.00     0.143 C 
HETATM    7  C   UNL     1      -1.275   8.063 -31.053  1.00  0.00     0.068 C 
HETATM    8  C   UNL     1      -1.437   6.641 -31.624  1.00  0.00     0.221 C 
HETATM    9  C   UNL     1      -4.500   5.678 -30.017  1.00  0.00     0.089 A 
HETATM   10  H   UNL     1      -3.535   7.859 -28.561  1.00  0.00     0.162 HD
ENDROOT
BRANCH   1  11
HETATM   11  C   UNL     1      -5.232   3.598 -31.373  1.00  0.00     0.276 C 
HETATM   12  N   UNL     1      -6.424   4.046 -31.910  1.00  0.00    -0.322 N 
HETATM   13  H   UNL     1      -6.457   5.057 -32.024  1.00  0.00     0.169 HD
HETATM   14  O   UNL     1      -4.904   2.433 -31.178  1.00  0.00    -0.266 OA
BRANCH  12  15
HETATM   15  C   UNL     1      -7.546   3.297 -32.292  1.00  0.00     0.035 A 
HETATM   16  C   UNL     1      -7.817   2.913 -33.604  1.00  0.00     0.032 A 
HETATM   17  C   UNL     1      -8.943   2.130 -33.903  1.00  0.00     0.032 A 
HETATM   18  C   UNL     1      -9.815   1.723 -32.895  1.00  0.00     0.034 A 
HETATM   19  C   UNL     1      -9.551   2.122 -31.581  1.00  0.00     0.032 A 
HETATM   20  C   UNL     1      -8.426   2.901 -31.282  1.00  0.00     0.032 A 
BRANCH  18  21
HETATM   21  N   UNL     1     -10.948   0.910 -33.106  1.00  0.00    -0.327 N 
HETATM   22  C   UNL     1     -12.169   1.286 -33.635  1.00  0.00     0.221 C 
HETATM   23  O   UNL     1     -12.488   2.411 -34.005  1.00  0.00    -0.273 OA
HETATM   24  H   UNL     1     -10.844  -0.059 -32.840  1.00  0.00     0.169 HD
BRANCH  22  25
HETATM   25  C   UNL     1     -13.139   0.125 -33.803  1.00  0.00     0.098 C 
HETATM   26  C   UNL     1     -14.543   0.547 -34.199  1.00  0.00     0.014 C 
ENDBRANCH  22  25
ENDBRANCH  18  21
ENDBRANCH  12  15
ENDBRANCH   1  11
BRANCH   8  27
HETATM   27  C   UNL     1      -0.257   5.734 -31.354  1.00  0.00     0.409 C 
HETATM   28  F   UNL     1       0.897   6.433 -31.226  1.00  0.00    -0.169 F 
HETATM   29  F   UNL     1      -0.427   5.078 -30.177  1.00  0.00    -0.169 F 
HETATM   30  F   UNL     1      -0.056   4.803 -32.304  1.00  0.00    -0.169 F 
ENDBRANCH   8  27
BRANCH   6  31
HETATM   31  C   UNL     1      -0.709   7.760 -28.603  1.00  0.00     0.075 A 
HETATM   32  O   UNL     1      -1.129   6.863 -27.663  1.00  0.00    -0.325 OA
HETATM   33  C   UNL     1      -0.056   6.568 -26.885  1.00  0.00     0.142 A 
HETATM   34  C   UNL     1       1.053   7.259 -27.311  1.00  0.00     0.027 A 
HETATM   35  C   UNL     1       0.637   8.023 -28.428  1.00  0.00     0.037 A 
ENDBRANCH   6  31
TORSDOF 6
ENDMDL
MODEL 4
REMARK VINA RESULT:      -8.0      3.396     10.404
REMARK  6 active torsions:
REMARK  status: ('A' for Active; 'I' for Inactive)
REMARK    1  A    between atoms: C_2  and  C_3 
REMARK       I    between atoms: C_3  and  N_4 
REMARK    2  A    between atoms: N_4  and  C_5 
REMARK    3  A    between atoms: C_8  and  N_9 
REMARK       I    between atoms: N_9  and  C_10 
REMARK    4  A    between atoms: C_10  and  C_11 
REMARK    5  A    between atoms: C_16  and  C_17 
REMARK    6  A    between atoms: C_23  and  C_24 
ROOT
HETATM    1  C   UNL     1      -2.295   5.260 -31.360  1.00  0.00     0.148 A 
HETATM    2  N   UNL     1      -3.509   5.647 -30.900  1.00  0.00    -0.165 NA
HETATM    3  N   UNL     1      -4.350   5.296 -31.893  1.00  0.00    -0.240 N 
HETATM    4  C   UNL     1      -3.726   4.724 -32.968  1.00  0.00     0.123 A 
HETATM    5  N   UNL     1      -4.411   4.351 -34.070  1.00  0.00    -0.364 N 
HETATM    6  C   UNL     1      -5.874   4.314 -34.080  1.00  0.00     0.143 C 
HETATM    7  C   UNL     1      -6.424   5.462 -33.213  1.00  0.00     0.068 C 
HETATM    8  C   UNL     1      -5.771   5.575 -31.822  1.00  0.00     0.221 C 
HETATM    9  C   UNL     1      -2.395   4.679 -32.654  1.00  0.00     0.089 A 
HETATM   10  H   UNL     1      -3.963   3.778 -34.783  1.00  0.00     0.162 HD
ENDROOT
BRANCH   1  11
HETATM   11  C   UNL     1      -1.064   5.456 -30.573  1.00  0.00     0.276 C 
HETATM   12  N   UNL     1      -1.247   6.377 -29.560  1.00  0.00    -0.322 N 
HETATM   13  H   UNL     1      -2.200   6.731 -29.507  1.00  0.00     0.169 HD
HETATM   14  O   UNL     1      -0.038   4.836 -30.827  1.00  0.00    -0.266 OA
BRANCH  12  15
HETATM   15  C   UNL     1      -0.306   6.864 -28.641  1.00  0.00     0.035 A 
HETATM   16  C   UNL     1       0.624   7.860 -28.931  1.00  0.00     0.032 A 
HETATM   17  C   UNL     1       1.511   8.321 -27.946  1.00  0.00     0.032 A 
HETATM   18  C   UNL     1       1.481   7.792 -26.657  1.00  0.00     0.034 A 
HETATM   19  C   UNL     1       0.556   6.782 -26.370  1.00  0.00     0.032 A 
HETATM   20  C   UNL     1      -0.329   6.323 -27.353  1.00  0.00     0.032 A 
BRANCH  18  21
HETATM   21  N   UNL     1       2.312   8.222 -25.602  1.00  0.00    -0.327 N 
HETATM   22  C   UNL     1       2.011   9.141 -24.612  1.00  0.00     0.221 C 
HETATM   23  O   UNL     1       0.960   9.760 -24.487  1.00  0.00    -0.273 OA
HETATM   24  H   UNL     1       3.230   7.802 -25.572  1.00  0.00     0.169 HD
BRANCH  22  25
HETATM   25  C   UNL     1       3.116   9.300 -23.578  1.00  0.00     0.098 C 
HETATM   26  C   UNL     1       2.931   8.439 -22.341  1.00  0.00     0.014 C 
ENDBRANCH  22  25
ENDBRANCH  18  21
ENDBRANCH  12  15
ENDBRANCH   1  11
BRANCH   8  27
HETATM   27  C   UNL     1      -6.423   4.711 -30.766  1.00  0.00     0.409 C 
HETATM   28  F   UNL     1      -7.721   4.450 -31.060  1.00  0.00    -0.169 F 
HETATM   29  F   UNL     1      -5.806   3.503 -30.699  1.00  0.00    -0.169 F 
HETATM   30  F   UNL     1      -6.393   5.243 -29.531  1.00  0.00    -0.169 F 
ENDBRANCH   8  27
BRANCH   6  31
HETATM   31  C   UNL     1      -6.474   2.988 -33.750  1.00  0.00     0.075 A 
HETATM   32  O   UNL     1      -5.602   2.001 -33.389  1.00  0.00    -0.325 OA
HETATM   33  C   UNL     1      -6.341   0.896 -33.115  1.00  0.00     0.142 A 
HETATM   34  C   UNL     1      -7.680   1.155 -33.290  1.00  0.00     0.027 A 
HETATM   35  C   UNL     1      -7.769   2.509 -33.691  1.00  0.00     0.037 A 
ENDBRANCH   6  31
TORSDOF 6
ENDMDL
MODEL 5
REMARK VINA RESULT:      -8.0      2.541      3.212
REMARK  6 active torsions:
REMARK  status: ('A' for Active; 'I' for Inactive)
REMARK    1  A    between atoms: C_2  and  C_3 
REMARK       I    between atoms: C_3  and  N_4 
REMARK    2  A    between atoms: N_4  and  C_5 
REMARK    3  A    between atoms: C_8  and  N_9 
REMARK       I    between atoms: N_9  and  C_10 
REMARK    4  A    between atoms: C_10  and  C_11 
REMARK    5  A    between atoms: C_16  and  C_17 
REMARK    6  A    between atoms: C_23  and  C_24 
ROOT
HETATM    1  C   UNL     1      -2.110   6.012 -30.391  1.00  0.00     0.148 A 
HETATM    2  N   UNL     1      -0.907   6.260 -29.822  1.00  0.00    -0.165 NA
HETATM    3  N   UNL     1      -1.129   7.362 -29.079  1.00  0.00    -0.240 N 
HETATM    4  C   UNL     1      -2.410   7.835 -29.165  1.00  0.00     0.123 A 
HETATM    5  N   UNL     1      -2.797   8.956 -28.520  1.00  0.00    -0.364 N 
HETATM    6  C   UNL     1      -1.945   9.585 -27.510  1.00  0.00     0.143 C 
HETATM    7  C   UNL     1      -0.467   9.429 -27.913  1.00  0.00     0.068 C 
HETATM    8  C   UNL     1      -0.069   7.997 -28.322  1.00  0.00     0.221 C 
HETATM    9  C   UNL     1      -3.075   6.980 -30.002  1.00  0.00     0.089 A 
HETATM   10  H   UNL     1      -3.785   9.198 -28.457  1.00  0.00     0.162 HD
ENDROOT
BRANCH   1  11
HETATM   11  C   UNL     1      -2.323   4.869 -31.299  1.00  0.00     0.276 C 
HETATM   12  N   UNL     1      -3.563   4.290 -31.107  1.00  0.00    -0.322 N 
HETATM   13  H   UNL     1      -4.125   4.769 -30.407  1.00  0.00     0.169 HD
HETATM   14  O   UNL     1      -1.471   4.532 -32.113  1.00  0.00    -0.266 OA
BRANCH  12  15
HETATM   15  C   UNL     1      -4.107   3.161 -31.737  1.00  0.00     0.035 A 
HETATM   16  C   UNL     1      -5.124   3.214 -32.688  1.00  0.00     0.032 A 
HETATM   17  C   UNL     1      -5.591   2.041 -33.303  1.00  0.00     0.032 A 
HETATM   18  C   UNL     1      -5.048   0.800 -32.974  1.00  0.00     0.034 A 
HETATM   19  C   UNL     1      -4.037   0.747 -32.009  1.00  0.00     0.032 A 
HETATM   20  C   UNL     1      -3.570   1.917 -31.397  1.00  0.00     0.032 A 
BRANCH  18  21
HETATM   21  N   UNL     1      -5.436  -0.419 -33.568  1.00  0.00    -0.327 N 
HETATM   22  C   UNL     1      -6.698  -0.985 -33.585  1.00  0.00     0.221 C 
HETATM   23  O   UNL     1      -7.710  -0.525 -33.065  1.00  0.00    -0.273 OA
HETATM   24  H   UNL     1      -4.700  -0.928 -34.036  1.00  0.00     0.169 HD
BRANCH  22  25
HETATM   25  C   UNL     1      -6.774  -2.269 -34.397  1.00  0.00     0.098 C 
HETATM   26  C   UNL     1      -5.420  -2.813 -34.819  1.00  0.00     0.014 C 
ENDBRANCH  22  25
ENDBRANCH  18  21
ENDBRANCH  12  15
ENDBRANCH   1  11
BRANCH   8  27
HETATM   27  C   UNL     1       0.347   7.121 -27.162  1.00  0.00     0.409 C 
HETATM   28  F   UNL     1      -0.642   6.271 -26.793  1.00  0.00    -0.169 F 
HETATM   29  F   UNL     1       1.398   6.338 -27.516  1.00  0.00    -0.169 F 
HETATM   30  F   UNL     1       0.713   7.808 -26.064  1.00  0.00    -0.169 F 
ENDBRANCH   8  27
BRANCH   6  31
HETATM   31  C   UNL     1      -2.218   9.164 -26.103  1.00  0.00     0.075 A 
HETATM   32  O   UNL     1      -1.594   9.882 -25.124  1.00  0.00    -0.325 OA
HETATM   33  C   UNL     1      -1.984   9.358 -23.934  1.00  0.00     0.142 A 
HETATM   34  C   UNL     1      -2.855   8.312 -24.130  1.00  0.00     0.027 A 
HETATM   35  C   UNL     1      -3.016   8.191 -25.531  1.00  0.00     0.037 A 
ENDBRANCH   6  31
TORSDOF 6
ENDMDL
MODEL 6
REMARK VINA RESULT:      -8.0      3.212     10.387
REMARK  6 active torsions:
REMARK  status: ('A' for Active; 'I' for Inactive)
REMARK    1  A    between atoms: C_2  and  C_3 
REMARK       I    between atoms: C_3  and  N_4 
REMARK    2  A    between atoms: N_4  and  C_5 
REMARK    3  A    between atoms: C_8  and  N_9 
REMARK       I    between atoms: N_9  and  C_10 
REMARK    4  A    between atoms: C_10  and  C_11 
REMARK    5  A    between atoms: C_16  and  C_17 
REMARK    6  A    between atoms: C_23  and  C_24 
ROOT
HETATM    1  C   UNL     1      -3.339   6.044 -30.673  1.00  0.00     0.148 A 
HETATM    2  N   UNL     1      -4.627   5.817 -30.323  1.00  0.00    -0.165 NA
HETATM    3  N   UNL     1      -5.055   4.933 -31.246  1.00  0.00    -0.240 N 
HETATM    4  C   UNL     1      -4.106   4.604 -32.175  1.00  0.00     0.123 A 
HETATM    5  N   UNL     1      -4.376   3.765 -33.198  1.00  0.00    -0.364 N 
HETATM    6  C   UNL     1      -5.610   2.979 -33.232  1.00  0.00     0.143 C 
HETATM    7  C   UNL     1      -6.759   3.798 -32.616  1.00  0.00     0.068 C 
HETATM    8  C   UNL     1      -6.420   4.447 -31.259  1.00  0.00     0.221 C 
HETATM    9  C   UNL     1      -2.980   5.302 -31.831  1.00  0.00     0.089 A 
HETATM   10  H   UNL     1      -3.621   3.402 -33.777  1.00  0.00     0.162 HD
ENDROOT
BRANCH   1  11
HETATM   11  C   UNL     1      -2.475   6.967 -29.914  1.00  0.00     0.276 C 
HETATM   12  N   UNL     1      -1.424   6.300 -29.312  1.00  0.00    -0.322 N 
HETATM   13  H   UNL     1      -1.405   5.305 -29.524  1.00  0.00     0.169 HD
HETATM   14  O   UNL     1      -2.705   8.169 -29.871  1.00  0.00    -0.266 OA
BRANCH  12  15
HETATM   15  C   UNL     1      -0.428   6.819 -28.471  1.00  0.00     0.035 A 
HETATM   16  C   UNL     1       0.495   7.787 -28.862  1.00  0.00     0.032 A 
HETATM   17  C   UNL     1       1.440   8.284 -27.951  1.00  0.00     0.032 A 
HETATM   18  C   UNL     1       1.476   7.819 -26.637  1.00  0.00     0.034 A 
HETATM   19  C   UNL     1       0.559   6.837 -26.250  1.00  0.00     0.032 A 
HETATM   20  C   UNL     1      -0.385   6.342 -27.159  1.00  0.00     0.032 A 
BRANCH  18  21
HETATM   21  N   UNL     1       2.369   8.290 -25.652  1.00  0.00    -0.327 N 
HETATM   22  C   UNL     1       2.106   9.192 -24.637  1.00  0.00     0.221 C 
HETATM   23  O   UNL     1       1.040   9.760 -24.425  1.00  0.00    -0.273 OA
HETATM   24  H   UNL     1       3.306   7.914 -25.699  1.00  0.00     0.169 HD
BRANCH  22  25
HETATM   25  C   UNL     1       3.284   9.405 -23.697  1.00  0.00     0.098 C 
HETATM   26  C   UNL     1       3.217   8.575 -22.428  1.00  0.00     0.014 C 
ENDBRANCH  22  25
ENDBRANCH  18  21
ENDBRANCH  12  15
ENDBRANCH   1  11
BRANCH   8  27
HETATM   27  C   UNL     1      -6.670   3.547 -30.069  1.00  0.00     0.409 C 
HETATM   28  F   UNL     1      -5.547   2.888 -29.692  1.00  0.00    -0.169 F 
HETATM   29  F   UNL     1      -7.050   4.283 -28.994  1.00  0.00    -0.169 F 
HETATM   30  F   UNL     1      -7.624   2.622 -30.277  1.00  0.00    -0.169 F 
ENDBRANCH   8  27
BRANCH   6  31
HETATM   31  C   UNL     1      -5.497   1.603 -32.662  1.00  0.00     0.075 A 
HETATM   32  O   UNL     1      -6.650   0.874 -32.607  1.00  0.00    -0.325 OA
HETATM   33  C   UNL     1      -6.332  -0.337 -32.081  1.00  0.00     0.142 A 
HETATM   34  C   UNL     1      -4.988  -0.402 -31.799  1.00  0.00     0.027 A 
HETATM   35  C   UNL     1      -4.445   0.847 -32.182  1.00  0.00     0.037 A 
ENDBRANCH   6  31
TORSDOF 6
ENDMDL
MODEL 7
REMARK VINA RESULT:      -7.9      2.894     10.134
REMARK  6 active torsions:
REMARK  status: ('A' for Active; 'I' for Inactive)
REMARK    1  A    between atoms: C_2  and  C_3 
REMARK       I    between atoms: C_3  and  N_4 
REMARK    2  A    between atoms: N_4  and  C_5 
REMARK    3  A    between atoms: C_8  and  N_9 
REMARK       I    between atoms: N_9  and  C_10 
REMARK    4  A    between atoms: C_10  and  C_11 
REMARK    5  A    between atoms: C_16  and  C_17 
REMARK    6  A    between atoms: C_23  and  C_24 
ROOT
HETATM    1  C   UNL     1      -4.912   4.242 -32.320  1.00  0.00     0.148 A 
HETATM    2  N   UNL     1      -5.477   3.441 -31.387  1.00  0.00    -0.165 NA
HETATM    3  N   UNL     1      -6.131   2.517 -32.117  1.00  0.00    -0.240 N 
HETATM    4  C   UNL     1      -6.025   2.706 -33.468  1.00  0.00     0.123 A 
HETATM    5  N   UNL     1      -6.653   1.898 -34.349  1.00  0.00    -0.364 N 
HETATM    6  C   UNL     1      -7.278   0.646 -33.922  1.00  0.00     0.143 C 
HETATM    7  C   UNL     1      -7.877   0.823 -32.514  1.00  0.00     0.068 C 
HETATM    8  C   UNL     1      -6.919   1.472 -31.495  1.00  0.00     0.221 C 
HETATM    9  C   UNL     1      -5.236   3.811 -33.635  1.00  0.00     0.089 A 
HETATM   10  H   UNL     1      -6.429   1.948 -35.342  1.00  0.00     0.162 HD
ENDROOT
BRANCH   1  11
HETATM   11  C   UNL     1      -4.085   5.406 -31.952  1.00  0.00     0.276 C 
HETATM   12  N   UNL     1      -3.263   5.128 -30.876  1.00  0.00    -0.322 N 
HETATM   13  H   UNL     1      -3.341   4.167 -30.550  1.00  0.00     0.169 HD
HETATM   14  O   UNL     1      -4.153   6.461 -32.573  1.00  0.00    -0.266 OA
BRANCH  12  15
HETATM   15  C   UNL     1      -2.377   5.986 -30.208  1.00  0.00     0.035 A 
HETATM   16  C   UNL     1      -2.781   7.039 -29.390  1.00  0.00     0.032 A 
HETATM   17  C   UNL     1      -1.833   7.832 -28.725  1.00  0.00     0.032 A 
HETATM   18  C   UNL     1      -0.469   7.585 -28.869  1.00  0.00     0.034 A 
HETATM   19  C   UNL     1      -0.065   6.537 -29.703  1.00  0.00     0.032 A 
HETATM   20  C   UNL     1      -1.010   5.745 -30.366  1.00  0.00     0.032 A 
BRANCH  18  21
HETATM   21  N   UNL     1       0.544   8.312 -28.211  1.00  0.00    -0.327 N 
HETATM   22  C   UNL     1       1.094   8.055 -26.968  1.00  0.00     0.221 C 
HETATM   23  O   UNL     1       0.780   7.147 -26.205  1.00  0.00    -0.273 OA
HETATM   24  H   UNL     1       0.907   9.108 -28.716  1.00  0.00     0.169 HD
BRANCH  22  25
HETATM   25  C   UNL     1       2.235   8.995 -26.606  1.00  0.00     0.098 C 
HETATM   26  C   UNL     1       2.615   8.965 -25.136  1.00  0.00     0.014 C 
ENDBRANCH  22  25
ENDBRANCH  18  21
ENDBRANCH  12  15
ENDBRANCH   1  11
BRANCH   8  27
HETATM   27  C   UNL     1      -6.018   0.485 -30.786  1.00  0.00     0.409 C 
HETATM   28  F   UNL     1      -4.734   0.582 -31.210  1.00  0.00    -0.169 F 
HETATM   29  F   UNL     1      -5.991   0.745 -29.454  1.00  0.00    -0.169 F 
HETATM   30  F   UNL     1      -6.392  -0.799 -30.936  1.00  0.00    -0.169 F 
ENDBRANCH   8  27
BRANCH   6  31
HETATM   31  C   UNL     1      -6.413  -0.565 -34.044  1.00  0.00     0.075 A 
HETATM   32  O   UNL     1      -5.070  -0.369 -33.890  1.00  0.00    -0.325 OA
HETATM   33  C   UNL     1      -4.472  -1.580 -34.018  1.00  0.00     0.142 A 
HETATM   34  C   UNL     1      -5.410  -2.559 -34.250  1.00  0.00     0.027 A 
HETATM   35  C   UNL     1      -6.666  -1.906 -34.258  1.00  0.00     0.037 A 
ENDBRANCH   6  31
TORSDOF 6
ENDMDL
MODEL 8
REMARK VINA RESULT:      -7.6      4.201      4.897
REMARK  6 active torsions:
REMARK  status: ('A' for Active; 'I' for Inactive)
REMARK    1  A    between atoms: C_2  and  C_3 
REMARK       I    between atoms: C_3  and  N_4 
REMARK    2  A    between atoms: N_4  and  C_5 
REMARK    3  A    between atoms: C_8  and  N_9 
REMARK       I    between atoms: N_9  and  C_10 
REMARK    4  A    between atoms: C_10  and  C_11 
REMARK    5  A    between atoms: C_16  and  C_17 
REMARK    6  A    between atoms: C_23  and  C_24 
ROOT
HETATM    1  C   UNL     1      -6.030   6.433 -31.897  1.00  0.00     0.148 A 
HETATM    2  N   UNL     1      -5.213   5.864 -32.815  1.00  0.00    -0.165 NA
HETATM    3  N   UNL     1      -4.057   6.543 -32.672  1.00  0.00    -0.240 N 
HETATM    4  C   UNL     1      -4.109   7.526 -31.723  1.00  0.00     0.123 A 
HETATM    5  N   UNL     1      -3.054   8.333 -31.478  1.00  0.00    -0.364 N 
HETATM    6  C   UNL     1      -1.732   8.047 -32.037  1.00  0.00     0.143 C 
HETATM    7  C   UNL     1      -1.888   7.427 -33.438  1.00  0.00     0.068 C 
HETATM    8  C   UNL     1      -2.906   6.272 -33.511  1.00  0.00     0.221 C 
HETATM    9  C   UNL     1      -5.371   7.479 -31.196  1.00  0.00     0.089 A 
HETATM   10  H   UNL     1      -3.050   8.941 -30.661  1.00  0.00     0.162 HD
ENDROOT
BRANCH   1  11
HETATM   11  C   UNL     1      -7.422   5.983 -31.707  1.00  0.00     0.276 C 
HETATM   12  N   UNL     1      -7.836   5.159 -32.736  1.00  0.00    -0.322 N 
HETATM   13  H   UNL     1      -7.107   4.976 -33.422  1.00  0.00     0.169 HD
HETATM   14  O   UNL     1      -8.074   6.322 -30.727  1.00  0.00    -0.266 OA
BRANCH  12  15
HETATM   15  C   UNL     1      -9.098   4.580 -32.937  1.00  0.00     0.035 A 
HETATM   16  C   UNL     1     -10.163   5.227 -33.559  1.00  0.00     0.032 A 
HETATM   17  C   UNL     1     -11.386   4.567 -33.757  1.00  0.00     0.032 A 
HETATM   18  C   UNL     1     -11.561   3.250 -33.334  1.00  0.00     0.034 A 
HETATM   19  C   UNL     1     -10.495   2.606 -32.695  1.00  0.00     0.032 A 
HETATM   20  C   UNL     1      -9.275   3.265 -32.499  1.00  0.00     0.032 A 
BRANCH  18  21
HETATM   21  N   UNL     1     -12.743   2.505 -33.524  1.00  0.00    -0.327 N 
HETATM   22  C   UNL     1     -13.110   1.776 -34.640  1.00  0.00     0.221 C 
HETATM   23  O   UNL     1     -12.468   1.662 -35.680  1.00  0.00    -0.273 OA
HETATM   24  H   UNL     1     -13.388   2.507 -32.746  1.00  0.00     0.169 HD
BRANCH  22  25
HETATM   25  C   UNL     1     -14.418   1.019 -34.465  1.00  0.00     0.098 C 
HETATM   26  C   UNL     1     -15.180   1.388 -33.205  1.00  0.00     0.014 C 
ENDBRANCH  22  25
ENDBRANCH  18  21
ENDBRANCH  12  15
ENDBRANCH   1  11
BRANCH   8  27
HETATM   27  C   UNL     1      -2.321   4.917 -33.179  1.00  0.00     0.409 C 
HETATM   28  F   UNL     1      -2.942   3.920 -33.856  1.00  0.00    -0.169 F 
HETATM   29  F   UNL     1      -1.016   4.863 -33.551  1.00  0.00    -0.169 F 
HETATM   30  F   UNL     1      -2.376   4.606 -31.871  1.00  0.00    -0.169 F 
ENDBRANCH   8  27
BRANCH   6  31
HETATM   31  C   UNL     1      -0.826   7.263 -31.145  1.00  0.00     0.075 A 
HETATM   32  O   UNL     1      -1.330   6.914 -29.925  1.00  0.00    -0.325 OA
HETATM   33  C   UNL     1      -0.369   6.201 -29.285  1.00  0.00     0.142 A 
HETATM   34  C   UNL     1       0.749   6.080 -30.076  1.00  0.00     0.027 A 
HETATM   35  C   UNL     1       0.453   6.758 -31.282  1.00  0.00     0.037 A 
ENDBRANCH   6  31
TORSDOF 6
ENDMDL
MODEL 9
REMARK VINA RESULT:      -7.4      2.352      2.996
REMARK  6 active torsions:
REMARK  status: ('A' for Active; 'I' for Inactive)
REMARK    1  A    between atoms: C_2  and  C_3 
REMARK       I    between atoms: C_3  and  N_4 
REMARK    2  A    between atoms: N_4  and  C_5 
REMARK    3  A    between atoms: C_8  and  N_9 
REMARK       I    between atoms: N_9  and  C_10 
REMARK    4  A    between atoms: C_10  and  C_11 
REMARK    5  A    between atoms: C_16  and  C_17 
REMARK    6  A    between atoms: C_23  and  C_24 
ROOT
HETATM    1  C   UNL     1      -5.393   5.591 -28.683  1.00  0.00     0.148 A 
HETATM    2  N   UNL     1      -5.010   6.746 -29.276  1.00  0.00    -0.165 NA
HETATM    3  N   UNL     1      -4.480   7.460 -28.264  1.00  0.00    -0.240 N 
HETATM    4  C   UNL     1      -4.527   6.822 -27.055  1.00  0.00     0.123 A 
HETATM    5  N   UNL     1      -4.080   7.409 -25.924  1.00  0.00    -0.364 N 
HETATM    6  C   UNL     1      -3.306   8.650 -25.966  1.00  0.00     0.143 C 
HETATM    7  C   UNL     1      -3.819   9.538 -27.115  1.00  0.00     0.068 C 
HETATM    8  C   UNL     1      -3.976   8.805 -28.462  1.00  0.00     0.221 C 
HETATM    9  C   UNL     1      -5.107   5.605 -27.291  1.00  0.00     0.089 A 
HETATM   10  H   UNL     1      -3.966   6.862 -25.072  1.00  0.00     0.162 HD
ENDROOT
BRANCH   1  11
HETATM   11  C   UNL     1      -6.032   4.499 -29.442  1.00  0.00     0.276 C 
HETATM   12  N   UNL     1      -5.182   3.419 -29.592  1.00  0.00    -0.322 N 
HETATM   13  H   UNL     1      -4.286   3.545 -29.127  1.00  0.00     0.169 HD
HETATM   14  O   UNL     1      -7.183   4.592 -29.850  1.00  0.00    -0.266 OA
BRANCH  12  15
HETATM   15  C   UNL     1      -5.406   2.223 -30.291  1.00  0.00     0.035 A 
HETATM   16  C   UNL     1      -6.159   1.160 -29.796  1.00  0.00     0.032 A 
HETATM   17  C   UNL     1      -6.369   0.009 -30.570  1.00  0.00     0.032 A 
HETATM   18  C   UNL     1      -5.827  -0.097 -31.851  1.00  0.00     0.034 A 
HETATM   19  C   UNL     1      -5.059   0.965 -32.341  1.00  0.00     0.032 A 
HETATM   20  C   UNL     1      -4.851   2.114 -31.568  1.00  0.00     0.032 A 
BRANCH  18  21
HETATM   21  N   UNL     1      -6.018  -1.202 -32.706  1.00  0.00    -0.327 N 
HETATM   22  C   UNL     1      -6.950  -1.333 -33.719  1.00  0.00     0.221 C 
HETATM   23  O   UNL     1      -7.795  -0.505 -34.044  1.00  0.00    -0.273 OA
HETATM   24  H   UNL     1      -5.394  -1.982 -32.555  1.00  0.00     0.169 HD
BRANCH  22  25
HETATM   25  C   UNL     1      -6.814  -2.630 -34.502  1.00  0.00     0.098 C 
HETATM   26  C   UNL     1      -5.431  -2.855 -35.087  1.00  0.00     0.014 C 
ENDBRANCH  22  25
ENDBRANCH  18  21
ENDBRANCH  12  15
ENDBRANCH   1  11
BRANCH   8  27
HETATM   27  C   UNL     1      -2.713   8.775 -29.295  1.00  0.00     0.409 C 
HETATM   28  F   UNL     1      -1.849   9.755 -28.935  1.00  0.00    -0.169 F 
HETATM   29  F   UNL     1      -2.051   7.605 -29.103  1.00  0.00    -0.169 F 
HETATM   30  F   UNL     1      -2.929   8.899 -30.617  1.00  0.00    -0.169 F 
ENDBRANCH   8  27
BRANCH   6  31
HETATM   31  C   UNL     1      -1.823   8.469 -25.980  1.00  0.00     0.075 A 
HETATM   32  O   UNL     1      -1.370   7.202 -26.210  1.00  0.00    -0.325 OA
HETATM   33  C   UNL     1      -0.013   7.255 -26.200  1.00  0.00     0.142 A 
HETATM   34  C   UNL     1       0.417   8.541 -25.970  1.00  0.00     0.027 A 
HETATM   35  C   UNL     1      -0.751   9.329 -25.837  1.00  0.00     0.037 A 
ENDBRANCH   6  31
TORSDOF 6
ENDMDL
MODEL 10
REMARK VINA RESULT:      -7.2     18.697     20.918
REMARK  6 active torsions:
REMARK  status: ('A' for Active; 'I' for Inactive)
REMARK    1  A    between atoms: C_2  and  C_3 
REMARK       I    between atoms: C_3  and  N_4 
REMARK    2  A    between atoms: N_4  and  C_5 
REMARK    3  A    between atoms: C_8  and  N_9 
REMARK       I    between atoms: N_9  and  C_10 
REMARK    4  A    between atoms: C_10  and  C_11 
REMARK    5  A    between atoms: C_16  and  C_17 
REMARK    6  A    between atoms: C_23  and  C_24 
ROOT
HETATM    1  C   UNL     1      -5.327 -13.408 -36.104  1.00  0.00     0.148 A 
HETATM    2  N   UNL     1      -6.464 -13.621 -36.807  1.00  0.00    -0.165 NA
HETATM    3  N   UNL     1      -6.159 -13.180 -38.043  1.00  0.00    -0.240 N 
HETATM    4  C   UNL     1      -4.891 -12.679 -38.153  1.00  0.00     0.123 A 
HETATM    5  N   UNL     1      -4.432 -12.155 -39.310  1.00  0.00    -0.364 N 
HETATM    6  C   UNL     1      -5.172 -12.311 -40.562  1.00  0.00     0.143 C 
HETATM    7  C   UNL     1      -6.685 -12.275 -40.274  1.00  0.00     0.068 C 
HETATM    8  C   UNL     1      -7.132 -13.190 -39.117  1.00  0.00     0.221 C 
HETATM    9  C   UNL     1      -4.320 -12.817 -36.916  1.00  0.00     0.089 A 
HETATM   10  H   UNL     1      -3.442 -11.944 -39.421  1.00  0.00     0.162 HD
ENDROOT
BRANCH   1  11
HETATM   11  C   UNL     1      -5.215 -13.757 -34.676  1.00  0.00     0.276 C 
HETATM   12  N   UNL     1      -5.001 -15.111 -34.497  1.00  0.00    -0.322 N 
HETATM   13  H   UNL     1      -4.921 -15.623 -35.373  1.00  0.00     0.169 HD
HETATM   14  O   UNL     1      -5.296 -12.903 -33.801  1.00  0.00    -0.266 OA
BRANCH  12  15
HETATM   15  C   UNL     1      -4.895 -15.828 -33.296  1.00  0.00     0.035 A 
HETATM   16  C   UNL     1      -3.690 -16.280 -32.763  1.00  0.00     0.032 A 
HETATM   17  C   UNL     1      -3.661 -16.960 -31.535  1.00  0.00     0.032 A 
HETATM   18  C   UNL     1      -4.836 -17.197 -30.824  1.00  0.00     0.034 A 
HETATM   19  C   UNL     1      -6.047 -16.755 -31.368  1.00  0.00     0.032 A 
HETATM   20  C   UNL     1      -6.076 -16.076 -32.592  1.00  0.00     0.032 A 
BRANCH  18  21
HETATM   21  N   UNL     1      -4.890 -17.841 -29.571  1.00  0.00    -0.327 N 
HETATM   22  C   UNL     1      -4.897 -17.251 -28.320  1.00  0.00     0.221 C 
HETATM   23  O   UNL     1      -4.842 -16.049 -28.080  1.00  0.00    -0.273 OA
HETATM   24  H   UNL     1      -4.932 -18.850 -29.601  1.00  0.00     0.169 HD
BRANCH  22  25
HETATM   25  C   UNL     1      -5.053 -18.249 -27.182  1.00  0.00     0.098 C 
HETATM   26  C   UNL     1      -6.484 -18.417 -26.701  1.00  0.00     0.014 C 
ENDBRANCH  22  25
ENDBRANCH  18  21
ENDBRANCH  12  15
ENDBRANCH   1  11
BRANCH   8  27
HETATM   27  C   UNL     1      -7.434 -14.611 -39.541  1.00  0.00     0.409 C 
HETATM   28  F   UNL     1      -8.442 -15.150 -38.812  1.00  0.00    -0.169 F 
HETATM   29  F   UNL     1      -7.851 -14.639 -40.833  1.00  0.00    -0.169 F 
HETATM   30  F   UNL     1      -6.381 -15.443 -39.443  1.00  0.00    -0.169 F 
ENDBRANCH   8  27
BRANCH   6  31
HETATM   31  C   UNL     1      -4.760 -13.479 -41.397  1.00  0.00     0.075 A 
HETATM   32  O   UNL     1      -3.736 -14.240 -40.910  1.00  0.00    -0.325 OA
HETATM   33  C   UNL     1      -3.531 -15.247 -41.797  1.00  0.00     0.142 A 
HETATM   34  C   UNL     1      -4.411 -15.150 -42.849  1.00  0.00     0.027 A 
HETATM   35  C   UNL     1      -5.213 -14.014 -42.588  1.00  0.00     0.037 A 
ENDBRANCH   6  31
TORSDOF 6
ENDMDL
