MODEL 1
REMARK VINA RESULT:      -9.0      0.000      0.000
REMARK  5 active torsions:
REMARK  status: ('A' for Active; 'I' for Inactive)
REMARK    1  A    between atoms: C_4  and  C_5 
REMARK    2  A    between atoms: C_5  and  C_6 
REMARK    3  A    between atoms: C_10  and  C_11 
REMARK       I    between atoms: C_11  and  N_12 
REMARK    4  A    between atoms: N_12  and  N_13 
REMARK    5  A    between atoms: N_13  and  C_14 
ROOT
HETATM    1  C   UNL     1      -6.096  -0.057 -33.191  1.00  0.00     0.033 A 
HETATM    2  C   UNL     1      -6.618  -0.124 -31.912  1.00  0.00     0.104 A 
HETATM    3  N   UNL     1      -6.023   0.846 -31.149  1.00  0.00    -0.360 N 
HETATM    4  H   UNL     1      -6.215   1.038 -30.173  1.00  0.00     0.165 HD
HETATM    5  C   UNL     1      -5.108   1.552 -31.897  1.00  0.00     0.102 A 
HETATM    6  C   UNL     1      -5.118   0.985 -33.161  1.00  0.00     0.052 A 
ENDROOT
BRANCH   5   7
HETATM    7  C   UNL     1      -4.366   2.659 -31.335  1.00  0.00     0.282 C 
HETATM    8  N   UNL     1      -3.124   2.894 -31.892  1.00  0.00    -0.280 N 
HETATM    9  H   UNL     1      -2.621   2.154 -32.381  1.00  0.00     0.184 HD
HETATM   10  O   UNL     1      -4.809   3.351 -30.416  1.00  0.00    -0.265 OA
BRANCH   8  11
HETATM   11  N   UNL     1      -2.292   3.844 -31.244  1.00  0.00    -0.186 NA
HETATM   12  H   UNL     1      -1.387   3.421 -31.014  1.00  0.00     0.154 HD
BRANCH  11  13
HETATM   13  C   UNL     1      -2.106   5.003 -32.039  1.00  0.00     0.122 A 
HETATM   14  N   UNL     1      -2.188   6.226 -31.468  1.00  0.00    -0.223 NA
HETATM   15  C   UNL     1      -1.954   7.289 -32.263  1.00  0.00     0.128 A 
HETATM   16 CL   UNL     1      -2.091   8.808 -31.476  1.00  0.00    -0.062 Cl
HETATM   17  C   UNL     1      -1.624   7.216 -33.605  1.00  0.00     0.044 A 
HETATM   18  C   UNL     1      -1.526   5.953 -34.174  1.00  0.00     0.007 A 
HETATM   19  C   UNL     1      -1.765   4.833 -33.382  1.00  0.00     0.046 A 
ENDBRANCH  11  13
ENDBRANCH   8  11
ENDBRANCH   5   7
BRANCH   1  20
HETATM   20  C   UNL     1      -6.421  -0.897 -34.344  1.00  0.00     0.193 C 
HETATM   21  O   UNL     1      -7.133  -0.485 -35.256  1.00  0.00    -0.287 OA
BRANCH  20  22
HETATM   22  C   UNL     1      -5.897  -2.287 -34.425  1.00  0.00     0.015 A 
HETATM   23  C   UNL     1      -6.776  -3.312 -34.795  1.00  0.00     0.015 A 
HETATM   24  C   UNL     1      -6.330  -4.634 -34.848  1.00  0.00     0.001 A 
HETATM   25  C   UNL     1      -5.009  -4.937 -34.517  1.00  0.00     0.000 A 
HETATM   26  C   UNL     1      -4.135  -3.923 -34.126  1.00  0.00     0.001 A 
HETATM   27  C   UNL     1      -4.577  -2.600 -34.073  1.00  0.00     0.015 A 
ENDBRANCH  20  22
ENDBRANCH   1  20
TORSDOF 5
ENDMDL
MODEL 2
REMARK VINA RESULT:      -8.7      5.474      7.822
REMARK  5 active torsions:
REMARK  status: ('A' for Active; 'I' for Inactive)
REMARK    1  A    between atoms: C_4  and  C_5 
REMARK    2  A    between atoms: C_5  and  C_6 
REMARK    3  A    between atoms: C_10  and  C_11 
REMARK       I    between atoms: C_11  and  N_12 
REMARK    4  A    between atoms: N_12  and  N_13 
REMARK    5  A    between atoms: N_13  and  C_14 
ROOT
HETATM    1  C   UNL     1      -6.303  -0.015 -32.676  1.00  0.00     0.033 A 
HETATM    2  C   UNL     1      -6.783  -0.181 -31.389  1.00  0.00     0.104 A 
HETATM    3  N   UNL     1      -7.832   0.680 -31.202  1.00  0.00    -0.360 N 
HETATM    4  H   UNL     1      -8.384   0.772 -30.357  1.00  0.00     0.165 HD
HETATM    5  C   UNL     1      -8.053   1.422 -32.340  1.00  0.00     0.102 A 
HETATM    6  C   UNL     1      -7.092   1.026 -33.256  1.00  0.00     0.052 A 
ENDROOT
BRANCH   5   7
HETATM    7  C   UNL     1      -9.131   2.384 -32.417  1.00  0.00     0.282 C 
HETATM    8  N   UNL     1     -10.407   1.864 -32.310  1.00  0.00    -0.280 N 
HETATM    9  H   UNL     1     -10.594   0.887 -32.530  1.00  0.00     0.184 HD
HETATM   10  O   UNL     1      -8.930   3.590 -32.569  1.00  0.00    -0.265 OA
BRANCH   8  11
HETATM   11  N   UNL     1     -11.489   2.745 -32.570  1.00  0.00    -0.186 NA
HETATM   12  H   UNL     1     -11.211   3.452 -33.258  1.00  0.00     0.154 HD
BRANCH  11  13
HETATM   13  C   UNL     1     -12.636   2.043 -33.020  1.00  0.00     0.122 A 
HETATM   14  N   UNL     1     -13.862   2.421 -32.593  1.00  0.00    -0.223 NA
HETATM   15  C   UNL     1     -14.918   1.749 -33.093  1.00  0.00     0.128 A 
HETATM   16 CL   UNL     1     -16.440   2.270 -32.496  1.00  0.00    -0.062 Cl
HETATM   17  C   UNL     1     -14.836   0.720 -34.015  1.00  0.00     0.044 A 
HETATM   18  C   UNL     1     -13.572   0.354 -34.458  1.00  0.00     0.007 A 
HETATM   19  C   UNL     1     -12.459   1.026 -33.959  1.00  0.00     0.046 A 
ENDBRANCH  11  13
ENDBRANCH   8  11
ENDBRANCH   5   7
BRANCH   1  20
HETATM   20  C   UNL     1      -5.188  -0.708 -33.320  1.00  0.00     0.193 C 
HETATM   21  O   UNL     1      -4.082  -0.183 -33.425  1.00  0.00    -0.287 OA
BRANCH  20  22
HETATM   22  C   UNL     1      -5.381  -2.073 -33.878  1.00  0.00     0.015 A 
HETATM   23  C   UNL     1      -6.644  -2.421 -34.373  1.00  0.00     0.015 A 
HETATM   24  C   UNL     1      -6.874  -3.705 -34.871  1.00  0.00     0.001 A 
HETATM   25  C   UNL     1      -5.846  -4.649 -34.863  1.00  0.00     0.000 A 
HETATM   26  C   UNL     1      -4.593  -4.315 -34.351  1.00  0.00     0.001 A 
HETATM   27  C   UNL     1      -4.360  -3.032 -33.852  1.00  0.00     0.015 A 
ENDBRANCH  20  22
ENDBRANCH   1  20
TORSDOF 5
ENDMDL
MODEL 3
REMARK VINA RESULT:      -8.5      4.911      6.668
REMARK  5 active torsions:
REMARK  status: ('A' for Active; 'I' for Inactive)
REMARK    1  A    between atoms: C_4  and  C_5 
REMARK    2  A    between atoms: C_5  and  C_6 
REMARK    3  A    between atoms: C_10  and  C_11 
REMARK       I    between atoms: C_11  and  N_12 
REMARK    4  A    between atoms: N_12  and  N_13 
REMARK    5  A    between atoms: N_13  and  C_14 
ROOT
HETATM    1  C   UNL     1      -5.908  -0.179 -32.492  1.00  0.00     0.033 A 
HETATM    2  C   UNL     1      -6.222  -0.352 -31.156  1.00  0.00     0.104 A 
HETATM    3  N   UNL     1      -7.191   0.554 -30.817  1.00  0.00    -0.360 N 
HETATM    4  H   UNL     1      -7.622   0.653 -29.905  1.00  0.00     0.165 HD
HETATM    5  C   UNL     1      -7.522   1.333 -31.903  1.00  0.00     0.102 A 
HETATM    6  C   UNL     1      -6.712   0.912 -32.945  1.00  0.00     0.052 A 
ENDROOT
BRANCH   5   7
HETATM    7  C   UNL     1      -8.550   2.347 -31.820  1.00  0.00     0.282 C 
HETATM    8  N   UNL     1      -9.845   1.881 -31.702  1.00  0.00    -0.280 N 
HETATM    9  H   UNL     1     -10.094   0.943 -32.016  1.00  0.00     0.184 HD
HETATM   10  O   UNL     1      -8.293   3.552 -31.851  1.00  0.00    -0.265 OA
BRANCH   8  11
HETATM   11  N   UNL     1     -10.890   2.836 -31.809  1.00  0.00    -0.186 NA
HETATM   12  H   UNL     1     -10.529   3.776 -31.620  1.00  0.00     0.154 HD
BRANCH  11  13
HETATM   13  C   UNL     1     -11.507   2.792 -33.085  1.00  0.00     0.122 A 
HETATM   14  N   UNL     1     -11.907   3.942 -33.675  1.00  0.00    -0.223 NA
HETATM   15  C   UNL     1     -12.442   3.843 -34.908  1.00  0.00     0.128 A 
HETATM   16 CL   UNL     1     -12.941   5.337 -35.588  1.00  0.00    -0.062 Cl
HETATM   17  C   UNL     1     -12.595   2.661 -35.611  1.00  0.00     0.044 A 
HETATM   18  C   UNL     1     -12.164   1.490 -35.001  1.00  0.00     0.007 A 
HETATM   19  C   UNL     1     -11.610   1.556 -33.726  1.00  0.00     0.046 A 
ENDBRANCH  11  13
ENDBRANCH   8  11
ENDBRANCH   5   7
BRANCH   1  20
HETATM   20  C   UNL     1      -4.925  -0.910 -33.291  1.00  0.00     0.193 C 
HETATM   21  O   UNL     1      -3.816  -0.439 -33.530  1.00  0.00    -0.287 OA
BRANCH  20  22
HETATM   22  C   UNL     1      -5.260  -2.249 -33.844  1.00  0.00     0.015 A 
HETATM   23  C   UNL     1      -4.278  -3.248 -33.821  1.00  0.00     0.015 A 
HETATM   24  C   UNL     1      -4.544  -4.506 -34.364  1.00  0.00     0.001 A 
HETATM   25  C   UNL     1      -5.786  -4.767 -34.943  1.00  0.00     0.000 A 
HETATM   26  C   UNL     1      -6.761  -3.770 -34.988  1.00  0.00     0.001 A 
HETATM   27  C   UNL     1      -6.499  -2.510 -34.446  1.00  0.00     0.015 A 
ENDBRANCH  20  22
ENDBRANCH   1  20
TORSDOF 5
ENDMDL
MODEL 4
REMARK VINA RESULT:      -8.4      3.522      8.830
REMARK  5 active torsions:
REMARK  status: ('A' for Active; 'I' for Inactive)
REMARK    1  A    between atoms: C_4  and  C_5 
REMARK    2  A    between atoms: C_5  and  C_6 
REMARK    3  A    between atoms: C_10  and  C_11 
REMARK       I    between atoms: C_11  and  N_12 
REMARK    4  A    between atoms: N_12  and  N_13 
REMARK    5  A    between atoms: N_13  and  C_14 
ROOT
HETATM    1  C   UNL     1      -2.653   6.609 -33.244  1.00  0.00     0.033 A 
HETATM    2  C   UNL     1      -2.464   6.095 -34.514  1.00  0.00     0.104 A 
HETATM    3  N   UNL     1      -3.547   5.320 -34.834  1.00  0.00    -0.360 N 
HETATM    4  H   UNL     1      -3.687   4.823 -35.706  1.00  0.00     0.165 HD
HETATM    5  C   UNL     1      -4.451   5.305 -33.796  1.00  0.00     0.102 A 
HETATM    6  C   UNL     1      -3.897   6.076 -32.787  1.00  0.00     0.052 A 
ENDROOT
BRANCH   5   7
HETATM    7  C   UNL     1      -5.702   4.587 -33.895  1.00  0.00     0.282 C 
HETATM    8  N   UNL     1      -5.647   3.241 -33.588  1.00  0.00    -0.280 N 
HETATM    9  H   UNL     1      -4.770   2.725 -33.651  1.00  0.00     0.184 HD
HETATM   10  O   UNL     1      -6.753   5.135 -34.231  1.00  0.00    -0.265 OA
BRANCH   8  11
HETATM   11  N   UNL     1      -6.807   2.467 -33.856  1.00  0.00    -0.186 NA
HETATM   12  H   UNL     1      -7.294   2.836 -34.679  1.00  0.00     0.154 HD
BRANCH  11  13
HETATM   13  C   UNL     1      -6.488   1.098 -34.045  1.00  0.00     0.122 A 
HETATM   14  N   UNL     1      -5.480   0.543 -33.335  1.00  0.00    -0.223 NA
HETATM   15  C   UNL     1      -5.254  -0.774 -33.519  1.00  0.00     0.128 A 
HETATM   16 CL   UNL     1      -3.951  -1.407 -32.601  1.00  0.00    -0.062 Cl
HETATM   17  C   UNL     1      -5.985  -1.590 -34.364  1.00  0.00     0.044 A 
HETATM   18  C   UNL     1      -7.029  -1.011 -35.073  1.00  0.00     0.007 A 
HETATM   19  C   UNL     1      -7.287   0.348 -34.909  1.00  0.00     0.046 A 
ENDBRANCH  11  13
ENDBRANCH   8  11
ENDBRANCH   5   7
BRANCH   1  20
HETATM   20  C   UNL     1      -1.759   7.480 -32.481  1.00  0.00     0.193 C 
HETATM   21  O   UNL     1      -1.648   8.675 -32.747  1.00  0.00    -0.287 OA
BRANCH  20  22
HETATM   22  C   UNL     1      -0.951   6.924 -31.363  1.00  0.00     0.015 A 
HETATM   23  C   UNL     1      -0.271   5.717 -31.566  1.00  0.00     0.015 A 
HETATM   24  C   UNL     1       0.468   5.146 -30.529  1.00  0.00     0.001 A 
HETATM   25  C   UNL     1       0.519   5.771 -29.282  1.00  0.00     0.000 A 
HETATM   26  C   UNL     1      -0.174   6.962 -29.068  1.00  0.00     0.001 A 
HETATM   27  C   UNL     1      -0.914   7.536 -30.102  1.00  0.00     0.015 A 
ENDBRANCH  20  22
ENDBRANCH   1  20
TORSDOF 5
ENDMDL
MODEL 5
REMARK VINA RESULT:      -8.2      2.382      3.092
REMARK  5 active torsions:
REMARK  status: ('A' for Active; 'I' for Inactive)
REMARK    1  A    between atoms: C_4  and  C_5 
REMARK    2  A    between atoms: C_5  and  C_6 
REMARK    3  A    between atoms: C_10  and  C_11 
REMARK       I    between atoms: C_11  and  N_12 
REMARK    4  A    between atoms: N_12  and  N_13 
REMARK    5  A    between atoms: N_13  and  C_14 
ROOT
HETATM    1  C   UNL     1      -6.052   1.708 -32.442  1.00  0.00     0.033 A 
HETATM    2  C   UNL     1      -6.935   2.762 -32.601  1.00  0.00     0.104 A 
HETATM    3  N   UNL     1      -6.227   3.864 -33.001  1.00  0.00    -0.360 N 
HETATM    4  H   UNL     1      -6.613   4.779 -33.203  1.00  0.00     0.165 HD
HETATM    5  C   UNL     1      -4.887   3.564 -33.104  1.00  0.00     0.102 A 
HETATM    6  C   UNL     1      -4.756   2.237 -32.730  1.00  0.00     0.052 A 
ENDROOT
BRANCH   5   7
HETATM    7  C   UNL     1      -3.924   4.549 -33.545  1.00  0.00     0.282 C 
HETATM    8  N   UNL     1      -2.596   4.192 -33.412  1.00  0.00    -0.280 N 
HETATM    9  H   UNL     1      -2.310   3.482 -32.739  1.00  0.00     0.184 HD
HETATM   10  O   UNL     1      -4.261   5.639 -34.010  1.00  0.00    -0.265 OA
BRANCH   8  11
HETATM   11  N   UNL     1      -1.626   5.200 -33.654  1.00  0.00    -0.186 NA
HETATM   12  H   UNL     1      -2.027   5.941 -34.238  1.00  0.00     0.154 HD
BRANCH  11  13
HETATM   13  C   UNL     1      -1.125   5.742 -32.444  1.00  0.00     0.122 A 
HETATM   14  N   UNL     1      -0.349   4.979 -31.640  1.00  0.00    -0.223 NA
HETATM   15  C   UNL     1       0.139   5.563 -30.527  1.00  0.00     0.128 A 
HETATM   16 CL   UNL     1       1.099   4.533 -29.548  1.00  0.00    -0.062 Cl
HETATM   17  C   UNL     1      -0.084   6.879 -30.163  1.00  0.00     0.044 A 
HETATM   18  C   UNL     1      -0.866   7.656 -31.006  1.00  0.00     0.007 A 
HETATM   19  C   UNL     1      -1.390   7.083 -32.162  1.00  0.00     0.046 A 
ENDBRANCH  11  13
ENDBRANCH   8  11
ENDBRANCH   5   7
BRANCH   1  20
HETATM   20  C   UNL     1      -6.347   0.340 -32.019  1.00  0.00     0.193 C 
HETATM   21  O   UNL     1      -6.783   0.096 -30.896  1.00  0.00    -0.287 OA
BRANCH  20  22
HETATM   22  C   UNL     1      -6.109  -0.797 -32.949  1.00  0.00     0.015 A 
HETATM   23  C   UNL     1      -4.824  -1.349 -33.014  1.00  0.00     0.015 A 
HETATM   24  C   UNL     1      -4.553  -2.392 -33.901  1.00  0.00     0.001 A 
HETATM   25  C   UNL     1      -5.561  -2.878 -34.734  1.00  0.00     0.000 A 
HETATM   26  C   UNL     1      -6.837  -2.318 -34.689  1.00  0.00     0.001 A 
HETATM   27  C   UNL     1      -7.112  -1.274 -33.804  1.00  0.00     0.015 A 
ENDBRANCH  20  22
ENDBRANCH   1  20
TORSDOF 5
ENDMDL
MODEL 6
REMARK VINA RESULT:      -8.1      2.489      3.049
REMARK  5 active torsions:
REMARK  status: ('A' for Active; 'I' for Inactive)
REMARK    1  A    between atoms: C_4  and  C_5 
REMARK    2  A    between atoms: C_5  and  C_6 
REMARK    3  A    between atoms: C_10  and  C_11 
REMARK       I    between atoms: C_11  and  N_12 
REMARK    4  A    between atoms: N_12  and  N_13 
REMARK    5  A    between atoms: N_13  and  C_14 
ROOT
HETATM    1  C   UNL     1      -5.434   1.287 -32.462  1.00  0.00     0.033 A 
HETATM    2  C   UNL     1      -6.144   2.334 -33.023  1.00  0.00     0.104 A 
HETATM    3  N   UNL     1      -5.318   3.423 -33.106  1.00  0.00    -0.360 N 
HETATM    4  H   UNL     1      -5.565   4.331 -33.484  1.00  0.00     0.165 HD
HETATM    5  C   UNL     1      -4.072   3.122 -32.604  1.00  0.00     0.102 A 
HETATM    6  C   UNL     1      -4.135   1.808 -32.171  1.00  0.00     0.052 A 
ENDROOT
BRANCH   5   7
HETATM    7  C   UNL     1      -3.000   4.093 -32.610  1.00  0.00     0.282 C 
HETATM    8  N   UNL     1      -2.972   4.961 -31.535  1.00  0.00    -0.280 N 
HETATM    9  H   UNL     1      -3.814   5.152 -30.994  1.00  0.00     0.184 HD
HETATM   10  O   UNL     1      -2.164   4.148 -33.513  1.00  0.00    -0.265 OA
BRANCH   8  11
HETATM   11  N   UNL     1      -2.056   6.044 -31.601  1.00  0.00    -0.186 NA
HETATM   12  H   UNL     1      -2.563   6.933 -31.652  1.00  0.00     0.154 HD
BRANCH  11  13
HETATM   13  C   UNL     1      -1.170   6.045 -30.494  1.00  0.00     0.122 A 
HETATM   14  N   UNL     1      -1.453   6.807 -29.412  1.00  0.00    -0.223 NA
HETATM   15  C   UNL     1      -0.601   6.730 -28.370  1.00  0.00     0.128 A 
HETATM   16 CL   UNL     1      -1.011   7.735 -27.042  1.00  0.00    -0.062 Cl
HETATM   17  C   UNL     1       0.521   5.923 -28.325  1.00  0.00     0.044 A 
HETATM   18  C   UNL     1       0.790   5.132 -29.434  1.00  0.00     0.007 A 
HETATM   19  C   UNL     1      -0.068   5.190 -30.530  1.00  0.00     0.046 A 
ENDBRANCH  11  13
ENDBRANCH   8  11
ENDBRANCH   5   7
BRANCH   1  20
HETATM   20  C   UNL     1      -5.902  -0.067 -32.169  1.00  0.00     0.193 C 
HETATM   21  O   UNL     1      -6.416  -0.347 -31.089  1.00  0.00    -0.287 OA
BRANCH  20  22
HETATM   22  C   UNL     1      -5.750  -1.145 -33.182  1.00  0.00     0.015 A 
HETATM   23  C   UNL     1      -6.895  -1.612 -33.838  1.00  0.00     0.015 A 
HETATM   24  C   UNL     1      -6.797  -2.648 -34.770  1.00  0.00     0.001 A 
HETATM   25  C   UNL     1      -5.557  -3.228 -35.038  1.00  0.00     0.000 A 
HETATM   26  C   UNL     1      -4.416  -2.781 -34.373  1.00  0.00     0.001 A 
HETATM   27  C   UNL     1      -4.510  -1.746 -33.441  1.00  0.00     0.015 A 
ENDBRANCH  20  22
ENDBRANCH   1  20
TORSDOF 5
ENDMDL
MODEL 7
REMARK VINA RESULT:      -8.1      1.686      2.231
REMARK  5 active torsions:
REMARK  status: ('A' for Active; 'I' for Inactive)
REMARK    1  A    between atoms: C_4  and  C_5 
REMARK    2  A    between atoms: C_5  and  C_6 
REMARK    3  A    between atoms: C_10  and  C_11 
REMARK       I    between atoms: C_11  and  N_12 
REMARK    4  A    between atoms: N_12  and  N_13 
REMARK    5  A    between atoms: N_13  and  C_14 
ROOT
HETATM    1  C   UNL     1      -6.821   0.644 -32.085  1.00  0.00     0.033 A 
HETATM    2  C   UNL     1      -6.676   0.485 -30.718  1.00  0.00     0.104 A 
HETATM    3  N   UNL     1      -6.116   1.624 -30.206  1.00  0.00    -0.360 N 
HETATM    4  H   UNL     1      -5.901   1.797 -29.231  1.00  0.00     0.165 HD
HETATM    5  C   UNL     1      -5.878   2.537 -31.210  1.00  0.00     0.102 A 
HETATM    6  C   UNL     1      -6.282   1.932 -32.389  1.00  0.00     0.052 A 
ENDROOT
BRANCH   5   7
HETATM    7  C   UNL     1      -5.321   3.841 -30.928  1.00  0.00     0.282 C 
HETATM    8  N   UNL     1      -3.943   3.905 -30.866  1.00  0.00    -0.280 N 
HETATM    9  H   UNL     1      -3.389   3.073 -30.666  1.00  0.00     0.184 HD
HETATM   10  O   UNL     1      -6.027   4.836 -30.753  1.00  0.00    -0.265 OA
BRANCH   8  11
HETATM   11  N   UNL     1      -3.370   5.120 -30.406  1.00  0.00    -0.186 NA
HETATM   12  H   UNL     1      -2.836   4.955 -29.547  1.00  0.00     0.154 HD
BRANCH  11  13
HETATM   13  C   UNL     1      -2.544   5.713 -31.394  1.00  0.00     0.122 A 
HETATM   14  N   UNL     1      -2.475   5.162 -32.627  1.00  0.00    -0.223 NA
HETATM   15  C   UNL     1      -1.712   5.797 -33.539  1.00  0.00     0.128 A 
HETATM   16 CL   UNL     1      -1.658   5.035 -35.075  1.00  0.00    -0.062 Cl
HETATM   17  C   UNL     1      -1.014   6.969 -33.308  1.00  0.00     0.044 A 
HETATM   18  C   UNL     1      -1.108   7.534 -32.043  1.00  0.00     0.007 A 
HETATM   19  C   UNL     1      -1.885   6.902 -31.075  1.00  0.00     0.046 A 
ENDBRANCH  11  13
ENDBRANCH   8  11
ENDBRANCH   5   7
BRANCH   1  20
HETATM   20  C   UNL     1      -7.363  -0.310 -33.053  1.00  0.00     0.193 C 
HETATM   21  O   UNL     1      -8.543  -0.276 -33.394  1.00  0.00    -0.287 OA
BRANCH  20  22
HETATM   22  C   UNL     1      -6.486  -1.359 -33.637  1.00  0.00     0.015 A 
HETATM   23  C   UNL     1      -5.104  -1.271 -33.423  1.00  0.00     0.015 A 
HETATM   24  C   UNL     1      -4.246  -2.217 -33.987  1.00  0.00     0.001 A 
HETATM   25  C   UNL     1      -4.763  -3.245 -34.776  1.00  0.00     0.000 A 
HETATM   26  C   UNL     1      -6.135  -3.325 -35.010  1.00  0.00     0.001 A 
HETATM   27  C   UNL     1      -6.997  -2.381 -34.449  1.00  0.00     0.015 A 
ENDBRANCH  20  22
ENDBRANCH   1  20
TORSDOF 5
ENDMDL
MODEL 8
REMARK VINA RESULT:      -7.9      3.386      9.241
REMARK  5 active torsions:
REMARK  status: ('A' for Active; 'I' for Inactive)
REMARK    1  A    between atoms: C_4  and  C_5 
REMARK    2  A    between atoms: C_5  and  C_6 
REMARK    3  A    between atoms: C_10  and  C_11 
REMARK       I    between atoms: C_11  and  N_12 
REMARK    4  A    between atoms: N_12  and  N_13 
REMARK    5  A    between atoms: N_13  and  C_14 
ROOT
HETATM    1  C   UNL     1      -1.952   6.087 -32.430  1.00  0.00     0.033 A 
HETATM    2  C   UNL     1      -1.732   5.450 -33.638  1.00  0.00     0.104 A 
HETATM    3  N   UNL     1      -2.234   4.178 -33.555  1.00  0.00    -0.360 N 
HETATM    4  H   UNL     1      -2.223   3.484 -34.293  1.00  0.00     0.165 HD
HETATM    5  C   UNL     1      -2.778   3.956 -32.310  1.00  0.00     0.102 A 
HETATM    6  C   UNL     1      -2.583   5.121 -31.586  1.00  0.00     0.052 A 
ENDROOT
BRANCH   5   7
HETATM    7  C   UNL     1      -3.409   2.698 -31.975  1.00  0.00     0.282 C 
HETATM    8  N   UNL     1      -4.640   2.471 -32.560  1.00  0.00    -0.280 N 
HETATM    9  H   UNL     1      -5.216   3.245 -32.888  1.00  0.00     0.184 HD
HETATM   10  O   UNL     1      -2.888   1.879 -31.216  1.00  0.00    -0.265 OA
BRANCH   8  11
HETATM   11  N   UNL     1      -5.373   1.341 -32.110  1.00  0.00    -0.186 NA
HETATM   12  H   UNL     1      -5.883   1.571 -31.251  1.00  0.00     0.154 HD
BRANCH  11  13
HETATM   13  C   UNL     1      -6.268   0.871 -33.103  1.00  0.00     0.122 A 
HETATM   14  N   UNL     1      -7.485   1.448 -33.235  1.00  0.00    -0.223 NA
HETATM   15  C   UNL     1      -8.274   0.993 -34.228  1.00  0.00     0.128 A 
HETATM   16 CL   UNL     1      -9.806   1.758 -34.325  1.00  0.00    -0.062 Cl
HETATM   17  C   UNL     1      -7.924  -0.003 -35.122  1.00  0.00     0.044 A 
HETATM   18  C   UNL     1      -6.665  -0.575 -34.988  1.00  0.00     0.007 A 
HETATM   19  C   UNL     1      -5.826  -0.130 -33.970  1.00  0.00     0.046 A 
ENDBRANCH  11  13
ENDBRANCH   8  11
ENDBRANCH   5   7
BRANCH   1  20
HETATM   20  C   UNL     1      -1.580   7.449 -32.047  1.00  0.00     0.193 C 
HETATM   21  O   UNL     1      -1.699   8.389 -32.829  1.00  0.00    -0.287 OA
BRANCH  20  22
HETATM   22  C   UNL     1      -1.034   7.720 -30.690  1.00  0.00     0.015 A 
HETATM   23  C   UNL     1      -1.733   8.597 -29.851  1.00  0.00     0.015 A 
HETATM   24  C   UNL     1      -1.233   8.904 -28.584  1.00  0.00     0.001 A 
HETATM   25  C   UNL     1      -0.027   8.347 -28.158  1.00  0.00     0.000 A 
HETATM   26  C   UNL     1       0.684   7.490 -28.997  1.00  0.00     0.001 A 
HETATM   27  C   UNL     1       0.187   7.181 -30.264  1.00  0.00     0.015 A 
ENDBRANCH  20  22
ENDBRANCH   1  20
TORSDOF 5
ENDMDL
MODEL 9
REMARK VINA RESULT:      -7.9      3.513      9.191
REMARK  5 active torsions:
REMARK  status: ('A' for Active; 'I' for Inactive)
REMARK    1  A    between atoms: C_4  and  C_5 
REMARK    2  A    between atoms: C_5  and  C_6 
REMARK    3  A    between atoms: C_10  and  C_11 
REMARK       I    between atoms: C_11  and  N_12 
REMARK    4  A    between atoms: N_12  and  N_13 
REMARK    5  A    between atoms: N_13  and  C_14 
ROOT
HETATM    1  C   UNL     1      -1.898   5.373 -32.420  1.00  0.00     0.033 A 
HETATM    2  C   UNL     1      -2.138   4.624 -33.558  1.00  0.00     0.104 A 
HETATM    3  N   UNL     1      -2.818   3.491 -33.196  1.00  0.00    -0.360 N 
HETATM    4  H   UNL     1      -3.135   2.761 -33.823  1.00  0.00     0.165 HD
HETATM    5  C   UNL     1      -3.028   3.470 -31.835  1.00  0.00     0.102 A 
HETATM    6  C   UNL     1      -2.436   4.617 -31.333  1.00  0.00     0.052 A 
ENDROOT
BRANCH   5   7
HETATM    7  C   UNL     1      -3.758   2.395 -31.200  1.00  0.00     0.282 C 
HETATM    8  N   UNL     1      -3.340   1.117 -31.519  1.00  0.00    -0.280 N 
HETATM    9  H   UNL     1      -2.832   0.932 -32.383  1.00  0.00     0.184 HD
HETATM   10  O   UNL     1      -4.693   2.600 -30.425  1.00  0.00    -0.265 OA
BRANCH   8  11
HETATM   11  N   UNL     1      -4.149   0.040 -31.068  1.00  0.00    -0.186 NA
HETATM   12  H   UNL     1      -4.766   0.355 -30.313  1.00  0.00     0.154 HD
BRANCH  11  13
HETATM   13  C   UNL     1      -4.910  -0.518 -32.126  1.00  0.00     0.122 A 
HETATM   14  N   UNL     1      -4.367  -1.482 -32.904  1.00  0.00    -0.223 NA
HETATM   15  C   UNL     1      -5.154  -2.010 -33.863  1.00  0.00     0.128 A 
HETATM   16 CL   UNL     1      -4.395  -3.214 -34.822  1.00  0.00    -0.062 Cl
HETATM   17  C   UNL     1      -6.469  -1.649 -34.093  1.00  0.00     0.044 A 
HETATM   18  C   UNL     1      -7.020  -0.672 -33.275  1.00  0.00     0.007 A 
HETATM   19  C   UNL     1      -6.234  -0.102 -32.277  1.00  0.00     0.046 A 
ENDBRANCH  11  13
ENDBRANCH   8  11
ENDBRANCH   5   7
BRANCH   1  20
HETATM   20  C   UNL     1      -1.198   6.653 -32.313  1.00  0.00     0.193 C 
HETATM   21  O   UNL     1      -0.862   7.285 -33.312  1.00  0.00    -0.287 OA
BRANCH  20  22
HETATM   22  C   UNL     1      -0.865   7.211 -30.975  1.00  0.00     0.015 A 
HETATM   23  C   UNL     1      -1.747   8.133 -30.397  1.00  0.00     0.015 A 
HETATM   24  C   UNL     1      -1.451   8.706 -29.159  1.00  0.00     0.001 A 
HETATM   25  C   UNL     1      -0.267   8.370 -28.501  1.00  0.00     0.000 A 
HETATM   26  C   UNL     1       0.626   7.470 -29.082  1.00  0.00     0.001 A 
HETATM   27  C   UNL     1       0.333   6.895 -30.320  1.00  0.00     0.015 A 
ENDBRANCH  20  22
ENDBRANCH   1  20
TORSDOF 5
ENDMDL
MODEL 10
REMARK VINA RESULT:      -7.7      2.664      3.761
REMARK  5 active torsions:
REMARK  status: ('A' for Active; 'I' for Inactive)
REMARK    1  A    between atoms: C_4  and  C_5 
REMARK    2  A    between atoms: C_5  and  C_6 
REMARK    3  A    between atoms: C_10  and  C_11 
REMARK       I    between atoms: C_11  and  N_12 
REMARK    4  A    between atoms: N_12  and  N_13 
REMARK    5  A    between atoms: N_13  and  C_14 
ROOT
HETATM    1  C   UNL     1      -6.012   2.455 -31.623  1.00  0.00     0.033 A 
HETATM    2  C   UNL     1      -5.709   2.874 -30.340  1.00  0.00     0.104 A 
HETATM    3  N   UNL     1      -4.476   3.469 -30.358  1.00  0.00    -0.360 N 
HETATM    4  H   UNL     1      -4.000   3.878 -29.562  1.00  0.00     0.165 HD
HETATM    5  C   UNL     1      -3.949   3.446 -31.630  1.00  0.00     0.102 A 
HETATM    6  C   UNL     1      -4.877   2.792 -32.424  1.00  0.00     0.052 A 
ENDROOT
BRANCH   5   7
HETATM    7  C   UNL     1      -2.667   4.045 -31.927  1.00  0.00     0.282 C 
HETATM    8  N   UNL     1      -1.812   4.198 -30.852  1.00  0.00    -0.280 N 
HETATM    9  H   UNL     1      -2.172   4.238 -29.899  1.00  0.00     0.184 HD
HETATM   10  O   UNL     1      -2.351   4.399 -33.065  1.00  0.00    -0.265 OA
BRANCH   8  11
HETATM   11  N   UNL     1      -0.628   4.952 -31.067  1.00  0.00    -0.186 NA
HETATM   12  H   UNL     1      -0.574   5.252 -32.046  1.00  0.00     0.154 HD
BRANCH  11  13
HETATM   13  C   UNL     1      -0.560   6.073 -30.203  1.00  0.00     0.122 A 
HETATM   14  N   UNL     1       0.295   6.059 -29.155  1.00  0.00    -0.223 NA
HETATM   15  C   UNL     1       0.352   7.173 -28.397  1.00  0.00     0.128 A 
HETATM   16 CL   UNL     1       1.444   7.078 -27.077  1.00  0.00    -0.062 Cl
HETATM   17  C   UNL     1      -0.385   8.322 -28.624  1.00  0.00     0.044 A 
HETATM   18  C   UNL     1      -1.245   8.329 -29.714  1.00  0.00     0.007 A 
HETATM   19  C   UNL     1      -1.331   7.194 -30.515  1.00  0.00     0.046 A 
ENDBRANCH  11  13
ENDBRANCH   8  11
ENDBRANCH   5   7
BRANCH   1  20
HETATM   20  C   UNL     1      -7.214   1.762 -32.086  1.00  0.00     0.193 C 
HETATM   21  O   UNL     1      -8.327   2.052 -31.655  1.00  0.00    -0.287 OA
BRANCH  20  22
HETATM   22  C   UNL     1      -7.105   0.671 -33.092  1.00  0.00     0.015 A 
HETATM   23  C   UNL     1      -6.506  -0.535 -32.707  1.00  0.00     0.015 A 
HETATM   24  C   UNL     1      -6.354  -1.569 -33.633  1.00  0.00     0.001 A 
HETATM   25  C   UNL     1      -6.787  -1.396 -34.948  1.00  0.00     0.000 A 
HETATM   26  C   UNL     1      -7.365  -0.190 -35.342  1.00  0.00     0.001 A 
HETATM   27  C   UNL     1      -7.519   0.847 -34.419  1.00  0.00     0.015 A 
ENDBRANCH  20  22
ENDBRANCH   1  20
TORSDOF 5
ENDMDL
