MODEL 1
REMARK VINA RESULT:      -8.0      0.000      0.000
REMARK  4 active torsions:
REMARK  status: ('A' for Active; 'I' for Inactive)
REMARK    1  A    between atoms: C_2  and  C_3 
REMARK    2  A    between atoms: C_3  and  N_4 
REMARK    3  A    between atoms: C_3  and  C_17 
REMARK       I    between atoms: N_4  and  C_5 
REMARK    4  A    between atoms: C_5  and  C_6 
ROOT
HETATM    1  N   UNL     1      -4.995   2.234 -31.999  1.00  0.00    -0.345 N 
HETATM    2  C   UNL     1      -3.970   1.339 -31.758  1.00  0.00     0.252 C 
HETATM    3  O   UNL     1      -2.974   1.656 -31.115  1.00  0.00    -0.268 OA
HETATM    4  H   UNL     1      -5.622   1.985 -32.757  1.00  0.00     0.163 HD
ENDROOT
BRANCH   1   5
HETATM    5  C   UNL     1      -4.848   3.671 -31.730  1.00  0.00     0.152 C 
BRANCH   5   6
HETATM    6  C   UNL     1      -5.236   3.993 -30.279  1.00  0.00     0.028 C 
HETATM    7  C   UNL     1      -6.589   3.430 -29.860  1.00  0.00     0.007 C 
ENDBRANCH   5   6
BRANCH   5   8
HETATM    8  C   UNL     1      -3.481   4.228 -32.161  1.00  0.00     0.104 A 
HETATM    9  N   UNL     1      -3.099   4.560 -33.404  1.00  0.00    -0.347 N 
HETATM   10  H   UNL     1      -3.741   4.428 -34.200  1.00  0.00     0.167 HD
HETATM   11  C   UNL     1      -1.815   5.059 -33.456  1.00  0.00     0.022 A 
HETATM   12  C   UNL     1      -1.160   5.483 -34.702  1.00  0.00     0.069 C 
HETATM   13  C   UNL     1      -1.391   5.047 -32.152  1.00  0.00     0.114 A 
HETATM   14  N   UNL     1      -2.425   4.546 -31.389  1.00  0.00    -0.352 N 
HETATM   15  H   UNL     1      -2.395   4.437 -30.379  1.00  0.00     0.166 HD
ENDBRANCH   5   8
ENDBRANCH   1   5
BRANCH   2  16
HETATM   16  C   UNL     1      -4.109  -0.032 -32.328  1.00  0.00     0.033 A 
HETATM   17  C   UNL     1      -5.154  -0.251 -33.247  1.00  0.00     0.031 A 
HETATM   18  C   UNL     1      -5.318  -1.535 -33.795  1.00  0.00     0.001 A 
HETATM   19  C   UNL     1      -4.437  -2.538 -33.414  1.00  0.00     0.086 A 
HETATM   20  C   UNL     1      -6.217  -2.141 -34.713  1.00  0.00     0.046 A 
HETATM   21  O   UNL     1      -4.747  -3.705 -34.037  1.00  0.00    -0.315 OA
HETATM   22  C   UNL     1      -3.383  -2.356 -32.522  1.00  0.00     0.039 A 
HETATM   23  C   UNL     1      -5.832  -3.462 -34.827  1.00  0.00     0.050 A 
HETATM   24  C   UNL     1      -6.353  -4.603 -35.607  1.00  0.00     0.077 C 
HETATM   25  C   UNL     1      -3.228  -1.071 -31.985  1.00  0.00     0.020 A 
ENDBRANCH   2  16
TORSDOF 4
ENDMDL
MODEL 2
REMARK VINA RESULT:      -7.9      1.598      3.107
REMARK  4 active torsions:
REMARK  status: ('A' for Active; 'I' for Inactive)
REMARK    1  A    between atoms: C_2  and  C_3 
REMARK    2  A    between atoms: C_3  and  N_4 
REMARK    3  A    between atoms: C_3  and  C_17 
REMARK       I    between atoms: N_4  and  C_5 
REMARK    4  A    between atoms: C_5  and  C_6 
ROOT
HETATM    1  N   UNL     1      -3.762   2.950 -32.668  1.00  0.00    -0.345 N 
HETATM    2  C   UNL     1      -3.697   1.683 -32.119  1.00  0.00     0.252 C 
HETATM    3  O   UNL     1      -2.899   1.405 -31.228  1.00  0.00    -0.268 OA
HETATM    4  H   UNL     1      -4.231   3.012 -33.565  1.00  0.00     0.163 HD
ENDROOT
BRANCH   1   5
HETATM    5  C   UNL     1      -2.727   3.960 -32.410  1.00  0.00     0.152 C 
BRANCH   5   6
HETATM    6  C   UNL     1      -2.153   4.498 -33.729  1.00  0.00     0.028 C 
HETATM    7  C   UNL     1      -3.184   5.180 -34.620  1.00  0.00     0.007 C 
ENDBRANCH   5   6
BRANCH   5   8
HETATM    8  C   UNL     1      -3.182   5.049 -31.424  1.00  0.00     0.104 A 
HETATM    9  N   UNL     1      -4.192   4.971 -30.543  1.00  0.00    -0.347 N 
HETATM   10  H   UNL     1      -4.776   4.124 -30.492  1.00  0.00     0.167 HD
HETATM   11  C   UNL     1      -4.328   6.111 -29.780  1.00  0.00     0.022 A 
HETATM   12  C   UNL     1      -5.366   6.280 -28.753  1.00  0.00     0.069 C 
HETATM   13  C   UNL     1      -3.319   6.934 -30.212  1.00  0.00     0.114 A 
HETATM   14  N   UNL     1      -2.637   6.260 -31.203  1.00  0.00    -0.352 N 
HETATM   15  H   UNL     1      -1.828   6.627 -31.696  1.00  0.00     0.166 HD
ENDBRANCH   5   8
ENDBRANCH   1   5
BRANCH   2  16
HETATM   16  C   UNL     1      -4.624   0.650 -32.664  1.00  0.00     0.033 A 
HETATM   17  C   UNL     1      -4.049  -0.506 -33.226  1.00  0.00     0.031 A 
HETATM   18  C   UNL     1      -4.896  -1.495 -33.758  1.00  0.00     0.001 A 
HETATM   19  C   UNL     1      -6.268  -1.296 -33.701  1.00  0.00     0.086 A 
HETATM   20  C   UNL     1      -4.716  -2.753 -34.393  1.00  0.00     0.046 A 
HETATM   21  O   UNL     1      -6.925  -2.346 -34.262  1.00  0.00    -0.315 OA
HETATM   22  C   UNL     1      -6.873  -0.175 -33.139  1.00  0.00     0.039 A 
HETATM   23  C   UNL     1      -5.977  -3.232 -34.683  1.00  0.00     0.050 A 
HETATM   24  C   UNL     1      -6.466  -4.465 -35.334  1.00  0.00     0.077 C 
HETATM   25  C   UNL     1      -6.019   0.802 -32.609  1.00  0.00     0.020 A 
ENDBRANCH   2  16
TORSDOF 4
ENDMDL
MODEL 3
REMARK VINA RESULT:      -7.7      1.746      2.665
REMARK  4 active torsions:
REMARK  status: ('A' for Active; 'I' for Inactive)
REMARK    1  A    between atoms: C_2  and  C_3 
REMARK    2  A    between atoms: C_3  and  N_4 
REMARK    3  A    between atoms: C_3  and  C_17 
REMARK       I    between atoms: N_4  and  C_5 
REMARK    4  A    between atoms: C_5  and  C_6 
ROOT
HETATM    1  N   UNL     1      -4.808   2.779 -32.603  1.00  0.00    -0.345 N 
HETATM    2  C   UNL     1      -6.009   2.613 -33.267  1.00  0.00     0.252 C 
HETATM    3  O   UNL     1      -6.810   3.535 -33.393  1.00  0.00    -0.268 OA
HETATM    4  H   UNL     1      -4.354   1.923 -32.305  1.00  0.00     0.163 HD
ENDROOT
BRANCH   1   5
HETATM    5  C   UNL     1      -4.528   3.973 -31.795  1.00  0.00     0.152 C 
BRANCH   5   6
HETATM    6  C   UNL     1      -4.958   3.755 -30.337  1.00  0.00     0.028 C 
HETATM    7  C   UNL     1      -5.824   4.875 -29.773  1.00  0.00     0.007 C 
ENDBRANCH   5   6
BRANCH   5   8
HETATM    8  C   UNL     1      -3.089   4.490 -31.964  1.00  0.00     0.104 A 
HETATM    9  N   UNL     1      -2.154   4.600 -31.008  1.00  0.00    -0.347 N 
HETATM   10  H   UNL     1      -2.371   4.348 -30.032  1.00  0.00     0.167 HD
HETATM   11  C   UNL     1      -0.951   5.073 -31.487  1.00  0.00     0.022 A 
HETATM   12  C   UNL     1       0.230   5.293 -30.638  1.00  0.00     0.069 C 
HETATM   13  C   UNL     1      -1.161   5.245 -32.831  1.00  0.00     0.114 A 
HETATM   14  N   UNL     1      -2.464   4.876 -33.091  1.00  0.00    -0.352 N 
HETATM   15  H   UNL     1      -2.893   4.889 -34.013  1.00  0.00     0.166 HD
ENDBRANCH   5   8
ENDBRANCH   1   5
BRANCH   2  16
HETATM   16  C   UNL     1      -6.310   1.259 -33.814  1.00  0.00     0.033 A 
HETATM   17  C   UNL     1      -5.428   0.213 -33.479  1.00  0.00     0.031 A 
HETATM   18  C   UNL     1      -5.678  -1.075 -33.986  1.00  0.00     0.001 A 
HETATM   19  C   UNL     1      -6.791  -1.266 -34.792  1.00  0.00     0.086 A 
HETATM   20  C   UNL     1      -5.048  -2.344 -33.891  1.00  0.00     0.046 A 
HETATM   21  O   UNL     1      -6.871  -2.564 -35.191  1.00  0.00    -0.315 OA
HETATM   22  C   UNL     1      -7.694  -0.262 -35.131  1.00  0.00     0.039 A 
HETATM   23  C   UNL     1      -5.808  -3.218 -34.641  1.00  0.00     0.050 A 
HETATM   24  C   UNL     1      -5.689  -4.659 -34.944  1.00  0.00     0.077 C 
HETATM   25  C   UNL     1      -7.436   1.016 -34.617  1.00  0.00     0.020 A 
ENDBRANCH   2  16
TORSDOF 4
ENDMDL
MODEL 4
REMARK VINA RESULT:      -7.6      5.267      7.490
REMARK  4 active torsions:
REMARK  status: ('A' for Active; 'I' for Inactive)
REMARK    1  A    between atoms: C_2  and  C_3 
REMARK    2  A    between atoms: C_3  and  N_4 
REMARK    3  A    between atoms: C_3  and  C_17 
REMARK       I    between atoms: N_4  and  C_5 
REMARK    4  A    between atoms: C_5  and  C_6 
ROOT
HETATM    1  N   UNL     1      -7.250   0.413 -33.511  1.00  0.00    -0.345 N 
HETATM    2  C   UNL     1      -7.621   1.689 -33.889  1.00  0.00     0.252 C 
HETATM    3  O   UNL     1      -6.793   2.527 -34.232  1.00  0.00    -0.268 OA
HETATM    4  H   UNL     1      -7.946  -0.105 -32.984  1.00  0.00     0.163 HD
ENDROOT
BRANCH   1   5
HETATM    5  C   UNL     1      -5.849   0.058 -33.250  1.00  0.00     0.152 C 
BRANCH   5   6
HETATM    6  C   UNL     1      -5.494   0.297 -31.774  1.00  0.00     0.028 C 
HETATM    7  C   UNL     1      -6.617  -0.051 -30.804  1.00  0.00     0.007 C 
ENDBRANCH   5   6
BRANCH   5   8
HETATM    8  C   UNL     1      -5.472  -1.336 -33.776  1.00  0.00     0.104 A 
HETATM    9  N   UNL     1      -6.286  -2.222 -34.372  1.00  0.00    -0.347 N 
HETATM   10  H   UNL     1      -7.286  -2.010 -34.497  1.00  0.00     0.167 HD
HETATM   11  C   UNL     1      -5.635  -3.375 -34.755  1.00  0.00     0.022 A 
HETATM   12  C   UNL     1      -6.307  -4.504 -35.417  1.00  0.00     0.069 C 
HETATM   13  C   UNL     1      -4.330  -3.171 -34.385  1.00  0.00     0.114 A 
HETATM   14  N   UNL     1      -4.261  -1.924 -33.801  1.00  0.00    -0.352 N 
HETATM   15  H   UNL     1      -3.409  -1.502 -33.443  1.00  0.00     0.166 HD
ENDBRANCH   5   8
ENDBRANCH   1   5
BRANCH   2  16
HETATM   16  C   UNL     1      -9.074   2.022 -33.848  1.00  0.00     0.033 A 
HETATM   17  C   UNL     1      -9.984   0.949 -33.773  1.00  0.00     0.031 A 
HETATM   18  C   UNL     1     -11.362   1.228 -33.743  1.00  0.00     0.001 A 
HETATM   19  C   UNL     1     -11.772   2.554 -33.779  1.00  0.00     0.086 A 
HETATM   20  C   UNL     1     -12.554   0.458 -33.679  1.00  0.00     0.046 A 
HETATM   21  O   UNL     1     -13.129   2.632 -33.745  1.00  0.00    -0.315 OA
HETATM   22  C   UNL     1     -10.903   3.640 -33.836  1.00  0.00     0.039 A 
HETATM   23  C   UNL     1     -13.603   1.355 -33.684  1.00  0.00     0.050 A 
HETATM   24  C   UNL     1     -15.071   1.195 -33.641  1.00  0.00     0.077 C 
HETATM   25  C   UNL     1      -9.533   3.349 -33.862  1.00  0.00     0.020 A 
ENDBRANCH   2  16
TORSDOF 4
ENDMDL
MODEL 5
REMARK VINA RESULT:      -7.6      2.544      7.612
REMARK  4 active torsions:
REMARK  status: ('A' for Active; 'I' for Inactive)
REMARK    1  A    between atoms: C_2  and  C_3 
REMARK    2  A    between atoms: C_3  and  N_4 
REMARK    3  A    between atoms: C_3  and  C_17 
REMARK       I    between atoms: N_4  and  C_5 
REMARK    4  A    between atoms: C_5  and  C_6 
ROOT
HETATM    1  N   UNL     1      -5.984   0.886 -33.227  1.00  0.00    -0.345 N 
HETATM    2  C   UNL     1      -4.997   1.257 -32.335  1.00  0.00     0.252 C 
HETATM    3  O   UNL     1      -4.595   0.493 -31.462  1.00  0.00    -0.268 OA
HETATM    4  H   UNL     1      -6.443   1.650 -33.711  1.00  0.00     0.163 HD
ENDROOT
BRANCH   1   5
HETATM    5  C   UNL     1      -6.785  -0.330 -33.035  1.00  0.00     0.152 C 
BRANCH   5   6
HETATM    6  C   UNL     1      -8.249  -0.083 -33.431  1.00  0.00     0.028 C 
HETATM    7  C   UNL     1      -8.416   0.784 -34.673  1.00  0.00     0.007 C 
ENDBRANCH   5   6
BRANCH   5   8
HETATM    8  C   UNL     1      -6.154  -1.575 -33.679  1.00  0.00     0.104 A 
HETATM    9  N   UNL     1      -6.791  -2.550 -34.347  1.00  0.00    -0.347 N 
HETATM   10  H   UNL     1      -7.815  -2.528 -34.454  1.00  0.00     0.167 HD
HETATM   11  C   UNL     1      -5.935  -3.518 -34.828  1.00  0.00     0.022 A 
HETATM   12  C   UNL     1      -6.386  -4.696 -35.584  1.00  0.00     0.069 C 
HETATM   13  C   UNL     1      -4.688  -3.095 -34.443  1.00  0.00     0.114 A 
HETATM   14  N   UNL     1      -4.853  -1.911 -33.755  1.00  0.00    -0.352 N 
HETATM   15  H   UNL     1      -4.092  -1.363 -33.363  1.00  0.00     0.166 HD
ENDBRANCH   5   8
ENDBRANCH   1   5
BRANCH   2  16
HETATM   16  C   UNL     1      -4.445   2.637 -32.456  1.00  0.00     0.033 A 
HETATM   17  C   UNL     1      -3.196   2.892 -31.856  1.00  0.00     0.031 A 
HETATM   18  C   UNL     1      -2.652   4.186 -31.944  1.00  0.00     0.001 A 
HETATM   19  C   UNL     1      -3.366   5.161 -32.627  1.00  0.00     0.086 A 
HETATM   20  C   UNL     1      -1.469   4.825 -31.485  1.00  0.00     0.046 A 
HETATM   21  O   UNL     1      -2.693   6.343 -32.607  1.00  0.00    -0.315 OA
HETATM   22  C   UNL     1      -4.593   4.943 -33.247  1.00  0.00     0.039 A 
HETATM   23  C   UNL     1      -1.539   6.135 -31.911  1.00  0.00     0.050 A 
HETATM   24  C   UNL     1      -0.640   7.298 -31.758  1.00  0.00     0.077 C 
HETATM   25  C   UNL     1      -5.123   3.649 -33.156  1.00  0.00     0.020 A 
ENDBRANCH   2  16
TORSDOF 4
ENDMDL
MODEL 6
REMARK VINA RESULT:      -7.5      1.810      3.000
REMARK  4 active torsions:
REMARK  status: ('A' for Active; 'I' for Inactive)
REMARK    1  A    between atoms: C_2  and  C_3 
REMARK    2  A    between atoms: C_3  and  N_4 
REMARK    3  A    between atoms: C_3  and  C_17 
REMARK       I    between atoms: N_4  and  C_5 
REMARK    4  A    between atoms: C_5  and  C_6 
ROOT
HETATM    1  N   UNL     1      -4.398   2.492 -32.641  1.00  0.00    -0.345 N 
HETATM    2  C   UNL     1      -3.690   1.498 -31.993  1.00  0.00     0.252 C 
HETATM    3  O   UNL     1      -2.912   1.752 -31.077  1.00  0.00    -0.268 OA
HETATM    4  H   UNL     1      -4.783   2.234 -33.543  1.00  0.00     0.163 HD
ENDROOT
BRANCH   1   5
HETATM    5  C   UNL     1      -4.081   3.915 -32.458  1.00  0.00     0.152 C 
BRANCH   5   6
HETATM    6  C   UNL     1      -2.874   4.317 -33.320  1.00  0.00     0.028 C 
HETATM    7  C   UNL     1      -1.651   4.738 -32.514  1.00  0.00     0.007 C 
ENDBRANCH   5   6
BRANCH   5   8
HETATM    8  C   UNL     1      -5.307   4.830 -32.615  1.00  0.00     0.104 A 
HETATM    9  N   UNL     1      -6.454   4.542 -33.250  1.00  0.00    -0.347 N 
HETATM   10  H   UNL     1      -6.576   3.634 -33.722  1.00  0.00     0.167 HD
HETATM   11  C   UNL     1      -7.372   5.568 -33.189  1.00  0.00     0.022 A 
HETATM   12  C   UNL     1      -8.701   5.505 -33.816  1.00  0.00     0.069 C 
HETATM   13  C   UNL     1      -6.750   6.541 -32.450  1.00  0.00     0.114 A 
HETATM   14  N   UNL     1      -5.503   6.062 -32.110  1.00  0.00    -0.352 N 
HETATM   15  H   UNL     1      -4.825   6.569 -31.548  1.00  0.00     0.166 HD
ENDBRANCH   5   8
ENDBRANCH   1   5
BRANCH   2  16
HETATM   16  C   UNL     1      -3.891   0.096 -32.459  1.00  0.00     0.033 A 
HETATM   17  C   UNL     1      -4.909  -0.134 -33.405  1.00  0.00     0.031 A 
HETATM   18  C   UNL     1      -5.131  -1.446 -33.859  1.00  0.00     0.001 A 
HETATM   19  C   UNL     1      -4.331  -2.465 -33.360  1.00  0.00     0.086 A 
HETATM   20  C   UNL     1      -6.028  -2.070 -34.767  1.00  0.00     0.046 A 
HETATM   21  O   UNL     1      -4.688  -3.659 -33.905  1.00  0.00    -0.315 OA
HETATM   22  C   UNL     1      -3.305  -2.275 -32.438  1.00  0.00     0.039 A 
HETATM   23  C   UNL     1      -5.722  -3.415 -34.760  1.00  0.00     0.050 A 
HETATM   24  C   UNL     1      -6.281  -4.583 -35.472  1.00  0.00     0.077 C 
HETATM   25  C   UNL     1      -3.092  -0.962 -31.997  1.00  0.00     0.020 A 
ENDBRANCH   2  16
TORSDOF 4
ENDMDL
MODEL 7
REMARK VINA RESULT:      -7.2      5.142      6.648
REMARK  4 active torsions:
REMARK  status: ('A' for Active; 'I' for Inactive)
REMARK    1  A    between atoms: C_2  and  C_3 
REMARK    2  A    between atoms: C_3  and  N_4 
REMARK    3  A    between atoms: C_3  and  C_17 
REMARK       I    between atoms: N_4  and  C_5 
REMARK    4  A    between atoms: C_5  and  C_6 
ROOT
HETATM    1  N   UNL     1      -7.351   0.125 -33.385  1.00  0.00    -0.345 N 
HETATM    2  C   UNL     1      -8.286   0.478 -32.431  1.00  0.00     0.252 C 
HETATM    3  O   UNL     1      -8.044   0.400 -31.230  1.00  0.00    -0.268 OA
HETATM    4  H   UNL     1      -7.720  -0.049 -34.313  1.00  0.00     0.163 HD
ENDROOT
BRANCH   1   5
HETATM    5  C   UNL     1      -6.121  -0.598 -33.034  1.00  0.00     0.152 C 
BRANCH   5   6
HETATM    6  C   UNL     1      -5.656  -1.478 -34.204  1.00  0.00     0.028 C 
HETATM    7  C   UNL     1      -6.668  -2.537 -34.622  1.00  0.00     0.007 C 
ENDBRANCH   5   6
BRANCH   5   8
HETATM    8  C   UNL     1      -5.029   0.317 -32.454  1.00  0.00     0.104 A 
HETATM    9  N   UNL     1      -4.787   1.595 -32.784  1.00  0.00    -0.347 N 
HETATM   10  H   UNL     1      -5.346   2.061 -33.514  1.00  0.00     0.167 HD
HETATM   11  C   UNL     1      -3.753   2.149 -32.061  1.00  0.00     0.022 A 
HETATM   12  C   UNL     1      -3.286   3.532 -32.243  1.00  0.00     0.069 C 
HETATM   13  C   UNL     1      -3.348   1.145 -31.219  1.00  0.00     0.114 A 
HETATM   14  N   UNL     1      -4.145   0.050 -31.476  1.00  0.00    -0.352 N 
HETATM   15  H   UNL     1      -4.077  -0.838 -30.986  1.00  0.00     0.166 HD
ENDBRANCH   5   8
ENDBRANCH   1   5
BRANCH   2  16
HETATM   16  C   UNL     1      -9.617   0.943 -32.915  1.00  0.00     0.033 A 
HETATM   17  C   UNL     1     -10.652  -0.010 -32.984  1.00  0.00     0.031 A 
HETATM   18  C   UNL     1     -11.918   0.394 -33.445  1.00  0.00     0.001 A 
HETATM   19  C   UNL     1     -12.100   1.722 -33.808  1.00  0.00     0.086 A 
HETATM   20  C   UNL     1     -13.171  -0.239 -33.661  1.00  0.00     0.046 A 
HETATM   21  O   UNL     1     -13.376   1.928 -34.229  1.00  0.00    -0.315 OA
HETATM   22  C   UNL     1     -11.107   2.695 -33.737  1.00  0.00     0.039 A 
HETATM   23  C   UNL     1     -14.026   0.733 -34.140  1.00  0.00     0.050 A 
HETATM   24  C   UNL     1     -15.444   0.718 -34.553  1.00  0.00     0.077 C 
HETATM   25  C   UNL     1      -9.851   2.281 -33.273  1.00  0.00     0.020 A 
ENDBRANCH   2  16
TORSDOF 4
ENDMDL
MODEL 8
REMARK VINA RESULT:      -7.2      1.962      3.786
REMARK  4 active torsions:
REMARK  status: ('A' for Active; 'I' for Inactive)
REMARK    1  A    between atoms: C_2  and  C_3 
REMARK    2  A    between atoms: C_3  and  N_4 
REMARK    3  A    between atoms: C_3  and  C_17 
REMARK       I    between atoms: N_4  and  C_5 
REMARK    4  A    between atoms: C_5  and  C_6 
ROOT
HETATM    1  N   UNL     1      -5.732   2.758 -32.546  1.00  0.00    -0.345 N 
HETATM    2  C   UNL     1      -4.602   2.007 -32.284  1.00  0.00     0.252 C 
HETATM    3  O   UNL     1      -3.628   2.485 -31.711  1.00  0.00    -0.268 OA
HETATM    4  H   UNL     1      -6.352   2.379 -33.255  1.00  0.00     0.163 HD
ENDROOT
BRANCH   1   5
HETATM    5  C   UNL     1      -5.745   4.218 -32.392  1.00  0.00     0.152 C 
BRANCH   5   6
HETATM    6  C   UNL     1      -5.763   4.909 -33.764  1.00  0.00     0.028 C 
HETATM    7  C   UNL     1      -4.378   5.164 -34.347  1.00  0.00     0.007 C 
ENDBRANCH   5   6
BRANCH   5   8
HETATM    8  C   UNL     1      -6.829   4.711 -31.418  1.00  0.00     0.104 A 
HETATM    9  N   UNL     1      -6.640   5.235 -30.197  1.00  0.00    -0.347 N 
HETATM   10  H   UNL     1      -5.690   5.320 -29.806  1.00  0.00     0.167 HD
HETATM   11  C   UNL     1      -7.817   5.607 -29.585  1.00  0.00     0.022 A 
HETATM   12  C   UNL     1      -7.881   6.194 -28.238  1.00  0.00     0.069 C 
HETATM   13  C   UNL     1      -8.790   5.307 -30.503  1.00  0.00     0.114 A 
HETATM   14  N   UNL     1      -8.160   4.773 -31.607  1.00  0.00    -0.352 N 
HETATM   15  H   UNL     1      -8.637   4.471 -32.453  1.00  0.00     0.166 HD
ENDBRANCH   5   8
ENDBRANCH   1   5
BRANCH   2  16
HETATM   16  C   UNL     1      -4.600   0.588 -32.743  1.00  0.00     0.033 A 
HETATM   17  C   UNL     1      -5.702   0.149 -33.502  1.00  0.00     0.031 A 
HETATM   18  C   UNL     1      -5.735  -1.187 -33.942  1.00  0.00     0.001 A 
HETATM   19  C   UNL     1      -4.673  -2.020 -33.616  1.00  0.00     0.086 A 
HETATM   20  C   UNL     1      -6.635  -1.987 -34.695  1.00  0.00     0.046 A 
HETATM   21  O   UNL     1      -4.876  -3.266 -34.118  1.00  0.00    -0.315 OA
HETATM   22  C   UNL     1      -3.560  -1.618 -32.882  1.00  0.00     0.039 A 
HETATM   23  C   UNL     1      -6.072  -3.244 -34.774  1.00  0.00     0.050 A 
HETATM   24  C   UNL     1      -6.504  -4.508 -35.406  1.00  0.00     0.077 C 
HETATM   25  C   UNL     1      -3.537  -0.284 -32.453  1.00  0.00     0.020 A 
ENDBRANCH   2  16
TORSDOF 4
ENDMDL
MODEL 9
REMARK VINA RESULT:      -7.1      3.488      7.756
REMARK  4 active torsions:
REMARK  status: ('A' for Active; 'I' for Inactive)
REMARK    1  A    between atoms: C_2  and  C_3 
REMARK    2  A    between atoms: C_3  and  N_4 
REMARK    3  A    between atoms: C_3  and  C_17 
REMARK       I    between atoms: N_4  and  C_5 
REMARK    4  A    between atoms: C_5  and  C_6 
ROOT
HETATM    1  N   UNL     1      -6.243   0.944 -34.317  1.00  0.00    -0.345 N 
HETATM    2  C   UNL     1      -6.177   1.751 -33.197  1.00  0.00     0.252 C 
HETATM    3  O   UNL     1      -6.808   1.490 -32.176  1.00  0.00    -0.268 OA
HETATM    4  H   UNL     1      -5.931   1.374 -35.181  1.00  0.00     0.163 HD
ENDROOT
BRANCH   1   5
HETATM    5  C   UNL     1      -7.250  -0.116 -34.451  1.00  0.00     0.152 C 
BRANCH   5   6
HETATM    6  C   UNL     1      -6.806  -1.384 -33.706  1.00  0.00     0.028 C 
HETATM    7  C   UNL     1      -6.773  -2.634 -34.576  1.00  0.00     0.007 C 
ENDBRANCH   5   6
BRANCH   5   8
HETATM    8  C   UNL     1      -8.672   0.357 -34.108  1.00  0.00     0.104 A 
HETATM    9  N   UNL     1      -9.443   1.189 -34.827  1.00  0.00    -0.347 N 
HETATM   10  H   UNL     1      -9.089   1.604 -35.701  1.00  0.00     0.167 HD
HETATM   11  C   UNL     1     -10.683   1.395 -34.261  1.00  0.00     0.022 A 
HETATM   12  C   UNL     1     -11.706   2.273 -34.848  1.00  0.00     0.069 C 
HETATM   13  C   UNL     1     -10.675   0.622 -33.128  1.00  0.00     0.114 A 
HETATM   14  N   UNL     1      -9.446  -0.001 -33.066  1.00  0.00    -0.352 N 
HETATM   15  H   UNL     1      -9.165  -0.648 -32.335  1.00  0.00     0.166 HD
ENDBRANCH   5   8
ENDBRANCH   1   5
BRANCH   2  16
HETATM   16  C   UNL     1      -5.322   2.969 -33.277  1.00  0.00     0.033 A 
HETATM   17  C   UNL     1      -4.118   2.967 -32.546  1.00  0.00     0.031 A 
HETATM   18  C   UNL     1      -3.293   4.105 -32.593  1.00  0.00     0.001 A 
HETATM   19  C   UNL     1      -3.696   5.186 -33.365  1.00  0.00     0.086 A 
HETATM   20  C   UNL     1      -2.052   4.485 -32.015  1.00  0.00     0.046 A 
HETATM   21  O   UNL     1      -2.783   6.190 -33.288  1.00  0.00    -0.315 OA
HETATM   22  C   UNL     1      -4.869   5.219 -34.114  1.00  0.00     0.039 A 
HETATM   23  C   UNL     1      -1.783   5.762 -32.466  1.00  0.00     0.050 A 
HETATM   24  C   UNL     1      -0.669   6.703 -32.231  1.00  0.00     0.077 C 
HETATM   25  C   UNL     1      -5.681   4.078 -34.062  1.00  0.00     0.020 A 
ENDBRANCH   2  16
TORSDOF 4
ENDMDL
MODEL 10
REMARK VINA RESULT:      -7.0      6.999      8.890
REMARK  4 active torsions:
REMARK  status: ('A' for Active; 'I' for Inactive)
REMARK    1  A    between atoms: C_2  and  C_3 
REMARK    2  A    between atoms: C_3  and  N_4 
REMARK    3  A    between atoms: C_3  and  C_17 
REMARK       I    between atoms: N_4  and  C_5 
REMARK    4  A    between atoms: C_5  and  C_6 
ROOT
HETATM    1  N   UNL     1     -10.313   2.330 -32.404  1.00  0.00    -0.345 N 
HETATM    2  C   UNL     1     -10.925   1.674 -33.455  1.00  0.00     0.252 C 
HETATM    3  O   UNL     1     -10.276   1.169 -34.367  1.00  0.00    -0.268 OA
HETATM    4  H   UNL     1     -10.913   2.946 -31.866  1.00  0.00     0.163 HD
ENDROOT
BRANCH   1   5
HETATM    5  C   UNL     1      -8.887   2.685 -32.437  1.00  0.00     0.152 C 
BRANCH   5   6
HETATM    6  C   UNL     1      -8.628   3.962 -31.624  1.00  0.00     0.028 C 
HETATM    7  C   UNL     1      -7.239   4.555 -31.830  1.00  0.00     0.007 C 
ENDBRANCH   5   6
BRANCH   5   8
HETATM    8  C   UNL     1      -7.965   1.507 -32.081  1.00  0.00     0.104 A 
HETATM    9  N   UNL     1      -7.271   0.738 -32.935  1.00  0.00    -0.347 N 
HETATM   10  H   UNL     1      -7.340   0.892 -33.951  1.00  0.00     0.167 HD
HETATM   11  C   UNL     1      -6.513  -0.220 -32.297  1.00  0.00     0.022 A 
HETATM   12  C   UNL     1      -5.672  -1.194 -33.009  1.00  0.00     0.069 C 
HETATM   13  C   UNL     1      -6.747  -0.010 -30.962  1.00  0.00     0.114 A 
HETATM   14  N   UNL     1      -7.625   1.048 -30.863  1.00  0.00    -0.352 N 
HETATM   15  H   UNL     1      -7.965   1.433 -29.986  1.00  0.00     0.166 HD
ENDBRANCH   5   8
ENDBRANCH   1   5
BRANCH   2  16
HETATM   16  C   UNL     1     -12.415   1.618 -33.454  1.00  0.00     0.033 A 
HETATM   17  C   UNL     1     -13.099   2.543 -32.642  1.00  0.00     0.031 A 
HETATM   18  C   UNL     1     -14.505   2.510 -32.610  1.00  0.00     0.001 A 
HETATM   19  C   UNL     1     -15.165   1.569 -33.389  1.00  0.00     0.086 A 
HETATM   20  C   UNL     1     -15.524   3.239 -31.941  1.00  0.00     0.046 A 
HETATM   21  O   UNL     1     -16.510   1.682 -33.231  1.00  0.00    -0.315 OA
HETATM   22  C   UNL     1     -14.524   0.651 -34.216  1.00  0.00     0.039 A 
HETATM   23  C   UNL     1     -16.726   2.699 -32.349  1.00  0.00     0.050 A 
HETATM   24  C   UNL     1     -18.135   3.003 -32.021  1.00  0.00     0.077 C 
HETATM   25  C   UNL     1     -13.124   0.696 -34.242  1.00  0.00     0.020 A 
ENDBRANCH   2  16
TORSDOF 4
ENDMDL
