MODEL 1
REMARK VINA RESULT:      -9.7      0.000      0.000
REMARK  7 active torsions:
REMARK  status: ('A' for Active; 'I' for Inactive)
REMARK    1  A    between atoms: C_2  and  O_3 
REMARK    2  A    between atoms: O_3  and  C_4 
REMARK    3  A    between atoms: C_4  and  C_5 
REMARK    4  A    between atoms: C_8  and  N_9 
REMARK       I    between atoms: N_9  and  C_10 
REMARK    5  A    between atoms: C_10  and  C_11 
REMARK    6  A    between atoms: C_11  and  N_12 
REMARK    7  A    between atoms: C_18  and  C_19 
ROOT
HETATM    1  N   UNL     1      -4.207   4.224 -30.912  1.00  0.00    -0.063 N 
HETATM    2  H   UNL     1      -3.550   4.204 -30.120  1.00  0.00     0.280 HD
HETATM    3  C   UNL     1      -5.416   3.419 -30.458  1.00  0.00     0.240 C 
HETATM    4  C   UNL     1      -5.259   1.927 -30.664  1.00  0.00     0.083 C 
HETATM    5  C   UNL     1      -4.749   1.614 -32.064  1.00  0.00     0.131 A 
HETATM    6  N   UNL     1      -4.618   0.144 -32.211  1.00  0.00    -0.251 NA
HETATM    7  C   UNL     1      -5.328  -0.198 -33.256  1.00  0.00     0.132 A 
HETATM    8  C   UNL     1      -6.017   0.997 -33.881  1.00  0.00     0.272 A 
HETATM    9  O   UNL     1      -6.721   1.032 -34.859  1.00  0.00    -0.266 OA
HETATM   10  N   UNL     1      -5.650   2.036 -33.088  1.00  0.00    -0.327 N 
HETATM   11  C   UNL     1      -3.361   2.224 -32.210  1.00  0.00     0.083 C 
HETATM   12  C   UNL     1      -3.420   3.730 -32.114  1.00  0.00     0.240 C 
HETATM   13  H   UNL     1      -5.982   2.979 -33.292  1.00  0.00     0.165 HD
ENDROOT
BRANCH   1  14
HETATM   14  C   UNL     1      -4.596   5.726 -31.124  1.00  0.00     0.337 C 
BRANCH  14  15
HETATM   15  C   UNL     1      -3.918   6.376 -32.344  1.00  0.00     0.248 C 
HETATM   16  N   UNL     1      -2.735   7.033 -32.274  1.00  0.00    -0.326 N 
HETATM   17  H   UNL     1      -2.445   7.335 -33.203  1.00  0.00     0.169 HD
HETATM   18  O   UNL     1      -4.436   6.275 -33.466  1.00  0.00    -0.271 OA
BRANCH  16  19
HETATM   19  C   UNL     1      -1.824   7.332 -31.249  1.00  0.00     0.034 A 
HETATM   20  C   UNL     1      -2.019   8.247 -30.216  1.00  0.00     0.030 A 
HETATM   21  C   UNL     1      -1.033   8.421 -29.231  1.00  0.00     0.020 A 
HETATM   22  C   UNL     1       0.160   7.689 -29.268  1.00  0.00     0.039 A 
HETATM   23  C   UNL     1       0.372   6.795 -30.318  1.00  0.00     0.020 A 
HETATM   24  C   UNL     1      -0.611   6.626 -31.297  1.00  0.00     0.030 A 
BRANCH  22  25
HETATM   25  C   UNL     1       1.159   7.896 -28.183  1.00  0.00     0.293 C 
HETATM   26  O   UNL     1       1.872   8.883 -28.117  1.00  0.00    -0.259 OA
BRANCH  25  27
HETATM   27  O   UNL     1       1.120   6.863 -27.309  1.00  0.00    -0.318 OA
BRANCH  27  28
HETATM   28  C   UNL     1       0.265   7.030 -26.167  1.00  0.00     0.174 C 
HETATM   29  C   UNL     1      -0.834   5.985 -26.193  1.00  0.00     0.034 C 
ENDBRANCH  27  28
ENDBRANCH  25  27
ENDBRANCH  22  25
ENDBRANCH  16  19
ENDBRANCH  14  15
ENDBRANCH   1  14
BRANCH   7  30
HETATM   30  C   UNL     1      -5.434  -1.583 -33.760  1.00  0.00    -0.001 A 
HETATM   31  C   UNL     1      -4.371  -2.489 -33.698  1.00  0.00     0.037 A 
HETATM   32  C   UNL     1      -4.535  -3.790 -34.182  1.00  0.00     0.035 A 
HETATM   33 CL   UNL     1      -3.223  -4.901 -34.098  1.00  0.00    -0.084 Cl
HETATM   34  C   UNL     1      -5.748  -4.197 -34.730  1.00  0.00     0.024 A 
HETATM   35  C   UNL     1      -6.810  -3.298 -34.800  1.00  0.00     0.003 A 
HETATM   36  C   UNL     1      -6.654  -1.997 -34.317  1.00  0.00     0.014 A 
ENDBRANCH   7  30
TORSDOF 7
ENDMDL
MODEL 2
REMARK VINA RESULT:      -9.7      3.917     10.592
REMARK  7 active torsions:
REMARK  status: ('A' for Active; 'I' for Inactive)
REMARK    1  A    between atoms: C_2  and  O_3 
REMARK    2  A    between atoms: O_3  and  C_4 
REMARK    3  A    between atoms: C_4  and  C_5 
REMARK    4  A    between atoms: C_8  and  N_9 
REMARK       I    between atoms: N_9  and  C_10 
REMARK    5  A    between atoms: C_10  and  C_11 
REMARK    6  A    between atoms: C_11  and  N_12 
REMARK    7  A    between atoms: C_18  and  C_19 
ROOT
HETATM    1  N   UNL     1      -4.063   4.263 -33.094  1.00  0.00    -0.063 N 
HETATM    2  H   UNL     1      -4.071   3.265 -32.842  1.00  0.00     0.280 HD
HETATM    3  C   UNL     1      -2.613   4.587 -33.426  1.00  0.00     0.240 C 
HETATM    4  C   UNL     1      -1.775   4.917 -32.209  1.00  0.00     0.083 C 
HETATM    5  C   UNL     1      -2.481   5.919 -31.308  1.00  0.00     0.131 A 
HETATM    6  N   UNL     1      -1.618   6.208 -30.138  1.00  0.00    -0.251 NA
HETATM    7  C   UNL     1      -1.444   7.505 -30.105  1.00  0.00     0.132 A 
HETATM    8  C   UNL     1      -2.146   8.194 -31.256  1.00  0.00     0.272 A 
HETATM    9  O   UNL     1      -2.204   9.372 -31.503  1.00  0.00    -0.266 OA
HETATM   10  N   UNL     1      -2.712   7.174 -31.950  1.00  0.00    -0.327 N 
HETATM   11  C   UNL     1      -3.762   5.275 -30.794  1.00  0.00     0.083 C 
HETATM   12  C   UNL     1      -4.717   4.989 -31.930  1.00  0.00     0.240 C 
HETATM   13  H   UNL     1      -3.258   7.366 -32.790  1.00  0.00     0.165 HD
ENDROOT
BRANCH   1  14
HETATM   14  C   UNL     1      -4.962   4.404 -34.368  1.00  0.00     0.337 C 
BRANCH  14  15
HETATM   15  C   UNL     1      -6.469   4.266 -34.082  1.00  0.00     0.248 C 
HETATM   16  N   UNL     1      -7.093   3.071 -33.942  1.00  0.00    -0.326 N 
HETATM   17  H   UNL     1      -8.073   3.211 -33.704  1.00  0.00     0.169 HD
HETATM   18  O   UNL     1      -7.164   5.280 -33.926  1.00  0.00    -0.271 OA
BRANCH  16  19
HETATM   19  C   UNL     1      -6.689   1.727 -33.997  1.00  0.00     0.034 A 
HETATM   20  C   UNL     1      -5.800   1.100 -33.126  1.00  0.00     0.030 A 
HETATM   21  C   UNL     1      -5.512  -0.267 -33.275  1.00  0.00     0.020 A 
HETATM   22  C   UNL     1      -6.103  -1.021 -34.296  1.00  0.00     0.039 A 
HETATM   23  C   UNL     1      -6.969  -0.388 -35.188  1.00  0.00     0.020 A 
HETATM   24  C   UNL     1      -7.252   0.972 -35.038  1.00  0.00     0.030 A 
BRANCH  22  25
HETATM   25  C   UNL     1      -5.781  -2.472 -34.391  1.00  0.00     0.293 C 
HETATM   26  O   UNL     1      -6.624  -3.327 -34.602  1.00  0.00    -0.259 OA
BRANCH  25  27
HETATM   27  O   UNL     1      -4.450  -2.665 -34.240  1.00  0.00    -0.318 OA
BRANCH  27  28
HETATM   28  C   UNL     1      -4.027  -4.018 -34.012  1.00  0.00     0.174 C 
HETATM   29  C   UNL     1      -3.285  -4.107 -32.691  1.00  0.00     0.034 C 
ENDBRANCH  27  28
ENDBRANCH  25  27
ENDBRANCH  22  25
ENDBRANCH  16  19
ENDBRANCH  14  15
ENDBRANCH   1  14
BRANCH   7  30
HETATM   30  C   UNL     1      -0.662   8.204 -29.063  1.00  0.00    -0.001 A 
HETATM   31  C   UNL     1      -1.194   9.243 -28.294  1.00  0.00     0.037 A 
HETATM   32  C   UNL     1      -0.408   9.857 -27.315  1.00  0.00     0.035 A 
HETATM   33 CL   UNL     1      -1.071  11.133 -26.370  1.00  0.00    -0.084 Cl
HETATM   34  C   UNL     1       0.905   9.450 -27.097  1.00  0.00     0.024 A 
HETATM   35  C   UNL     1       1.443   8.418 -27.863  1.00  0.00     0.003 A 
HETATM   36  C   UNL     1       0.664   7.797 -28.842  1.00  0.00     0.014 A 
ENDBRANCH   7  30
TORSDOF 7
ENDMDL
MODEL 3
REMARK VINA RESULT:      -9.5      2.993      4.420
REMARK  7 active torsions:
REMARK  status: ('A' for Active; 'I' for Inactive)
REMARK    1  A    between atoms: C_2  and  O_3 
REMARK    2  A    between atoms: O_3  and  C_4 
REMARK    3  A    between atoms: C_4  and  C_5 
REMARK    4  A    between atoms: C_8  and  N_9 
REMARK       I    between atoms: N_9  and  C_10 
REMARK    5  A    between atoms: C_10  and  C_11 
REMARK    6  A    between atoms: C_11  and  N_12 
REMARK    7  A    between atoms: C_18  and  C_19 
ROOT
HETATM    1  N   UNL     1      -7.932   4.025 -33.241  1.00  0.00    -0.063 N 
HETATM    2  H   UNL     1      -8.429   4.456 -34.032  1.00  0.00     0.280 HD
HETATM    3  C   UNL     1      -6.523   3.751 -33.747  1.00  0.00     0.240 C 
HETATM    4  C   UNL     1      -6.397   2.444 -34.501  1.00  0.00     0.083 C 
HETATM    5  C   UNL     1      -7.055   1.302 -33.739  1.00  0.00     0.131 A 
HETATM    6  N   UNL     1      -6.899   0.050 -34.518  1.00  0.00    -0.251 NA
HETATM    7  C   UNL     1      -6.316  -0.817 -33.730  1.00  0.00     0.132 A 
HETATM    8  C   UNL     1      -6.006  -0.222 -32.373  1.00  0.00     0.272 A 
HETATM    9  O   UNL     1      -5.497  -0.753 -31.417  1.00  0.00    -0.266 OA
HETATM   10  N   UNL     1      -6.444   1.059 -32.471  1.00  0.00    -0.327 N 
HETATM   11  C   UNL     1      -8.544   1.601 -33.629  1.00  0.00     0.083 C 
HETATM   12  C   UNL     1      -8.786   2.846 -32.808  1.00  0.00     0.240 C 
HETATM   13  H   UNL     1      -6.355   1.694 -31.677  1.00  0.00     0.165 HD
ENDROOT
BRANCH   1  14
HETATM   14  C   UNL     1      -7.906   5.097 -32.100  1.00  0.00     0.337 C 
BRANCH  14  15
HETATM   15  C   UNL     1      -7.679   4.506 -30.697  1.00  0.00     0.248 C 
HETATM   16  N   UNL     1      -6.450   4.246 -30.190  1.00  0.00    -0.326 N 
HETATM   17  H   UNL     1      -6.528   3.911 -29.230  1.00  0.00     0.169 HD
HETATM   18  O   UNL     1      -8.648   4.284 -29.955  1.00  0.00    -0.271 OA
BRANCH  16  19
HETATM   19  C   UNL     1      -5.133   4.383 -30.657  1.00  0.00     0.034 A 
HETATM   20  C   UNL     1      -4.293   3.348 -31.064  1.00  0.00     0.030 A 
HETATM   21  C   UNL     1      -3.005   3.633 -31.547  1.00  0.00     0.020 A 
HETATM   22  C   UNL     1      -2.539   4.952 -31.626  1.00  0.00     0.039 A 
HETATM   23  C   UNL     1      -3.367   5.987 -31.190  1.00  0.00     0.020 A 
HETATM   24  C   UNL     1      -4.647   5.700 -30.708  1.00  0.00     0.030 A 
BRANCH  22  25
HETATM   25  C   UNL     1      -1.175   5.196 -32.170  1.00  0.00     0.293 C 
HETATM   26  O   UNL     1      -0.162   4.781 -31.633  1.00  0.00    -0.259 OA
BRANCH  25  27
HETATM   27  O   UNL     1      -1.252   5.899 -33.323  1.00  0.00    -0.318 OA
BRANCH  27  28
HETATM   28  C   UNL     1      -1.516   5.140 -34.513  1.00  0.00     0.174 C 
HETATM   29  C   UNL     1      -2.941   5.384 -34.972  1.00  0.00     0.034 C 
ENDBRANCH  27  28
ENDBRANCH  25  27
ENDBRANCH  22  25
ENDBRANCH  16  19
ENDBRANCH  14  15
ENDBRANCH   1  14
BRANCH   7  30
HETATM   30  C   UNL     1      -6.008  -2.209 -34.123  1.00  0.00    -0.001 A 
HETATM   31  C   UNL     1      -4.766  -2.802 -33.877  1.00  0.00     0.037 A 
HETATM   32  C   UNL     1      -4.539  -4.126 -34.262  1.00  0.00     0.035 A 
HETATM   33 CL   UNL     1      -3.009  -4.851 -33.953  1.00  0.00    -0.084 Cl
HETATM   34  C   UNL     1      -5.536  -4.865 -34.893  1.00  0.00     0.024 A 
HETATM   35  C   UNL     1      -6.774  -4.279 -35.146  1.00  0.00     0.003 A 
HETATM   36  C   UNL     1      -7.010  -2.956 -34.762  1.00  0.00     0.014 A 
ENDBRANCH   7  30
TORSDOF 7
ENDMDL
MODEL 4
REMARK VINA RESULT:      -9.2      3.667      9.957
REMARK  7 active torsions:
REMARK  status: ('A' for Active; 'I' for Inactive)
REMARK    1  A    between atoms: C_2  and  O_3 
REMARK    2  A    between atoms: O_3  and  C_4 
REMARK    3  A    between atoms: C_4  and  C_5 
REMARK    4  A    between atoms: C_8  and  N_9 
REMARK       I    between atoms: N_9  and  C_10 
REMARK    5  A    between atoms: C_10  and  C_11 
REMARK    6  A    between atoms: C_11  and  N_12 
REMARK    7  A    between atoms: C_18  and  C_19 
ROOT
HETATM    1  N   UNL     1      -7.086   3.371 -33.129  1.00  0.00    -0.063 N 
HETATM    2  H   UNL     1      -7.025   2.344 -33.131  1.00  0.00     0.280 HD
HETATM    3  C   UNL     1      -5.955   3.848 -34.029  1.00  0.00     0.240 C 
HETATM    4  C   UNL     1      -4.623   3.955 -33.318  1.00  0.00     0.083 C 
HETATM    5  C   UNL     1      -4.761   4.690 -31.993  1.00  0.00     0.131 A 
HETATM    6  N   UNL     1      -3.431   4.768 -31.344  1.00  0.00    -0.251 NA
HETATM    7  C   UNL     1      -3.196   6.035 -31.111  1.00  0.00     0.132 A 
HETATM    8  C   UNL     1      -4.325   6.914 -31.604  1.00  0.00     0.272 A 
HETATM    9  O   UNL     1      -4.433   8.113 -31.526  1.00  0.00    -0.266 OA
HETATM   10  N   UNL     1      -5.205   6.038 -32.152  1.00  0.00    -0.327 N 
HETATM   11  C   UNL     1      -5.674   3.871 -31.090  1.00  0.00     0.083 C 
HETATM   12  C   UNL     1      -7.068   3.783 -31.667  1.00  0.00     0.240 C 
HETATM   13  H   UNL     1      -6.075   6.376 -32.565  1.00  0.00     0.165 HD
ENDROOT
BRANCH   1  14
HETATM   14  C   UNL     1      -8.475   3.731 -33.754  1.00  0.00     0.337 C 
BRANCH  14  15
HETATM   15  C   UNL     1      -9.591   2.730 -33.407  1.00  0.00     0.248 C 
HETATM   16  N   UNL     1      -9.404   1.387 -33.379  1.00  0.00    -0.326 N 
HETATM   17  H   UNL     1     -10.255   0.919 -33.073  1.00  0.00     0.169 HD
HETATM   18  O   UNL     1     -10.717   3.142 -33.091  1.00  0.00    -0.271 OA
BRANCH  16  19
HETATM   19  C   UNL     1      -8.316   0.532 -33.618  1.00  0.00     0.034 A 
HETATM   20  C   UNL     1      -7.905   0.052 -34.861  1.00  0.00     0.030 A 
HETATM   21  C   UNL     1      -6.771  -0.772 -34.958  1.00  0.00     0.020 A 
HETATM   22  C   UNL     1      -6.040  -1.131 -33.820  1.00  0.00     0.039 A 
HETATM   23  C   UNL     1      -6.468  -0.678 -32.572  1.00  0.00     0.020 A 
HETATM   24  C   UNL     1      -7.597   0.140 -32.478  1.00  0.00     0.030 A 
BRANCH  22  25
HETATM   25  C   UNL     1      -4.833  -1.986 -33.987  1.00  0.00     0.293 C 
HETATM   26  O   UNL     1      -3.863  -1.918 -33.249  1.00  0.00    -0.259 OA
BRANCH  25  27
HETATM   27  O   UNL     1      -5.001  -2.832 -35.029  1.00  0.00    -0.318 OA
BRANCH  27  28
HETATM   28  C   UNL     1      -5.344  -4.187 -34.699  1.00  0.00     0.174 C 
HETATM   29  C   UNL     1      -6.640  -4.570 -35.388  1.00  0.00     0.034 C 
ENDBRANCH  27  28
ENDBRANCH  25  27
ENDBRANCH  22  25
ENDBRANCH  16  19
ENDBRANCH  14  15
ENDBRANCH   1  14
BRANCH   7  30
HETATM   30  C   UNL     1      -1.977   6.535 -30.441  1.00  0.00    -0.001 A 
HETATM   31  C   UNL     1      -2.006   7.139 -29.180  1.00  0.00     0.037 A 
HETATM   32  C   UNL     1      -0.818   7.582 -28.593  1.00  0.00     0.035 A 
HETATM   33 CL   UNL     1      -0.861   8.321 -27.040  1.00  0.00    -0.084 Cl
HETATM   34  C   UNL     1       0.401   7.433 -29.251  1.00  0.00     0.024 A 
HETATM   35  C   UNL     1       0.436   6.836 -30.509  1.00  0.00     0.003 A 
HETATM   36  C   UNL     1      -0.747   6.389 -31.103  1.00  0.00     0.014 A 
ENDBRANCH   7  30
TORSDOF 7
ENDMDL
MODEL 5
REMARK VINA RESULT:      -9.0      1.951      2.742
REMARK  7 active torsions:
REMARK  status: ('A' for Active; 'I' for Inactive)
REMARK    1  A    between atoms: C_2  and  O_3 
REMARK    2  A    between atoms: O_3  and  C_4 
REMARK    3  A    between atoms: C_4  and  C_5 
REMARK    4  A    between atoms: C_8  and  N_9 
REMARK       I    between atoms: N_9  and  C_10 
REMARK    5  A    between atoms: C_10  and  C_11 
REMARK    6  A    between atoms: C_11  and  N_12 
REMARK    7  A    between atoms: C_18  and  C_19 
ROOT
HETATM    1  N   UNL     1      -7.328   4.037 -31.867  1.00  0.00    -0.063 N 
HETATM    2  H   UNL     1      -8.311   4.311 -32.003  1.00  0.00     0.280 HD
HETATM    3  C   UNL     1      -6.759   3.858 -33.267  1.00  0.00     0.240 C 
HETATM    4  C   UNL     1      -7.029   2.490 -33.857  1.00  0.00     0.083 C 
HETATM    5  C   UNL     1      -6.693   1.385 -32.866  1.00  0.00     0.131 A 
HETATM    6  N   UNL     1      -6.971   0.072 -33.495  1.00  0.00    -0.251 NA
HETATM    7  C   UNL     1      -5.865  -0.624 -33.428  1.00  0.00     0.132 A 
HETATM    8  C   UNL     1      -4.746   0.164 -32.779  1.00  0.00     0.272 A 
HETATM    9  O   UNL     1      -3.617  -0.188 -32.545  1.00  0.00    -0.266 OA
HETATM   10  N   UNL     1      -5.311   1.367 -32.505  1.00  0.00    -0.327 N 
HETATM   11  C   UNL     1      -7.615   1.532 -31.663  1.00  0.00     0.083 C 
HETATM   12  C   UNL     1      -7.358   2.834 -30.941  1.00  0.00     0.240 C 
HETATM   13  H   UNL     1      -4.763   2.100 -32.054  1.00  0.00     0.165 HD
ENDROOT
BRANCH   1  14
HETATM   14  C   UNL     1      -6.632   5.237 -31.141  1.00  0.00     0.337 C 
BRANCH  14  15
HETATM   15  C   UNL     1      -6.316   6.425 -32.068  1.00  0.00     0.248 C 
HETATM   16  N   UNL     1      -5.055   6.837 -32.344  1.00  0.00    -0.326 N 
HETATM   17  H   UNL     1      -5.073   7.600 -33.019  1.00  0.00     0.169 HD
HETATM   18  O   UNL     1      -7.237   7.027 -32.639  1.00  0.00    -0.271 OA
BRANCH  16  19
HETATM   19  C   UNL     1      -3.768   6.424 -31.960  1.00  0.00     0.034 A 
HETATM   20  C   UNL     1      -3.057   5.351 -32.492  1.00  0.00     0.030 A 
HETATM   21  C   UNL     1      -1.757   5.072 -32.038  1.00  0.00     0.020 A 
HETATM   22  C   UNL     1      -1.155   5.856 -31.046  1.00  0.00     0.039 A 
HETATM   23  C   UNL     1      -1.878   6.912 -30.490  1.00  0.00     0.020 A 
HETATM   24  C   UNL     1      -3.171   7.186 -30.943  1.00  0.00     0.030 A 
BRANCH  22  25
HETATM   25  C   UNL     1       0.234   5.529 -30.622  1.00  0.00     0.293 C 
HETATM   26  O   UNL     1       0.884   4.624 -31.118  1.00  0.00    -0.259 OA
BRANCH  25  27
HETATM   27  O   UNL     1       0.641   6.387 -29.657  1.00  0.00    -0.318 OA
BRANCH  27  28
HETATM   28  C   UNL     1       0.570   5.903 -28.307  1.00  0.00     0.174 C 
HETATM   29  C   UNL     1       0.990   7.000 -27.347  1.00  0.00     0.034 C 
ENDBRANCH  27  28
ENDBRANCH  25  27
ENDBRANCH  22  25
ENDBRANCH  16  19
ENDBRANCH  14  15
ENDBRANCH   1  14
BRANCH   7  30
HETATM   30  C   UNL     1      -5.734  -2.011 -33.922  1.00  0.00    -0.001 A 
HETATM   31  C   UNL     1      -4.570  -2.765 -33.746  1.00  0.00     0.037 A 
HETATM   32  C   UNL     1      -4.511  -4.076 -34.225  1.00  0.00     0.035 A 
HETATM   33 CL   UNL     1      -3.076  -5.000 -34.002  1.00  0.00    -0.084 Cl
HETATM   34  C   UNL     1      -5.599  -4.644 -34.882  1.00  0.00     0.024 A 
HETATM   35  C   UNL     1      -6.761  -3.897 -35.065  1.00  0.00     0.003 A 
HETATM   36  C   UNL     1      -6.829  -2.586 -34.587  1.00  0.00     0.014 A 
ENDBRANCH   7  30
TORSDOF 7
ENDMDL
MODEL 6
REMARK VINA RESULT:      -9.0      4.281      7.783
REMARK  7 active torsions:
REMARK  status: ('A' for Active; 'I' for Inactive)
REMARK    1  A    between atoms: C_2  and  O_3 
REMARK    2  A    between atoms: O_3  and  C_4 
REMARK    3  A    between atoms: C_4  and  C_5 
REMARK    4  A    between atoms: C_8  and  N_9 
REMARK       I    between atoms: N_9  and  C_10 
REMARK    5  A    between atoms: C_10  and  C_11 
REMARK    6  A    between atoms: C_11  and  N_12 
REMARK    7  A    between atoms: C_18  and  C_19 
ROOT
HETATM    1  N   UNL     1      -5.988   4.037 -30.968  1.00  0.00    -0.063 N 
HETATM    2  H   UNL     1      -5.622   4.067 -30.006  1.00  0.00     0.280 HD
HETATM    3  C   UNL     1      -7.223   3.149 -30.905  1.00  0.00     0.240 C 
HETATM    4  C   UNL     1      -6.909   1.672 -31.008  1.00  0.00     0.083 C 
HETATM    5  C   UNL     1      -5.956   1.389 -32.160  1.00  0.00     0.131 A 
HETATM    6  N   UNL     1      -5.688  -0.068 -32.216  1.00  0.00    -0.251 NA
HETATM    7  C   UNL     1      -5.999  -0.465 -33.424  1.00  0.00     0.132 A 
HETATM    8  C   UNL     1      -6.526   0.675 -34.270  1.00  0.00     0.272 A 
HETATM    9  O   UNL     1      -6.878   0.654 -35.423  1.00  0.00    -0.266 OA
HETATM   10  N   UNL     1      -6.504   1.741 -33.431  1.00  0.00    -0.327 N 
HETATM   11  C   UNL     1      -4.639   2.096 -31.869  1.00  0.00     0.083 C 
HETATM   12  C   UNL     1      -4.825   3.595 -31.839  1.00  0.00     0.240 C 
HETATM   13  H   UNL     1      -6.814   2.657 -33.757  1.00  0.00     0.165 HD
ENDROOT
BRANCH   1  14
HETATM   14  C   UNL     1      -6.386   5.506 -31.335  1.00  0.00     0.337 C 
BRANCH  14  15
HETATM   15  C   UNL     1      -6.245   5.831 -32.833  1.00  0.00     0.248 C 
HETATM   16  N   UNL     1      -7.216   5.577 -33.743  1.00  0.00    -0.326 N 
HETATM   17  H   UNL     1      -6.937   5.921 -34.661  1.00  0.00     0.169 HD
HETATM   18  O   UNL     1      -5.221   6.392 -33.250  1.00  0.00    -0.271 OA
BRANCH  16  19
HETATM   19  C   UNL     1      -8.501   5.014 -33.693  1.00  0.00     0.034 A 
HETATM   20  C   UNL     1      -8.886   3.794 -34.245  1.00  0.00     0.030 A 
HETATM   21  C   UNL     1     -10.203   3.332 -34.087  1.00  0.00     0.020 A 
HETATM   22  C   UNL     1     -11.152   4.084 -33.383  1.00  0.00     0.039 A 
HETATM   23  C   UNL     1     -10.777   5.321 -32.857  1.00  0.00     0.020 A 
HETATM   24  C   UNL     1      -9.467   5.778 -33.017  1.00  0.00     0.030 A 
BRANCH  22  25
HETATM   25  C   UNL     1     -12.526   3.534 -33.227  1.00  0.00     0.293 C 
HETATM   26  O   UNL     1     -13.515   4.239 -33.115  1.00  0.00    -0.259 OA
BRANCH  25  27
HETATM   27  O   UNL     1     -12.494   2.181 -33.258  1.00  0.00    -0.318 OA
BRANCH  27  28
HETATM   28  C   UNL     1     -13.277   1.551 -34.284  1.00  0.00     0.174 C 
HETATM   29  C   UNL     1     -14.026   0.367 -33.704  1.00  0.00     0.034 C 
ENDBRANCH  27  28
ENDBRANCH  25  27
ENDBRANCH  22  25
ENDBRANCH  16  19
ENDBRANCH  14  15
ENDBRANCH   1  14
BRANCH   7  30
HETATM   30  C   UNL     1      -5.844  -1.857 -33.898  1.00  0.00    -0.001 A 
HETATM   31  C   UNL     1      -4.652  -2.573 -33.751  1.00  0.00     0.037 A 
HETATM   32  C   UNL     1      -4.571  -3.891 -34.209  1.00  0.00     0.035 A 
HETATM   33 CL   UNL     1      -3.102  -4.767 -34.021  1.00  0.00    -0.084 Cl
HETATM   34  C   UNL     1      -5.665  -4.503 -34.815  1.00  0.00     0.024 A 
HETATM   35  C   UNL     1      -6.854  -3.793 -34.969  1.00  0.00     0.003 A 
HETATM   36  C   UNL     1      -6.944  -2.476 -34.512  1.00  0.00     0.014 A 
ENDBRANCH   7  30
TORSDOF 7
ENDMDL
MODEL 7
REMARK VINA RESULT:      -8.9      3.971      9.502
REMARK  7 active torsions:
REMARK  status: ('A' for Active; 'I' for Inactive)
REMARK    1  A    between atoms: C_2  and  O_3 
REMARK    2  A    between atoms: O_3  and  C_4 
REMARK    3  A    between atoms: C_4  and  C_5 
REMARK    4  A    between atoms: C_8  and  N_9 
REMARK       I    between atoms: N_9  and  C_10 
REMARK    5  A    between atoms: C_10  and  C_11 
REMARK    6  A    between atoms: C_11  and  N_12 
REMARK    7  A    between atoms: C_18  and  C_19 
ROOT
HETATM    1  N   UNL     1      -9.359   3.899 -32.126  1.00  0.00    -0.063 N 
HETATM    2  H   UNL     1     -10.054   4.647 -31.998  1.00  0.00     0.280 HD
HETATM    3  C   UNL     1      -8.552   3.868 -30.836  1.00  0.00     0.240 C 
HETATM    4  C   UNL     1      -7.421   4.874 -30.808  1.00  0.00     0.083 C 
HETATM    5  C   UNL     1      -6.606   4.825 -32.093  1.00  0.00     0.131 A 
HETATM    6  N   UNL     1      -5.515   5.824 -32.009  1.00  0.00    -0.251 NA
HETATM    7  C   UNL     1      -4.394   5.180 -32.214  1.00  0.00     0.132 A 
HETATM    8  C   UNL     1      -4.629   3.699 -32.423  1.00  0.00     0.272 A 
HETATM    9  O   UNL     1      -3.820   2.835 -32.655  1.00  0.00    -0.266 OA
HETATM   10  N   UNL     1      -5.973   3.561 -32.298  1.00  0.00    -0.327 N 
HETATM   11  C   UNL     1      -7.517   5.223 -33.246  1.00  0.00     0.083 C 
HETATM   12  C   UNL     1      -8.636   4.223 -33.422  1.00  0.00     0.240 C 
HETATM   13  H   UNL     1      -6.407   2.643 -32.398  1.00  0.00     0.165 HD
ENDROOT
BRANCH   1  14
HETATM   14  C   UNL     1     -10.168   2.570 -32.299  1.00  0.00     0.337 C 
BRANCH  14  15
HETATM   15  C   UNL     1     -10.448   2.200 -33.766  1.00  0.00     0.248 C 
HETATM   16  N   UNL     1      -9.678   1.340 -34.476  1.00  0.00    -0.326 N 
HETATM   17  H   UNL     1     -10.073   1.197 -35.404  1.00  0.00     0.169 HD
HETATM   18  O   UNL     1     -11.445   2.662 -34.342  1.00  0.00    -0.271 OA
BRANCH  16  19
HETATM   19  C   UNL     1      -8.524   0.586 -34.207  1.00  0.00     0.034 A 
HETATM   20  C   UNL     1      -8.106   0.143 -32.954  1.00  0.00     0.030 A 
HETATM   21  C   UNL     1      -6.945  -0.639 -32.834  1.00  0.00     0.020 A 
HETATM   22  C   UNL     1      -6.187  -0.983 -33.960  1.00  0.00     0.039 A 
HETATM   23  C   UNL     1      -6.587  -0.515 -35.211  1.00  0.00     0.020 A 
HETATM   24  C   UNL     1      -7.741   0.264 -35.327  1.00  0.00     0.030 A 
BRANCH  22  25
HETATM   25  C   UNL     1      -4.980  -1.835 -33.775  1.00  0.00     0.293 C 
HETATM   26  O   UNL     1      -4.235  -1.733 -32.814  1.00  0.00    -0.259 OA
BRANCH  25  27
HETATM   27  O   UNL     1      -4.874  -2.721 -34.793  1.00  0.00    -0.318 OA
BRANCH  27  28
HETATM   28  C   UNL     1      -5.155  -4.093 -34.472  1.00  0.00     0.174 C 
HETATM   29  C   UNL     1      -6.374  -4.560 -35.244  1.00  0.00     0.034 C 
ENDBRANCH  27  28
ENDBRANCH  25  27
ENDBRANCH  22  25
ENDBRANCH  16  19
ENDBRANCH  14  15
ENDBRANCH   1  14
BRANCH   7  30
HETATM   30  C   UNL     1      -3.066   5.829 -32.243  1.00  0.00    -0.001 A 
HETATM   31  C   UNL     1      -2.412   6.255 -31.083  1.00  0.00     0.037 A 
HETATM   32  C   UNL     1      -1.152   6.852 -31.174  1.00  0.00     0.035 A 
HETATM   33 CL   UNL     1      -0.351   7.370 -29.741  1.00  0.00    -0.084 Cl
HETATM   34  C   UNL     1      -0.536   7.031 -32.409  1.00  0.00     0.024 A 
HETATM   35  C   UNL     1      -1.184   6.613 -33.570  1.00  0.00     0.003 A 
HETATM   36  C   UNL     1      -2.443   6.014 -33.488  1.00  0.00     0.014 A 
ENDBRANCH   7  30
TORSDOF 7
ENDMDL
MODEL 8
REMARK VINA RESULT:      -8.8      2.996      4.572
REMARK  7 active torsions:
REMARK  status: ('A' for Active; 'I' for Inactive)
REMARK    1  A    between atoms: C_2  and  O_3 
REMARK    2  A    between atoms: O_3  and  C_4 
REMARK    3  A    between atoms: C_4  and  C_5 
REMARK    4  A    between atoms: C_8  and  N_9 
REMARK       I    between atoms: N_9  and  C_10 
REMARK    5  A    between atoms: C_10  and  C_11 
REMARK    6  A    between atoms: C_11  and  N_12 
REMARK    7  A    between atoms: C_18  and  C_19 
ROOT
HETATM    1  N   UNL     1      -8.527   3.775 -30.210  1.00  0.00    -0.063 N 
HETATM    2  H   UNL     1      -8.744   3.610 -29.218  1.00  0.00     0.280 HD
HETATM    3  C   UNL     1      -9.456   2.854 -30.988  1.00  0.00     0.240 C 
HETATM    4  C   UNL     1      -8.922   1.445 -31.135  1.00  0.00     0.083 C 
HETATM    5  C   UNL     1      -7.470   1.449 -31.591  1.00  0.00     0.131 A 
HETATM    6  N   UNL     1      -7.002   0.049 -31.722  1.00  0.00    -0.251 NA
HETATM    7  C   UNL     1      -6.553  -0.089 -32.943  1.00  0.00     0.132 A 
HETATM    8  C   UNL     1      -6.705   1.187 -33.743  1.00  0.00     0.272 A 
HETATM    9  O   UNL     1      -6.375   1.404 -34.883  1.00  0.00    -0.266 OA
HETATM   10  N   UNL     1      -7.295   2.048 -32.875  1.00  0.00    -0.327 N 
HETATM   11  C   UNL     1      -6.636   2.121 -30.508  1.00  0.00     0.083 C 
HETATM   12  C   UNL     1      -7.028   3.571 -30.346  1.00  0.00     0.240 C 
HETATM   13  H   UNL     1      -7.512   3.001 -33.166  1.00  0.00     0.165 HD
ENDROOT
BRANCH   1  14
HETATM   14  C   UNL     1      -8.877   5.275 -30.494  1.00  0.00     0.337 C 
BRANCH  14  15
HETATM   15  C   UNL     1      -9.258   5.556 -31.959  1.00  0.00     0.248 C 
HETATM   16  N   UNL     1      -8.344   5.748 -32.942  1.00  0.00    -0.326 N 
HETATM   17  H   UNL     1      -8.811   5.863 -33.840  1.00  0.00     0.169 HD
HETATM   18  O   UNL     1     -10.451   5.573 -32.296  1.00  0.00    -0.271 OA
BRANCH  16  19
HETATM   19  C   UNL     1      -6.941   5.767 -33.003  1.00  0.00     0.034 A 
HETATM   20  C   UNL     1      -6.094   6.540 -32.211  1.00  0.00     0.030 A 
HETATM   21  C   UNL     1      -4.701   6.432 -32.355  1.00  0.00     0.020 A 
HETATM   22  C   UNL     1      -4.138   5.557 -33.292  1.00  0.00     0.039 A 
HETATM   23  C   UNL     1      -4.984   4.805 -34.107  1.00  0.00     0.020 A 
HETATM   24  C   UNL     1      -6.370   4.916 -33.963  1.00  0.00     0.030 A 
BRANCH  22  25
HETATM   25  C   UNL     1      -2.655   5.465 -33.382  1.00  0.00     0.293 C 
HETATM   26  O   UNL     1      -2.081   4.722 -34.161  1.00  0.00    -0.259 OA
BRANCH  25  27
HETATM   27  O   UNL     1      -2.080   6.330 -32.515  1.00  0.00    -0.318 OA
BRANCH  27  28
HETATM   28  C   UNL     1      -1.069   5.786 -31.652  1.00  0.00     0.174 C 
HETATM   29  C   UNL     1       0.045   6.798 -31.465  1.00  0.00     0.034 C 
ENDBRANCH  27  28
ENDBRANCH  25  27
ENDBRANCH  22  25
ENDBRANCH  16  19
ENDBRANCH  14  15
ENDBRANCH   1  14
BRANCH   7  30
HETATM   30  C   UNL     1      -5.966  -1.340 -33.468  1.00  0.00    -0.001 A 
HETATM   31  C   UNL     1      -6.693  -2.242 -34.251  1.00  0.00     0.037 A 
HETATM   32  C   UNL     1      -6.078  -3.403 -34.727  1.00  0.00     0.035 A 
HETATM   33 CL   UNL     1      -6.978  -4.506 -35.694  1.00  0.00    -0.084 Cl
HETATM   34  C   UNL     1      -4.746  -3.677 -34.429  1.00  0.00     0.024 A 
HETATM   35  C   UNL     1      -4.017  -2.786 -33.645  1.00  0.00     0.003 A 
HETATM   36  C   UNL     1      -4.624  -1.622 -33.166  1.00  0.00     0.014 A 
ENDBRANCH   7  30
TORSDOF 7
ENDMDL
MODEL 9
REMARK VINA RESULT:      -8.6      3.652      5.583
REMARK  7 active torsions:
REMARK  status: ('A' for Active; 'I' for Inactive)
REMARK    1  A    between atoms: C_2  and  O_3 
REMARK    2  A    between atoms: O_3  and  C_4 
REMARK    3  A    between atoms: C_4  and  C_5 
REMARK    4  A    between atoms: C_8  and  N_9 
REMARK       I    between atoms: N_9  and  C_10 
REMARK    5  A    between atoms: C_10  and  C_11 
REMARK    6  A    between atoms: C_11  and  N_12 
REMARK    7  A    between atoms: C_18  and  C_19 
ROOT
HETATM    1  N   UNL     1     -11.014   3.136 -31.878  1.00  0.00    -0.063 N 
HETATM    2  H   UNL     1     -11.704   2.774 -31.206  1.00  0.00     0.280 HD
HETATM    3  C   UNL     1     -11.247   2.352 -33.162  1.00  0.00     0.240 C 
HETATM    4  C   UNL     1     -10.532   1.018 -33.192  1.00  0.00     0.083 C 
HETATM    5  C   UNL     1      -9.078   1.161 -32.765  1.00  0.00     0.131 A 
HETATM    6  N   UNL     1      -8.428  -0.170 -32.816  1.00  0.00    -0.251 NA
HETATM    7  C   UNL     1      -7.381  -0.051 -33.592  1.00  0.00     0.132 A 
HETATM    8  C   UNL     1      -7.252   1.350 -34.150  1.00  0.00     0.272 A 
HETATM    9  O   UNL     1      -6.396   1.796 -34.873  1.00  0.00    -0.266 OA
HETATM   10  N   UNL     1      -8.326   2.004 -33.638  1.00  0.00    -0.327 N 
HETATM   11  C   UNL     1      -9.054   1.638 -31.318  1.00  0.00     0.083 C 
HETATM   12  C   UNL     1      -9.664   3.014 -31.192  1.00  0.00     0.240 C 
HETATM   13  H   UNL     1      -8.481   2.988 -33.860  1.00  0.00     0.165 HD
ENDROOT
BRANCH   1  14
HETATM   14  C   UNL     1     -11.357   4.649 -32.089  1.00  0.00     0.337 C 
BRANCH  14  15
HETATM   15  C   UNL     1     -10.994   5.179 -33.488  1.00  0.00     0.248 C 
HETATM   16  N   UNL     1      -9.766   5.654 -33.808  1.00  0.00    -0.326 N 
HETATM   17  H   UNL     1      -9.728   5.899 -34.796  1.00  0.00     0.169 HD
HETATM   18  O   UNL     1     -11.833   5.143 -34.401  1.00  0.00    -0.271 OA
BRANCH  16  19
HETATM   19  C   UNL     1      -8.556   5.826 -33.115  1.00  0.00     0.034 A 
HETATM   20  C   UNL     1      -8.383   6.530 -31.926  1.00  0.00     0.030 A 
HETATM   21  C   UNL     1      -7.117   6.590 -31.319  1.00  0.00     0.020 A 
HETATM   22  C   UNL     1      -6.010   5.954 -31.895  1.00  0.00     0.039 A 
HETATM   23  C   UNL     1      -6.175   5.275 -33.102  1.00  0.00     0.020 A 
HETATM   24  C   UNL     1      -7.435   5.218 -33.703  1.00  0.00     0.030 A 
BRANCH  22  25
HETATM   25  C   UNL     1      -4.699   6.030 -31.195  1.00  0.00     0.293 C 
HETATM   26  O   UNL     1      -4.595   6.052 -29.980  1.00  0.00    -0.259 OA
BRANCH  25  27
HETATM   27  O   UNL     1      -3.689   6.041 -32.096  1.00  0.00    -0.318 OA
BRANCH  27  28
HETATM   28  C   UNL     1      -2.569   5.191 -31.803  1.00  0.00     0.174 C 
HETATM   29  C   UNL     1      -2.987   3.737 -31.909  1.00  0.00     0.034 C 
ENDBRANCH  27  28
ENDBRANCH  25  27
ENDBRANCH  22  25
ENDBRANCH  16  19
ENDBRANCH  14  15
ENDBRANCH   1  14
BRANCH   7  30
HETATM   30  C   UNL     1      -6.441  -1.155 -33.879  1.00  0.00    -0.001 A 
HETATM   31  C   UNL     1      -6.818  -2.299 -34.589  1.00  0.00     0.037 A 
HETATM   32  C   UNL     1      -5.881  -3.305 -34.839  1.00  0.00     0.035 A 
HETATM   33 CL   UNL     1      -6.352  -4.708 -35.716  1.00  0.00    -0.084 Cl
HETATM   34  C   UNL     1      -4.569  -3.184 -34.386  1.00  0.00     0.024 A 
HETATM   35  C   UNL     1      -4.188  -2.049 -33.674  1.00  0.00     0.003 A 
HETATM   36  C   UNL     1      -5.119  -1.039 -33.421  1.00  0.00     0.014 A 
ENDBRANCH   7  30
TORSDOF 7
ENDMDL
MODEL 10
REMARK VINA RESULT:      -8.5      5.097      8.849
REMARK  7 active torsions:
REMARK  status: ('A' for Active; 'I' for Inactive)
REMARK    1  A    between atoms: C_2  and  O_3 
REMARK    2  A    between atoms: O_3  and  C_4 
REMARK    3  A    between atoms: C_4  and  C_5 
REMARK    4  A    between atoms: C_8  and  N_9 
REMARK       I    between atoms: N_9  and  C_10 
REMARK    5  A    between atoms: C_10  and  C_11 
REMARK    6  A    between atoms: C_11  and  N_12 
REMARK    7  A    between atoms: C_18  and  C_19 
ROOT
HETATM    1  N   UNL     1       0.933   8.225 -26.044  1.00  0.00    -0.063 N 
HETATM    2  H   UNL     1       1.815   7.805 -25.721  1.00  0.00     0.280 HD
HETATM    3  C   UNL     1      -0.109   7.122 -25.930  1.00  0.00     0.240 C 
HETATM    4  C   UNL     1      -0.143   6.198 -27.130  1.00  0.00     0.083 C 
HETATM    5  C   UNL     1      -0.161   6.986 -28.432  1.00  0.00     0.131 A 
HETATM    6  N   UNL     1      -0.197   6.036 -29.569  1.00  0.00    -0.251 NA
HETATM    7  C   UNL     1      -1.242   6.350 -30.293  1.00  0.00     0.132 A 
HETATM    8  C   UNL     1      -2.009   7.510 -29.695  1.00  0.00     0.272 A 
HETATM    9  O   UNL     1      -2.997   8.056 -30.120  1.00  0.00    -0.266 OA
HETATM   10  N   UNL     1      -1.320   7.809 -28.565  1.00  0.00    -0.327 N 
HETATM   11  C   UNL     1       1.138   7.776 -28.526  1.00  0.00     0.083 C 
HETATM   12  C   UNL     1       1.228   8.801 -27.419  1.00  0.00     0.240 C 
HETATM   13  H   UNL     1      -1.629   8.572 -27.962  1.00  0.00     0.165 HD
ENDROOT
BRANCH   1  14
HETATM   14  C   UNL     1       0.610   9.390 -25.049  1.00  0.00     0.337 C 
BRANCH  14  15
HETATM   15  C   UNL     1       1.554  10.598 -25.180  1.00  0.00     0.248 C 
HETATM   16  N   UNL     1       2.789  10.640 -24.623  1.00  0.00    -0.326 N 
HETATM   17  H   UNL     1       3.262  11.506 -24.879  1.00  0.00     0.169 HD
HETATM   18  O   UNL     1       1.214  11.580 -25.857  1.00  0.00    -0.271 OA
BRANCH  16  19
HETATM   19  C   UNL     1       3.558   9.761 -23.843  1.00  0.00     0.034 A 
HETATM   20  C   UNL     1       4.899   9.442 -24.044  1.00  0.00     0.030 A 
HETATM   21  C   UNL     1       5.557   8.571 -23.160  1.00  0.00     0.020 A 
HETATM   22  C   UNL     1       4.884   8.005 -22.070  1.00  0.00     0.039 A 
HETATM   23  C   UNL     1       3.533   8.298 -21.886  1.00  0.00     0.020 A 
HETATM   24  C   UNL     1       2.881   9.164 -22.767  1.00  0.00     0.030 A 
BRANCH  22  25
HETATM   25  C   UNL     1       5.639   7.108 -21.153  1.00  0.00     0.293 C 
HETATM   26  O   UNL     1       5.598   7.214 -19.938  1.00  0.00    -0.259 OA
BRANCH  25  27
HETATM   27  O   UNL     1       6.321   6.180 -21.863  1.00  0.00    -0.318 OA
BRANCH  27  28
HETATM   28  C   UNL     1       7.692   5.974 -21.486  1.00  0.00     0.174 C 
HETATM   29  C   UNL     1       8.608   6.528 -22.560  1.00  0.00     0.034 C 
ENDBRANCH  27  28
ENDBRANCH  25  27
ENDBRANCH  22  25
ENDBRANCH  16  19
ENDBRANCH  14  15
ENDBRANCH   1  14
BRANCH   7  30
HETATM   30  C   UNL     1      -1.616   5.654 -31.543  1.00  0.00    -0.001 A 
HETATM   31  C   UNL     1      -2.380   4.484 -31.552  1.00  0.00     0.037 A 
HETATM   32  C   UNL     1      -2.711   3.878 -32.767  1.00  0.00     0.035 A 
HETATM   33 CL   UNL     1      -3.656   2.439 -32.771  1.00  0.00    -0.084 Cl
HETATM   34  C   UNL     1      -2.287   4.426 -33.975  1.00  0.00     0.024 A 
HETATM   35  C   UNL     1      -1.521   5.589 -33.972  1.00  0.00     0.003 A 
HETATM   36  C   UNL     1      -1.186   6.202 -32.762  1.00  0.00     0.014 A 
ENDBRANCH   7  30
TORSDOF 7
ENDMDL
