MODEL 1
REMARK VINA RESULT:      -8.7      0.000      0.000
REMARK  7 active torsions:
REMARK  status: ('A' for Active; 'I' for Inactive)
REMARK    1  A    between atoms: C_3  and  N_4 
REMARK       I    between atoms: N_4  and  C_5 
REMARK    2  A    between atoms: C_5  and  C_6 
REMARK    3  A    between atoms: C_7  and  C_8 
REMARK    4  A    between atoms: C_19  and  C_20 
REMARK    5  A    between atoms: C_20  and  C_21 
REMARK    6  A    between atoms: C_21  and  C_22 
REMARK    7  A    between atoms: C_22  and  O_23 
ROOT
HETATM    1  C   UNL     1      -8.455   3.732 -33.100  1.00  0.00     0.062 C 
HETATM    2  C   UNL     1      -7.224   2.963 -32.605  1.00  0.00     0.202 C 
HETATM    3  N   UNL     1      -6.016   3.794 -32.699  1.00  0.00    -0.083 N 
HETATM    4  C   UNL     1      -5.945   4.952 -33.424  1.00  0.00     0.726 A 
HETATM    5  N   UNL     1      -7.062   5.443 -33.990  1.00  0.00    -0.192 N 
HETATM    6  N   UNL     1      -4.816   3.463 -32.180  1.00  0.00    -0.140 NA
HETATM    7  C   UNL     1      -4.047   4.436 -32.687  1.00  0.00     0.166 A 
HETATM    8  N   UNL     1      -4.707   5.375 -33.452  1.00  0.00    -0.046 NA
HETATM    9  C   UNL     1      -8.322   4.883 -33.812  1.00  0.00     0.037 C 
HETATM   10  C   UNL     1      -9.451   5.616 -34.494  1.00  0.00     0.070 C 
HETATM   11  H   UNL     1      -6.996   6.307 -34.523  1.00  0.00     0.184 HD
ENDROOT
BRANCH   1  12
HETATM   12  C   UNL     1      -9.763   3.094 -32.754  1.00  0.00     0.256 C 
HETATM   13  N   UNL     1     -10.414   2.532 -33.827  1.00  0.00    -0.323 N 
HETATM   14  H   UNL     1     -10.125   2.857 -34.740  1.00  0.00     0.169 HD
HETATM   15  O   UNL     1     -10.224   3.229 -31.629  1.00  0.00    -0.267 OA
BRANCH  13  16
HETATM   16  C   UNL     1     -11.543   1.678 -33.820  1.00  0.00     0.041 A 
HETATM   17  C   UNL     1     -11.578   0.343 -33.372  1.00  0.00    -0.035 A 
HETATM   18  C   UNL     1     -10.392  -0.432 -32.867  1.00  0.00     0.050 C 
HETATM   19  C   UNL     1     -12.800  -0.361 -33.429  1.00  0.00     0.009 A 
HETATM   20  C   UNL     1     -13.948   0.215 -33.970  1.00  0.00     0.001 A 
HETATM   21  C   UNL     1     -13.897   1.509 -34.464  1.00  0.00     0.002 A 
HETATM   22  C   UNL     1     -12.704   2.231 -34.393  1.00  0.00     0.030 A 
ENDBRANCH  13  16
ENDBRANCH   1  12
BRANCH   2  23
HETATM   23  C   UNL     1      -6.972   1.657 -33.362  1.00  0.00    -0.025 A 
HETATM   24  C   UNL     1      -6.520   0.499 -32.705  1.00  0.00     0.052 A 
HETATM   25  C   UNL     1      -6.312  -0.675 -33.422  1.00  0.00     0.117 A 
HETATM   26  F   UNL     1      -5.881  -1.768 -32.780  1.00  0.00    -0.206 F 
HETATM   27  C   UNL     1      -6.545  -0.732 -34.790  1.00  0.00     0.042 A 
HETATM   28  C   UNL     1      -6.997   0.405 -35.455  1.00  0.00     0.004 A 
HETATM   29  C   UNL     1      -7.211   1.591 -34.747  1.00  0.00     0.010 A 
ENDBRANCH   2  23
BRANCH   7  30
HETATM   30  C   UNL     1      -2.568   4.451 -32.559  1.00  0.00     0.085 C 
BRANCH  30  31
HETATM   31  C   UNL     1      -1.865   4.828 -33.867  1.00  0.00     0.034 C 
BRANCH  31  32
HETATM   32  C   UNL     1      -1.337   6.261 -33.921  1.00  0.00     0.164 C 
BRANCH  32  33
HETATM   33  O   UNL     1      -2.265   7.131 -34.551  1.00  0.00    -0.401 OA
HETATM   34  H   UNL     1      -3.124   6.661 -34.557  1.00  0.00     0.209 HD
ENDBRANCH  32  33
ENDBRANCH  31  32
ENDBRANCH  30  31
ENDBRANCH   7  30
TORSDOF 7
ENDMDL
MODEL 2
REMARK VINA RESULT:      -8.7      3.380      5.774
REMARK  7 active torsions:
REMARK  status: ('A' for Active; 'I' for Inactive)
REMARK    1  A    between atoms: C_3  and  N_4 
REMARK       I    between atoms: N_4  and  C_5 
REMARK    2  A    between atoms: C_5  and  C_6 
REMARK    3  A    between atoms: C_7  and  C_8 
REMARK    4  A    between atoms: C_19  and  C_20 
REMARK    5  A    between atoms: C_20  and  C_21 
REMARK    6  A    between atoms: C_21  and  C_22 
REMARK    7  A    between atoms: C_22  and  O_23 
ROOT
HETATM    1  C   UNL     1      -7.420   1.922 -32.949  1.00  0.00     0.062 C 
HETATM    2  C   UNL     1      -6.408   2.551 -31.984  1.00  0.00     0.202 C 
HETATM    3  N   UNL     1      -7.092   3.348 -30.956  1.00  0.00    -0.083 N 
HETATM    4  C   UNL     1      -8.399   3.740 -31.044  1.00  0.00     0.726 A 
HETATM    5  N   UNL     1      -9.157   3.280 -32.056  1.00  0.00    -0.192 N 
HETATM    6  N   UNL     1      -6.490   3.876 -29.871  1.00  0.00    -0.140 NA
HETATM    7  C   UNL     1      -7.481   4.633 -29.380  1.00  0.00     0.166 A 
HETATM    8  N   UNL     1      -8.673   4.570 -30.070  1.00  0.00    -0.046 NA
HETATM    9  C   UNL     1      -8.710   2.349 -32.987  1.00  0.00     0.037 C 
HETATM   10  C   UNL     1      -9.734   1.929 -34.013  1.00  0.00     0.070 C 
HETATM   11  H   UNL     1     -10.129   3.577 -32.107  1.00  0.00     0.184 HD
ENDROOT
BRANCH   1  12
HETATM   12  C   UNL     1      -6.854   0.852 -33.828  1.00  0.00     0.256 C 
HETATM   13  N   UNL     1      -6.422  -0.263 -33.147  1.00  0.00    -0.323 N 
HETATM   14  H   UNL     1      -6.245  -0.137 -32.159  1.00  0.00     0.169 HD
HETATM   15  O   UNL     1      -6.679   1.074 -35.018  1.00  0.00    -0.267 OA
BRANCH  13  16
HETATM   16  C   UNL     1      -6.042  -1.520 -33.673  1.00  0.00     0.041 A 
HETATM   17  C   UNL     1      -4.732  -2.034 -33.742  1.00  0.00    -0.035 A 
HETATM   18  C   UNL     1      -3.490  -1.304 -33.310  1.00  0.00     0.050 C 
HETATM   19  C   UNL     1      -4.535  -3.319 -34.294  1.00  0.00     0.009 A 
HETATM   20  C   UNL     1      -5.594  -4.056 -34.821  1.00  0.00     0.001 A 
HETATM   21  C   UNL     1      -6.873  -3.522 -34.805  1.00  0.00     0.002 A 
HETATM   22  C   UNL     1      -7.092  -2.265 -34.241  1.00  0.00     0.030 A 
ENDBRANCH  13  16
ENDBRANCH   1  12
BRANCH   2  23
HETATM   23  C   UNL     1      -5.372   3.439 -32.676  1.00  0.00    -0.025 A 
HETATM   24  C   UNL     1      -4.002   3.352 -32.368  1.00  0.00     0.052 A 
HETATM   25  C   UNL     1      -3.086   4.168 -33.025  1.00  0.00     0.117 A 
HETATM   26  F   UNL     1      -1.786   4.072 -32.719  1.00  0.00    -0.206 F 
HETATM   27  C   UNL     1      -3.496   5.078 -33.990  1.00  0.00     0.042 A 
HETATM   28  C   UNL     1      -4.849   5.173 -34.309  1.00  0.00     0.004 A 
HETATM   29  C   UNL     1      -5.781   4.360 -33.658  1.00  0.00     0.010 A 
ENDBRANCH   2  23
BRANCH   7  30
HETATM   30  C   UNL     1      -7.295   5.581 -28.253  1.00  0.00     0.085 C 
BRANCH  30  31
HETATM   31  C   UNL     1      -5.989   6.375 -28.357  1.00  0.00     0.034 C 
BRANCH  31  32
HETATM   32  C   UNL     1      -5.105   6.324 -27.111  1.00  0.00     0.164 C 
BRANCH  32  33
HETATM   33  O   UNL     1      -4.919   4.989 -26.663  1.00  0.00    -0.401 OA
HETATM   34  H   UNL     1      -5.752   4.513 -26.857  1.00  0.00     0.209 HD
ENDBRANCH  32  33
ENDBRANCH  31  32
ENDBRANCH  30  31
ENDBRANCH   7  30
TORSDOF 7
ENDMDL
MODEL 3
REMARK VINA RESULT:      -8.5      3.646      5.874
REMARK  7 active torsions:
REMARK  status: ('A' for Active; 'I' for Inactive)
REMARK    1  A    between atoms: C_3  and  N_4 
REMARK       I    between atoms: N_4  and  C_5 
REMARK    2  A    between atoms: C_5  and  C_6 
REMARK    3  A    between atoms: C_7  and  C_8 
REMARK    4  A    between atoms: C_19  and  C_20 
REMARK    5  A    between atoms: C_20  and  C_21 
REMARK    6  A    between atoms: C_21  and  C_22 
REMARK    7  A    between atoms: C_22  and  O_23 
ROOT
HETATM    1  C   UNL     1      -7.314   1.779 -30.971  1.00  0.00     0.062 C 
HETATM    2  C   UNL     1      -6.239   2.691 -30.364  1.00  0.00     0.202 C 
HETATM    3  N   UNL     1      -6.848   3.879 -29.752  1.00  0.00    -0.083 N 
HETATM    4  C   UNL     1      -8.136   4.276 -29.980  1.00  0.00     0.726 A 
HETATM    5  N   UNL     1      -8.951   3.485 -30.701  1.00  0.00    -0.192 N 
HETATM    6  N   UNL     1      -6.183   4.773 -28.990  1.00  0.00    -0.140 NA
HETATM    7  C   UNL     1      -7.119   5.722 -28.846  1.00  0.00     0.166 A 
HETATM    8  N   UNL     1      -8.336   5.448 -29.434  1.00  0.00    -0.046 NA
HETATM    9  C   UNL     1      -8.582   2.228 -31.167  1.00  0.00     0.037 C 
HETATM   10  C   UNL     1      -9.660   1.481 -31.915  1.00  0.00     0.070 C 
HETATM   11  H   UNL     1      -9.908   3.789 -30.859  1.00  0.00     0.184 HD
ENDROOT
BRANCH   1  12
HETATM   12  C   UNL     1      -6.831   0.410 -31.333  1.00  0.00     0.256 C 
HETATM   13  N   UNL     1      -6.780   0.173 -32.687  1.00  0.00    -0.323 N 
HETATM   14  H   UNL     1      -7.336   0.788 -33.265  1.00  0.00     0.169 HD
HETATM   15  O   UNL     1      -6.660  -0.424 -30.454  1.00  0.00    -0.267 OA
BRANCH  13  16
HETATM   16  C   UNL     1      -6.180  -0.915 -33.365  1.00  0.00     0.041 A 
HETATM   17  C   UNL     1      -4.799  -1.160 -33.493  1.00  0.00    -0.035 A 
HETATM   18  C   UNL     1      -3.708  -0.267 -32.967  1.00  0.00     0.050 C 
HETATM   19  C   UNL     1      -4.375  -2.305 -34.200  1.00  0.00     0.009 A 
HETATM   20  C   UNL     1      -5.287  -3.158 -34.819  1.00  0.00     0.001 A 
HETATM   21  C   UNL     1      -6.643  -2.882 -34.743  1.00  0.00     0.002 A 
HETATM   22  C   UNL     1      -7.083  -1.769 -34.026  1.00  0.00     0.030 A 
ENDBRANCH  13  16
ENDBRANCH   1  12
BRANCH   2  23
HETATM   23  C   UNL     1      -5.186   3.151 -31.374  1.00  0.00    -0.025 A 
HETATM   24  C   UNL     1      -5.544   3.796 -32.571  1.00  0.00     0.052 A 
HETATM   25  C   UNL     1      -4.559   4.212 -33.462  1.00  0.00     0.117 A 
HETATM   26  F   UNL     1      -4.918   4.824 -34.598  1.00  0.00    -0.206 F 
HETATM   27  C   UNL     1      -3.213   4.003 -33.194  1.00  0.00     0.042 A 
HETATM   28  C   UNL     1      -2.841   3.369 -32.010  1.00  0.00     0.004 A 
HETATM   29  C   UNL     1      -3.820   2.947 -31.106  1.00  0.00     0.010 A 
ENDBRANCH   2  23
BRANCH   7  30
HETATM   30  C   UNL     1      -6.848   7.037 -28.215  1.00  0.00     0.085 C 
BRANCH  30  31
HETATM   31  C   UNL     1      -5.351   7.331 -28.079  1.00  0.00     0.034 C 
BRANCH  31  32
HETATM   32  C   UNL     1      -4.757   7.013 -26.708  1.00  0.00     0.164 C 
BRANCH  32  33
HETATM   33  O   UNL     1      -4.396   5.644 -26.605  1.00  0.00    -0.401 OA
HETATM   34  H   UNL     1      -3.572   5.613 -26.078  1.00  0.00     0.209 HD
ENDBRANCH  32  33
ENDBRANCH  31  32
ENDBRANCH  30  31
ENDBRANCH   7  30
TORSDOF 7
ENDMDL
MODEL 4
REMARK VINA RESULT:      -8.1      2.099      7.743
REMARK  7 active torsions:
REMARK  status: ('A' for Active; 'I' for Inactive)
REMARK    1  A    between atoms: C_3  and  N_4 
REMARK       I    between atoms: N_4  and  C_5 
REMARK    2  A    between atoms: C_5  and  C_6 
REMARK    3  A    between atoms: C_7  and  C_8 
REMARK    4  A    between atoms: C_19  and  C_20 
REMARK    5  A    between atoms: C_20  and  C_21 
REMARK    6  A    between atoms: C_21  and  C_22 
REMARK    7  A    between atoms: C_22  and  O_23 
ROOT
HETATM    1  C   UNL     1      -7.847   4.129 -32.946  1.00  0.00     0.062 C 
HETATM    2  C   UNL     1      -8.194   2.839 -33.699  1.00  0.00     0.202 C 
HETATM    3  N   UNL     1      -9.630   2.543 -33.596  1.00  0.00    -0.083 N 
HETATM    4  C   UNL     1     -10.465   3.141 -32.693  1.00  0.00     0.726 A 
HETATM    5  N   UNL     1      -9.999   4.146 -31.931  1.00  0.00    -0.192 N 
HETATM    6  N   UNL     1     -10.265   1.579 -34.294  1.00  0.00    -0.140 NA
HETATM    7  C   UNL     1     -11.473   1.605 -33.713  1.00  0.00     0.166 A 
HETATM    8  N   UNL     1     -11.636   2.558 -32.729  1.00  0.00    -0.046 NA
HETATM    9  C   UNL     1      -8.723   4.681 -32.064  1.00  0.00     0.037 C 
HETATM   10  C   UNL     1      -8.413   5.837 -31.144  1.00  0.00     0.070 C 
HETATM   11  H   UNL     1     -10.632   4.585 -31.266  1.00  0.00     0.184 HD
ENDROOT
BRANCH   1  12
HETATM   12  C   UNL     1      -6.489   4.677 -33.251  1.00  0.00     0.256 C 
HETATM   13  N   UNL     1      -5.638   4.703 -32.171  1.00  0.00    -0.323 N 
HETATM   14  H   UNL     1      -6.077   4.651 -31.261  1.00  0.00     0.169 HD
HETATM   15  O   UNL     1      -6.271   5.181 -34.345  1.00  0.00    -0.267 OA
BRANCH  13  16
HETATM   16  C   UNL     1      -4.245   4.952 -32.157  1.00  0.00     0.041 A 
HETATM   17  C   UNL     1      -3.223   3.987 -32.248  1.00  0.00    -0.035 A 
HETATM   18  C   UNL     1      -3.440   2.500 -32.325  1.00  0.00     0.050 C 
HETATM   19  C   UNL     1      -1.880   4.417 -32.228  1.00  0.00     0.009 A 
HETATM   20  C   UNL     1      -1.546   5.760 -32.060  1.00  0.00     0.001 A 
HETATM   21  C   UNL     1      -2.553   6.701 -31.911  1.00  0.00     0.002 A 
HETATM   22  C   UNL     1      -3.889   6.299 -31.955  1.00  0.00     0.030 A 
ENDBRANCH  13  16
ENDBRANCH   1  12
BRANCH   2  23
HETATM   23  C   UNL     1      -7.412   1.617 -33.214  1.00  0.00    -0.025 A 
HETATM   24  C   UNL     1      -7.484   1.177 -31.880  1.00  0.00     0.052 A 
HETATM   25  C   UNL     1      -6.767   0.055 -31.475  1.00  0.00     0.117 A 
HETATM   26  F   UNL     1      -6.847  -0.349 -30.200  1.00  0.00    -0.206 F 
HETATM   27  C   UNL     1      -5.973  -0.652 -32.368  1.00  0.00     0.042 A 
HETATM   28  C   UNL     1      -5.895  -0.232 -33.694  1.00  0.00     0.004 A 
HETATM   29  C   UNL     1      -6.610   0.893 -34.115  1.00  0.00     0.010 A 
ENDBRANCH   2  23
BRANCH   7  30
HETATM   30  C   UNL     1     -12.532   0.606 -33.998  1.00  0.00     0.085 C 
BRANCH  30  31
HETATM   31  C   UNL     1     -13.770   1.226 -34.653  1.00  0.00     0.034 C 
BRANCH  31  32
HETATM   32  C   UNL     1     -15.102   0.810 -34.032  1.00  0.00     0.164 C 
BRANCH  32  33
HETATM   33  O   UNL     1     -15.985   0.279 -35.009  1.00  0.00    -0.401 OA
HETATM   34  H   UNL     1     -16.396  -0.514 -34.609  1.00  0.00     0.209 HD
ENDBRANCH  32  33
ENDBRANCH  31  32
ENDBRANCH  30  31
ENDBRANCH   7  30
TORSDOF 7
ENDMDL
MODEL 5
REMARK VINA RESULT:      -8.1      2.167      7.867
REMARK  7 active torsions:
REMARK  status: ('A' for Active; 'I' for Inactive)
REMARK    1  A    between atoms: C_3  and  N_4 
REMARK       I    between atoms: N_4  and  C_5 
REMARK    2  A    between atoms: C_5  and  C_6 
REMARK    3  A    between atoms: C_7  and  C_8 
REMARK    4  A    between atoms: C_19  and  C_20 
REMARK    5  A    between atoms: C_20  and  C_21 
REMARK    6  A    between atoms: C_21  and  C_22 
REMARK    7  A    between atoms: C_22  and  O_23 
ROOT
HETATM    1  C   UNL     1      -6.580   4.016 -31.960  1.00  0.00     0.062 C 
HETATM    2  C   UNL     1      -6.958   2.968 -33.015  1.00  0.00     0.202 C 
HETATM    3  N   UNL     1      -8.414   2.918 -33.203  1.00  0.00    -0.083 N 
HETATM    4  C   UNL     1      -9.311   3.478 -32.337  1.00  0.00     0.726 A 
HETATM    5  N   UNL     1      -8.860   4.228 -31.315  1.00  0.00    -0.192 N 
HETATM    6  N   UNL     1      -9.036   2.227 -34.180  1.00  0.00    -0.140 NA
HETATM    7  C   UNL     1     -10.316   2.359 -33.803  1.00  0.00     0.166 A 
HETATM    8  N   UNL     1     -10.525   3.129 -32.678  1.00  0.00    -0.046 NA
HETATM    9  C   UNL     1      -7.519   4.544 -31.130  1.00  0.00     0.037 C 
HETATM   10  C   UNL     1      -7.228   5.438 -29.950  1.00  0.00     0.070 C 
HETATM   11  H   UNL     1      -9.539   4.642 -30.680  1.00  0.00     0.184 HD
ENDROOT
BRANCH   1  12
HETATM   12  C   UNL     1      -5.125   4.362 -31.926  1.00  0.00     0.256 C 
HETATM   13  N   UNL     1      -4.706   5.131 -32.986  1.00  0.00    -0.323 N 
HETATM   14  H   UNL     1      -5.305   5.126 -33.801  1.00  0.00     0.169 HD
HETATM   15  O   UNL     1      -4.399   3.848 -31.086  1.00  0.00    -0.267 OA
BRANCH  13  16
HETATM   16  C   UNL     1      -3.470   5.802 -33.149  1.00  0.00     0.041 A 
HETATM   17  C   UNL     1      -3.058   6.969 -32.476  1.00  0.00    -0.035 A 
HETATM   18  C   UNL     1      -3.893   7.742 -31.492  1.00  0.00     0.050 C 
HETATM   19  C   UNL     1      -1.781   7.500 -32.757  1.00  0.00     0.009 A 
HETATM   20  C   UNL     1      -0.952   6.932 -33.723  1.00  0.00     0.001 A 
HETATM   21  C   UNL     1      -1.384   5.818 -34.426  1.00  0.00     0.002 A 
HETATM   22  C   UNL     1      -2.633   5.263 -34.144  1.00  0.00     0.030 A 
ENDBRANCH  13  16
ENDBRANCH   1  12
BRANCH   2  23
HETATM   23  C   UNL     1      -6.464   1.559 -32.682  1.00  0.00    -0.025 A 
HETATM   24  C   UNL     1      -5.833   0.752 -33.646  1.00  0.00     0.052 A 
HETATM   25  C   UNL     1      -5.386  -0.522 -33.306  1.00  0.00     0.117 A 
HETATM   26  F   UNL     1      -4.788  -1.276 -34.237  1.00  0.00    -0.206 F 
HETATM   27  C   UNL     1      -5.549  -1.021 -32.021  1.00  0.00     0.042 A 
HETATM   28  C   UNL     1      -6.167  -0.232 -31.054  1.00  0.00     0.004 A 
HETATM   29  C   UNL     1      -6.621   1.049 -31.380  1.00  0.00     0.010 A 
ENDBRANCH   2  23
BRANCH   7  30
HETATM   30  C   UNL     1     -11.433   1.633 -34.457  1.00  0.00     0.085 C 
BRANCH  30  31
HETATM   31  C   UNL     1     -12.002   0.512 -33.581  1.00  0.00     0.034 C 
BRANCH  31  32
HETATM   32  C   UNL     1     -13.452   0.136 -33.882  1.00  0.00     0.164 C 
BRANCH  32  33
HETATM   33  O   UNL     1     -13.813  -1.081 -33.245  1.00  0.00    -0.401 OA
HETATM   34  H   UNL     1     -12.976  -1.543 -33.036  1.00  0.00     0.209 HD
ENDBRANCH  32  33
ENDBRANCH  31  32
ENDBRANCH  30  31
ENDBRANCH   7  30
TORSDOF 7
ENDMDL
MODEL 6
REMARK VINA RESULT:      -8.0      3.144      5.688
REMARK  7 active torsions:
REMARK  status: ('A' for Active; 'I' for Inactive)
REMARK    1  A    between atoms: C_3  and  N_4 
REMARK       I    between atoms: N_4  and  C_5 
REMARK    2  A    between atoms: C_5  and  C_6 
REMARK    3  A    between atoms: C_7  and  C_8 
REMARK    4  A    between atoms: C_19  and  C_20 
REMARK    5  A    between atoms: C_20  and  C_21 
REMARK    6  A    between atoms: C_21  and  C_22 
REMARK    7  A    between atoms: C_22  and  O_23 
ROOT
HETATM    1  C   UNL     1      -4.922   0.824 -32.355  1.00  0.00     0.062 C 
HETATM    2  C   UNL     1      -5.633   2.097 -32.830  1.00  0.00     0.202 C 
HETATM    3  N   UNL     1      -4.754   3.267 -32.698  1.00  0.00    -0.083 N 
HETATM    4  C   UNL     1      -3.605   3.273 -31.956  1.00  0.00     0.726 A 
HETATM    5  N   UNL     1      -3.168   2.125 -31.410  1.00  0.00    -0.192 N 
HETATM    6  N   UNL     1      -5.029   4.491 -33.193  1.00  0.00    -0.140 NA
HETATM    7  C   UNL     1      -4.033   5.208 -32.655  1.00  0.00     0.166 A 
HETATM    8  N   UNL     1      -3.132   4.491 -31.894  1.00  0.00    -0.046 NA
HETATM    9  C   UNL     1      -3.777   0.893 -31.625  1.00  0.00     0.037 C 
HETATM   10  C   UNL     1      -3.101  -0.280 -30.960  1.00  0.00     0.070 C 
HETATM   11  H   UNL     1      -2.310   2.142 -30.864  1.00  0.00     0.184 HD
ENDROOT
BRANCH   1  12
HETATM   12  C   UNL     1      -5.609  -0.448 -32.739  1.00  0.00     0.256 C 
HETATM   13  N   UNL     1      -4.941  -1.180 -33.693  1.00  0.00    -0.323 N 
HETATM   14  H   UNL     1      -4.258  -0.674 -34.241  1.00  0.00     0.169 HD
HETATM   15  O   UNL     1      -6.734  -0.681 -32.319  1.00  0.00    -0.267 OA
BRANCH  13  16
HETATM   16  C   UNL     1      -5.193  -2.506 -34.118  1.00  0.00     0.041 A 
HETATM   17  C   UNL     1      -4.482  -3.658 -33.728  1.00  0.00    -0.035 A 
HETATM   18  C   UNL     1      -3.282  -3.669 -32.820  1.00  0.00     0.050 C 
HETATM   19  C   UNL     1      -4.879  -4.909 -34.246  1.00  0.00     0.009 A 
HETATM   20  C   UNL     1      -5.913  -5.019 -35.173  1.00  0.00     0.001 A 
HETATM   21  C   UNL     1      -6.573  -3.877 -35.601  1.00  0.00     0.002 A 
HETATM   22  C   UNL     1      -6.213  -2.634 -35.080  1.00  0.00     0.030 A 
ENDBRANCH  13  16
ENDBRANCH   1  12
BRANCH   2  23
HETATM   23  C   UNL     1      -6.938   2.385 -32.085  1.00  0.00    -0.025 A 
HETATM   24  C   UNL     1      -8.187   2.303 -32.726  1.00  0.00     0.052 A 
HETATM   25  C   UNL     1      -9.355   2.561 -32.015  1.00  0.00     0.117 A 
HETATM   26  F   UNL     1     -10.536   2.479 -32.642  1.00  0.00    -0.206 F 
HETATM   27  C   UNL     1      -9.317   2.900 -30.669  1.00  0.00     0.042 A 
HETATM   28  C   UNL     1      -8.088   2.981 -30.018  1.00  0.00     0.004 A 
HETATM   29  C   UNL     1      -6.907   2.724 -30.720  1.00  0.00     0.010 A 
ENDBRANCH   2  23
BRANCH   7  30
HETATM   30  C   UNL     1      -3.955   6.686 -32.748  1.00  0.00     0.085 C 
BRANCH  30  31
HETATM   31  C   UNL     1      -2.634   7.245 -32.210  1.00  0.00     0.034 C 
BRANCH  31  32
HETATM   32  C   UNL     1      -1.632   7.669 -33.282  1.00  0.00     0.164 C 
BRANCH  32  33
HETATM   33  O   UNL     1      -2.060   7.272 -34.577  1.00  0.00    -0.401 OA
HETATM   34  H   UNL     1      -2.887   6.763 -34.450  1.00  0.00     0.209 HD
ENDBRANCH  32  33
ENDBRANCH  31  32
ENDBRANCH  30  31
ENDBRANCH   7  30
TORSDOF 7
ENDMDL
MODEL 7
REMARK VINA RESULT:      -8.0      3.409      6.262
REMARK  7 active torsions:
REMARK  status: ('A' for Active; 'I' for Inactive)
REMARK    1  A    between atoms: C_3  and  N_4 
REMARK       I    between atoms: N_4  and  C_5 
REMARK    2  A    between atoms: C_5  and  C_6 
REMARK    3  A    between atoms: C_7  and  C_8 
REMARK    4  A    between atoms: C_19  and  C_20 
REMARK    5  A    between atoms: C_20  and  C_21 
REMARK    6  A    between atoms: C_21  and  C_22 
REMARK    7  A    between atoms: C_22  and  O_23 
ROOT
HETATM    1  C   UNL     1      -8.117   1.330 -31.669  1.00  0.00     0.062 C 
HETATM    2  C   UNL     1      -7.414   2.548 -31.055  1.00  0.00     0.202 C 
HETATM    3  N   UNL     1      -8.392   3.571 -30.660  1.00  0.00    -0.083 N 
HETATM    4  C   UNL     1      -9.694   3.579 -31.079  1.00  0.00     0.726 A 
HETATM    5  N   UNL     1     -10.163   2.538 -31.791  1.00  0.00    -0.192 N 
HETATM    6  N   UNL     1      -8.100   4.672 -29.937  1.00  0.00    -0.140 NA
HETATM    7  C   UNL     1      -9.261   5.337 -30.014  1.00  0.00     0.166 A 
HETATM    8  N   UNL     1     -10.267   4.693 -30.702  1.00  0.00    -0.046 NA
HETATM    9  C   UNL     1      -9.417   1.396 -32.060  1.00  0.00     0.037 C 
HETATM   10  C   UNL     1     -10.145   0.324 -32.834  1.00  0.00     0.070 C 
HETATM   11  H   UNL     1     -11.134   2.555 -32.093  1.00  0.00     0.184 HD
ENDROOT
BRANCH   1  12
HETATM   12  C   UNL     1      -7.247   0.121 -31.809  1.00  0.00     0.256 C 
HETATM   13  N   UNL     1      -7.176  -0.373 -33.091  1.00  0.00    -0.323 N 
HETATM   14  H   UNL     1      -7.917  -0.087 -33.717  1.00  0.00     0.169 HD
HETATM   15  O   UNL     1      -6.793  -0.418 -30.810  1.00  0.00    -0.267 OA
BRANCH  13  16
HETATM   16  C   UNL     1      -6.294  -1.353 -33.606  1.00  0.00     0.041 A 
HETATM   17  C   UNL     1      -4.887  -1.315 -33.564  1.00  0.00    -0.035 A 
HETATM   18  C   UNL     1      -4.067  -0.184 -33.004  1.00  0.00     0.050 C 
HETATM   19  C   UNL     1      -4.162  -2.389 -34.122  1.00  0.00     0.009 A 
HETATM   20  C   UNL     1      -4.804  -3.449 -34.760  1.00  0.00     0.001 A 
HETATM   21  C   UNL     1      -6.187  -3.455 -34.852  1.00  0.00     0.002 A 
HETATM   22  C   UNL     1      -6.923  -2.415 -34.283  1.00  0.00     0.030 A 
ENDBRANCH  13  16
ENDBRANCH   1  12
BRANCH   2  23
HETATM   23  C   UNL     1      -6.385   3.195 -31.984  1.00  0.00    -0.025 A 
HETATM   24  C   UNL     1      -5.013   3.196 -31.677  1.00  0.00     0.052 A 
HETATM   25  C   UNL     1      -4.103   3.784 -32.550  1.00  0.00     0.117 A 
HETATM   26  F   UNL     1      -2.800   3.777 -32.242  1.00  0.00    -0.206 F 
HETATM   27  C   UNL     1      -4.523   4.376 -33.734  1.00  0.00     0.042 A 
HETATM   28  C   UNL     1      -5.878   4.379 -34.055  1.00  0.00     0.004 A 
HETATM   29  C   UNL     1      -6.804   3.792 -33.187  1.00  0.00     0.010 A 
ENDBRANCH   2  23
BRANCH   7  30
HETATM   30  C   UNL     1      -9.435   6.724 -29.516  1.00  0.00     0.085 C 
BRANCH  30  31
HETATM   31  C   UNL     1      -8.496   7.057 -28.353  1.00  0.00     0.034 C 
BRANCH  31  32
HETATM   32  C   UNL     1      -9.022   8.116 -27.385  1.00  0.00     0.164 C 
BRANCH  32  33
HETATM   33  O   UNL     1     -10.030   7.586 -26.537  1.00  0.00    -0.401 OA
HETATM   34  H   UNL     1     -10.355   6.770 -26.970  1.00  0.00     0.209 HD
ENDBRANCH  32  33
ENDBRANCH  31  32
ENDBRANCH  30  31
ENDBRANCH   7  30
TORSDOF 7
ENDMDL
MODEL 8
REMARK VINA RESULT:      -7.8      2.406      4.176
REMARK  7 active torsions:
REMARK  status: ('A' for Active; 'I' for Inactive)
REMARK    1  A    between atoms: C_3  and  N_4 
REMARK       I    between atoms: N_4  and  C_5 
REMARK    2  A    between atoms: C_5  and  C_6 
REMARK    3  A    between atoms: C_7  and  C_8 
REMARK    4  A    between atoms: C_19  and  C_20 
REMARK    5  A    between atoms: C_20  and  C_21 
REMARK    6  A    between atoms: C_21  and  C_22 
REMARK    7  A    between atoms: C_22  and  O_23 
ROOT
HETATM    1  C   UNL     1      -6.544   1.636 -33.272  1.00  0.00     0.062 C 
HETATM    2  C   UNL     1      -6.051   3.086 -33.339  1.00  0.00     0.202 C 
HETATM    3  N   UNL     1      -4.671   3.192 -32.845  1.00  0.00    -0.083 N 
HETATM    4  C   UNL     1      -4.044   2.212 -32.128  1.00  0.00     0.726 A 
HETATM    5  N   UNL     1      -4.656   1.026 -31.958  1.00  0.00    -0.192 N 
HETATM    6  N   UNL     1      -3.906   4.299 -32.942  1.00  0.00    -0.140 NA
HETATM    7  C   UNL     1      -2.849   3.938 -32.201  1.00  0.00     0.166 A 
HETATM    8  N   UNL     1      -2.895   2.658 -31.690  1.00  0.00    -0.046 NA
HETATM    9  C   UNL     1      -5.873   0.701 -32.547  1.00  0.00     0.037 C 
HETATM   10  C   UNL     1      -6.366  -0.698 -32.269  1.00  0.00     0.070 C 
HETATM   11  H   UNL     1      -4.177   0.304 -31.426  1.00  0.00     0.184 HD
ENDROOT
BRANCH   1  12
HETATM   12  C   UNL     1      -7.804   1.375 -34.035  1.00  0.00     0.256 C 
HETATM   13  N   UNL     1      -8.953   1.560 -33.302  1.00  0.00    -0.323 N 
HETATM   14  H   UNL     1      -8.843   1.545 -32.297  1.00  0.00     0.169 HD
HETATM   15  O   UNL     1      -7.743   0.897 -35.160  1.00  0.00    -0.267 OA
BRANCH  13  16
HETATM   16  C   UNL     1     -10.290   1.608 -33.763  1.00  0.00     0.041 A 
HETATM   17  C   UNL     1     -10.883   2.655 -34.495  1.00  0.00    -0.035 A 
HETATM   18  C   UNL     1     -10.202   3.943 -34.873  1.00  0.00     0.050 C 
HETATM   19  C   UNL     1     -12.234   2.532 -34.883  1.00  0.00     0.009 A 
HETATM   20  C   UNL     1     -13.003   1.431 -34.508  1.00  0.00     0.001 A 
HETATM   21  C   UNL     1     -12.433   0.430 -33.737  1.00  0.00     0.002 A 
HETATM   22  C   UNL     1     -11.091   0.521 -33.366  1.00  0.00     0.030 A 
ENDBRANCH  13  16
ENDBRANCH   1  12
BRANCH   2  23
HETATM   23  C   UNL     1      -6.923   4.067 -32.553  1.00  0.00    -0.025 A 
HETATM   24  C   UNL     1      -7.444   5.230 -33.146  1.00  0.00     0.052 A 
HETATM   25  C   UNL     1      -8.243   6.095 -32.405  1.00  0.00     0.117 A 
HETATM   26  F   UNL     1      -8.731   7.198 -32.986  1.00  0.00    -0.206 F 
HETATM   27  C   UNL     1      -8.543   5.833 -31.075  1.00  0.00     0.042 A 
HETATM   28  C   UNL     1      -8.038   4.683 -30.473  1.00  0.00     0.004 A 
HETATM   29  C   UNL     1      -7.235   3.805 -31.206  1.00  0.00     0.010 A 
ENDBRANCH   2  23
BRANCH   7  30
HETATM   30  C   UNL     1      -1.758   4.874 -31.835  1.00  0.00     0.085 C 
BRANCH  30  31
HETATM   31  C   UNL     1      -1.152   5.582 -33.051  1.00  0.00     0.034 C 
BRANCH  31  32
HETATM   32  C   UNL     1      -1.109   7.106 -32.952  1.00  0.00     0.164 C 
BRANCH  32  33
HETATM   33  O   UNL     1      -1.634   7.715 -34.122  1.00  0.00    -0.401 OA
HETATM   34  H   UNL     1      -0.907   7.728 -34.777  1.00  0.00     0.209 HD
ENDBRANCH  32  33
ENDBRANCH  31  32
ENDBRANCH  30  31
ENDBRANCH   7  30
TORSDOF 7
ENDMDL
MODEL 9
REMARK VINA RESULT:      -7.6      2.868      4.656
REMARK  7 active torsions:
REMARK  status: ('A' for Active; 'I' for Inactive)
REMARK    1  A    between atoms: C_3  and  N_4 
REMARK       I    between atoms: N_4  and  C_5 
REMARK    2  A    between atoms: C_5  and  C_6 
REMARK    3  A    between atoms: C_7  and  C_8 
REMARK    4  A    between atoms: C_19  and  C_20 
REMARK    5  A    between atoms: C_20  and  C_21 
REMARK    6  A    between atoms: C_21  and  C_22 
REMARK    7  A    between atoms: C_22  and  O_23 
ROOT
HETATM    1  C   UNL     1      -5.334   2.281 -32.838  1.00  0.00     0.062 C 
HETATM    2  C   UNL     1      -5.058   3.773 -33.060  1.00  0.00     0.202 C 
HETATM    3  N   UNL     1      -3.697   4.122 -32.630  1.00  0.00    -0.083 N 
HETATM    4  C   UNL     1      -2.918   3.317 -31.846  1.00  0.00     0.726 A 
HETATM    5  N   UNL     1      -3.348   2.079 -31.543  1.00  0.00    -0.192 N 
HETATM    6  N   UNL     1      -3.103   5.312 -32.859  1.00  0.00    -0.140 NA
HETATM    7  C   UNL     1      -1.989   5.179 -32.126  1.00  0.00     0.166 A 
HETATM    8  N   UNL     1      -1.836   3.963 -31.495  1.00  0.00    -0.046 NA
HETATM    9  C   UNL     1      -4.518   1.528 -32.053  1.00  0.00     0.037 C 
HETATM   10  C   UNL     1      -4.796   0.107 -31.626  1.00  0.00     0.070 C 
HETATM   11  H   UNL     1      -2.757   1.488 -30.962  1.00  0.00     0.184 HD
ENDROOT
BRANCH   1  12
HETATM   12  C   UNL     1      -6.560   1.770 -33.527  1.00  0.00     0.256 C 
HETATM   13  N   UNL     1      -7.681   1.745 -32.731  1.00  0.00    -0.323 N 
HETATM   14  H   UNL     1      -7.516   1.771 -31.734  1.00  0.00     0.169 HD
HETATM   15  O   UNL     1      -6.469   1.291 -34.649  1.00  0.00    -0.267 OA
BRANCH  13  16
HETATM   16  C   UNL     1      -9.026   1.528 -33.116  1.00  0.00     0.041 A 
HETATM   17  C   UNL     1      -9.869   2.454 -33.761  1.00  0.00    -0.035 A 
HETATM   18  C   UNL     1      -9.497   3.870 -34.108  1.00  0.00     0.050 C 
HETATM   19  C   UNL     1     -11.187   2.063 -34.081  1.00  0.00     0.009 A 
HETATM   20  C   UNL     1     -11.684   0.811 -33.722  1.00  0.00     0.001 A 
HETATM   21  C   UNL     1     -10.870  -0.076 -33.035  1.00  0.00     0.002 A 
HETATM   22  C   UNL     1      -9.556   0.282 -32.733  1.00  0.00     0.030 A 
ENDBRANCH  13  16
ENDBRANCH   1  12
BRANCH   2  23
HETATM   23  C   UNL     1      -6.045   4.693 -32.339  1.00  0.00    -0.025 A 
HETATM   24  C   UNL     1      -6.350   4.524 -30.976  1.00  0.00     0.052 A 
HETATM   25  C   UNL     1      -7.245   5.385 -30.349  1.00  0.00     0.117 A 
HETATM   26  F   UNL     1      -7.524   5.209 -29.051  1.00  0.00    -0.206 F 
HETATM   27  C   UNL     1      -7.851   6.422 -31.045  1.00  0.00     0.042 A 
HETATM   28  C   UNL     1      -7.557   6.606 -32.394  1.00  0.00     0.004 A 
HETATM   29  C   UNL     1      -6.659   5.749 -33.037  1.00  0.00     0.010 A 
ENDBRANCH   2  23
BRANCH   7  30
HETATM   30  C   UNL     1      -1.037   6.293 -31.890  1.00  0.00     0.085 C 
BRANCH  30  31
HETATM   31  C   UNL     1      -1.064   6.797 -30.444  1.00  0.00     0.034 C 
BRANCH  31  32
HETATM   32  C   UNL     1       0.149   6.403 -29.603  1.00  0.00     0.164 C 
BRANCH  32  33
HETATM   33  O   UNL     1       0.090   5.038 -29.217  1.00  0.00    -0.401 OA
HETATM   34  H   UNL     1       0.091   4.516 -30.046  1.00  0.00     0.209 HD
ENDBRANCH  32  33
ENDBRANCH  31  32
ENDBRANCH  30  31
ENDBRANCH   7  30
TORSDOF 7
ENDMDL
MODEL 10
REMARK VINA RESULT:      -7.5      3.203      4.772
REMARK  7 active torsions:
REMARK  status: ('A' for Active; 'I' for Inactive)
REMARK    1  A    between atoms: C_3  and  N_4 
REMARK       I    between atoms: N_4  and  C_5 
REMARK    2  A    between atoms: C_5  and  C_6 
REMARK    3  A    between atoms: C_7  and  C_8 
REMARK    4  A    between atoms: C_19  and  C_20 
REMARK    5  A    between atoms: C_20  and  C_21 
REMARK    6  A    between atoms: C_21  and  C_22 
REMARK    7  A    between atoms: C_22  and  O_23 
ROOT
HETATM    1  C   UNL     1      -6.345   2.828 -31.586  1.00  0.00     0.062 C 
HETATM    2  C   UNL     1      -5.739   4.234 -31.684  1.00  0.00     0.202 C 
HETATM    3  N   UNL     1      -4.277   4.164 -31.815  1.00  0.00    -0.083 N 
HETATM    4  C   UNL     1      -3.544   3.040 -31.554  1.00  0.00     0.726 A 
HETATM    5  N   UNL     1      -4.181   1.887 -31.281  1.00  0.00    -0.192 N 
HETATM    6  N   UNL     1      -3.483   5.218 -32.095  1.00  0.00    -0.140 NA
HETATM    7  C   UNL     1      -2.272   4.670 -31.922  1.00  0.00     0.166 A 
HETATM    8  N   UNL     1      -2.269   3.330 -31.596  1.00  0.00    -0.046 NA
HETATM    9  C   UNL     1      -5.563   1.745 -31.332  1.00  0.00     0.037 C 
HETATM   10  C   UNL     1      -6.075   0.356 -31.039  1.00  0.00     0.070 C 
HETATM   11  H   UNL     1      -3.624   1.057 -31.093  1.00  0.00     0.184 HD
ENDROOT
BRANCH   1  12
HETATM   12  C   UNL     1      -7.829   2.781 -31.767  1.00  0.00     0.256 C 
HETATM   13  N   UNL     1      -8.232   2.669 -33.077  1.00  0.00    -0.323 N 
HETATM   14  H   UNL     1      -7.547   2.933 -33.774  1.00  0.00     0.169 HD
HETATM   15  O   UNL     1      -8.563   2.982 -30.809  1.00  0.00    -0.267 OA
BRANCH  13  16
HETATM   16  C   UNL     1      -9.525   2.388 -33.577  1.00  0.00     0.041 A 
HETATM   17  C   UNL     1     -10.239   1.184 -33.417  1.00  0.00    -0.035 A 
HETATM   18  C   UNL     1      -9.720  -0.045 -32.721  1.00  0.00     0.050 C 
HETATM   19  C   UNL     1     -11.530   1.080 -33.978  1.00  0.00     0.009 A 
HETATM   20  C   UNL     1     -12.083   2.114 -34.731  1.00  0.00     0.001 A 
HETATM   21  C   UNL     1     -11.354   3.275 -34.938  1.00  0.00     0.002 A 
HETATM   22  C   UNL     1     -10.087   3.407 -34.370  1.00  0.00     0.030 A 
ENDBRANCH  13  16
ENDBRANCH   1  12
BRANCH   2  23
HETATM   23  C   UNL     1      -6.077   5.131 -30.491  1.00  0.00    -0.025 A 
HETATM   24  C   UNL     1      -5.616   4.839 -29.195  1.00  0.00     0.052 A 
HETATM   25  C   UNL     1      -5.933   5.683 -28.135  1.00  0.00     0.117 A 
HETATM   26  F   UNL     1      -5.486   5.389 -26.907  1.00  0.00    -0.206 F 
HETATM   27  C   UNL     1      -6.704   6.822 -28.329  1.00  0.00     0.042 A 
HETATM   28  C   UNL     1      -7.164   7.127 -29.607  1.00  0.00     0.004 A 
HETATM   29  C   UNL     1      -6.853   6.289 -30.682  1.00  0.00     0.010 A 
ENDBRANCH   2  23
BRANCH   7  30
HETATM   30  C   UNL     1      -1.015   5.459 -31.945  1.00  0.00     0.085 C 
BRANCH  30  31
HETATM   31  C   UNL     1      -0.727   6.154 -30.611  1.00  0.00     0.034 C 
BRANCH  31  32
HETATM   32  C   UNL     1       0.363   5.496 -29.766  1.00  0.00     0.164 C 
BRANCH  32  33
HETATM   33  O   UNL     1       0.288   4.080 -29.837  1.00  0.00    -0.401 OA
HETATM   34  H   UNL     1       1.203   3.749 -29.725  1.00  0.00     0.209 HD
ENDBRANCH  32  33
ENDBRANCH  31  32
ENDBRANCH  30  31
ENDBRANCH   7  30
TORSDOF 7
ENDMDL
