MODEL 1
REMARK VINA RESULT:      -9.7      0.000      0.000
REMARK  3 active torsions:
REMARK  status: ('A' for Active; 'I' for Inactive)
REMARK    1  A    between atoms: C_10  and  C_11 
REMARK    2  A    between atoms: C_13  and  C_14 
REMARK    3  A    between atoms: C_22  and  O_23 
ROOT
HETATM    1  C   UNL     1      -4.978  -4.888 -34.524  1.00  0.00     0.001 A 
HETATM    2  C   UNL     1      -4.311  -3.974 -33.702  1.00  0.00     0.015 A 
HETATM    3  C   UNL     1      -4.721  -2.639 -33.659  1.00  0.00     0.013 A 
HETATM    4  C   UNL     1      -5.806  -2.231 -34.449  1.00  0.00     0.046 A 
HETATM    5  C   UNL     1      -6.259  -0.814 -34.388  1.00  0.00     0.271 A 
HETATM    6  O   UNL     1      -7.271  -0.444 -34.974  1.00  0.00    -0.266 OA
HETATM    7  N   UNL     1      -5.516   0.076 -33.646  1.00  0.00    -0.257 N 
HETATM    8  N   UNL     1      -4.472  -0.331 -32.891  1.00  0.00    -0.229 N 
HETATM    9  C   UNL     1      -4.073  -1.637 -32.834  1.00  0.00     0.122 A 
HETATM   10  C   UNL     1      -3.680   0.444 -32.073  1.00  0.00     0.162 A 
HETATM   11  N   UNL     1      -2.839  -0.346 -31.419  1.00  0.00    -0.202 NA
HETATM   12  C   UNL     1      -3.067  -1.602 -31.898  1.00  0.00     0.194 A 
HETATM   13  C   UNL     1      -6.476  -3.146 -35.269  1.00  0.00     0.018 A 
HETATM   14  C   UNL     1      -6.057  -4.475 -35.306  1.00  0.00     0.001 A 
HETATM   15  H   UNL     1      -5.921   0.981 -33.452  1.00  0.00     0.191 HD
ENDROOT
BRANCH  10  16
HETATM   16  C   UNL     1      -3.758   1.899 -31.907  1.00  0.00     0.013 A 
HETATM   17  C   UNL     1      -2.954   2.721 -32.712  1.00  0.00     0.031 A 
HETATM   18  C   UNL     1      -3.007   4.120 -32.607  1.00  0.00     0.048 A 
HETATM   19  C   UNL     1      -3.881   4.696 -31.673  1.00  0.00     0.016 A 
HETATM   20  C   UNL     1      -4.699   3.890 -30.882  1.00  0.00     0.002 A 
HETATM   21  C   UNL     1      -4.645   2.500 -31.005  1.00  0.00     0.015 A 
BRANCH  18  22
HETATM   22  C   UNL     1      -2.134   5.000 -33.467  1.00  0.00     0.417 C 
HETATM   23  F   UNL     1      -2.630   6.256 -33.643  1.00  0.00    -0.166 F 
HETATM   24  F   UNL     1      -0.884   5.163 -32.951  1.00  0.00    -0.166 F 
HETATM   25  F   UNL     1      -1.959   4.489 -34.717  1.00  0.00    -0.166 F 
ENDBRANCH  18  22
ENDBRANCH  10  16
BRANCH  12  26
HETATM   26  O   UNL     1      -2.378  -2.666 -31.483  1.00  0.00    -0.343 OA
HETATM   27  H   UNL     1      -1.493  -2.336 -31.249  1.00  0.00     0.219 HD
ENDBRANCH  12  26
TORSDOF 3
ENDMDL
MODEL 2
REMARK VINA RESULT:      -9.0      2.189      2.746
REMARK  3 active torsions:
REMARK  status: ('A' for Active; 'I' for Inactive)
REMARK    1  A    between atoms: C_10  and  C_11 
REMARK    2  A    between atoms: C_13  and  C_14 
REMARK    3  A    between atoms: C_22  and  O_23 
ROOT
HETATM    1  C   UNL     1      -4.844  -4.887 -34.514  1.00  0.00     0.001 A 
HETATM    2  C   UNL     1      -4.210  -3.951 -33.691  1.00  0.00     0.015 A 
HETATM    3  C   UNL     1      -4.685  -2.639 -33.625  1.00  0.00     0.013 A 
HETATM    4  C   UNL     1      -5.802  -2.276 -34.393  1.00  0.00     0.046 A 
HETATM    5  C   UNL     1      -6.323  -0.884 -34.307  1.00  0.00     0.271 A 
HETATM    6  O   UNL     1      -7.361  -0.558 -34.872  1.00  0.00    -0.266 OA
HETATM    7  N   UNL     1      -5.613   0.033 -33.565  1.00  0.00    -0.257 N 
HETATM    8  N   UNL     1      -4.538  -0.331 -32.832  1.00  0.00    -0.229 N 
HETATM    9  C   UNL     1      -4.074  -1.615 -32.798  1.00  0.00     0.122 A 
HETATM   10  C   UNL     1      -3.773   0.473 -32.016  1.00  0.00     0.162 A 
HETATM   11  N   UNL     1      -2.883  -0.281 -31.385  1.00  0.00    -0.202 NA
HETATM   12  C   UNL     1      -3.056  -1.542 -31.877  1.00  0.00     0.194 A 
HETATM   13  C   UNL     1      -6.439  -3.213 -35.213  1.00  0.00     0.018 A 
HETATM   14  C   UNL     1      -5.955  -4.519 -35.274  1.00  0.00     0.001 A 
HETATM   15  H   UNL     1      -6.059   0.915 -33.354  1.00  0.00     0.191 HD
ENDROOT
BRANCH  10  16
HETATM   16  C   UNL     1      -3.919   1.920 -31.831  1.00  0.00     0.013 A 
HETATM   17  C   UNL     1      -4.906   2.399 -30.955  1.00  0.00     0.031 A 
HETATM   18  C   UNL     1      -5.071   3.775 -30.726  1.00  0.00     0.048 A 
HETATM   19  C   UNL     1      -4.232   4.678 -31.395  1.00  0.00     0.016 A 
HETATM   20  C   UNL     1      -3.236   4.213 -32.252  1.00  0.00     0.002 A 
HETATM   21  C   UNL     1      -3.074   2.842 -32.461  1.00  0.00     0.015 A 
BRANCH  18  22
HETATM   22  C   UNL     1      -6.140   4.286 -29.791  1.00  0.00     0.417 C 
HETATM   23  F   UNL     1      -5.648   4.804 -28.632  1.00  0.00    -0.166 F 
HETATM   24  F   UNL     1      -6.895   5.273 -30.348  1.00  0.00    -0.166 F 
HETATM   25  F   UNL     1      -7.013   3.310 -29.423  1.00  0.00    -0.166 F 
ENDBRANCH  18  22
ENDBRANCH  10  16
BRANCH  12  26
HETATM   26  O   UNL     1      -2.308  -2.576 -31.486  1.00  0.00    -0.343 OA
HETATM   27  H   UNL     1      -2.774  -2.970 -30.727  1.00  0.00     0.219 HD
ENDBRANCH  12  26
TORSDOF 3
ENDMDL
MODEL 3
REMARK VINA RESULT:      -9.0      1.096      2.946
REMARK  3 active torsions:
REMARK  status: ('A' for Active; 'I' for Inactive)
REMARK    1  A    between atoms: C_10  and  C_11 
REMARK    2  A    between atoms: C_13  and  C_14 
REMARK    3  A    between atoms: C_22  and  O_23 
ROOT
HETATM    1  C   UNL     1      -6.252  -4.207 -35.223  1.00  0.00     0.001 A 
HETATM    2  C   UNL     1      -6.563  -2.847 -35.121  1.00  0.00     0.015 A 
HETATM    3  C   UNL     1      -5.786  -2.008 -34.319  1.00  0.00     0.013 A 
HETATM    4  C   UNL     1      -4.696  -2.546 -33.619  1.00  0.00     0.046 A 
HETATM    5  C   UNL     1      -3.854  -1.649 -32.781  1.00  0.00     0.271 A 
HETATM    6  O   UNL     1      -2.828  -2.056 -32.247  1.00  0.00    -0.266 OA
HETATM    7  N   UNL     1      -4.251  -0.340 -32.627  1.00  0.00    -0.257 N 
HETATM    8  N   UNL     1      -5.305   0.164 -33.305  1.00  0.00    -0.229 N 
HETATM    9  C   UNL     1      -6.054  -0.591 -34.162  1.00  0.00     0.122 A 
HETATM   10  C   UNL     1      -5.775   1.458 -33.276  1.00  0.00     0.162 A 
HETATM   11  N   UNL     1      -6.753   1.579 -34.164  1.00  0.00    -0.202 NA
HETATM   12  C   UNL     1      -6.931   0.330 -34.684  1.00  0.00     0.194 A 
HETATM   13  C   UNL     1      -4.382  -3.906 -33.724  1.00  0.00     0.018 A 
HETATM   14  C   UNL     1      -5.164  -4.735 -34.525  1.00  0.00     0.001 A 
HETATM   15  H   UNL     1      -3.591   0.308 -32.220  1.00  0.00     0.191 HD
ENDROOT
BRANCH  10  16
HETATM   16  C   UNL     1      -5.273   2.551 -32.437  1.00  0.00     0.013 A 
HETATM   17  C   UNL     1      -4.048   3.154 -32.763  1.00  0.00     0.031 A 
HETATM   18  C   UNL     1      -3.535   4.218 -32.005  1.00  0.00     0.048 A 
HETATM   19  C   UNL     1      -4.267   4.676 -30.898  1.00  0.00     0.016 A 
HETATM   20  C   UNL     1      -5.494   4.098 -30.576  1.00  0.00     0.002 A 
HETATM   21  C   UNL     1      -5.999   3.048 -31.347  1.00  0.00     0.015 A 
BRANCH  18  22
HETATM   22  C   UNL     1      -2.213   4.858 -32.353  1.00  0.00     0.417 C 
HETATM   23  F   UNL     1      -1.232   4.615 -31.440  1.00  0.00    -0.166 F 
HETATM   24  F   UNL     1      -1.722   4.428 -33.549  1.00  0.00    -0.166 F 
HETATM   25  F   UNL     1      -2.306   6.212 -32.452  1.00  0.00    -0.166 F 
ENDBRANCH  18  22
ENDBRANCH  10  16
BRANCH  12  26
HETATM   26  O   UNL     1      -7.861   0.060 -35.602  1.00  0.00    -0.343 OA
HETATM   27  H   UNL     1      -7.447  -0.562 -36.226  1.00  0.00     0.219 HD
ENDBRANCH  12  26
TORSDOF 3
ENDMDL
MODEL 4
REMARK VINA RESULT:      -9.0      5.258      6.921
REMARK  3 active torsions:
REMARK  status: ('A' for Active; 'I' for Inactive)
REMARK    1  A    between atoms: C_10  and  C_11 
REMARK    2  A    between atoms: C_13  and  C_14 
REMARK    3  A    between atoms: C_22  and  O_23 
ROOT
HETATM    1  C   UNL     1      -3.490  -0.437 -31.298  1.00  0.00     0.001 A 
HETATM    2  C   UNL     1      -4.706   0.232 -31.125  1.00  0.00     0.015 A 
HETATM    3  C   UNL     1      -5.791  -0.055 -31.958  1.00  0.00     0.013 A 
HETATM    4  C   UNL     1      -5.642  -1.019 -32.967  1.00  0.00     0.046 A 
HETATM    5  C   UNL     1      -6.802  -1.342 -33.842  1.00  0.00     0.271 A 
HETATM    6  O   UNL     1      -6.748  -2.256 -34.658  1.00  0.00    -0.266 OA
HETATM    7  N   UNL     1      -7.949  -0.593 -33.707  1.00  0.00    -0.257 N 
HETATM    8  N   UNL     1      -8.077   0.334 -32.731  1.00  0.00    -0.229 N 
HETATM    9  C   UNL     1      -7.078   0.603 -31.839  1.00  0.00     0.122 A 
HETATM   10  C   UNL     1      -9.179   1.114 -32.460  1.00  0.00     0.162 A 
HETATM   11  N   UNL     1      -8.948   1.814 -31.357  1.00  0.00    -0.202 NA
HETATM   12  C   UNL     1      -7.666   1.515 -30.996  1.00  0.00     0.194 A 
HETATM   13  C   UNL     1      -4.427  -1.691 -33.139  1.00  0.00     0.018 A 
HETATM   14  C   UNL     1      -3.350  -1.396 -32.303  1.00  0.00     0.001 A 
HETATM   15  H   UNL     1      -8.787  -0.928 -34.160  1.00  0.00     0.191 HD
ENDROOT
BRANCH  10  16
HETATM   16  C   UNL     1     -10.428   1.157 -33.227  1.00  0.00     0.013 A 
HETATM   17  C   UNL     1     -10.652   2.226 -34.109  1.00  0.00     0.031 A 
HETATM   18  C   UNL     1     -11.821   2.301 -34.882  1.00  0.00     0.048 A 
HETATM   19  C   UNL     1     -12.780   1.285 -34.758  1.00  0.00     0.016 A 
HETATM   20  C   UNL     1     -12.561   0.208 -33.901  1.00  0.00     0.002 A 
HETATM   21  C   UNL     1     -11.388   0.139 -33.147  1.00  0.00     0.015 A 
BRANCH  18  22
HETATM   22  C   UNL     1     -12.061   3.457 -35.822  1.00  0.00     0.417 C 
HETATM   23  F   UNL     1     -10.981   4.272 -35.972  1.00  0.00    -0.166 F 
HETATM   24  F   UNL     1     -12.398   3.050 -37.078  1.00  0.00    -0.166 F 
HETATM   25  F   UNL     1     -13.079   4.258 -35.403  1.00  0.00    -0.166 F 
ENDBRANCH  18  22
ENDBRANCH  10  16
BRANCH  12  26
HETATM   26  O   UNL     1      -7.073   2.061 -29.933  1.00  0.00    -0.343 OA
HETATM   27  H   UNL     1      -7.250   3.017 -29.990  1.00  0.00     0.219 HD
ENDBRANCH  12  26
TORSDOF 3
ENDMDL
MODEL 5
REMARK VINA RESULT:      -9.0      5.953      7.466
REMARK  3 active torsions:
REMARK  status: ('A' for Active; 'I' for Inactive)
REMARK    1  A    between atoms: C_10  and  C_11 
REMARK    2  A    between atoms: C_13  and  C_14 
REMARK    3  A    between atoms: C_22  and  O_23 
ROOT
HETATM    1  C   UNL     1      -3.521  -0.673 -31.240  1.00  0.00     0.001 A 
HETATM    2  C   UNL     1      -4.678   0.094 -31.069  1.00  0.00     0.015 A 
HETATM    3  C   UNL     1      -5.725   0.001 -31.991  1.00  0.00     0.013 A 
HETATM    4  C   UNL     1      -5.597  -0.867 -33.085  1.00  0.00     0.046 A 
HETATM    5  C   UNL     1      -6.720  -0.983 -34.056  1.00  0.00     0.271 A 
HETATM    6  O   UNL     1      -6.696  -1.811 -34.960  1.00  0.00    -0.266 OA
HETATM    7  N   UNL     1      -7.797  -0.140 -33.910  1.00  0.00    -0.257 N 
HETATM    8  N   UNL     1      -7.905   0.694 -32.852  1.00  0.00    -0.229 N 
HETATM    9  C   UNL     1      -6.949   0.770 -31.879  1.00  0.00     0.122 A 
HETATM   10  C   UNL     1      -8.946   1.549 -32.565  1.00  0.00     0.162 A 
HETATM   11  N   UNL     1      -8.726   2.109 -31.382  1.00  0.00    -0.202 NA
HETATM   12  C   UNL     1      -7.506   1.649 -30.980  1.00  0.00     0.194 A 
HETATM   13  C   UNL     1      -4.442  -1.637 -33.255  1.00  0.00     0.018 A 
HETATM   14  C   UNL     1      -3.403  -1.536 -32.331  1.00  0.00     0.001 A 
HETATM   15  H   UNL     1      -8.630  -0.342 -34.445  1.00  0.00     0.191 HD
ENDROOT
BRANCH  10  16
HETATM   16  C   UNL     1     -10.129   1.794 -33.395  1.00  0.00     0.013 A 
HETATM   17  C   UNL     1     -11.270   0.998 -33.208  1.00  0.00     0.031 A 
HETATM   18  C   UNL     1     -12.436   1.206 -33.962  1.00  0.00     0.048 A 
HETATM   19  C   UNL     1     -12.447   2.230 -34.922  1.00  0.00     0.016 A 
HETATM   20  C   UNL     1     -11.327   3.039 -35.103  1.00  0.00     0.002 A 
HETATM   21  C   UNL     1     -10.178   2.829 -34.337  1.00  0.00     0.015 A 
BRANCH  18  22
HETATM   22  C   UNL     1     -13.657   0.342 -33.764  1.00  0.00     0.417 C 
HETATM   23  F   UNL     1     -13.366  -0.950 -33.449  1.00  0.00    -0.166 F 
HETATM   24  F   UNL     1     -14.465   0.796 -32.765  1.00  0.00    -0.166 F 
HETATM   25  F   UNL     1     -14.436   0.288 -34.879  1.00  0.00    -0.166 F 
ENDBRANCH  18  22
ENDBRANCH  10  16
BRANCH  12  26
HETATM   26  O   UNL     1      -6.940   2.023 -29.832  1.00  0.00    -0.343 OA
HETATM   27  H   UNL     1      -6.510   2.878 -30.012  1.00  0.00     0.219 HD
ENDBRANCH  12  26
TORSDOF 3
ENDMDL
MODEL 6
REMARK VINA RESULT:      -8.9      3.979      7.186
REMARK  3 active torsions:
REMARK  status: ('A' for Active; 'I' for Inactive)
REMARK    1  A    between atoms: C_10  and  C_11 
REMARK    2  A    between atoms: C_13  and  C_14 
REMARK    3  A    between atoms: C_22  and  O_23 
ROOT
HETATM    1  C   UNL     1      -6.027   5.162 -29.018  1.00  0.00     0.001 A 
HETATM    2  C   UNL     1      -5.223   4.278 -29.745  1.00  0.00     0.015 A 
HETATM    3  C   UNL     1      -5.807   3.263 -30.508  1.00  0.00     0.013 A 
HETATM    4  C   UNL     1      -7.204   3.144 -30.533  1.00  0.00     0.046 A 
HETATM    5  C   UNL     1      -7.829   2.077 -31.362  1.00  0.00     0.271 A 
HETATM    6  O   UNL     1      -9.046   2.010 -31.501  1.00  0.00    -0.266 OA
HETATM    7  N   UNL     1      -7.004   1.166 -31.981  1.00  0.00    -0.257 N 
HETATM    8  N   UNL     1      -5.659   1.292 -31.947  1.00  0.00    -0.229 N 
HETATM    9  C   UNL     1      -5.035   2.309 -31.281  1.00  0.00     0.122 A 
HETATM   10  C   UNL     1      -4.728   0.482 -32.558  1.00  0.00     0.162 A 
HETATM   11  N   UNL     1      -3.522   1.004 -32.378  1.00  0.00    -0.202 NA
HETATM   12  C   UNL     1      -3.711   2.100 -31.588  1.00  0.00     0.194 A 
HETATM   13  C   UNL     1      -8.009   4.030 -29.809  1.00  0.00     0.018 A 
HETATM   14  C   UNL     1      -7.417   5.038 -29.049  1.00  0.00     0.001 A 
HETATM   15  H   UNL     1      -7.409   0.566 -32.686  1.00  0.00     0.191 HD
ENDROOT
BRANCH  10  16
HETATM   16  C   UNL     1      -5.001  -0.743 -33.317  1.00  0.00     0.013 A 
HETATM   17  C   UNL     1      -4.232  -1.889 -33.064  1.00  0.00     0.031 A 
HETATM   18  C   UNL     1      -4.469  -3.092 -33.748  1.00  0.00     0.048 A 
HETATM   19  C   UNL     1      -5.493  -3.135 -34.705  1.00  0.00     0.016 A 
HETATM   20  C   UNL     1      -6.277  -2.009 -34.952  1.00  0.00     0.002 A 
HETATM   21  C   UNL     1      -6.039  -0.822 -34.255  1.00  0.00     0.015 A 
BRANCH  18  22
HETATM   22  C   UNL     1      -3.633  -4.319 -33.480  1.00  0.00     0.417 C 
HETATM   23  F   UNL     1      -2.795  -4.643 -34.503  1.00  0.00    -0.166 F 
HETATM   24  F   UNL     1      -2.840  -4.183 -32.380  1.00  0.00    -0.166 F 
HETATM   25  F   UNL     1      -4.396  -5.424 -33.256  1.00  0.00    -0.166 F 
ENDBRANCH  18  22
ENDBRANCH  10  16
BRANCH  12  26
HETATM   26  O   UNL     1      -2.704   2.871 -31.175  1.00  0.00    -0.343 OA
HETATM   27  H   UNL     1      -2.933   3.146 -30.269  1.00  0.00     0.219 HD
ENDBRANCH  12  26
TORSDOF 3
ENDMDL
MODEL 7
REMARK VINA RESULT:      -8.9      3.868      6.997
REMARK  3 active torsions:
REMARK  status: ('A' for Active; 'I' for Inactive)
REMARK    1  A    between atoms: C_10  and  C_11 
REMARK    2  A    between atoms: C_13  and  C_14 
REMARK    3  A    between atoms: C_22  and  O_23 
ROOT
HETATM    1  C   UNL     1      -6.535   4.843 -29.807  1.00  0.00     0.001 A 
HETATM    2  C   UNL     1      -5.506   4.005 -30.248  1.00  0.00     0.015 A 
HETATM    3  C   UNL     1      -5.802   2.739 -30.760  1.00  0.00     0.013 A 
HETATM    4  C   UNL     1      -7.141   2.323 -30.824  1.00  0.00     0.046 A 
HETATM    5  C   UNL     1      -7.460   0.983 -31.389  1.00  0.00     0.271 A 
HETATM    6  O   UNL     1      -8.621   0.628 -31.567  1.00  0.00    -0.266 OA
HETATM    7  N   UNL     1      -6.416   0.149 -31.717  1.00  0.00    -0.257 N 
HETATM    8  N   UNL     1      -5.131   0.562 -31.649  1.00  0.00    -0.229 N 
HETATM    9  C   UNL     1      -4.786   1.816 -31.229  1.00  0.00     0.122 A 
HETATM   10  C   UNL     1      -4.005  -0.152 -31.989  1.00  0.00     0.162 A 
HETATM   11  N   UNL     1      -2.947   0.642 -31.887  1.00  0.00    -0.202 NA
HETATM   12  C   UNL     1      -3.423   1.827 -31.408  1.00  0.00     0.194 A 
HETATM   13  C   UNL     1      -8.171   3.163 -30.387  1.00  0.00     0.018 A 
HETATM   14  C   UNL     1      -7.864   4.423 -29.875  1.00  0.00     0.001 A 
HETATM   15  H   UNL     1      -6.624  -0.672 -32.268  1.00  0.00     0.191 HD
ENDROOT
BRANCH  10  16
HETATM   16  C   UNL     1      -3.957  -1.550 -32.430  1.00  0.00     0.013 A 
HETATM   17  C   UNL     1      -4.768  -1.956 -33.502  1.00  0.00     0.031 A 
HETATM   18  C   UNL     1      -4.742  -3.277 -33.976  1.00  0.00     0.048 A 
HETATM   19  C   UNL     1      -3.891  -4.202 -33.354  1.00  0.00     0.016 A 
HETATM   20  C   UNL     1      -3.067  -3.807 -32.302  1.00  0.00     0.002 A 
HETATM   21  C   UNL     1      -3.093  -2.486 -31.849  1.00  0.00     0.015 A 
BRANCH  18  22
HETATM   22  C   UNL     1      -5.623  -3.711 -35.122  1.00  0.00     0.417 C 
HETATM   23  F   UNL     1      -6.946  -3.465 -34.918  1.00  0.00    -0.166 F 
HETATM   24  F   UNL     1      -5.305  -3.088 -36.292  1.00  0.00    -0.166 F 
HETATM   25  F   UNL     1      -5.524  -5.046 -35.371  1.00  0.00    -0.166 F 
ENDBRANCH  18  22
ENDBRANCH  10  16
BRANCH  12  26
HETATM   26  O   UNL     1      -2.631   2.869 -31.152  1.00  0.00    -0.343 OA
HETATM   27  H   UNL     1      -2.293   3.166 -32.015  1.00  0.00     0.219 HD
ENDBRANCH  12  26
TORSDOF 3
ENDMDL
MODEL 8
REMARK VINA RESULT:      -8.8      4.946      8.028
REMARK  3 active torsions:
REMARK  status: ('A' for Active; 'I' for Inactive)
REMARK    1  A    between atoms: C_10  and  C_11 
REMARK    2  A    between atoms: C_13  and  C_14 
REMARK    3  A    between atoms: C_22  and  O_23 
ROOT
HETATM    1  C   UNL     1     -10.636   5.001 -31.560  1.00  0.00     0.001 A 
HETATM    2  C   UNL     1     -10.337   3.971 -32.458  1.00  0.00     0.015 A 
HETATM    3  C   UNL     1      -9.279   3.096 -32.195  1.00  0.00     0.013 A 
HETATM    4  C   UNL     1      -8.526   3.266 -31.024  1.00  0.00     0.046 A 
HETATM    5  C   UNL     1      -7.412   2.322 -30.732  1.00  0.00     0.271 A 
HETATM    6  O   UNL     1      -6.804   2.366 -29.668  1.00  0.00    -0.266 OA
HETATM    7  N   UNL     1      -7.085   1.386 -31.686  1.00  0.00    -0.257 N 
HETATM    8  N   UNL     1      -7.819   1.235 -32.811  1.00  0.00    -0.229 N 
HETATM    9  C   UNL     1      -8.909   2.011 -33.083  1.00  0.00     0.122 A 
HETATM   10  C   UNL     1      -7.627   0.314 -33.816  1.00  0.00     0.162 A 
HETATM   11  N   UNL     1      -8.623   0.416 -34.686  1.00  0.00    -0.202 NA
HETATM   12  C   UNL     1      -9.386   1.458 -34.248  1.00  0.00     0.194 A 
HETATM   13  C   UNL     1      -8.827   4.294 -30.124  1.00  0.00     0.018 A 
HETATM   14  C   UNL     1      -9.883   5.163 -30.396  1.00  0.00     0.001 A 
HETATM   15  H   UNL     1      -6.465   0.635 -31.416  1.00  0.00     0.191 HD
ENDROOT
BRANCH  10  16
HETATM   16  C   UNL     1      -6.531  -0.656 -33.914  1.00  0.00     0.013 A 
HETATM   17  C   UNL     1      -6.818  -1.973 -34.307  1.00  0.00     0.031 A 
HETATM   18  C   UNL     1      -5.801  -2.932 -34.438  1.00  0.00     0.048 A 
HETATM   19  C   UNL     1      -4.478  -2.557 -34.162  1.00  0.00     0.016 A 
HETATM   20  C   UNL     1      -4.178  -1.248 -33.790  1.00  0.00     0.002 A 
HETATM   21  C   UNL     1      -5.197  -0.300 -33.676  1.00  0.00     0.015 A 
BRANCH  18  22
HETATM   22  C   UNL     1      -6.115  -4.349 -34.851  1.00  0.00     0.417 C 
HETATM   23  F   UNL     1      -6.194  -4.519 -36.200  1.00  0.00    -0.166 F 
HETATM   24  F   UNL     1      -5.181  -5.241 -34.418  1.00  0.00    -0.166 F 
HETATM   25  F   UNL     1      -7.305  -4.781 -34.350  1.00  0.00    -0.166 F 
ENDBRANCH  18  22
ENDBRANCH  10  16
BRANCH  12  26
HETATM   26  O   UNL     1     -10.475   1.874 -34.897  1.00  0.00    -0.343 OA
HETATM   27  H   UNL     1     -10.174   2.133 -35.786  1.00  0.00     0.219 HD
ENDBRANCH  12  26
TORSDOF 3
ENDMDL
MODEL 9
REMARK VINA RESULT:      -8.7      3.872      7.608
REMARK  3 active torsions:
REMARK  status: ('A' for Active; 'I' for Inactive)
REMARK    1  A    between atoms: C_10  and  C_11 
REMARK    2  A    between atoms: C_13  and  C_14 
REMARK    3  A    between atoms: C_22  and  O_23 
ROOT
HETATM    1  C   UNL     1      -5.263   6.939 -29.893  1.00  0.00     0.001 A 
HETATM    2  C   UNL     1      -5.728   5.620 -29.886  1.00  0.00     0.015 A 
HETATM    3  C   UNL     1      -4.983   4.610 -30.500  1.00  0.00     0.013 A 
HETATM    4  C   UNL     1      -3.769   4.937 -31.121  1.00  0.00     0.046 A 
HETATM    5  C   UNL     1      -2.963   3.859 -31.757  1.00  0.00     0.271 A 
HETATM    6  O   UNL     1      -1.845   4.083 -32.210  1.00  0.00    -0.266 OA
HETATM    7  N   UNL     1      -3.501   2.593 -31.818  1.00  0.00    -0.257 N 
HETATM    8  N   UNL     1      -4.673   2.293 -31.217  1.00  0.00    -0.229 N 
HETATM    9  C   UNL     1      -5.407   3.223 -30.536  1.00  0.00     0.122 A 
HETATM   10  C   UNL     1      -5.294   1.065 -31.164  1.00  0.00     0.162 A 
HETATM   11  N   UNL     1      -6.365   1.161 -30.387  1.00  0.00    -0.202 NA
HETATM   12  C   UNL     1      -6.440   2.474 -30.025  1.00  0.00     0.194 A 
HETATM   13  C   UNL     1      -3.301   6.256 -31.125  1.00  0.00     0.018 A 
HETATM   14  C   UNL     1      -4.053   7.257 -30.512  1.00  0.00     0.001 A 
HETATM   15  H   UNL     1      -2.888   1.832 -32.075  1.00  0.00     0.191 HD
ENDROOT
BRANCH  10  16
HETATM   16  C   UNL     1      -4.848  -0.168 -31.819  1.00  0.00     0.013 A 
HETATM   17  C   UNL     1      -5.580  -0.666 -32.908  1.00  0.00     0.031 A 
HETATM   18  C   UNL     1      -5.181  -1.830 -33.584  1.00  0.00     0.048 A 
HETATM   19  C   UNL     1      -4.030  -2.503 -33.150  1.00  0.00     0.016 A 
HETATM   20  C   UNL     1      -3.283  -2.008 -32.082  1.00  0.00     0.002 A 
HETATM   21  C   UNL     1      -3.684  -0.841 -31.427  1.00  0.00     0.015 A 
BRANCH  18  22
HETATM   22  C   UNL     1      -5.978  -2.368 -34.748  1.00  0.00     0.417 C 
HETATM   23  F   UNL     1      -5.214  -2.974 -35.698  1.00  0.00    -0.166 F 
HETATM   24  F   UNL     1      -6.902  -3.294 -34.368  1.00  0.00    -0.166 F 
HETATM   25  F   UNL     1      -6.671  -1.391 -35.393  1.00  0.00    -0.166 F 
ENDBRANCH  18  22
ENDBRANCH  10  16
BRANCH  12  26
HETATM   26  O   UNL     1      -7.418   2.953 -29.254  1.00  0.00    -0.343 OA
HETATM   27  H   UNL     1      -7.477   2.350 -28.493  1.00  0.00     0.219 HD
ENDBRANCH  12  26
TORSDOF 3
ENDMDL
MODEL 10
REMARK VINA RESULT:      -8.6      5.629      8.062
REMARK  3 active torsions:
REMARK  status: ('A' for Active; 'I' for Inactive)
REMARK    1  A    between atoms: C_10  and  C_11 
REMARK    2  A    between atoms: C_13  and  C_14 
REMARK    3  A    between atoms: C_22  and  O_23 
ROOT
HETATM    1  C   UNL     1     -12.675   4.993 -34.875  1.00  0.00     0.001 A 
HETATM    2  C   UNL     1     -12.301   3.717 -34.440  1.00  0.00     0.015 A 
HETATM    3  C   UNL     1     -10.954   3.417 -34.221  1.00  0.00     0.013 A 
HETATM    4  C   UNL     1      -9.987   4.409 -34.444  1.00  0.00     0.046 A 
HETATM    5  C   UNL     1      -8.553   4.097 -34.191  1.00  0.00     0.271 A 
HETATM    6  O   UNL     1      -7.691   4.967 -34.264  1.00  0.00    -0.266 OA
HETATM    7  N   UNL     1      -8.216   2.804 -33.861  1.00  0.00    -0.257 N 
HETATM    8  N   UNL     1      -9.158   1.859 -33.651  1.00  0.00    -0.229 N 
HETATM    9  C   UNL     1     -10.494   2.115 -33.775  1.00  0.00     0.122 A 
HETATM   10  C   UNL     1      -8.958   0.549 -33.275  1.00  0.00     0.162 A 
HETATM   11  N   UNL     1     -10.137  -0.020 -33.064  1.00  0.00    -0.202 NA
HETATM   12  C   UNL     1     -11.065   0.926 -33.387  1.00  0.00     0.194 A 
HETATM   13  C   UNL     1     -10.361   5.686 -34.876  1.00  0.00     0.018 A 
HETATM   14  C   UNL     1     -11.707   5.974 -35.094  1.00  0.00     0.001 A 
HETATM   15  H   UNL     1      -7.284   2.635 -33.510  1.00  0.00     0.191 HD
ENDROOT
BRANCH  10  16
HETATM   16  C   UNL     1      -7.666  -0.120 -33.096  1.00  0.00     0.013 A 
HETATM   17  C   UNL     1      -7.340  -1.208 -33.921  1.00  0.00     0.031 A 
HETATM   18  C   UNL     1      -6.106  -1.868 -33.804  1.00  0.00     0.048 A 
HETATM   19  C   UNL     1      -5.192  -1.426 -32.837  1.00  0.00     0.016 A 
HETATM   20  C   UNL     1      -5.495  -0.334 -32.025  1.00  0.00     0.002 A 
HETATM   21  C   UNL     1      -6.721   0.322 -32.160  1.00  0.00     0.015 A 
BRANCH  18  22
HETATM   22  C   UNL     1      -5.764  -3.043 -34.686  1.00  0.00     0.417 C 
HETATM   23  F   UNL     1      -6.837  -3.821 -34.999  1.00  0.00    -0.166 F 
HETATM   24  F   UNL     1      -5.220  -2.665 -35.876  1.00  0.00    -0.166 F 
HETATM   25  F   UNL     1      -4.856  -3.875 -34.107  1.00  0.00    -0.166 F 
ENDBRANCH  18  22
ENDBRANCH  10  16
BRANCH  12  26
HETATM   26  O   UNL     1     -12.378   0.698 -33.322  1.00  0.00    -0.343 OA
HETATM   27  H   UNL     1     -12.520   0.190 -32.504  1.00  0.00     0.219 HD
ENDBRANCH  12  26
TORSDOF 3
ENDMDL
