MODEL 1
REMARK VINA RESULT:      -9.1      0.000      0.000
REMARK  5 active torsions:
REMARK  status: ('A' for Active; 'I' for Inactive)
REMARK    1  A    between atoms: C_2  and  C_3 
REMARK    2  A    between atoms: C_8  and  N_9 
REMARK       I    between atoms: N_9  and  C_10 
REMARK       I    between atoms: C_10  and  N_11 
REMARK    3  A    between atoms: N_11  and  C_12 
REMARK    4  A    between atoms: C_12  and  C_13 
REMARK    5  A    between atoms: C_13  and  C_14 
ROOT
HETATM    1  N   UNL     1      -2.040   4.529 -31.756  1.00  0.00    -0.305 N 
HETATM    2  C   UNL     1      -3.076   3.675 -32.044  1.00  0.00     0.320 C 
HETATM    3  N   UNL     1      -3.089   2.597 -31.180  1.00  0.00    -0.343 N 
HETATM    4  O   UNL     1      -3.925   3.818 -32.912  1.00  0.00    -0.247 OA
HETATM    5  H   UNL     1      -1.527   4.330 -30.913  1.00  0.00     0.171 HD
HETATM    6  H   UNL     1      -2.212   2.308 -30.772  1.00  0.00     0.164 HD
ENDROOT
BRANCH   3   7
HETATM    7  C   UNL     1      -4.113   1.571 -31.293  1.00  0.00     0.129 C 
BRANCH   7   8
HETATM    8  C   UNL     1      -3.679   0.385 -32.162  1.00  0.00     0.059 C 
BRANCH   8   9
HETATM    9  C   UNL     1      -4.793  -0.103 -33.074  1.00  0.00    -0.045 A 
HETATM   10  C   UNL     1      -4.854  -1.442 -33.557  1.00  0.00    -0.020 A 
HETATM   11  C   UNL     1      -5.915  -1.805 -34.426  1.00  0.00    -0.025 A 
HETATM   12  C   UNL     1      -3.917  -2.449 -33.220  1.00  0.00     0.013 A 
HETATM   13  C   UNL     1      -6.005  -3.118 -34.919  1.00  0.00     0.012 A 
HETATM   14  C   UNL     1      -6.878  -0.853 -34.790  1.00  0.00     0.012 A 
HETATM   15  C   UNL     1      -5.064  -4.084 -34.569  1.00  0.00     0.001 A 
HETATM   16  C   UNL     1      -4.020  -3.750 -33.720  1.00  0.00     0.001 A 
HETATM   17  C   UNL     1      -6.812   0.452 -34.310  1.00  0.00     0.001 A 
HETATM   18  C   UNL     1      -5.777   0.825 -33.460  1.00  0.00     0.008 A 
ENDBRANCH   8   9
ENDBRANCH   7   8
ENDBRANCH   3   7
BRANCH   1  19
HETATM   19  C   UNL     1      -1.739   5.724 -32.397  1.00  0.00     0.095 A 
HETATM   20  C   UNL     1      -1.595   6.919 -31.718  1.00  0.00     0.107 A 
HETATM   21  O   UNL     1      -1.318   7.915 -32.597  1.00  0.00    -0.215 OA
HETATM   22  N   UNL     1      -1.258   7.403 -33.871  1.00  0.00    -0.131 NA
HETATM   23  C   UNL     1      -1.507   6.089 -33.759  1.00  0.00     0.087 A 
HETATM   24  C   UNL     1      -1.492   5.279 -34.999  1.00  0.00     0.075 C 
BRANCH  20  25
HETATM   25  C   UNL     1      -1.681   7.340 -30.298  1.00  0.00     0.065 C 
HETATM   26  C   UNL     1      -0.304   7.554 -29.693  1.00  0.00     0.012 C 
ENDBRANCH  20  25
ENDBRANCH   1  19
TORSDOF 5
ENDMDL
MODEL 2
REMARK VINA RESULT:      -9.1      1.084      2.369
REMARK  5 active torsions:
REMARK  status: ('A' for Active; 'I' for Inactive)
REMARK    1  A    between atoms: C_2  and  C_3 
REMARK    2  A    between atoms: C_8  and  N_9 
REMARK       I    between atoms: N_9  and  C_10 
REMARK       I    between atoms: C_10  and  N_11 
REMARK    3  A    between atoms: N_11  and  C_12 
REMARK    4  A    between atoms: C_12  and  C_13 
REMARK    5  A    between atoms: C_13  and  C_14 
ROOT
HETATM    1  N   UNL     1      -2.136   4.748 -31.855  1.00  0.00    -0.305 N 
HETATM    2  C   UNL     1      -3.306   4.038 -31.749  1.00  0.00     0.320 C 
HETATM    3  N   UNL     1      -3.098   2.824 -31.124  1.00  0.00    -0.343 N 
HETATM    4  O   UNL     1      -4.418   4.398 -32.109  1.00  0.00    -0.247 OA
HETATM    5  H   UNL     1      -1.341   4.363 -31.371  1.00  0.00     0.171 HD
HETATM    6  H   UNL     1      -2.183   2.403 -31.201  1.00  0.00     0.164 HD
ENDROOT
BRANCH   3   7
HETATM    7  C   UNL     1      -4.207   1.911 -30.892  1.00  0.00     0.129 C 
BRANCH   7   8
HETATM    8  C   UNL     1      -4.057   0.584 -31.644  1.00  0.00     0.059 C 
BRANCH   8   9
HETATM    9  C   UNL     1      -5.356   0.133 -32.289  1.00  0.00    -0.045 A 
HETATM   10  C   UNL     1      -5.423  -0.977 -33.180  1.00  0.00    -0.020 A 
HETATM   11  C   UNL     1      -6.675  -1.312 -33.758  1.00  0.00    -0.025 A 
HETATM   12  C   UNL     1      -4.311  -1.780 -33.528  1.00  0.00     0.013 A 
HETATM   13  C   UNL     1      -6.775  -2.402 -34.640  1.00  0.00     0.012 A 
HETATM   14  C   UNL     1      -7.814  -0.557 -33.446  1.00  0.00     0.012 A 
HETATM   15  C   UNL     1      -5.659  -3.170 -34.963  1.00  0.00     0.001 A 
HETATM   16  C   UNL     1      -4.427  -2.860 -34.407  1.00  0.00     0.001 A 
HETATM   17  C   UNL     1      -7.739   0.524 -32.571  1.00  0.00     0.001 A 
HETATM   18  C   UNL     1      -6.520   0.868 -31.998  1.00  0.00     0.008 A 
ENDBRANCH   8   9
ENDBRANCH   7   8
ENDBRANCH   3   7
BRANCH   1  19
HETATM   19  C   UNL     1      -1.974   6.016 -32.399  1.00  0.00     0.095 A 
HETATM   20  C   UNL     1      -2.007   6.252 -33.762  1.00  0.00     0.107 A 
HETATM   21  O   UNL     1      -1.807   7.572 -34.002  1.00  0.00    -0.215 OA
HETATM   22  N   UNL     1      -1.653   8.240 -32.812  1.00  0.00    -0.131 NA
HETATM   23  C   UNL     1      -1.753   7.314 -31.846  1.00  0.00     0.087 A 
HETATM   24  C   UNL     1      -1.635   7.770 -30.441  1.00  0.00     0.075 C 
BRANCH  20  25
HETATM   25  C   UNL     1      -2.196   5.414 -34.971  1.00  0.00     0.065 C 
HETATM   26  C   UNL     1      -3.668   5.236 -35.304  1.00  0.00     0.012 C 
ENDBRANCH  20  25
ENDBRANCH   1  19
TORSDOF 5
ENDMDL
MODEL 3
REMARK VINA RESULT:      -9.0      5.712      8.467
REMARK  5 active torsions:
REMARK  status: ('A' for Active; 'I' for Inactive)
REMARK    1  A    between atoms: C_2  and  C_3 
REMARK    2  A    between atoms: C_8  and  N_9 
REMARK       I    between atoms: N_9  and  C_10 
REMARK       I    between atoms: C_10  and  N_11 
REMARK    3  A    between atoms: N_11  and  C_12 
REMARK    4  A    between atoms: C_12  and  C_13 
REMARK    5  A    between atoms: C_13  and  C_14 
ROOT
HETATM    1  N   UNL     1     -11.186   1.675 -34.671  1.00  0.00    -0.305 N 
HETATM    2  C   UNL     1     -10.018   1.268 -34.074  1.00  0.00     0.320 C 
HETATM    3  N   UNL     1      -8.975   1.251 -34.978  1.00  0.00    -0.343 N 
HETATM    4  O   UNL     1      -9.857   0.983 -32.896  1.00  0.00    -0.247 OA
HETATM    5  H   UNL     1     -11.103   2.013 -35.616  1.00  0.00     0.171 HD
HETATM    6  H   UNL     1      -9.196   1.103 -35.953  1.00  0.00     0.164 HD
ENDROOT
BRANCH   3   7
HETATM    7  C   UNL     1      -7.637   0.864 -34.557  1.00  0.00     0.129 C 
BRANCH   7   8
HETATM    8  C   UNL     1      -7.266  -0.562 -34.980  1.00  0.00     0.059 C 
BRANCH   8   9
HETATM    9  C   UNL     1      -5.996  -1.053 -34.304  1.00  0.00    -0.045 A 
HETATM   10  C   UNL     1      -5.594  -2.420 -34.336  1.00  0.00    -0.020 A 
HETATM   11  C   UNL     1      -4.407  -2.796 -33.656  1.00  0.00    -0.025 A 
HETATM   12  C   UNL     1      -6.305  -3.439 -35.014  1.00  0.00     0.013 A 
HETATM   13  C   UNL     1      -3.980  -4.135 -33.669  1.00  0.00     0.012 A 
HETATM   14  C   UNL     1      -3.656  -1.829 -32.972  1.00  0.00     0.012 A 
HETATM   15  C   UNL     1      -4.706  -5.114 -34.344  1.00  0.00     0.001 A 
HETATM   16  C   UNL     1      -5.868  -4.767 -35.016  1.00  0.00     0.001 A 
HETATM   17  C   UNL     1      -4.056  -0.496 -32.950  1.00  0.00     0.001 A 
HETATM   18  C   UNL     1      -5.217  -0.110 -33.609  1.00  0.00     0.008 A 
ENDBRANCH   8   9
ENDBRANCH   7   8
ENDBRANCH   3   7
BRANCH   1  19
HETATM   19  C   UNL     1     -12.424   1.837 -34.062  1.00  0.00     0.095 A 
HETATM   20  C   UNL     1     -12.960   3.080 -33.781  1.00  0.00     0.107 A 
HETATM   21  O   UNL     1     -14.166   2.932 -33.176  1.00  0.00    -0.215 OA
HETATM   22  N   UNL     1     -14.461   1.595 -33.056  1.00  0.00    -0.131 NA
HETATM   23  C   UNL     1     -13.422   0.933 -33.587  1.00  0.00     0.087 A 
HETATM   24  C   UNL     1     -13.486  -0.548 -33.600  1.00  0.00     0.075 C 
BRANCH  20  25
HETATM   25  C   UNL     1     -12.523   4.483 -33.978  1.00  0.00     0.065 C 
HETATM   26  C   UNL     1     -12.831   4.974 -35.383  1.00  0.00     0.012 C 
ENDBRANCH  20  25
ENDBRANCH   1  19
TORSDOF 5
ENDMDL
MODEL 4
REMARK VINA RESULT:      -8.8      5.370      7.992
REMARK  5 active torsions:
REMARK  status: ('A' for Active; 'I' for Inactive)
REMARK    1  A    between atoms: C_2  and  C_3 
REMARK    2  A    between atoms: C_8  and  N_9 
REMARK       I    between atoms: N_9  and  C_10 
REMARK       I    between atoms: C_10  and  N_11 
REMARK    3  A    between atoms: N_11  and  C_12 
REMARK    4  A    between atoms: C_12  and  C_13 
REMARK    5  A    between atoms: C_13  and  C_14 
ROOT
HETATM    1  N   UNL     1     -10.950   2.114 -32.673  1.00  0.00    -0.305 N 
HETATM    2  C   UNL     1      -9.617   1.820 -32.825  1.00  0.00     0.320 C 
HETATM    3  N   UNL     1      -8.925   2.020 -31.647  1.00  0.00    -0.343 N 
HETATM    4  O   UNL     1      -9.069   1.398 -33.834  1.00  0.00    -0.247 OA
HETATM    5  H   UNL     1     -11.254   2.306 -31.733  1.00  0.00     0.171 HD
HETATM    6  H   UNL     1      -9.285   2.705 -30.997  1.00  0.00     0.164 HD
ENDROOT
BRANCH   3   7
HETATM    7  C   UNL     1      -7.496   1.755 -31.574  1.00  0.00     0.129 C 
BRANCH   7   8
HETATM    8  C   UNL     1      -7.173   0.364 -31.018  1.00  0.00     0.059 C 
BRANCH   8   9
HETATM    9  C   UNL     1      -5.860  -0.183 -31.554  1.00  0.00    -0.045 A 
HETATM   10  C   UNL     1      -5.794  -1.017 -32.708  1.00  0.00    -0.020 A 
HETATM   11  C   UNL     1      -4.528  -1.504 -33.124  1.00  0.00    -0.025 A 
HETATM   12  C   UNL     1      -6.920  -1.391 -33.480  1.00  0.00     0.013 A 
HETATM   13  C   UNL     1      -4.428  -2.328 -34.259  1.00  0.00     0.012 A 
HETATM   14  C   UNL     1      -3.375  -1.162 -32.404  1.00  0.00     0.012 A 
HETATM   15  C   UNL     1      -5.557  -2.679 -34.994  1.00  0.00     0.001 A 
HETATM   16  C   UNL     1      -6.804  -2.212 -34.605  1.00  0.00     0.001 A 
HETATM   17  C   UNL     1      -3.450  -0.343 -31.279  1.00  0.00     0.001 A 
HETATM   18  C   UNL     1      -4.683   0.141 -30.857  1.00  0.00     0.008 A 
ENDBRANCH   8   9
ENDBRANCH   7   8
ENDBRANCH   3   7
BRANCH   1  19
HETATM   19  C   UNL     1     -11.945   2.002 -33.636  1.00  0.00     0.095 A 
HETATM   20  C   UNL     1     -12.301   3.049 -34.466  1.00  0.00     0.107 A 
HETATM   21  O   UNL     1     -13.306   2.657 -35.291  1.00  0.00    -0.215 OA
HETATM   22  N   UNL     1     -13.626   1.346 -35.037  1.00  0.00    -0.131 NA
HETATM   23  C   UNL     1     -12.814   0.945 -34.048  1.00  0.00     0.087 A 
HETATM   24  C   UNL     1     -12.940  -0.455 -33.579  1.00  0.00     0.075 C 
BRANCH  20  25
HETATM   25  C   UNL     1     -11.853   4.451 -34.643  1.00  0.00     0.065 C 
HETATM   26  C   UNL     1     -10.532   4.527 -35.390  1.00  0.00     0.012 C 
ENDBRANCH  20  25
ENDBRANCH   1  19
TORSDOF 5
ENDMDL
MODEL 5
REMARK VINA RESULT:      -8.7      1.260      2.285
REMARK  5 active torsions:
REMARK  status: ('A' for Active; 'I' for Inactive)
REMARK    1  A    between atoms: C_2  and  C_3 
REMARK    2  A    between atoms: C_8  and  N_9 
REMARK       I    between atoms: N_9  and  C_10 
REMARK       I    between atoms: C_10  and  N_11 
REMARK    3  A    between atoms: N_11  and  C_12 
REMARK    4  A    between atoms: C_12  and  C_13 
REMARK    5  A    between atoms: C_13  and  C_14 
ROOT
HETATM    1  N   UNL     1      -3.816   5.664 -32.037  1.00  0.00    -0.305 N 
HETATM    2  C   UNL     1      -3.610   4.369 -31.630  1.00  0.00     0.320 C 
HETATM    3  N   UNL     1      -4.748   3.839 -31.054  1.00  0.00    -0.343 N 
HETATM    4  O   UNL     1      -2.589   3.710 -31.768  1.00  0.00    -0.247 OA
HETATM    5  H   UNL     1      -4.764   5.998 -31.978  1.00  0.00     0.171 HD
HETATM    6  H   UNL     1      -5.395   4.477 -30.612  1.00  0.00     0.164 HD
ENDROOT
BRANCH   3   7
HETATM    7  C   UNL     1      -4.761   2.470 -30.564  1.00  0.00     0.129 C 
BRANCH   7   8
HETATM    8  C   UNL     1      -5.611   1.532 -31.429  1.00  0.00     0.059 C 
BRANCH   8   9
HETATM    9  C   UNL     1      -4.839   0.306 -31.886  1.00  0.00    -0.045 A 
HETATM   10  C   UNL     1      -5.340  -0.588 -32.876  1.00  0.00    -0.020 A 
HETATM   11  C   UNL     1      -4.563  -1.723 -33.224  1.00  0.00    -0.025 A 
HETATM   12  C   UNL     1      -6.574  -0.414 -33.548  1.00  0.00     0.013 A 
HETATM   13  C   UNL     1      -5.027  -2.624 -34.198  1.00  0.00     0.012 A 
HETATM   14  C   UNL     1      -3.328  -1.944 -32.598  1.00  0.00     0.012 A 
HETATM   15  C   UNL     1      -6.249  -2.424 -34.837  1.00  0.00     0.001 A 
HETATM   16  C   UNL     1      -7.022  -1.320 -34.513  1.00  0.00     0.001 A 
HETATM   17  C   UNL     1      -2.846  -1.063 -31.634  1.00  0.00     0.001 A 
HETATM   18  C   UNL     1      -3.595   0.053 -31.279  1.00  0.00     0.008 A 
ENDBRANCH   8   9
ENDBRANCH   7   8
ENDBRANCH   3   7
BRANCH   1  19
HETATM   19  C   UNL     1      -2.905   6.494 -32.678  1.00  0.00     0.095 A 
HETATM   20  C   UNL     1      -2.559   7.740 -32.188  1.00  0.00     0.107 A 
HETATM   21  O   UNL     1      -1.665   8.328 -33.024  1.00  0.00    -0.215 OA
HETATM   22  N   UNL     1      -1.389   7.483 -34.072  1.00  0.00    -0.131 NA
HETATM   23  C   UNL     1      -2.127   6.381 -33.870  1.00  0.00     0.087 A 
HETATM   24  C   UNL     1      -2.010   5.285 -34.861  1.00  0.00     0.075 C 
BRANCH  20  25
HETATM   25  C   UNL     1      -2.939   8.549 -31.005  1.00  0.00     0.065 C 
HETATM   26  C   UNL     1      -1.870   8.500 -29.926  1.00  0.00     0.012 C 
ENDBRANCH  20  25
ENDBRANCH   1  19
TORSDOF 5
ENDMDL
MODEL 6
REMARK VINA RESULT:      -8.7      1.109      3.028
REMARK  5 active torsions:
REMARK  status: ('A' for Active; 'I' for Inactive)
REMARK    1  A    between atoms: C_2  and  C_3 
REMARK    2  A    between atoms: C_8  and  N_9 
REMARK       I    between atoms: N_9  and  C_10 
REMARK       I    between atoms: C_10  and  N_11 
REMARK    3  A    between atoms: N_11  and  C_12 
REMARK    4  A    between atoms: C_12  and  C_13 
REMARK    5  A    between atoms: C_13  and  C_14 
ROOT
HETATM    1  N   UNL     1      -2.467   5.016 -31.719  1.00  0.00    -0.305 N 
HETATM    2  C   UNL     1      -3.713   4.456 -31.572  1.00  0.00     0.320 C 
HETATM    3  N   UNL     1      -3.642   3.254 -30.896  1.00  0.00    -0.343 N 
HETATM    4  O   UNL     1      -4.778   4.932 -31.937  1.00  0.00    -0.247 OA
HETATM    5  H   UNL     1      -1.718   4.559 -31.226  1.00  0.00     0.171 HD
HETATM    6  H   UNL     1      -2.785   2.723 -30.962  1.00  0.00     0.164 HD
ENDROOT
BRANCH   3   7
HETATM    7  C   UNL     1      -4.849   2.492 -30.614  1.00  0.00     0.129 C 
BRANCH   7   8
HETATM    8  C   UNL     1      -5.453   1.844 -31.864  1.00  0.00     0.059 C 
BRANCH   8   9
HETATM    9  C   UNL     1      -4.849   0.481 -32.159  1.00  0.00    -0.045 A 
HETATM   10  C   UNL     1      -5.412  -0.415 -33.113  1.00  0.00    -0.020 A 
HETATM   11  C   UNL     1      -4.797  -1.678 -33.307  1.00  0.00    -0.025 A 
HETATM   12  C   UNL     1      -6.556  -0.122 -33.894  1.00  0.00     0.013 A 
HETATM   13  C   UNL     1      -5.327  -2.585 -34.241  1.00  0.00     0.012 A 
HETATM   14  C   UNL     1      -3.656  -2.022 -32.568  1.00  0.00     0.012 A 
HETATM   15  C   UNL     1      -6.456  -2.266 -34.991  1.00  0.00     0.001 A 
HETATM   16  C   UNL     1      -7.071  -1.035 -34.819  1.00  0.00     0.001 A 
HETATM   17  C   UNL     1      -3.111  -1.138 -31.640  1.00  0.00     0.001 A 
HETATM   18  C   UNL     1      -3.703   0.103 -31.436  1.00  0.00     0.008 A 
ENDBRANCH   8   9
ENDBRANCH   7   8
ENDBRANCH   3   7
BRANCH   1  19
HETATM   19  C   UNL     1      -2.163   6.230 -32.321  1.00  0.00     0.095 A 
HETATM   20  C   UNL     1      -2.057   6.377 -33.692  1.00  0.00     0.107 A 
HETATM   21  O   UNL     1      -1.738   7.663 -33.991  1.00  0.00    -0.215 OA
HETATM   22  N   UNL     1      -1.641   8.395 -32.833  1.00  0.00    -0.131 NA
HETATM   23  C   UNL     1      -1.896   7.544 -31.828  1.00  0.00     0.087 A 
HETATM   24  C   UNL     1      -1.869   8.083 -30.448  1.00  0.00     0.075 C 
BRANCH  20  25
HETATM   25  C   UNL     1      -2.200   5.477 -34.861  1.00  0.00     0.065 C 
HETATM   26  C   UNL     1      -3.655   5.317 -35.270  1.00  0.00     0.012 C 
ENDBRANCH  20  25
ENDBRANCH   1  19
TORSDOF 5
ENDMDL
MODEL 7
REMARK VINA RESULT:      -8.6      5.605      8.364
REMARK  5 active torsions:
REMARK  status: ('A' for Active; 'I' for Inactive)
REMARK    1  A    between atoms: C_2  and  C_3 
REMARK    2  A    between atoms: C_8  and  N_9 
REMARK       I    between atoms: N_9  and  C_10 
REMARK       I    between atoms: C_10  and  N_11 
REMARK    3  A    between atoms: N_11  and  C_12 
REMARK    4  A    between atoms: C_12  and  C_13 
REMARK    5  A    between atoms: C_13  and  C_14 
ROOT
HETATM    1  N   UNL     1     -10.930   2.421 -34.684  1.00  0.00    -0.305 N 
HETATM    2  C   UNL     1      -9.803   1.949 -34.057  1.00  0.00     0.320 C 
HETATM    3  N   UNL     1      -8.851   1.550 -34.975  1.00  0.00    -0.343 N 
HETATM    4  O   UNL     1      -9.599   1.902 -32.852  1.00  0.00    -0.247 OA
HETATM    5  H   UNL     1     -10.866   2.526 -35.683  1.00  0.00     0.171 HD
HETATM    6  H   UNL     1      -9.170   1.237 -35.880  1.00  0.00     0.164 HD
ENDROOT
BRANCH   3   7
HETATM    7  C   UNL     1      -7.568   1.029 -34.531  1.00  0.00     0.129 C 
BRANCH   7   8
HETATM    8  C   UNL     1      -7.510  -0.503 -34.532  1.00  0.00     0.059 C 
BRANCH   8   9
HETATM    9  C   UNL     1      -6.156  -1.032 -34.092  1.00  0.00    -0.045 A 
HETATM   10  C   UNL     1      -5.775  -2.394 -34.262  1.00  0.00    -0.020 A 
HETATM   11  C   UNL     1      -4.500  -2.808 -33.798  1.00  0.00    -0.025 A 
HETATM   12  C   UNL     1      -6.592  -3.374 -34.876  1.00  0.00     0.013 A 
HETATM   13  C   UNL     1      -4.093  -4.145 -33.951  1.00  0.00     0.012 A 
HETATM   14  C   UNL     1      -3.643  -1.881 -33.187  1.00  0.00     0.012 A 
HETATM   15  C   UNL     1      -4.924  -5.084 -34.558  1.00  0.00     0.001 A 
HETATM   16  C   UNL     1      -6.173  -4.699 -35.020  1.00  0.00     0.001 A 
HETATM   17  C   UNL     1      -4.023  -0.551 -33.028  1.00  0.00     0.001 A 
HETATM   18  C   UNL     1      -5.269  -0.129 -33.476  1.00  0.00     0.008 A 
ENDBRANCH   8   9
ENDBRANCH   7   8
ENDBRANCH   3   7
BRANCH   1  19
HETATM   19  C   UNL     1     -12.071   2.930 -34.078  1.00  0.00     0.095 A 
HETATM   20  C   UNL     1     -13.165   2.143 -33.768  1.00  0.00     0.107 A 
HETATM   21  O   UNL     1     -14.133   2.907 -33.201  1.00  0.00    -0.215 OA
HETATM   22  N   UNL     1     -13.700   4.208 -33.110  1.00  0.00    -0.131 NA
HETATM   23  C   UNL     1     -12.464   4.229 -33.632  1.00  0.00     0.087 A 
HETATM   24  C   UNL     1     -11.747   5.526 -33.648  1.00  0.00     0.075 C 
BRANCH  20  25
HETATM   25  C   UNL     1     -13.505   0.707 -33.919  1.00  0.00     0.065 C 
HETATM   26  C   UNL     1     -14.959   0.515 -34.317  1.00  0.00     0.012 C 
ENDBRANCH  20  25
ENDBRANCH   1  19
TORSDOF 5
ENDMDL
MODEL 8
REMARK VINA RESULT:      -7.9      5.404      8.561
REMARK  5 active torsions:
REMARK  status: ('A' for Active; 'I' for Inactive)
REMARK    1  A    between atoms: C_2  and  C_3 
REMARK    2  A    between atoms: C_8  and  N_9 
REMARK       I    between atoms: N_9  and  C_10 
REMARK       I    between atoms: C_10  and  N_11 
REMARK    3  A    between atoms: N_11  and  C_12 
REMARK    4  A    between atoms: C_12  and  C_13 
REMARK    5  A    between atoms: C_13  and  C_14 
ROOT
HETATM    1  N   UNL     1      -5.490  -0.819 -34.057  1.00  0.00    -0.305 N 
HETATM    2  C   UNL     1      -6.374  -0.096 -33.294  1.00  0.00     0.320 C 
HETATM    3  N   UNL     1      -7.014   0.867 -34.051  1.00  0.00    -0.343 N 
HETATM    4  O   UNL     1      -6.630  -0.263 -32.110  1.00  0.00    -0.247 OA
HETATM    5  H   UNL     1      -5.517  -0.643 -35.048  1.00  0.00     0.171 HD
HETATM    6  H   UNL     1      -6.530   1.232 -34.859  1.00  0.00     0.164 HD
ENDROOT
BRANCH   3   7
HETATM    7  C   UNL     1      -8.008   1.742 -33.448  1.00  0.00     0.129 C 
BRANCH   7   8
HETATM    8  C   UNL     1      -9.359   1.051 -33.229  1.00  0.00     0.059 C 
BRANCH   8   9
HETATM    9  C   UNL     1     -10.498   1.773 -33.927  1.00  0.00    -0.045 A 
HETATM   10  C   UNL     1     -11.816   1.236 -33.996  1.00  0.00    -0.020 A 
HETATM   11  C   UNL     1     -12.814   1.966 -34.691  1.00  0.00    -0.025 A 
HETATM   12  C   UNL     1     -12.202   0.009 -33.404  1.00  0.00     0.013 A 
HETATM   13  C   UNL     1     -14.125   1.465 -34.776  1.00  0.00     0.012 A 
HETATM   14  C   UNL     1     -12.493   3.192 -35.292  1.00  0.00     0.012 A 
HETATM   15  C   UNL     1     -14.470   0.252 -34.184  1.00  0.00     0.001 A 
HETATM   16  C   UNL     1     -13.509  -0.476 -33.498  1.00  0.00     0.001 A 
HETATM   17  C   UNL     1     -11.203   3.710 -35.216  1.00  0.00     0.001 A 
HETATM   18  C   UNL     1     -10.213   3.007 -34.541  1.00  0.00     0.008 A 
ENDBRANCH   8   9
ENDBRANCH   7   8
ENDBRANCH   3   7
BRANCH   1  19
HETATM   19  C   UNL     1      -4.698  -1.880 -33.637  1.00  0.00     0.095 A 
HETATM   20  C   UNL     1      -4.761  -3.133 -34.218  1.00  0.00     0.107 A 
HETATM   21  O   UNL     1      -3.890  -3.969 -33.598  1.00  0.00    -0.215 OA
HETATM   22  N   UNL     1      -3.224  -3.290 -32.607  1.00  0.00    -0.131 NA
HETATM   23  C   UNL     1      -3.701  -2.036 -32.626  1.00  0.00     0.087 A 
HETATM   24  C   UNL     1      -3.137  -1.071 -31.652  1.00  0.00     0.075 C 
BRANCH  20  25
HETATM   25  C   UNL     1      -5.544  -3.745 -35.319  1.00  0.00     0.065 C 
HETATM   26  C   UNL     1      -6.889  -4.258 -34.832  1.00  0.00     0.012 C 
ENDBRANCH  20  25
ENDBRANCH   1  19
TORSDOF 5
ENDMDL
MODEL 9
REMARK VINA RESULT:      -7.9      5.503      8.286
REMARK  5 active torsions:
REMARK  status: ('A' for Active; 'I' for Inactive)
REMARK    1  A    between atoms: C_2  and  C_3 
REMARK    2  A    between atoms: C_8  and  N_9 
REMARK       I    between atoms: N_9  and  C_10 
REMARK       I    between atoms: C_10  and  N_11 
REMARK    3  A    between atoms: N_11  and  C_12 
REMARK    4  A    between atoms: C_12  and  C_13 
REMARK    5  A    between atoms: C_13  and  C_14 
ROOT
HETATM    1  N   UNL     1     -11.383   2.506 -34.537  1.00  0.00    -0.305 N 
HETATM    2  C   UNL     1     -10.067   2.304 -34.198  1.00  0.00     0.320 C 
HETATM    3  N   UNL     1      -9.588   1.127 -34.737  1.00  0.00    -0.343 N 
HETATM    4  O   UNL     1      -9.356   3.051 -33.540  1.00  0.00    -0.247 OA
HETATM    5  H   UNL     1     -11.768   1.863 -35.209  1.00  0.00     0.171 HD
HETATM    6  H   UNL     1     -10.249   0.384 -34.914  1.00  0.00     0.164 HD
ENDROOT
BRANCH   3   7
HETATM    7  C   UNL     1      -8.209   0.720 -34.517  1.00  0.00     0.129 C 
BRANCH   7   8
HETATM    8  C   UNL     1      -8.078  -0.436 -33.518  1.00  0.00     0.059 C 
BRANCH   8   9
HETATM    9  C   UNL     1      -6.770  -1.192 -33.676  1.00  0.00    -0.045 A 
HETATM   10  C   UNL     1      -5.631  -0.927 -32.862  1.00  0.00    -0.020 A 
HETATM   11  C   UNL     1      -4.441  -1.663 -33.095  1.00  0.00    -0.025 A 
HETATM   12  C   UNL     1      -5.609   0.030 -31.819  1.00  0.00     0.013 A 
HETATM   13  C   UNL     1      -3.299  -1.426 -32.309  1.00  0.00     0.012 A 
HETATM   14  C   UNL     1      -4.403  -2.630 -34.110  1.00  0.00     0.012 A 
HETATM   15  C   UNL     1      -3.312  -0.474 -31.293  1.00  0.00     0.001 A 
HETATM   16  C   UNL     1      -4.466   0.254 -31.047  1.00  0.00     0.001 A 
HETATM   17  C   UNL     1      -5.523  -2.884 -34.898  1.00  0.00     0.001 A 
HETATM   18  C   UNL     1      -6.696  -2.170 -34.684  1.00  0.00     0.008 A 
ENDBRANCH   8   9
ENDBRANCH   7   8
ENDBRANCH   3   7
BRANCH   1  19
HETATM   19  C   UNL     1     -12.176   3.594 -34.196  1.00  0.00     0.095 A 
HETATM   20  C   UNL     1     -13.310   3.473 -33.414  1.00  0.00     0.107 A 
HETATM   21  O   UNL     1     -13.889   4.691 -33.257  1.00  0.00    -0.215 OA
HETATM   22  N   UNL     1     -13.149   5.642 -33.915  1.00  0.00    -0.131 NA
HETATM   23  C   UNL     1     -12.119   4.993 -34.478  1.00  0.00     0.087 A 
HETATM   24  C   UNL     1     -11.141   5.795 -35.251  1.00  0.00     0.075 C 
BRANCH  20  25
HETATM   25  C   UNL     1     -14.011   2.352 -32.742  1.00  0.00     0.065 C 
HETATM   26  C   UNL     1     -14.657   1.413 -33.748  1.00  0.00     0.012 C 
ENDBRANCH  20  25
ENDBRANCH   1  19
TORSDOF 5
ENDMDL
MODEL 10
REMARK VINA RESULT:      -7.8      5.530      8.899
REMARK  5 active torsions:
REMARK  status: ('A' for Active; 'I' for Inactive)
REMARK    1  A    between atoms: C_2  and  C_3 
REMARK    2  A    between atoms: C_8  and  N_9 
REMARK       I    between atoms: N_9  and  C_10 
REMARK       I    between atoms: C_10  and  N_11 
REMARK    3  A    between atoms: N_11  and  C_12 
REMARK    4  A    between atoms: C_12  and  C_13 
REMARK    5  A    between atoms: C_13  and  C_14 
ROOT
HETATM    1  N   UNL     1      -6.354  -1.117 -34.919  1.00  0.00    -0.305 N 
HETATM    2  C   UNL     1      -7.177  -0.365 -34.118  1.00  0.00     0.320 C 
HETATM    3  N   UNL     1      -7.834   0.605 -34.850  1.00  0.00    -0.343 N 
HETATM    4  O   UNL     1      -7.369  -0.512 -32.920  1.00  0.00    -0.247 OA
HETATM    5  H   UNL     1      -6.432  -0.952 -35.910  1.00  0.00     0.171 HD
HETATM    6  H   UNL     1      -7.388   0.949 -35.688  1.00  0.00     0.164 HD
ENDROOT
BRANCH   3   7
HETATM    7  C   UNL     1      -8.772   1.510 -34.203  1.00  0.00     0.129 C 
BRANCH   7   8
HETATM    8  C   UNL     1     -10.217   0.998 -34.235  1.00  0.00     0.059 C 
BRANCH   8   9
HETATM    9  C   UNL     1     -11.168   1.903 -33.469  1.00  0.00    -0.045 A 
HETATM   10  C   UNL     1     -12.580   1.712 -33.481  1.00  0.00    -0.020 A 
HETATM   11  C   UNL     1     -13.396   2.621 -32.759  1.00  0.00    -0.025 A 
HETATM   12  C   UNL     1     -13.231   0.661 -34.170  1.00  0.00     0.013 A 
HETATM   13  C   UNL     1     -14.793   2.460 -32.749  1.00  0.00     0.012 A 
HETATM   14  C   UNL     1     -12.808   3.679 -32.051  1.00  0.00     0.012 A 
HETATM   15  C   UNL     1     -15.401   1.415 -33.441  1.00  0.00     0.001 A 
HETATM   16  C   UNL     1     -14.621   0.515 -34.151  1.00  0.00     0.001 A 
HETATM   17  C   UNL     1     -11.427   3.855 -32.043  1.00  0.00     0.001 A 
HETATM   18  C   UNL     1     -10.613   2.975 -32.747  1.00  0.00     0.008 A 
ENDBRANCH   8   9
ENDBRANCH   7   8
ENDBRANCH   3   7
BRANCH   1  19
HETATM   19  C   UNL     1      -5.565  -2.192 -34.531  1.00  0.00     0.095 A 
HETATM   20  C   UNL     1      -4.413  -2.040 -33.780  1.00  0.00     0.107 A 
HETATM   21  O   UNL     1      -3.844  -3.253 -33.564  1.00  0.00    -0.215 OA
HETATM   22  N   UNL     1      -4.608  -4.232 -34.151  1.00  0.00    -0.131 NA
HETATM   23  C   UNL     1      -5.643  -3.604 -34.731  1.00  0.00     0.087 A 
HETATM   24  C   UNL     1      -6.645  -4.438 -35.435  1.00  0.00     0.075 C 
BRANCH  20  25
HETATM   25  C   UNL     1      -3.687  -0.890 -33.190  1.00  0.00     0.065 C 
HETATM   26  C   UNL     1      -4.070  -0.672 -31.736  1.00  0.00     0.012 C 
ENDBRANCH  20  25
ENDBRANCH   1  19
TORSDOF 5
ENDMDL
