MODEL 1
REMARK VINA RESULT:      -7.8      0.000      0.000
REMARK  4 active torsions:
REMARK  status: ('A' for Active; 'I' for Inactive)
REMARK    1  A    between atoms: O_2  and  C_3 
REMARK    2  A    between atoms: C_5  and  O_6 
REMARK    3  A    between atoms: C_8  and  N_9 
REMARK    4  A    between atoms: N_9  and  C_10 
ROOT
HETATM    1  C   UNL     1      -7.440   0.296 -33.113  1.00  0.00     0.153 A 
HETATM    2  S   UNL     1      -5.926   1.003 -32.788  1.00  0.00    -0.011 SA
HETATM    3  C   UNL     1      -4.811  -0.253 -33.233  1.00  0.00     0.228 A 
HETATM    4  O   UNL     1      -3.608  -0.077 -33.085  1.00  0.00    -0.279 OA
HETATM    5  C   UNL     1      -5.304  -1.520 -33.793  1.00  0.00     0.048 A 
HETATM    6  C   UNL     1      -6.667  -1.762 -33.969  1.00  0.00     0.048 A 
HETATM    7  C   UNL     1      -4.358  -2.494 -34.163  1.00  0.00     0.018 A 
HETATM    8  C   UNL     1      -4.768  -3.710 -34.706  1.00  0.00     0.001 A 
HETATM    9  C   UNL     1      -6.123  -3.961 -34.885  1.00  0.00     0.002 A 
HETATM   10  C   UNL     1      -7.063  -2.993 -34.520  1.00  0.00     0.030 A 
HETATM   11  N   UNL     1      -7.649  -0.886 -33.641  1.00  0.00    -0.336 N 
HETATM   12  H   UNL     1      -8.615  -1.105 -33.845  1.00  0.00     0.168 HD
ENDROOT
BRANCH   1  13
HETATM   13  N   UNL     1      -8.560   1.107 -32.833  1.00  0.00    -0.334 N 
HETATM   14  H   UNL     1      -8.377   1.806 -32.113  1.00  0.00     0.168 HD
BRANCH  13  15
HETATM   15  C   UNL     1      -9.867   1.211 -33.345  1.00  0.00     0.068 A 
HETATM   16  C   UNL     1     -10.180   2.306 -34.183  1.00  0.00     0.097 A 
HETATM   17  C   UNL     1     -11.446   2.409 -34.774  1.00  0.00     0.075 A 
HETATM   18  C   UNL     1     -12.410   1.430 -34.534  1.00  0.00     0.070 A 
HETATM   19  C   UNL     1     -12.108   0.359 -33.692  1.00  0.00     0.039 A 
HETATM   20  C   UNL     1     -10.847   0.246 -33.103  1.00  0.00     0.035 A 
BRANCH  16  21
HETATM   21  O   UNL     1      -9.154   3.210 -34.349  1.00  0.00    -0.354 OA
HETATM   22  C   UNL     1      -9.491   4.593 -34.320  1.00  0.00     0.210 C 
ENDBRANCH  16  21
BRANCH  18  23
HETATM   23  O   UNL     1     -13.678   1.403 -35.047  1.00  0.00    -0.356 OA
HETATM   24  C   UNL     1     -14.678   0.743 -34.281  1.00  0.00     0.210 C 
ENDBRANCH  18  23
ENDBRANCH  13  15
ENDBRANCH   1  13
TORSDOF 4
ENDMDL
MODEL 2
REMARK VINA RESULT:      -7.7      1.629      7.157
REMARK  4 active torsions:
REMARK  status: ('A' for Active; 'I' for Inactive)
REMARK    1  A    between atoms: O_2  and  C_3 
REMARK    2  A    between atoms: C_5  and  O_6 
REMARK    3  A    between atoms: C_8  and  N_9 
REMARK    4  A    between atoms: N_9  and  C_10 
ROOT
HETATM    1  C   UNL     1      -9.054   0.773 -33.283  1.00  0.00     0.153 A 
HETATM    2  S   UNL     1      -8.832   2.324 -33.951  1.00  0.00    -0.011 SA
HETATM    3  C   UNL     1     -10.429   2.740 -34.495  1.00  0.00     0.228 A 
HETATM    4  O   UNL     1     -10.616   3.805 -35.069  1.00  0.00    -0.279 OA
HETATM    5  C   UNL     1     -11.556   1.825 -34.261  1.00  0.00     0.048 A 
HETATM    6  C   UNL     1     -11.383   0.598 -33.617  1.00  0.00     0.048 A 
HETATM    7  C   UNL     1     -12.834   2.221 -34.696  1.00  0.00     0.018 A 
HETATM    8  C   UNL     1     -13.940   1.398 -34.494  1.00  0.00     0.001 A 
HETATM    9  C   UNL     1     -13.777   0.175 -33.855  1.00  0.00     0.002 A 
HETATM   10  C   UNL     1     -12.509  -0.219 -33.421  1.00  0.00     0.030 A 
HETATM   11  N   UNL     1     -10.192   0.132 -33.166  1.00  0.00    -0.336 N 
HETATM   12  H   UNL     1     -10.147  -0.743 -32.662  1.00  0.00     0.168 HD
ENDROOT
BRANCH   1  13
HETATM   13  N   UNL     1      -7.893   0.170 -32.755  1.00  0.00    -0.334 N 
HETATM   14  H   UNL     1      -7.738   0.392 -31.772  1.00  0.00     0.168 HD
BRANCH  13  15
HETATM   15  C   UNL     1      -6.912  -0.707 -33.255  1.00  0.00     0.068 A 
HETATM   16  C   UNL     1      -5.599  -0.619 -32.737  1.00  0.00     0.097 A 
HETATM   17  C   UNL     1      -4.610  -1.521 -33.151  1.00  0.00     0.075 A 
HETATM   18  C   UNL     1      -4.916  -2.512 -34.084  1.00  0.00     0.070 A 
HETATM   19  C   UNL     1      -6.207  -2.588 -34.608  1.00  0.00     0.039 A 
HETATM   20  C   UNL     1      -7.200  -1.696 -34.198  1.00  0.00     0.035 A 
BRANCH  16  21
HETATM   21  O   UNL     1      -5.412   0.395 -31.825  1.00  0.00    -0.354 OA
HETATM   22  C   UNL     1      -4.382   0.221 -30.857  1.00  0.00     0.210 C 
ENDBRANCH  16  21
BRANCH  18  23
HETATM   23  O   UNL     1      -4.054  -3.456 -34.569  1.00  0.00    -0.356 OA
HETATM   24  C   UNL     1      -3.635  -4.480 -33.674  1.00  0.00     0.210 C 
ENDBRANCH  18  23
ENDBRANCH  13  15
ENDBRANCH   1  13
TORSDOF 4
ENDMDL
MODEL 3
REMARK VINA RESULT:      -7.6      3.769      6.076
REMARK  4 active torsions:
REMARK  status: ('A' for Active; 'I' for Inactive)
REMARK    1  A    between atoms: O_2  and  C_3 
REMARK    2  A    between atoms: C_5  and  O_6 
REMARK    3  A    between atoms: C_8  and  N_9 
REMARK    4  A    between atoms: N_9  and  C_10 
ROOT
HETATM    1  C   UNL     1      -4.567   0.382 -32.529  1.00  0.00     0.153 A 
HETATM    2  S   UNL     1      -3.303  -0.299 -31.614  1.00  0.00    -0.011 SA
HETATM    3  C   UNL     1      -3.307  -1.958 -32.129  1.00  0.00     0.228 A 
HETATM    4  O   UNL     1      -2.522  -2.752 -31.626  1.00  0.00    -0.279 OA
HETATM    5  C   UNL     1      -4.240  -2.410 -33.172  1.00  0.00     0.048 A 
HETATM    6  C   UNL     1      -5.155  -1.539 -33.764  1.00  0.00     0.048 A 
HETATM    7  C   UNL     1      -4.183  -3.758 -33.574  1.00  0.00     0.018 A 
HETATM    8  C   UNL     1      -5.038  -4.240 -34.563  1.00  0.00     0.001 A 
HETATM    9  C   UNL     1      -5.954  -3.380 -35.158  1.00  0.00     0.002 A 
HETATM   10  C   UNL     1      -6.010  -2.042 -34.761  1.00  0.00     0.030 A 
HETATM   11  N   UNL     1      -5.285  -0.228 -33.441  1.00  0.00    -0.336 N 
HETATM   12  H   UNL     1      -5.933   0.359 -33.947  1.00  0.00     0.168 HD
ENDROOT
BRANCH   1  13
HETATM   13  N   UNL     1      -4.804   1.756 -32.306  1.00  0.00    -0.334 N 
HETATM   14  H   UNL     1      -5.447   1.930 -31.534  1.00  0.00     0.168 HD
BRANCH  13  15
HETATM   15  C   UNL     1      -4.327   2.953 -32.871  1.00  0.00     0.068 A 
HETATM   16  C   UNL     1      -5.198   3.708 -33.690  1.00  0.00     0.097 A 
HETATM   17  C   UNL     1      -4.790   4.943 -34.212  1.00  0.00     0.075 A 
HETATM   18  C   UNL     1      -3.515   5.433 -33.930  1.00  0.00     0.070 A 
HETATM   19  C   UNL     1      -2.648   4.679 -33.137  1.00  0.00     0.039 A 
HETATM   20  C   UNL     1      -3.048   3.450 -32.609  1.00  0.00     0.035 A 
BRANCH  16  21
HETATM   21  O   UNL     1      -6.429   3.129 -33.900  1.00  0.00    -0.354 OA
HETATM   22  C   UNL     1      -7.580   3.920 -33.620  1.00  0.00     0.210 C 
ENDBRANCH  16  21
BRANCH  18  23
HETATM   23  O   UNL     1      -2.991   6.618 -34.368  1.00  0.00    -0.356 OA
HETATM   24  C   UNL     1      -1.895   7.155 -33.638  1.00  0.00     0.210 C 
ENDBRANCH  18  23
ENDBRANCH  13  15
ENDBRANCH   1  13
TORSDOF 4
ENDMDL
MODEL 4
REMARK VINA RESULT:      -7.5      5.222      7.906
REMARK  4 active torsions:
REMARK  status: ('A' for Active; 'I' for Inactive)
REMARK    1  A    between atoms: O_2  and  C_3 
REMARK    2  A    between atoms: C_5  and  O_6 
REMARK    3  A    between atoms: C_8  and  N_9 
REMARK    4  A    between atoms: N_9  and  C_10 
ROOT
HETATM    1  C   UNL     1      -3.444   3.631 -31.974  1.00  0.00     0.153 A 
HETATM    2  S   UNL     1      -3.890   4.502 -33.368  1.00  0.00    -0.011 SA
HETATM    3  C   UNL     1      -2.721   5.786 -33.410  1.00  0.00     0.228 A 
HETATM    4  O   UNL     1      -2.782   6.634 -34.291  1.00  0.00    -0.279 OA
HETATM    5  C   UNL     1      -1.654   5.853 -32.400  1.00  0.00     0.048 A 
HETATM    6  C   UNL     1      -1.555   4.911 -31.375  1.00  0.00     0.048 A 
HETATM    7  C   UNL     1      -0.715   6.897 -32.495  1.00  0.00     0.018 A 
HETATM    8  C   UNL     1       0.321   7.006 -31.570  1.00  0.00     0.001 A 
HETATM    9  C   UNL     1       0.428   6.072 -30.546  1.00  0.00     0.002 A 
HETATM   10  C   UNL     1      -0.503   5.034 -30.451  1.00  0.00     0.030 A 
HETATM   11  N   UNL     1      -2.412   3.874 -31.202  1.00  0.00    -0.336 N 
HETATM   12  H   UNL     1      -2.251   3.197 -30.469  1.00  0.00     0.168 HD
ENDROOT
BRANCH   1  13
HETATM   13  N   UNL     1      -4.245   2.507 -31.680  1.00  0.00    -0.334 N 
HETATM   14  H   UNL     1      -4.721   2.579 -30.781  1.00  0.00     0.168 HD
BRANCH  13  15
HETATM   15  C   UNL     1      -4.581   1.319 -32.356  1.00  0.00     0.068 A 
HETATM   16  C   UNL     1      -5.881   1.194 -32.897  1.00  0.00     0.097 A 
HETATM   17  C   UNL     1      -6.234   0.060 -33.642  1.00  0.00     0.075 A 
HETATM   18  C   UNL     1      -5.301  -0.956 -33.851  1.00  0.00     0.070 A 
HETATM   19  C   UNL     1      -4.023  -0.840 -33.302  1.00  0.00     0.039 A 
HETATM   20  C   UNL     1      -3.662   0.288 -32.562  1.00  0.00     0.035 A 
BRANCH  16  21
HETATM   21  O   UNL     1      -6.716   2.254 -32.629  1.00  0.00    -0.354 OA
HETATM   22  C   UNL     1      -7.390   2.850 -33.733  1.00  0.00     0.210 C 
ENDBRANCH  16  21
BRANCH  18  23
HETATM   23  O   UNL     1      -5.508  -2.108 -34.559  1.00  0.00    -0.356 OA
HETATM   24  C   UNL     1      -4.457  -3.067 -34.567  1.00  0.00     0.210 C 
ENDBRANCH  18  23
ENDBRANCH  13  15
ENDBRANCH   1  13
TORSDOF 4
ENDMDL
MODEL 5
REMARK VINA RESULT:      -7.3      5.262      7.904
REMARK  4 active torsions:
REMARK  status: ('A' for Active; 'I' for Inactive)
REMARK    1  A    between atoms: O_2  and  C_3 
REMARK    2  A    between atoms: C_5  and  O_6 
REMARK    3  A    between atoms: C_8  and  N_9 
REMARK    4  A    between atoms: N_9  and  C_10 
ROOT
HETATM    1  C   UNL     1      -3.582   3.878 -32.141  1.00  0.00     0.153 A 
HETATM    2  S   UNL     1      -3.903   4.855 -33.498  1.00  0.00    -0.011 SA
HETATM    3  C   UNL     1      -2.625   6.030 -33.438  1.00  0.00     0.228 A 
HETATM    4  O   UNL     1      -2.583   6.924 -34.273  1.00  0.00    -0.279 OA
HETATM    5  C   UNL     1      -1.591   5.951 -32.395  1.00  0.00     0.048 A 
HETATM    6  C   UNL     1      -1.610   4.953 -31.419  1.00  0.00     0.048 A 
HETATM    7  C   UNL     1      -0.563   6.911 -32.406  1.00  0.00     0.018 A 
HETATM    8  C   UNL     1       0.447   6.880 -31.447  1.00  0.00     0.001 A 
HETATM    9  C   UNL     1       0.438   5.891 -30.471  1.00  0.00     0.002 A 
HETATM   10  C   UNL     1      -0.582   4.936 -30.460  1.00  0.00     0.030 A 
HETATM   11  N   UNL     1      -2.559   3.989 -31.327  1.00  0.00    -0.336 N 
HETATM   12  H   UNL     1      -2.482   3.265 -30.627  1.00  0.00     0.168 HD
ENDROOT
BRANCH   1  13
HETATM   13  N   UNL     1      -4.487   2.816 -31.931  1.00  0.00    -0.334 N 
HETATM   14  H   UNL     1      -4.858   2.789 -30.982  1.00  0.00     0.168 HD
BRANCH  13  15
HETATM   15  C   UNL     1      -5.037   1.803 -32.738  1.00  0.00     0.068 A 
HETATM   16  C   UNL     1      -4.519   0.492 -32.623  1.00  0.00     0.097 A 
HETATM   17  C   UNL     1      -5.086  -0.562 -33.352  1.00  0.00     0.075 A 
HETATM   18  C   UNL     1      -6.167  -0.321 -34.201  1.00  0.00     0.070 A 
HETATM   19  C   UNL     1      -6.666   0.975 -34.328  1.00  0.00     0.039 A 
HETATM   20  C   UNL     1      -6.110   2.031 -33.602  1.00  0.00     0.035 A 
BRANCH  16  21
HETATM   21  O   UNL     1      -3.455   0.372 -31.758  1.00  0.00    -0.354 OA
HETATM   22  C   UNL     1      -2.664  -0.808 -31.856  1.00  0.00     0.210 C 
ENDBRANCH  16  21
BRANCH  18  23
HETATM   23  O   UNL     1      -6.817  -1.253 -34.963  1.00  0.00    -0.356 OA
HETATM   24  C   UNL     1      -6.710  -2.613 -34.561  1.00  0.00     0.210 C 
ENDBRANCH  18  23
ENDBRANCH  13  15
ENDBRANCH   1  13
TORSDOF 4
ENDMDL
MODEL 6
REMARK VINA RESULT:      -7.3      1.908      2.402
REMARK  4 active torsions:
REMARK  status: ('A' for Active; 'I' for Inactive)
REMARK    1  A    between atoms: O_2  and  C_3 
REMARK    2  A    between atoms: C_5  and  O_6 
REMARK    3  A    between atoms: C_8  and  N_9 
REMARK    4  A    between atoms: N_9  and  C_10 
ROOT
HETATM    1  C   UNL     1      -5.797  -0.124 -33.596  1.00  0.00     0.153 A 
HETATM    2  S   UNL     1      -4.406   0.091 -32.638  1.00  0.00    -0.011 SA
HETATM    3  C   UNL     1      -3.701  -1.497 -32.623  1.00  0.00     0.228 A 
HETATM    4  O   UNL     1      -2.681  -1.702 -31.977  1.00  0.00    -0.279 OA
HETATM    5  C   UNL     1      -4.317  -2.591 -33.388  1.00  0.00     0.048 A 
HETATM    6  C   UNL     1      -5.484  -2.400 -34.129  1.00  0.00     0.048 A 
HETATM    7  C   UNL     1      -3.692  -3.852 -33.364  1.00  0.00     0.018 A 
HETATM    8  C   UNL     1      -4.227  -4.923 -34.076  1.00  0.00     0.001 A 
HETATM    9  C   UNL     1      -5.389  -4.743 -34.817  1.00  0.00     0.002 A 
HETATM   10  C   UNL     1      -6.010  -3.492 -34.842  1.00  0.00     0.030 A 
HETATM   11  N   UNL     1      -6.157  -1.226 -34.209  1.00  0.00    -0.336 N 
HETATM   12  H   UNL     1      -6.968  -1.144 -34.808  1.00  0.00     0.168 HD
ENDROOT
BRANCH   1  13
HETATM   13  N   UNL     1      -6.589   1.029 -33.780  1.00  0.00    -0.334 N 
HETATM   14  H   UNL     1      -6.076   1.803 -34.202  1.00  0.00     0.168 HD
BRANCH  13  15
HETATM   15  C   UNL     1      -7.940   1.355 -33.559  1.00  0.00     0.068 A 
HETATM   16  C   UNL     1      -8.276   2.097 -32.403  1.00  0.00     0.097 A 
HETATM   17  C   UNL     1      -9.597   2.507 -32.181  1.00  0.00     0.075 A 
HETATM   18  C   UNL     1     -10.593   2.181 -33.101  1.00  0.00     0.070 A 
HETATM   19  C   UNL     1     -10.265   1.433 -34.233  1.00  0.00     0.039 A 
HETATM   20  C   UNL     1      -8.950   1.024 -34.464  1.00  0.00     0.035 A 
BRANCH  16  21
HETATM   21  O   UNL     1      -7.215   2.362 -31.566  1.00  0.00    -0.354 OA
HETATM   22  C   UNL     1      -7.514   2.913 -30.287  1.00  0.00     0.210 C 
ENDBRANCH  16  21
BRANCH  18  23
HETATM   23  O   UNL     1     -11.916   2.519 -33.013  1.00  0.00    -0.356 OA
HETATM   24  C   UNL     1     -12.428   3.409 -33.997  1.00  0.00     0.210 C 
ENDBRANCH  18  23
ENDBRANCH  13  15
ENDBRANCH   1  13
TORSDOF 4
ENDMDL
MODEL 7
REMARK VINA RESULT:      -7.3      3.229      4.077
REMARK  4 active torsions:
REMARK  status: ('A' for Active; 'I' for Inactive)
REMARK    1  A    between atoms: O_2  and  C_3 
REMARK    2  A    between atoms: C_5  and  O_6 
REMARK    3  A    between atoms: C_8  and  N_9 
REMARK    4  A    between atoms: N_9  and  C_10 
ROOT
HETATM    1  C   UNL     1      -4.563  -0.290 -32.828  1.00  0.00     0.153 A 
HETATM    2  S   UNL     1      -3.321  -0.869 -31.817  1.00  0.00    -0.011 SA
HETATM    3  C   UNL     1      -3.269  -2.562 -32.202  1.00  0.00     0.228 A 
HETATM    4  O   UNL     1      -2.488  -3.295 -31.610  1.00  0.00    -0.279 OA
HETATM    5  C   UNL     1      -4.151  -3.115 -33.240  1.00  0.00     0.048 A 
HETATM    6  C   UNL     1      -5.061  -2.314 -33.932  1.00  0.00     0.048 A 
HETATM    7  C   UNL     1      -4.050  -4.488 -33.534  1.00  0.00     0.018 A 
HETATM    8  C   UNL     1      -4.856  -5.065 -34.514  1.00  0.00     0.001 A 
HETATM    9  C   UNL     1      -5.765  -4.275 -35.207  1.00  0.00     0.002 A 
HETATM   10  C   UNL     1      -5.865  -2.912 -34.918  1.00  0.00     0.030 A 
HETATM   11  N   UNL     1      -5.231  -0.986 -33.716  1.00  0.00    -0.336 N 
HETATM   12  H   UNL     1      -5.871  -0.455 -34.290  1.00  0.00     0.168 HD
ENDROOT
BRANCH   1  13
HETATM   13  N   UNL     1      -4.837   1.090 -32.721  1.00  0.00    -0.334 N 
HETATM   14  H   UNL     1      -4.185   1.669 -33.250  1.00  0.00     0.168 HD
BRANCH  13  15
HETATM   15  C   UNL     1      -5.829   1.862 -32.088  1.00  0.00     0.068 A 
HETATM   16  C   UNL     1      -7.002   2.180 -32.810  1.00  0.00     0.097 A 
HETATM   17  C   UNL     1      -8.047   2.882 -32.194  1.00  0.00     0.075 A 
HETATM   18  C   UNL     1      -7.932   3.278 -30.861  1.00  0.00     0.070 A 
HETATM   19  C   UNL     1      -6.766   2.980 -30.154  1.00  0.00     0.039 A 
HETATM   20  C   UNL     1      -5.722   2.277 -30.758  1.00  0.00     0.035 A 
BRANCH  16  21
HETATM   21  O   UNL     1      -7.006   1.740 -34.115  1.00  0.00    -0.354 OA
HETATM   22  C   UNL     1      -8.136   0.990 -34.547  1.00  0.00     0.210 C 
ENDBRANCH  16  21
BRANCH  18  23
HETATM   23  O   UNL     1      -8.871   3.960 -30.139  1.00  0.00    -0.356 OA
HETATM   24  C   UNL     1     -10.236   3.749 -30.480  1.00  0.00     0.210 C 
ENDBRANCH  18  23
ENDBRANCH  13  15
ENDBRANCH   1  13
TORSDOF 4
ENDMDL
MODEL 8
REMARK VINA RESULT:      -7.2     14.452     16.996
REMARK  4 active torsions:
REMARK  status: ('A' for Active; 'I' for Inactive)
REMARK    1  A    between atoms: O_2  and  C_3 
REMARK    2  A    between atoms: C_5  and  O_6 
REMARK    3  A    between atoms: C_8  and  N_9 
REMARK    4  A    between atoms: N_9  and  C_10 
ROOT
HETATM    1  C   UNL     1      -4.523 -12.777 -38.628  1.00  0.00     0.153 A 
HETATM    2  S   UNL     1      -4.736 -13.522 -37.112  1.00  0.00    -0.011 SA
HETATM    3  C   UNL     1      -6.460 -13.714 -37.017  1.00  0.00     0.228 A 
HETATM    4  O   UNL     1      -6.962 -14.198 -36.011  1.00  0.00    -0.279 OA
HETATM    5  C   UNL     1      -7.316 -13.306 -38.141  1.00  0.00     0.048 A 
HETATM    6  C   UNL     1      -6.783 -12.742 -39.301  1.00  0.00     0.048 A 
HETATM    7  C   UNL     1      -8.704 -13.508 -38.025  1.00  0.00     0.018 A 
HETATM    8  C   UNL     1      -9.563 -13.148 -39.061  1.00  0.00     0.001 A 
HETATM    9  C   UNL     1      -9.042 -12.586 -40.220  1.00  0.00     0.002 A 
HETATM   10  C   UNL     1      -7.664 -12.386 -40.337  1.00  0.00     0.030 A 
HETATM   11  N   UNL     1      -5.463 -12.508 -39.502  1.00  0.00    -0.336 N 
HETATM   12  H   UNL     1      -5.140 -12.145 -40.388  1.00  0.00     0.168 HD
ENDROOT
BRANCH   1  13
HETATM   13  N   UNL     1      -3.186 -12.489 -38.979  1.00  0.00    -0.334 N 
HETATM   14  H   UNL     1      -2.998 -11.489 -39.045  1.00  0.00     0.168 HD
BRANCH  13  15
HETATM   15  C   UNL     1      -2.032 -13.258 -39.218  1.00  0.00     0.068 A 
HETATM   16  C   UNL     1      -1.981 -14.055 -40.384  1.00  0.00     0.097 A 
HETATM   17  C   UNL     1      -0.822 -14.777 -40.701  1.00  0.00     0.075 A 
HETATM   18  C   UNL     1       0.290 -14.716 -39.860  1.00  0.00     0.070 A 
HETATM   19  C   UNL     1       0.233 -13.943 -38.700  1.00  0.00     0.039 A 
HETATM   20  C   UNL     1      -0.916 -13.217 -38.379  1.00  0.00     0.035 A 
BRANCH  16  21
HETATM   21  O   UNL     1      -3.133 -14.040 -41.138  1.00  0.00    -0.354 OA
HETATM   22  C   UNL     1      -3.115 -14.749 -42.373  1.00  0.00     0.210 C 
ENDBRANCH  16  21
BRANCH  18  23
HETATM   23  O   UNL     1       1.480 -15.363 -40.049  1.00  0.00    -0.356 OA
HETATM   24  C   UNL     1       2.046 -16.029 -38.927  1.00  0.00     0.210 C 
ENDBRANCH  18  23
ENDBRANCH  13  15
ENDBRANCH   1  13
TORSDOF 4
ENDMDL
MODEL 9
REMARK VINA RESULT:      -7.2      4.244      6.782
REMARK  4 active torsions:
REMARK  status: ('A' for Active; 'I' for Inactive)
REMARK    1  A    between atoms: O_2  and  C_3 
REMARK    2  A    between atoms: C_5  and  O_6 
REMARK    3  A    between atoms: C_8  and  N_9 
REMARK    4  A    between atoms: N_9  and  C_10 
ROOT
HETATM    1  C   UNL     1      -5.008   0.918 -32.287  1.00  0.00     0.153 A 
HETATM    2  S   UNL     1      -6.685   1.214 -32.285  1.00  0.00    -0.011 SA
HETATM    3  C   UNL     1      -7.316  -0.137 -33.177  1.00  0.00     0.228 A 
HETATM    4  O   UNL     1      -8.518  -0.213 -33.394  1.00  0.00    -0.279 OA
HETATM    5  C   UNL     1      -6.414  -1.193 -33.663  1.00  0.00     0.048 A 
HETATM    6  C   UNL     1      -5.037  -1.138 -33.443  1.00  0.00     0.048 A 
HETATM    7  C   UNL     1      -6.978  -2.280 -34.355  1.00  0.00     0.018 A 
HETATM    8  C   UNL     1      -6.173  -3.312 -34.832  1.00  0.00     0.001 A 
HETATM    9  C   UNL     1      -4.801  -3.267 -34.619  1.00  0.00     0.002 A 
HETATM   10  C   UNL     1      -4.240  -2.189 -33.929  1.00  0.00     0.030 A 
HETATM   11  N   UNL     1      -4.404  -0.132 -32.790  1.00  0.00    -0.336 N 
HETATM   12  H   UNL     1      -3.409  -0.183 -32.620  1.00  0.00     0.168 HD
ENDROOT
BRANCH   1  13
HETATM   13  N   UNL     1      -4.222   1.882 -31.622  1.00  0.00    -0.334 N 
HETATM   14  H   UNL     1      -3.801   1.531 -30.762  1.00  0.00     0.168 HD
BRANCH  13  15
HETATM   15  C   UNL     1      -3.844   3.212 -31.886  1.00  0.00     0.068 A 
HETATM   16  C   UNL     1      -4.353   4.237 -31.056  1.00  0.00     0.097 A 
HETATM   17  C   UNL     1      -3.943   5.565 -31.236  1.00  0.00     0.075 A 
HETATM   18  C   UNL     1      -3.031   5.885 -32.242  1.00  0.00     0.070 A 
HETATM   19  C   UNL     1      -2.543   4.875 -33.073  1.00  0.00     0.039 A 
HETATM   20  C   UNL     1      -2.942   3.549 -32.898  1.00  0.00     0.035 A 
BRANCH  16  21
HETATM   21  O   UNL     1      -5.244   3.808 -30.099  1.00  0.00    -0.354 OA
HETATM   22  C   UNL     1      -6.549   4.375 -30.120  1.00  0.00     0.210 C 
ENDBRANCH  16  21
BRANCH  18  23
HETATM   23  O   UNL     1      -2.545   7.131 -32.524  1.00  0.00    -0.356 OA
HETATM   24  C   UNL     1      -1.206   7.218 -32.997  1.00  0.00     0.210 C 
ENDBRANCH  18  23
ENDBRANCH  13  15
ENDBRANCH   1  13
TORSDOF 4
ENDMDL
MODEL 10
REMARK VINA RESULT:      -7.2      1.796      2.076
REMARK  4 active torsions:
REMARK  status: ('A' for Active; 'I' for Inactive)
REMARK    1  A    between atoms: O_2  and  C_3 
REMARK    2  A    between atoms: C_5  and  O_6 
REMARK    3  A    between atoms: C_8  and  N_9 
REMARK    4  A    between atoms: N_9  and  C_10 
ROOT
HETATM    1  C   UNL     1      -8.242   0.329 -32.236  1.00  0.00     0.153 A 
HETATM    2  S   UNL     1      -7.056   0.899 -31.154  1.00  0.00    -0.011 SA
HETATM    3  C   UNL     1      -5.642   0.009 -31.631  1.00  0.00     0.228 A 
HETATM    4  O   UNL     1      -4.594   0.160 -31.016  1.00  0.00    -0.279 OA
HETATM    5  C   UNL     1      -5.696  -0.916 -32.773  1.00  0.00     0.048 A 
HETATM    6  C   UNL     1      -6.873  -1.122 -33.494  1.00  0.00     0.048 A 
HETATM    7  C   UNL     1      -4.516  -1.592 -33.136  1.00  0.00     0.018 A 
HETATM    8  C   UNL     1      -4.506  -2.474 -34.214  1.00  0.00     0.001 A 
HETATM    9  C   UNL     1      -5.673  -2.687 -34.937  1.00  0.00     0.002 A 
HETATM   10  C   UNL     1      -6.845  -2.015 -34.579  1.00  0.00     0.030 A 
HETATM   11  N   UNL     1      -8.056  -0.519 -33.218  1.00  0.00    -0.336 N 
HETATM   12  H   UNL     1      -8.857  -0.674 -33.814  1.00  0.00     0.168 HD
ENDROOT
BRANCH   1  13
HETATM   13  N   UNL     1      -9.527   0.889 -32.074  1.00  0.00    -0.334 N 
HETATM   14  H   UNL     1      -9.904   0.759 -31.135  1.00  0.00     0.168 HD
BRANCH  13  15
HETATM   15  C   UNL     1     -10.403   1.626 -32.892  1.00  0.00     0.068 A 
HETATM   16  C   UNL     1     -10.468   3.028 -32.722  1.00  0.00     0.097 A 
HETATM   17  C   UNL     1     -11.269   3.809 -33.565  1.00  0.00     0.075 A 
HETATM   18  C   UNL     1     -12.014   3.204 -34.579  1.00  0.00     0.070 A 
HETATM   19  C   UNL     1     -11.963   1.818 -34.735  1.00  0.00     0.039 A 
HETATM   20  C   UNL     1     -11.164   1.033 -33.902  1.00  0.00     0.035 A 
BRANCH  16  21
HETATM   21  O   UNL     1      -9.693   3.515 -31.694  1.00  0.00    -0.354 OA
HETATM   22  C   UNL     1     -10.371   4.056 -30.565  1.00  0.00     0.210 C 
ENDBRANCH  16  21
BRANCH  18  23
HETATM   23  O   UNL     1     -12.829   3.843 -35.471  1.00  0.00    -0.356 OA
HETATM   24  C   UNL     1     -12.740   5.261 -35.537  1.00  0.00     0.210 C 
ENDBRANCH  18  23
ENDBRANCH  13  15
ENDBRANCH   1  13
TORSDOF 4
ENDMDL
