MODEL 1
REMARK VINA RESULT:      -8.5      0.000      0.000
REMARK  6 active torsions:
REMARK  status: ('A' for Active; 'I' for Inactive)
REMARK    1  A    between atoms: O_2  and  C_3 
REMARK    2  A    between atoms: C_3  and  C_4 
REMARK    3  A    between atoms: C_4  and  N_5 
REMARK       I    between atoms: N_5  and  C_6 
REMARK    4  A    between atoms: C_6  and  C_7 
REMARK    5  A    between atoms: C_12  and  C_13 
REMARK    6  A    between atoms: C_22  and  C_23 
ROOT
HETATM    1  C   UNL     1     -10.764   2.313 -33.170  1.00  0.00     0.148 A 
HETATM    2  N   UNL     1      -9.671   2.774 -32.519  1.00  0.00    -0.165 NA
HETATM    3  N   UNL     1      -8.654   2.133 -33.123  1.00  0.00    -0.240 N 
HETATM    4  C   UNL     1      -9.032   1.374 -34.192  1.00  0.00     0.123 A 
HETATM    5  N   UNL     1      -8.133   0.736 -34.965  1.00  0.00    -0.366 N 
HETATM    6  C   UNL     1      -6.694   0.896 -34.817  1.00  0.00     0.118 C 
HETATM    7  C   UNL     1      -6.322   2.059 -33.877  1.00  0.00     0.066 C 
HETATM    8  C   UNL     1      -7.280   2.294 -32.694  1.00  0.00     0.221 C 
HETATM    9  C   UNL     1     -10.399   1.437 -34.229  1.00  0.00     0.088 A 
HETATM   10  H   UNL     1      -8.433   0.169 -35.758  1.00  0.00     0.161 HD
ENDROOT
BRANCH   1  11
HETATM   11  C   UNL     1     -12.135   2.708 -32.810  1.00  0.00     0.272 C 
HETATM   12  N   UNL     1     -13.090   1.768 -33.126  1.00  0.00    -0.354 N 
HETATM   13  H   UNL     1     -12.732   0.852 -33.387  1.00  0.00     0.162 HD
HETATM   14  O   UNL     1     -12.393   3.775 -32.261  1.00  0.00    -0.266 OA
BRANCH  12  15
HETATM   15  C   UNL     1     -14.447   1.886 -32.638  1.00  0.00     0.149 C 
BRANCH  15  16
HETATM   16  C   UNL     1     -15.461   1.274 -33.600  1.00  0.00     0.186 C 
BRANCH  16  17
HETATM   17  O   UNL     1     -16.758   1.807 -33.314  1.00  0.00    -0.394 OA
HETATM   18  C   UNL     1     -16.760   2.553 -32.104  1.00  0.00     0.201 C 
ENDBRANCH  16  17
ENDBRANCH  15  16
ENDBRANCH  12  15
ENDBRANCH   1  11
BRANCH   8  19
HETATM   19  C   UNL     1      -7.004   1.412 -31.499  1.00  0.00     0.409 C 
HETATM   20  F   UNL     1      -5.694   1.222 -31.251  1.00  0.00    -0.169 F 
HETATM   21  F   UNL     1      -7.541   1.966 -30.380  1.00  0.00    -0.169 F 
HETATM   22  F   UNL     1      -7.573   0.192 -31.625  1.00  0.00    -0.169 F 
ENDBRANCH   8  19
BRANCH   6  23
HETATM   23  C   UNL     1      -6.015  -0.428 -34.507  1.00  0.00    -0.034 A 
HETATM   24  C   UNL     1      -6.602  -1.623 -34.962  1.00  0.00     0.034 A 
HETATM   25  C   UNL     1      -6.039  -2.870 -34.658  1.00  0.00     0.056 A 
HETATM   26 CL   UNL     1      -6.853  -4.280 -35.238  1.00  0.00    -0.083 Cl
HETATM   27  C   UNL     1      -4.867  -2.940 -33.900  1.00  0.00     0.055 A 
HETATM   28 CL   UNL     1      -4.118  -4.438 -33.482  1.00  0.00    -0.083 Cl
HETATM   29  C   UNL     1      -4.268  -1.763 -33.450  1.00  0.00     0.026 A 
HETATM   30  C   UNL     1      -4.842  -0.522 -33.745  1.00  0.00     0.011 A 
ENDBRANCH   6  23
TORSDOF 6
ENDMDL
MODEL 2
REMARK VINA RESULT:      -8.1      5.136      7.282
REMARK  6 active torsions:
REMARK  status: ('A' for Active; 'I' for Inactive)
REMARK    1  A    between atoms: O_2  and  C_3 
REMARK    2  A    between atoms: C_3  and  C_4 
REMARK    3  A    between atoms: C_4  and  N_5 
REMARK       I    between atoms: N_5  and  C_6 
REMARK    4  A    between atoms: C_6  and  C_7 
REMARK    5  A    between atoms: C_12  and  C_13 
REMARK    6  A    between atoms: C_22  and  C_23 
ROOT
HETATM    1  C   UNL     1      -4.341   4.474 -32.042  1.00  0.00     0.148 A 
HETATM    2  N   UNL     1      -5.049   3.791 -31.113  1.00  0.00    -0.165 NA
HETATM    3  N   UNL     1      -4.732   2.507 -31.358  1.00  0.00    -0.240 N 
HETATM    4  C   UNL     1      -3.778   2.344 -32.321  1.00  0.00     0.123 A 
HETATM    5  N   UNL     1      -3.279   1.134 -32.631  1.00  0.00    -0.366 N 
HETATM    6  C   UNL     1      -3.606  -0.079 -31.893  1.00  0.00     0.118 C 
HETATM    7  C   UNL     1      -4.357   0.212 -30.580  1.00  0.00     0.066 C 
HETATM    8  C   UNL     1      -5.321   1.413 -30.615  1.00  0.00     0.221 C 
HETATM    9  C   UNL     1      -3.530   3.597 -32.814  1.00  0.00     0.088 A 
HETATM   10  H   UNL     1      -2.570   1.029 -33.356  1.00  0.00     0.161 HD
ENDROOT
BRANCH   1  11
HETATM   11  C   UNL     1      -4.416   5.935 -32.190  1.00  0.00     0.272 C 
HETATM   12  N   UNL     1      -3.700   6.631 -31.241  1.00  0.00    -0.354 N 
HETATM   13  H   UNL     1      -3.062   6.073 -30.679  1.00  0.00     0.162 HD
HETATM   14  O   UNL     1      -5.047   6.478 -33.092  1.00  0.00    -0.266 OA
BRANCH  12  15
HETATM   15  C   UNL     1      -3.472   8.055 -31.371  1.00  0.00     0.149 C 
BRANCH  15  16
HETATM   16  C   UNL     1      -2.016   8.378 -31.689  1.00  0.00     0.186 C 
BRANCH  16  17
HETATM   17  O   UNL     1      -1.818   8.294 -33.104  1.00  0.00    -0.394 OA
HETATM   18  C   UNL     1      -1.117   7.112 -33.464  1.00  0.00     0.201 C 
ENDBRANCH  16  17
ENDBRANCH  15  16
ENDBRANCH  12  15
ENDBRANCH   1  11
BRANCH   8  19
HETATM   19  C   UNL     1      -6.687   1.084 -31.170  1.00  0.00     0.409 C 
HETATM   20  F   UNL     1      -7.022  -0.215 -31.064  1.00  0.00    -0.169 F 
HETATM   21  F   UNL     1      -7.639   1.793 -30.508  1.00  0.00    -0.169 F 
HETATM   22  F   UNL     1      -6.801   1.427 -32.474  1.00  0.00    -0.169 F 
ENDBRANCH   8  19
BRANCH   6  23
HETATM   23  C   UNL     1      -4.253  -1.120 -32.792  1.00  0.00    -0.034 A 
HETATM   24  C   UNL     1      -3.766  -2.441 -32.772  1.00  0.00     0.034 A 
HETATM   25  C   UNL     1      -4.298  -3.422 -33.619  1.00  0.00     0.056 A 
HETATM   26 CL   UNL     1      -3.611  -5.006 -33.541  1.00  0.00    -0.083 Cl
HETATM   27  C   UNL     1      -5.338  -3.099 -34.495  1.00  0.00     0.055 A 
HETATM   28 CL   UNL     1      -6.040  -4.253 -35.571  1.00  0.00    -0.083 Cl
HETATM   29  C   UNL     1      -5.837  -1.796 -34.518  1.00  0.00     0.026 A 
HETATM   30  C   UNL     1      -5.294  -0.817 -33.681  1.00  0.00     0.011 A 
ENDBRANCH   6  23
TORSDOF 6
ENDMDL
MODEL 3
REMARK VINA RESULT:      -8.0      1.344      1.809
REMARK  6 active torsions:
REMARK  status: ('A' for Active; 'I' for Inactive)
REMARK    1  A    between atoms: O_2  and  C_3 
REMARK    2  A    between atoms: C_3  and  C_4 
REMARK    3  A    between atoms: C_4  and  N_5 
REMARK       I    between atoms: N_5  and  C_6 
REMARK    4  A    between atoms: C_6  and  C_7 
REMARK    5  A    between atoms: C_12  and  C_13 
REMARK    6  A    between atoms: C_22  and  C_23 
ROOT
HETATM    1  C   UNL     1     -10.948   2.021 -33.253  1.00  0.00     0.148 A 
HETATM    2  N   UNL     1      -9.884   2.538 -32.596  1.00  0.00    -0.165 NA
HETATM    3  N   UNL     1      -8.832   1.949 -33.193  1.00  0.00    -0.240 N 
HETATM    4  C   UNL     1      -9.164   1.170 -34.263  1.00  0.00     0.123 A 
HETATM    5  N   UNL     1      -8.229   0.577 -35.029  1.00  0.00    -0.366 N 
HETATM    6  C   UNL     1      -6.801   0.811 -34.872  1.00  0.00     0.118 C 
HETATM    7  C   UNL     1      -6.494   1.993 -33.932  1.00  0.00     0.066 C 
HETATM    8  C   UNL     1      -7.471   2.180 -32.756  1.00  0.00     0.221 C 
HETATM    9  C   UNL     1     -10.532   1.162 -34.308  1.00  0.00     0.088 A 
HETATM   10  H   UNL     1      -8.495  -0.006 -35.822  1.00  0.00     0.161 HD
ENDROOT
BRANCH   1  11
HETATM   11  C   UNL     1     -12.339   2.345 -32.902  1.00  0.00     0.272 C 
HETATM   12  N   UNL     1     -12.461   3.318 -31.936  1.00  0.00    -0.354 N 
HETATM   13  H   UNL     1     -11.608   3.826 -31.718  1.00  0.00     0.162 HD
HETATM   14  O   UNL     1     -13.301   1.805 -33.442  1.00  0.00    -0.266 OA
BRANCH  12  15
HETATM   15  C   UNL     1     -13.743   3.922 -31.639  1.00  0.00     0.149 C 
BRANCH  15  16
HETATM   16  C   UNL     1     -13.817   5.373 -32.104  1.00  0.00     0.186 C 
BRANCH  16  17
HETATM   17  O   UNL     1     -13.951   5.400 -33.529  1.00  0.00    -0.394 OA
HETATM   18  C   UNL     1     -13.016   6.289 -34.124  1.00  0.00     0.201 C 
ENDBRANCH  16  17
ENDBRANCH  15  16
ENDBRANCH  12  15
ENDBRANCH   1  11
BRANCH   8  19
HETATM   19  C   UNL     1      -7.157   1.316 -31.557  1.00  0.00     0.409 C 
HETATM   20  F   UNL     1      -5.840   1.171 -31.318  1.00  0.00    -0.169 F 
HETATM   21  F   UNL     1      -7.704   1.860 -30.439  1.00  0.00    -0.169 F 
HETATM   22  F   UNL     1      -7.687   0.077 -31.672  1.00  0.00    -0.169 F 
ENDBRANCH   8  19
BRANCH   6  23
HETATM   23  C   UNL     1      -6.056  -0.476 -34.556  1.00  0.00    -0.034 A 
HETATM   24  C   UNL     1      -6.584  -1.702 -35.004  1.00  0.00     0.034 A 
HETATM   25  C   UNL     1      -5.959  -2.917 -34.693  1.00  0.00     0.056 A 
HETATM   26 CL   UNL     1      -6.703  -4.369 -35.265  1.00  0.00    -0.083 Cl
HETATM   27  C   UNL     1      -4.785  -2.925 -33.936  1.00  0.00     0.055 A 
HETATM   28 CL   UNL     1      -3.963  -4.382 -33.509  1.00  0.00    -0.083 Cl
HETATM   29  C   UNL     1      -4.246  -1.717 -33.492  1.00  0.00     0.026 A 
HETATM   30  C   UNL     1      -4.880  -0.508 -33.794  1.00  0.00     0.011 A 
ENDBRANCH   6  23
TORSDOF 6
ENDMDL
MODEL 4
REMARK VINA RESULT:      -7.8      1.443      1.660
REMARK  6 active torsions:
REMARK  status: ('A' for Active; 'I' for Inactive)
REMARK    1  A    between atoms: O_2  and  C_3 
REMARK    2  A    between atoms: C_3  and  C_4 
REMARK    3  A    between atoms: C_4  and  N_5 
REMARK       I    between atoms: N_5  and  C_6 
REMARK    4  A    between atoms: C_6  and  C_7 
REMARK    5  A    between atoms: C_12  and  C_13 
REMARK    6  A    between atoms: C_22  and  C_23 
ROOT
HETATM    1  C   UNL     1      -9.440   2.601 -32.002  1.00  0.00     0.148 A 
HETATM    2  N   UNL     1      -8.294   2.704 -31.290  1.00  0.00    -0.165 NA
HETATM    3  N   UNL     1      -7.407   2.008 -32.024  1.00  0.00    -0.240 N 
HETATM    4  C   UNL     1      -7.900   1.561 -33.215  1.00  0.00     0.123 A 
HETATM    5  N   UNL     1      -7.125   0.923 -34.112  1.00  0.00    -0.366 N 
HETATM    6  C   UNL     1      -5.686   0.768 -33.957  1.00  0.00     0.118 C 
HETATM    7  C   UNL     1      -5.117   1.629 -32.814  1.00  0.00     0.066 C 
HETATM    8  C   UNL     1      -6.039   1.810 -31.593  1.00  0.00     0.221 C 
HETATM    9  C   UNL     1      -9.228   1.894 -33.218  1.00  0.00     0.088 A 
HETATM   10  H   UNL     1      -7.510   0.592 -34.995  1.00  0.00     0.161 HD
ENDROOT
BRANCH   1  11
HETATM   11  C   UNL     1     -10.716   3.178 -31.550  1.00  0.00     0.272 C 
HETATM   12  N   UNL     1     -11.759   2.988 -32.429  1.00  0.00    -0.354 N 
HETATM   13  H   UNL     1     -11.583   2.323 -33.179  1.00  0.00     0.162 HD
HETATM   14  O   UNL     1     -10.836   3.759 -30.476  1.00  0.00    -0.266 OA
BRANCH  12  15
HETATM   15  C   UNL     1     -13.124   3.281 -32.046  1.00  0.00     0.149 C 
BRANCH  15  16
HETATM   16  C   UNL     1     -14.126   2.848 -33.111  1.00  0.00     0.186 C 
BRANCH  16  17
HETATM   17  O   UNL     1     -14.480   1.478 -32.890  1.00  0.00    -0.394 OA
HETATM   18  C   UNL     1     -14.498   0.742 -34.105  1.00  0.00     0.201 C 
ENDBRANCH  16  17
ENDBRANCH  15  16
ENDBRANCH  12  15
ENDBRANCH   1  11
BRANCH   8  19
HETATM   19  C   UNL     1      -5.966   0.676 -30.598  1.00  0.00     0.409 C 
HETATM   20  F   UNL     1      -4.740   0.134 -30.475  1.00  0.00    -0.169 F 
HETATM   21  F   UNL     1      -6.329   1.117 -29.365  1.00  0.00    -0.169 F 
HETATM   22  F   UNL     1      -6.822  -0.325 -30.907  1.00  0.00    -0.169 F 
ENDBRANCH   8  19
BRANCH   6  23
HETATM   23  C   UNL     1      -5.284  -0.698 -33.924  1.00  0.00    -0.034 A 
HETATM   24  C   UNL     1      -6.122  -1.653 -34.529  1.00  0.00     0.034 A 
HETATM   25  C   UNL     1      -5.818  -3.020 -34.480  1.00  0.00     0.056 A 
HETATM   26 CL   UNL     1      -6.926  -4.115 -35.227  1.00  0.00    -0.083 Cl
HETATM   27  C   UNL     1      -4.659  -3.454 -33.832  1.00  0.00     0.055 A 
HETATM   28 CL   UNL     1      -4.221  -5.121 -33.725  1.00  0.00    -0.083 Cl
HETATM   29  C   UNL     1      -3.813  -2.518 -33.235  1.00  0.00     0.026 A 
HETATM   30  C   UNL     1      -4.128  -1.156 -33.275  1.00  0.00     0.011 A 
ENDBRANCH   6  23
TORSDOF 6
ENDMDL
MODEL 5
REMARK VINA RESULT:      -7.8      3.395      4.365
REMARK  6 active torsions:
REMARK  status: ('A' for Active; 'I' for Inactive)
REMARK    1  A    between atoms: O_2  and  C_3 
REMARK    2  A    between atoms: C_3  and  C_4 
REMARK    3  A    between atoms: C_4  and  N_5 
REMARK       I    between atoms: N_5  and  C_6 
REMARK    4  A    between atoms: C_6  and  C_7 
REMARK    5  A    between atoms: C_12  and  C_13 
REMARK    6  A    between atoms: C_22  and  C_23 
ROOT
HETATM    1  C   UNL     1     -10.574   1.385 -33.486  1.00  0.00     0.148 A 
HETATM    2  N   UNL     1      -9.711   0.354 -33.636  1.00  0.00    -0.165 NA
HETATM    3  N   UNL     1      -8.613   0.767 -32.977  1.00  0.00    -0.240 N 
HETATM    4  C   UNL     1      -8.770   1.956 -32.326  1.00  0.00     0.123 A 
HETATM    5  N   UNL     1      -7.803   2.474 -31.546  1.00  0.00    -0.366 N 
HETATM    6  C   UNL     1      -6.571   1.767 -31.224  1.00  0.00     0.118 C 
HETATM    7  C   UNL     1      -6.613   0.285 -31.642  1.00  0.00     0.066 C 
HETATM    8  C   UNL     1      -7.400  -0.023 -32.929  1.00  0.00     0.221 C 
HETATM    9  C   UNL     1     -10.018   2.405 -32.665  1.00  0.00     0.088 A 
HETATM   10  H   UNL     1      -7.935   3.366 -31.071  1.00  0.00     0.161 HD
ENDROOT
BRANCH   1  11
HETATM   11  C   UNL     1     -11.914   1.400 -34.093  1.00  0.00     0.272 C 
HETATM   12  N   UNL     1     -12.872   0.744 -33.354  1.00  0.00    -0.354 N 
HETATM   13  H   UNL     1     -12.599   0.497 -32.406  1.00  0.00     0.162 HD
HETATM   14  O   UNL     1     -12.151   1.966 -35.157  1.00  0.00    -0.266 OA
BRANCH  12  15
HETATM   15  C   UNL     1     -14.278   0.858 -33.681  1.00  0.00     0.149 C 
BRANCH  15  16
HETATM   16  C   UNL     1     -15.036   1.714 -32.671  1.00  0.00     0.186 C 
BRANCH  16  17
HETATM   17  O   UNL     1     -14.596   3.072 -32.787  1.00  0.00    -0.394 OA
HETATM   18  C   UNL     1     -14.083   3.560 -31.555  1.00  0.00     0.201 C 
ENDBRANCH  16  17
ENDBRANCH  15  16
ENDBRANCH  12  15
ENDBRANCH   1  11
BRANCH   8  19
HETATM   19  C   UNL     1      -6.602   0.176 -34.196  1.00  0.00     0.409 C 
HETATM   20  F   UNL     1      -6.815   1.362 -34.796  1.00  0.00    -0.169 F 
HETATM   21  F   UNL     1      -5.273   0.105 -33.922  1.00  0.00    -0.169 F 
HETATM   22  F   UNL     1      -6.849  -0.790 -35.110  1.00  0.00    -0.169 F 
ENDBRANCH   8  19
BRANCH   6  23
HETATM   23  C   UNL     1      -5.348   2.537 -31.693  1.00  0.00    -0.034 A 
HETATM   24  C   UNL     1      -5.460   3.393 -32.805  1.00  0.00     0.034 A 
HETATM   25  C   UNL     1      -4.347   4.083 -33.304  1.00  0.00     0.056 A 
HETATM   26 CL   UNL     1      -4.583   5.085 -34.692  1.00  0.00    -0.083 Cl
HETATM   27  C   UNL     1      -3.102   3.938 -32.688  1.00  0.00     0.055 A 
HETATM   28 CL   UNL     1      -1.686   4.752 -33.249  1.00  0.00    -0.083 Cl
HETATM   29  C   UNL     1      -2.977   3.100 -31.579  1.00  0.00     0.026 A 
HETATM   30  C   UNL     1      -4.087   2.402 -31.093  1.00  0.00     0.011 A 
ENDBRANCH   6  23
TORSDOF 6
ENDMDL
MODEL 6
REMARK VINA RESULT:      -7.6      5.223      8.187
REMARK  6 active torsions:
REMARK  status: ('A' for Active; 'I' for Inactive)
REMARK    1  A    between atoms: O_2  and  C_3 
REMARK    2  A    between atoms: C_3  and  C_4 
REMARK    3  A    between atoms: C_4  and  N_5 
REMARK       I    between atoms: N_5  and  C_6 
REMARK    4  A    between atoms: C_6  and  C_7 
REMARK    5  A    between atoms: C_12  and  C_13 
REMARK    6  A    between atoms: C_22  and  C_23 
ROOT
HETATM    1  C   UNL     1      -4.067   3.042 -32.237  1.00  0.00     0.148 A 
HETATM    2  N   UNL     1      -4.796   2.808 -31.121  1.00  0.00    -0.165 NA
HETATM    3  N   UNL     1      -5.854   2.115 -31.579  1.00  0.00    -0.240 N 
HETATM    4  C   UNL     1      -5.783   1.803 -32.906  1.00  0.00     0.123 A 
HETATM    5  N   UNL     1      -6.713   1.038 -33.508  1.00  0.00    -0.366 N 
HETATM    6  C   UNL     1      -7.792   0.376 -32.789  1.00  0.00     0.118 C 
HETATM    7  C   UNL     1      -7.601   0.423 -31.261  1.00  0.00     0.066 C 
HETATM    8  C   UNL     1      -6.936   1.698 -30.711  1.00  0.00     0.221 C 
HETATM    9  C   UNL     1      -4.655   2.421 -33.374  1.00  0.00     0.088 A 
HETATM   10  H   UNL     1      -6.647   0.818 -34.501  1.00  0.00     0.161 HD
ENDROOT
BRANCH   1  11
HETATM   11  C   UNL     1      -2.823   3.826 -32.229  1.00  0.00     0.272 C 
HETATM   12  N   UNL     1      -2.535   4.433 -33.431  1.00  0.00    -0.354 N 
HETATM   13  H   UNL     1      -3.290   4.432 -34.112  1.00  0.00     0.162 HD
HETATM   14  O   UNL     1      -2.118   3.938 -31.230  1.00  0.00    -0.266 OA
BRANCH  12  15
HETATM   15  C   UNL     1      -1.484   5.423 -33.537  1.00  0.00     0.149 C 
BRANCH  15  16
HETATM   16  C   UNL     1      -1.963   6.700 -34.220  1.00  0.00     0.186 C 
BRANCH  16  17
HETATM   17  O   UNL     1      -1.404   7.830 -33.543  1.00  0.00    -0.394 OA
HETATM   18  C   UNL     1      -1.562   7.725 -32.135  1.00  0.00     0.201 C 
ENDBRANCH  16  17
ENDBRANCH  15  16
ENDBRANCH  12  15
ENDBRANCH   1  11
BRANCH   8  19
HETATM   19  C   UNL     1      -7.898   2.844 -30.494  1.00  0.00     0.409 C 
HETATM   20  F   UNL     1      -7.683   3.530 -29.356  1.00  0.00    -0.169 F 
HETATM   21  F   UNL     1      -7.796   3.733 -31.517  1.00  0.00    -0.169 F 
HETATM   22  F   UNL     1      -9.185   2.430 -30.481  1.00  0.00    -0.169 F 
ENDBRANCH   8  19
BRANCH   6  23
HETATM   23  C   UNL     1      -9.154   0.832 -33.285  1.00  0.00    -0.034 A 
HETATM   24  C   UNL     1      -9.257   2.044 -33.992  1.00  0.00     0.034 A 
HETATM   25  C   UNL     1     -10.498   2.530 -34.424  1.00  0.00     0.056 A 
HETATM   26 CL   UNL     1     -10.520   4.043 -35.258  1.00  0.00    -0.083 Cl
HETATM   27  C   UNL     1     -11.661   1.800 -34.165  1.00  0.00     0.055 A 
HETATM   28 CL   UNL     1     -13.226   2.336 -34.661  1.00  0.00    -0.083 Cl
HETATM   29  C   UNL     1     -11.574   0.592 -33.472  1.00  0.00     0.026 A 
HETATM   30  C   UNL     1     -10.334   0.118 -33.031  1.00  0.00     0.011 A 
ENDBRANCH   6  23
TORSDOF 6
ENDMDL
MODEL 7
REMARK VINA RESULT:      -7.5      4.830      8.240
REMARK  6 active torsions:
REMARK  status: ('A' for Active; 'I' for Inactive)
REMARK    1  A    between atoms: O_2  and  C_3 
REMARK    2  A    between atoms: C_3  and  C_4 
REMARK    3  A    between atoms: C_4  and  N_5 
REMARK       I    between atoms: N_5  and  C_6 
REMARK    4  A    between atoms: C_6  and  C_7 
REMARK    5  A    between atoms: C_12  and  C_13 
REMARK    6  A    between atoms: C_22  and  C_23 
ROOT
HETATM    1  C   UNL     1      -4.431   2.943 -32.856  1.00  0.00     0.148 A 
HETATM    2  N   UNL     1      -4.816   1.715 -32.440  1.00  0.00    -0.165 NA
HETATM    3  N   UNL     1      -6.051   1.583 -32.956  1.00  0.00    -0.240 N 
HETATM    4  C   UNL     1      -6.429   2.614 -33.765  1.00  0.00     0.123 A 
HETATM    5  N   UNL     1      -7.597   2.604 -34.434  1.00  0.00    -0.366 N 
HETATM    6  C   UNL     1      -8.493   1.456 -34.460  1.00  0.00     0.118 C 
HETATM    7  C   UNL     1      -7.846   0.187 -33.874  1.00  0.00     0.066 C 
HETATM    8  C   UNL     1      -6.869   0.414 -32.705  1.00  0.00     0.221 C 
HETATM    9  C   UNL     1      -5.417   3.534 -33.693  1.00  0.00     0.088 A 
HETATM   10  H   UNL     1      -7.866   3.385 -35.031  1.00  0.00     0.161 HD
ENDROOT
BRANCH   1  11
HETATM   11  C   UNL     1      -3.142   3.546 -32.483  1.00  0.00     0.272 C 
HETATM   12  N   UNL     1      -2.590   4.340 -33.463  1.00  0.00    -0.354 N 
HETATM   13  H   UNL     1      -3.208   4.571 -34.237  1.00  0.00     0.162 HD
HETATM   14  O   UNL     1      -2.621   3.367 -31.386  1.00  0.00    -0.266 OA
BRANCH  12  15
HETATM   15  C   UNL     1      -1.452   5.190 -33.185  1.00  0.00     0.149 C 
BRANCH  15  16
HETATM   16  C   UNL     1      -1.227   6.227 -34.281  1.00  0.00     0.186 C 
BRANCH  16  17
HETATM   17  O   UNL     1      -1.018   7.508 -33.677  1.00  0.00    -0.394 OA
HETATM   18  C   UNL     1      -1.926   7.736 -32.609  1.00  0.00     0.201 C 
ENDBRANCH  16  17
ENDBRANCH  15  16
ENDBRANCH  12  15
ENDBRANCH   1  11
BRANCH   8  19
HETATM   19  C   UNL     1      -7.545   0.533 -31.359  1.00  0.00     0.409 C 
HETATM   20  F   UNL     1      -8.815   0.090 -31.344  1.00  0.00    -0.169 F 
HETATM   21  F   UNL     1      -6.863  -0.192 -30.433  1.00  0.00    -0.169 F 
HETATM   22  F   UNL     1      -7.554   1.807 -30.906  1.00  0.00    -0.169 F 
ENDBRANCH   8  19
BRANCH   6  23
HETATM   23  C   UNL     1      -9.861   1.804 -33.895  1.00  0.00    -0.034 A 
HETATM   24  C   UNL     1     -10.908   0.871 -34.007  1.00  0.00     0.034 A 
HETATM   25  C   UNL     1     -12.197   1.168 -33.546  1.00  0.00     0.056 A 
HETATM   26 CL   UNL     1     -13.420  -0.035 -33.758  1.00  0.00    -0.083 Cl
HETATM   27  C   UNL     1     -12.458   2.405 -32.952  1.00  0.00     0.055 A 
HETATM   28 CL   UNL     1     -14.021   2.844 -32.366  1.00  0.00    -0.083 Cl
HETATM   29  C   UNL     1     -11.428   3.338 -32.826  1.00  0.00     0.026 A 
HETATM   30  C   UNL     1     -10.146   3.041 -33.299  1.00  0.00     0.011 A 
ENDBRANCH   6  23
TORSDOF 6
ENDMDL
MODEL 8
REMARK VINA RESULT:      -7.5      4.299      6.606
REMARK  6 active torsions:
REMARK  status: ('A' for Active; 'I' for Inactive)
REMARK    1  A    between atoms: O_2  and  C_3 
REMARK    2  A    between atoms: C_3  and  C_4 
REMARK    3  A    between atoms: C_4  and  N_5 
REMARK       I    between atoms: N_5  and  C_6 
REMARK    4  A    between atoms: C_6  and  C_7 
REMARK    5  A    between atoms: C_12  and  C_13 
REMARK    6  A    between atoms: C_22  and  C_23 
ROOT
HETATM    1  C   UNL     1      -6.795   4.428 -29.936  1.00  0.00     0.148 A 
HETATM    2  N   UNL     1      -7.074   4.610 -31.247  1.00  0.00    -0.165 NA
HETATM    3  N   UNL     1      -7.296   3.361 -31.696  1.00  0.00    -0.240 N 
HETATM    4  C   UNL     1      -7.278   2.408 -30.719  1.00  0.00     0.123 A 
HETATM    5  N   UNL     1      -7.568   1.119 -30.977  1.00  0.00    -0.366 N 
HETATM    6  C   UNL     1      -8.044   0.650 -32.270  1.00  0.00     0.118 C 
HETATM    7  C   UNL     1      -8.431   1.805 -33.213  1.00  0.00     0.066 C 
HETATM    8  C   UNL     1      -7.580   3.082 -33.088  1.00  0.00     0.221 C 
HETATM    9  C   UNL     1      -6.919   3.059 -29.570  1.00  0.00     0.088 A 
HETATM   10  H   UNL     1      -7.546   0.419 -30.236  1.00  0.00     0.161 HD
ENDROOT
BRANCH   1  11
HETATM   11  C   UNL     1      -6.433   5.533 -29.035  1.00  0.00     0.272 C 
HETATM   12  N   UNL     1      -5.078   5.686 -28.851  1.00  0.00    -0.354 N 
HETATM   13  H   UNL     1      -4.488   5.159 -29.491  1.00  0.00     0.162 HD
HETATM   14  O   UNL     1      -7.272   6.261 -28.511  1.00  0.00    -0.266 OA
BRANCH  12  15
HETATM   15  C   UNL     1      -4.539   6.855 -28.189  1.00  0.00     0.149 C 
BRANCH  15  16
HETATM   16  C   UNL     1      -4.322   6.623 -26.697  1.00  0.00     0.186 C 
BRANCH  16  17
HETATM   17  O   UNL     1      -4.977   7.663 -25.963  1.00  0.00    -0.394 OA
HETATM   18  C   UNL     1      -5.386   8.725 -26.814  1.00  0.00     0.201 C 
ENDBRANCH  16  17
ENDBRANCH  15  16
ENDBRANCH  12  15
ENDBRANCH   1  11
BRANCH   8  19
HETATM   19  C   UNL     1      -6.295   3.040 -33.882  1.00  0.00     0.409 C 
HETATM   20  F   UNL     1      -6.296   2.133 -34.876  1.00  0.00    -0.169 F 
HETATM   21  F   UNL     1      -6.063   4.252 -34.452  1.00  0.00    -0.169 F 
HETATM   22  F   UNL     1      -5.223   2.782 -33.099  1.00  0.00    -0.169 F 
ENDBRANCH   8  19
BRANCH   6  23
HETATM   23  C   UNL     1      -7.104  -0.385 -32.868  1.00  0.00    -0.034 A 
HETATM   24  C   UNL     1      -5.857  -0.614 -32.257  1.00  0.00     0.034 A 
HETATM   25  C   UNL     1      -4.938  -1.522 -32.801  1.00  0.00     0.056 A 
HETATM   26 CL   UNL     1      -3.423  -1.709 -31.992  1.00  0.00    -0.083 Cl
HETATM   27  C   UNL     1      -5.259  -2.226 -33.964  1.00  0.00     0.055 A 
HETATM   28 CL   UNL     1      -4.176  -3.355 -34.696  1.00  0.00    -0.083 Cl
HETATM   29  C   UNL     1      -6.495  -2.016 -34.577  1.00  0.00     0.026 A 
HETATM   30  C   UNL     1      -7.403  -1.099 -34.037  1.00  0.00     0.011 A 
ENDBRANCH   6  23
TORSDOF 6
ENDMDL
MODEL 9
REMARK VINA RESULT:      -7.3      5.365      8.462
REMARK  6 active torsions:
REMARK  status: ('A' for Active; 'I' for Inactive)
REMARK    1  A    between atoms: O_2  and  C_3 
REMARK    2  A    between atoms: C_3  and  C_4 
REMARK    3  A    between atoms: C_4  and  N_5 
REMARK       I    between atoms: N_5  and  C_6 
REMARK    4  A    between atoms: C_6  and  C_7 
REMARK    5  A    between atoms: C_12  and  C_13 
REMARK    6  A    between atoms: C_22  and  C_23 
ROOT
HETATM    1  C   UNL     1      -3.742   4.015 -31.717  1.00  0.00     0.148 A 
HETATM    2  N   UNL     1      -3.861   2.811 -31.111  1.00  0.00    -0.165 NA
HETATM    3  N   UNL     1      -4.771   2.170 -31.866  1.00  0.00    -0.240 N 
HETATM    4  C   UNL     1      -5.156   2.860 -32.979  1.00  0.00     0.123 A 
HETATM    5  N   UNL     1      -5.993   2.331 -33.891  1.00  0.00    -0.366 N 
HETATM    6  C   UNL     1      -6.456   0.951 -33.846  1.00  0.00     0.118 C 
HETATM    7  C   UNL     1      -5.687   0.103 -32.815  1.00  0.00     0.066 C 
HETATM    8  C   UNL     1      -5.246   0.842 -31.538  1.00  0.00     0.221 C 
HETATM    9  C   UNL     1      -4.537   4.078 -32.895  1.00  0.00     0.088 A 
HETATM   10  H   UNL     1      -6.274   2.862 -34.715  1.00  0.00     0.161 HD
ENDROOT
BRANCH   1  11
HETATM   11  C   UNL     1      -2.876   5.087 -31.202  1.00  0.00     0.272 C 
HETATM   12  N   UNL     1      -1.553   4.727 -31.076  1.00  0.00    -0.354 N 
HETATM   13  H   UNL     1      -1.295   3.850 -31.522  1.00  0.00     0.162 HD
HETATM   14  O   UNL     1      -3.300   6.206 -30.929  1.00  0.00    -0.266 OA
BRANCH  12  15
HETATM   15  C   UNL     1      -0.530   5.715 -30.809  1.00  0.00     0.149 C 
BRANCH  15  16
HETATM   16  C   UNL     1       0.157   5.485 -29.466  1.00  0.00     0.186 C 
BRANCH  16  17
HETATM   17  O   UNL     1      -0.508   6.258 -28.463  1.00  0.00    -0.394 OA
HETATM   18  C   UNL     1       0.354   6.550 -27.372  1.00  0.00     0.201 C 
ENDBRANCH  16  17
ENDBRANCH  15  16
ENDBRANCH  12  15
ENDBRANCH   1  11
BRANCH   8  19
HETATM   19  C   UNL     1      -6.318   0.922 -30.477  1.00  0.00     0.409 C 
HETATM   20  F   UNL     1      -7.229   1.889 -30.692  1.00  0.00    -0.169 F 
HETATM   21  F   UNL     1      -6.998  -0.254 -30.416  1.00  0.00    -0.169 F 
HETATM   22  F   UNL     1      -5.799   1.120 -29.244  1.00  0.00    -0.169 F 
ENDBRANCH   8  19
BRANCH   6  23
HETATM   23  C   UNL     1      -7.971   0.874 -33.745  1.00  0.00    -0.034 A 
HETATM   24  C   UNL     1      -8.749   1.892 -34.327  1.00  0.00     0.034 A 
HETATM   25  C   UNL     1     -10.146   1.889 -34.216  1.00  0.00     0.056 A 
HETATM   26 CL   UNL     1     -11.010   3.200 -34.941  1.00  0.00    -0.083 Cl
HETATM   27  C   UNL     1     -10.790   0.858 -33.528  1.00  0.00     0.055 A 
HETATM   28 CL   UNL     1     -12.505   0.790 -33.345  1.00  0.00    -0.083 Cl
HETATM   29  C   UNL     1     -10.031  -0.163 -32.953  1.00  0.00     0.026 A 
HETATM   30  C   UNL     1      -8.637  -0.148 -33.055  1.00  0.00     0.011 A 
ENDBRANCH   6  23
TORSDOF 6
ENDMDL
MODEL 10
REMARK VINA RESULT:      -7.3      5.074      8.107
REMARK  6 active torsions:
REMARK  status: ('A' for Active; 'I' for Inactive)
REMARK    1  A    between atoms: O_2  and  C_3 
REMARK    2  A    between atoms: C_3  and  C_4 
REMARK    3  A    between atoms: C_4  and  N_5 
REMARK       I    between atoms: N_5  and  C_6 
REMARK    4  A    between atoms: C_6  and  C_7 
REMARK    5  A    between atoms: C_12  and  C_13 
REMARK    6  A    between atoms: C_22  and  C_23 
ROOT
HETATM    1  C   UNL     1      -4.688  -0.269 -31.817  1.00  0.00     0.148 A 
HETATM    2  N   UNL     1      -4.628   1.011 -32.253  1.00  0.00    -0.165 NA
HETATM    3  N   UNL     1      -5.880   1.465 -32.064  1.00  0.00    -0.240 N 
HETATM    4  C   UNL     1      -6.704   0.578 -31.434  1.00  0.00     0.123 A 
HETATM    5  N   UNL     1      -7.964   0.899 -31.087  1.00  0.00    -0.366 N 
HETATM    6  C   UNL     1      -8.516   2.239 -31.231  1.00  0.00     0.118 C 
HETATM    7  C   UNL     1      -7.439   3.290 -31.564  1.00  0.00     0.066 C 
HETATM    8  C   UNL     1      -6.282   2.800 -32.454  1.00  0.00     0.221 C 
HETATM    9  C   UNL     1      -5.975  -0.573 -31.293  1.00  0.00     0.088 A 
HETATM   10  H   UNL     1      -8.568   0.223 -30.621  1.00  0.00     0.161 HD
ENDROOT
BRANCH   1  11
HETATM   11  C   UNL     1      -3.542  -1.189 -31.879  1.00  0.00     0.272 C 
HETATM   12  N   UNL     1      -3.892  -2.521 -31.880  1.00  0.00    -0.354 N 
HETATM   13  H   UNL     1      -4.880  -2.713 -32.030  1.00  0.00     0.162 HD
HETATM   14  O   UNL     1      -2.381  -0.796 -31.941  1.00  0.00    -0.266 OA
BRANCH  12  15
HETATM   15  C   UNL     1      -2.917  -3.551 -32.169  1.00  0.00     0.149 C 
BRANCH  15  16
HETATM   16  C   UNL     1      -3.390  -4.500 -33.265  1.00  0.00     0.186 C 
BRANCH  16  17
HETATM   17  O   UNL     1      -4.339  -3.821 -34.094  1.00  0.00    -0.394 OA
HETATM   18  C   UNL     1      -5.319  -4.713 -34.606  1.00  0.00     0.201 C 
ENDBRANCH  16  17
ENDBRANCH  15  16
ENDBRANCH  12  15
ENDBRANCH   1  11
BRANCH   8  19
HETATM   19  C   UNL     1      -6.589   2.839 -33.932  1.00  0.00     0.409 C 
HETATM   20  F   UNL     1      -6.832   1.630 -34.472  1.00  0.00    -0.169 F 
HETATM   21  F   UNL     1      -7.693   3.600 -34.156  1.00  0.00    -0.169 F 
HETATM   22  F   UNL     1      -5.589   3.407 -34.644  1.00  0.00    -0.169 F 
ENDBRANCH   8  19
BRANCH   6  23
HETATM   23  C   UNL     1      -9.731   2.246 -32.145  1.00  0.00    -0.034 A 
HETATM   24  C   UNL     1     -10.601   3.352 -32.121  1.00  0.00     0.034 A 
HETATM   25  C   UNL     1     -11.760   3.380 -32.909  1.00  0.00     0.056 A 
HETATM   26 CL   UNL     1     -12.779   4.770 -32.785  1.00  0.00    -0.083 Cl
HETATM   27  C   UNL     1     -12.061   2.303 -33.746  1.00  0.00     0.055 A 
HETATM   28 CL   UNL     1     -13.471   2.264 -34.741  1.00  0.00    -0.083 Cl
HETATM   29  C   UNL     1     -11.202   1.204 -33.788  1.00  0.00     0.026 A 
HETATM   30  C   UNL     1     -10.054   1.175 -32.989  1.00  0.00     0.011 A 
ENDBRANCH   6  23
TORSDOF 6
ENDMDL
