MODEL 1
REMARK VINA RESULT:      -8.8      0.000      0.000
REMARK  8 active torsions:
REMARK  status: ('A' for Active; 'I' for Inactive)
REMARK    1  A    between atoms: C_4  and  N_5 
REMARK    2  A    between atoms: N_5  and  S_6 
REMARK    3  A    between atoms: S_6  and  C_7 
REMARK    4  A    between atoms: C_13  and  C_14 
REMARK       I    between atoms: C_14  and  N_15 
REMARK    5  A    between atoms: N_15  and  C_16 
REMARK    6  A    between atoms: C_16  and  C_17 
REMARK    7  A    between atoms: C_17  and  C_18 
REMARK    8  A    between atoms: C_18  and  O_19 
ROOT
HETATM    1  C   UNL     1      -6.290   2.846 -33.327  1.00  0.00     0.081 A 
HETATM    2  C   UNL     1      -5.096   2.755 -32.608  1.00  0.00     0.043 A 
HETATM    3  C   UNL     1      -4.281   3.886 -32.496  1.00  0.00     0.043 A 
HETATM    4  C   UNL     1      -4.658   5.109 -33.079  1.00  0.00     0.046 A 
HETATM    5  N   UNL     1      -3.802   6.211 -32.993  1.00  0.00    -0.364 N 
HETATM    6  C   UNL     1      -2.630   6.138 -32.284  1.00  0.00     0.109 A 
HETATM    7  C   UNL     1      -2.159   5.042 -31.666  1.00  0.00     0.098 A 
HETATM    8  C   UNL     1      -2.995   3.810 -31.753  1.00  0.00     0.201 A 
HETATM    9  O   UNL     1      -2.644   2.753 -31.233  1.00  0.00    -0.286 OA
HETATM   10  C   UNL     1      -5.860   5.181 -33.792  1.00  0.00     0.032 A 
HETATM   11  C   UNL     1      -6.683   4.057 -33.907  1.00  0.00     0.027 A 
HETATM   12  H   UNL     1      -4.127   7.123 -33.299  1.00  0.00     0.165 HD
ENDROOT
BRANCH   1  13
HETATM   13  S   UNL     1      -7.342   1.415 -33.454  1.00  0.00     0.263 S 
HETATM   14  O   UNL     1      -8.653   1.863 -33.872  1.00  0.00    -0.200 OA
HETATM   15  O   UNL     1      -7.165   0.648 -32.239  1.00  0.00    -0.200 OA
BRANCH  13  16
HETATM   16  N   UNL     1      -6.614   0.522 -34.687  1.00  0.00    -0.281 N 
HETATM   17  H   UNL     1      -7.123   0.584 -35.567  1.00  0.00     0.179 HD
BRANCH  16  18
HETATM   18  C   UNL     1      -5.989  -0.714 -34.368  1.00  0.00     0.043 A 
HETATM   19  C   UNL     1      -4.897  -0.735 -33.499  1.00  0.00     0.037 A 
HETATM   20  C   UNL     1      -4.252  -1.944 -33.212  1.00  0.00    -0.059 A 
HETATM   21  C   UNL     1      -3.081  -1.992 -32.275  1.00  0.00     0.048 C 
HETATM   22  C   UNL     1      -4.730  -3.129 -33.790  1.00  0.00     0.013 A 
HETATM   23  C   UNL     1      -5.824  -3.114 -34.665  1.00  0.00    -0.059 A 
HETATM   24  C   UNL     1      -6.446  -1.895 -34.954  1.00  0.00     0.037 A 
HETATM   25  C   UNL     1      -6.335  -4.396 -35.253  1.00  0.00     0.048 C 
ENDBRANCH  16  18
ENDBRANCH  13  16
ENDBRANCH   1  13
BRANCH   7  26
HETATM   26  C   UNL     1      -0.849   5.132 -30.960  1.00  0.00     0.257 C 
HETATM   27  N   UNL     1      -0.896   5.667 -29.698  1.00  0.00    -0.357 N 
HETATM   28  H   UNL     1      -1.802   5.962 -29.329  1.00  0.00     0.162 HD
HETATM   29  O   UNL     1       0.192   4.740 -31.482  1.00  0.00    -0.267 OA
BRANCH  27  30
HETATM   30  C   UNL     1       0.273   5.784 -28.855  1.00  0.00     0.125 C 
BRANCH  30  31
HETATM   31  C   UNL     1       0.590   7.230 -28.494  1.00  0.00     0.046 C 
BRANCH  31  32
HETATM   32  C   UNL     1      -0.522   7.837 -27.647  1.00  0.00     0.168 C 
BRANCH  32  33
HETATM   33  O   UNL     1      -1.345   6.784 -27.148  1.00  0.00    -0.396 OA
HETATM   34  C   UNL     1      -2.000   7.157 -25.943  1.00  0.00     0.201 C 
ENDBRANCH  32  33
ENDBRANCH  31  32
ENDBRANCH  30  31
ENDBRANCH  27  30
ENDBRANCH   7  26
TORSDOF 8
ENDMDL
MODEL 2
REMARK VINA RESULT:      -8.8      2.355      9.847
REMARK  8 active torsions:
REMARK  status: ('A' for Active; 'I' for Inactive)
REMARK    1  A    between atoms: C_4  and  N_5 
REMARK    2  A    between atoms: N_5  and  S_6 
REMARK    3  A    between atoms: S_6  and  C_7 
REMARK    4  A    between atoms: C_13  and  C_14 
REMARK       I    between atoms: C_14  and  N_15 
REMARK    5  A    between atoms: N_15  and  C_16 
REMARK    6  A    between atoms: C_16  and  C_17 
REMARK    7  A    between atoms: C_17  and  C_18 
REMARK    8  A    between atoms: C_18  and  O_19 
ROOT
HETATM    1  C   UNL     1      -1.164   5.551 -31.992  1.00  0.00     0.081 A 
HETATM    2  C   UNL     1      -2.078   4.520 -31.764  1.00  0.00     0.043 A 
HETATM    3  C   UNL     1      -3.192   4.401 -32.601  1.00  0.00     0.043 A 
HETATM    4  C   UNL     1      -3.389   5.289 -33.673  1.00  0.00     0.046 A 
HETATM    5  N   UNL     1      -4.535   5.177 -34.466  1.00  0.00    -0.364 N 
HETATM    6  C   UNL     1      -5.439   4.166 -34.258  1.00  0.00     0.109 A 
HETATM    7  C   UNL     1      -5.364   3.242 -33.284  1.00  0.00     0.098 A 
HETATM    8  C   UNL     1      -4.192   3.324 -32.367  1.00  0.00     0.201 A 
HETATM    9  O   UNL     1      -4.041   2.535 -31.437  1.00  0.00    -0.286 OA
HETATM   10  C   UNL     1      -2.459   6.313 -33.889  1.00  0.00     0.032 A 
HETATM   11  C   UNL     1      -1.340   6.439 -33.059  1.00  0.00     0.027 A 
HETATM   12  H   UNL     1      -4.615   5.730 -35.313  1.00  0.00     0.165 HD
ENDROOT
BRANCH   1  13
HETATM   13  S   UNL     1       0.268   5.694 -30.944  1.00  0.00     0.263 S 
HETATM   14  O   UNL     1       0.945   6.928 -31.281  1.00  0.00    -0.200 OA
HETATM   15  O   UNL     1       0.959   4.423 -30.991  1.00  0.00    -0.200 OA
BRANCH  13  16
HETATM   16  N   UNL     1      -0.408   5.807 -29.400  1.00  0.00    -0.281 N 
HETATM   17  H   UNL     1      -1.302   5.324 -29.330  1.00  0.00     0.179 HD
BRANCH  16  18
HETATM   18  C   UNL     1      -0.244   7.011 -28.662  1.00  0.00     0.043 A 
HETATM   19  C   UNL     1      -1.128   8.073 -28.862  1.00  0.00     0.037 A 
HETATM   20  C   UNL     1      -0.948   9.275 -28.168  1.00  0.00    -0.059 A 
HETATM   21  C   UNL     1      -1.889  10.428 -28.361  1.00  0.00     0.048 C 
HETATM   22  C   UNL     1       0.115   9.389 -27.259  1.00  0.00     0.013 A 
HETATM   23  C   UNL     1       1.006   8.328 -27.057  1.00  0.00    -0.059 A 
HETATM   24  C   UNL     1       0.821   7.139 -27.771  1.00  0.00     0.037 A 
HETATM   25  C   UNL     1       2.121   8.461 -26.061  1.00  0.00     0.048 C 
ENDBRANCH  16  18
ENDBRANCH  13  16
ENDBRANCH   1  13
BRANCH   7  26
HETATM   26  C   UNL     1      -6.450   2.225 -33.185  1.00  0.00     0.257 C 
HETATM   27  N   UNL     1      -6.034   0.918 -33.172  1.00  0.00    -0.357 N 
HETATM   28  H   UNL     1      -5.031   0.728 -33.228  1.00  0.00     0.162 HD
HETATM   29  O   UNL     1      -7.633   2.551 -33.112  1.00  0.00    -0.267 OA
BRANCH  27  30
HETATM   30  C   UNL     1      -6.949  -0.192 -33.033  1.00  0.00     0.125 C 
BRANCH  30  31
HETATM   31  C   UNL     1      -7.346  -0.793 -34.377  1.00  0.00     0.046 C 
BRANCH  31  32
HETATM   32  C   UNL     1      -6.554  -2.063 -34.662  1.00  0.00     0.168 C 
BRANCH  32  33
HETATM   33  O   UNL     1      -5.234  -1.906 -34.145  1.00  0.00    -0.396 OA
HETATM   34  C   UNL     1      -4.452  -3.077 -34.338  1.00  0.00     0.201 C 
ENDBRANCH  32  33
ENDBRANCH  31  32
ENDBRANCH  30  31
ENDBRANCH  27  30
ENDBRANCH   7  26
TORSDOF 8
ENDMDL
MODEL 3
REMARK VINA RESULT:      -8.7      0.499      1.624
REMARK  8 active torsions:
REMARK  status: ('A' for Active; 'I' for Inactive)
REMARK    1  A    between atoms: C_4  and  N_5 
REMARK    2  A    between atoms: N_5  and  S_6 
REMARK    3  A    between atoms: S_6  and  C_7 
REMARK    4  A    between atoms: C_13  and  C_14 
REMARK       I    between atoms: C_14  and  N_15 
REMARK    5  A    between atoms: N_15  and  C_16 
REMARK    6  A    between atoms: C_16  and  C_17 
REMARK    7  A    between atoms: C_17  and  C_18 
REMARK    8  A    between atoms: C_18  and  O_19 
ROOT
HETATM    1  C   UNL     1      -6.286   3.062 -33.362  1.00  0.00     0.081 A 
HETATM    2  C   UNL     1      -5.100   2.917 -32.637  1.00  0.00     0.043 A 
HETATM    3  C   UNL     1      -4.246   4.017 -32.503  1.00  0.00     0.043 A 
HETATM    4  C   UNL     1      -4.575   5.261 -33.071  1.00  0.00     0.046 A 
HETATM    5  N   UNL     1      -3.681   6.331 -32.963  1.00  0.00    -0.364 N 
HETATM    6  C   UNL     1      -2.516   6.205 -32.248  1.00  0.00     0.109 A 
HETATM    7  C   UNL     1      -2.090   5.083 -31.644  1.00  0.00     0.098 A 
HETATM    8  C   UNL     1      -2.968   3.884 -31.754  1.00  0.00     0.201 A 
HETATM    9  O   UNL     1      -2.659   2.808 -31.248  1.00  0.00    -0.286 OA
HETATM   10  C   UNL     1      -5.769   5.387 -33.789  1.00  0.00     0.032 A 
HETATM   11  C   UNL     1      -6.631   4.295 -33.926  1.00  0.00     0.027 A 
HETATM   12  H   UNL     1      -3.971   7.257 -33.257  1.00  0.00     0.165 HD
ENDROOT
BRANCH   1  13
HETATM   13  S   UNL     1      -7.388   1.672 -33.516  1.00  0.00     0.263 S 
HETATM   14  O   UNL     1      -8.674   2.171 -33.951  1.00  0.00    -0.200 OA
HETATM   15  O   UNL     1      -7.258   0.890 -32.304  1.00  0.00    -0.200 OA
BRANCH  13  16
HETATM   16  N   UNL     1      -6.673   0.762 -34.745  1.00  0.00    -0.281 N 
HETATM   17  H   UNL     1      -7.179   0.831 -35.626  1.00  0.00     0.179 HD
BRANCH  16  18
HETATM   18  C   UNL     1      -6.074  -0.486 -34.421  1.00  0.00     0.043 A 
HETATM   19  C   UNL     1      -6.610  -1.667 -34.936  1.00  0.00     0.037 A 
HETATM   20  C   UNL     1      -6.049  -2.902 -34.588  1.00  0.00    -0.059 A 
HETATM   21  C   UNL     1      -6.603  -4.184 -35.135  1.00  0.00     0.048 C 
HETATM   22  C   UNL     1      -4.935  -2.932 -33.736  1.00  0.00     0.013 A 
HETATM   23  C   UNL     1      -4.395  -1.750 -33.214  1.00  0.00    -0.059 A 
HETATM   24  C   UNL     1      -4.978  -0.526 -33.559  1.00  0.00     0.037 A 
HETATM   25  C   UNL     1      -3.188  -1.803 -32.324  1.00  0.00     0.048 C 
ENDBRANCH  16  18
ENDBRANCH  13  16
ENDBRANCH   1  13
BRANCH   7  26
HETATM   26  C   UNL     1      -0.781   5.116 -30.928  1.00  0.00     0.257 C 
HETATM   27  N   UNL     1      -0.812   5.659 -29.670  1.00  0.00    -0.357 N 
HETATM   28  H   UNL     1      -1.706   5.998 -29.309  1.00  0.00     0.162 HD
HETATM   29  O   UNL     1       0.244   4.673 -31.441  1.00  0.00    -0.267 OA
BRANCH  27  30
HETATM   30  C   UNL     1       0.355   5.726 -28.819  1.00  0.00     0.125 C 
BRANCH  30  31
HETATM   31  C   UNL     1       0.297   6.891 -27.838  1.00  0.00     0.046 C 
BRANCH  31  32
HETATM   32  C   UNL     1      -0.921   7.767 -28.105  1.00  0.00     0.168 C 
BRANCH  32  33
HETATM   33  O   UNL     1      -2.039   7.223 -27.408  1.00  0.00    -0.396 OA
HETATM   34  C   UNL     1      -3.186   8.054 -27.527  1.00  0.00     0.201 C 
ENDBRANCH  32  33
ENDBRANCH  31  32
ENDBRANCH  30  31
ENDBRANCH  27  30
ENDBRANCH   7  26
TORSDOF 8
ENDMDL
MODEL 4
REMARK VINA RESULT:      -8.7      2.331      3.443
REMARK  8 active torsions:
REMARK  status: ('A' for Active; 'I' for Inactive)
REMARK    1  A    between atoms: C_4  and  N_5 
REMARK    2  A    between atoms: N_5  and  S_6 
REMARK    3  A    between atoms: S_6  and  C_7 
REMARK    4  A    between atoms: C_13  and  C_14 
REMARK       I    between atoms: C_14  and  N_15 
REMARK    5  A    between atoms: N_15  and  C_16 
REMARK    6  A    between atoms: C_16  and  C_17 
REMARK    7  A    between atoms: C_17  and  C_18 
REMARK    8  A    between atoms: C_18  and  O_19 
ROOT
HETATM    1  C   UNL     1      -7.705   2.185 -32.540  1.00  0.00     0.081 A 
HETATM    2  C   UNL     1      -6.594   3.030 -32.585  1.00  0.00     0.043 A 
HETATM    3  C   UNL     1      -6.255   3.770 -31.448  1.00  0.00     0.043 A 
HETATM    4  C   UNL     1      -7.003   3.658 -30.263  1.00  0.00     0.046 A 
HETATM    5  N   UNL     1      -6.671   4.445 -29.156  1.00  0.00    -0.364 N 
HETATM    6  C   UNL     1      -5.579   5.275 -29.184  1.00  0.00     0.109 A 
HETATM    7  C   UNL     1      -4.771   5.463 -30.241  1.00  0.00     0.098 A 
HETATM    8  C   UNL     1      -5.088   4.693 -31.477  1.00  0.00     0.201 A 
HETATM    9  O   UNL     1      -4.418   4.807 -32.501  1.00  0.00    -0.286 OA
HETATM   10  C   UNL     1      -8.111   2.803 -30.236  1.00  0.00     0.032 A 
HETATM   11  C   UNL     1      -8.456   2.056 -31.366  1.00  0.00     0.027 A 
HETATM   12  H   UNL     1      -7.125   4.273 -28.265  1.00  0.00     0.165 HD
ENDROOT
BRANCH   1  13
HETATM   13  S   UNL     1      -8.129   1.223 -33.977  1.00  0.00     0.263 S 
HETATM   14  O   UNL     1      -7.063   1.377 -34.943  1.00  0.00    -0.200 OA
HETATM   15  O   UNL     1      -9.500   1.543 -34.315  1.00  0.00    -0.200 OA
BRANCH  13  16
HETATM   16  N   UNL     1      -8.145  -0.356 -33.380  1.00  0.00    -0.281 N 
HETATM   17  H   UNL     1      -8.643  -0.432 -32.494  1.00  0.00     0.179 HD
BRANCH  16  18
HETATM   18  C   UNL     1      -7.002  -1.178 -33.572  1.00  0.00     0.043 A 
HETATM   19  C   UNL     1      -5.794  -0.840 -32.959  1.00  0.00     0.037 A 
HETATM   20  C   UNL     1      -4.654  -1.623 -33.177  1.00  0.00    -0.059 A 
HETATM   21  C   UNL     1      -3.346  -1.283 -32.524  1.00  0.00     0.048 C 
HETATM   22  C   UNL     1      -4.748  -2.756 -33.997  1.00  0.00     0.013 A 
HETATM   23  C   UNL     1      -5.957  -3.099 -34.616  1.00  0.00    -0.059 A 
HETATM   24  C   UNL     1      -7.083  -2.296 -34.401  1.00  0.00     0.037 A 
HETATM   25  C   UNL     1      -6.043  -4.331 -35.470  1.00  0.00     0.048 C 
ENDBRANCH  16  18
ENDBRANCH  13  16
ENDBRANCH   1  13
BRANCH   7  26
HETATM   26  C   UNL     1      -3.639   6.425 -30.107  1.00  0.00     0.257 C 
HETATM   27  N   UNL     1      -2.414   5.952 -30.504  1.00  0.00    -0.357 N 
HETATM   28  H   UNL     1      -2.355   4.996 -30.859  1.00  0.00     0.162 HD
HETATM   29  O   UNL     1      -3.809   7.564 -29.677  1.00  0.00    -0.267 OA
BRANCH  27  30
HETATM   30  C   UNL     1      -1.219   6.766 -30.486  1.00  0.00     0.125 C 
BRANCH  30  31
HETATM   31  C   UNL     1      -0.567   6.875 -31.859  1.00  0.00     0.046 C 
BRANCH  31  32
HETATM   32  C   UNL     1      -1.509   7.534 -32.859  1.00  0.00     0.168 C 
BRANCH  32  33
HETATM   33  O   UNL     1      -1.129   7.138 -34.175  1.00  0.00    -0.396 OA
HETATM   34  C   UNL     1      -1.389   5.760 -34.405  1.00  0.00     0.201 C 
ENDBRANCH  32  33
ENDBRANCH  31  32
ENDBRANCH  30  31
ENDBRANCH  27  30
ENDBRANCH   7  26
TORSDOF 8
ENDMDL
MODEL 5
REMARK VINA RESULT:      -8.3      3.478      9.723
REMARK  8 active torsions:
REMARK  status: ('A' for Active; 'I' for Inactive)
REMARK    1  A    between atoms: C_4  and  N_5 
REMARK    2  A    between atoms: N_5  and  S_6 
REMARK    3  A    between atoms: S_6  and  C_7 
REMARK    4  A    between atoms: C_13  and  C_14 
REMARK       I    between atoms: C_14  and  N_15 
REMARK    5  A    between atoms: N_15  and  C_16 
REMARK    6  A    between atoms: C_16  and  C_17 
REMARK    7  A    between atoms: C_17  and  C_18 
REMARK    8  A    between atoms: C_18  and  O_19 
ROOT
HETATM    1  C   UNL     1      -1.077   5.559 -32.052  1.00  0.00     0.081 A 
HETATM    2  C   UNL     1      -2.036   4.577 -31.790  1.00  0.00     0.043 A 
HETATM    3  C   UNL     1      -3.136   4.457 -32.644  1.00  0.00     0.043 A 
HETATM    4  C   UNL     1      -3.277   5.295 -33.765  1.00  0.00     0.046 A 
HETATM    5  N   UNL     1      -4.411   5.185 -34.575  1.00  0.00    -0.364 N 
HETATM    6  C   UNL     1      -5.358   4.221 -34.335  1.00  0.00     0.109 A 
HETATM    7  C   UNL     1      -5.338   3.348 -33.313  1.00  0.00     0.098 A 
HETATM    8  C   UNL     1      -4.182   3.433 -32.377  1.00  0.00     0.201 A 
HETATM    9  O   UNL     1      -4.081   2.688 -31.404  1.00  0.00    -0.286 OA
HETATM   10  C   UNL     1      -2.304   6.269 -34.012  1.00  0.00     0.032 A 
HETATM   11  C   UNL     1      -1.198   6.396 -33.167  1.00  0.00     0.027 A 
HETATM   12  H   UNL     1      -4.453   5.695 -35.451  1.00  0.00     0.165 HD
ENDROOT
BRANCH   1  13
HETATM   13  S   UNL     1       0.338   5.702 -30.981  1.00  0.00     0.263 S 
HETATM   14  O   UNL     1       1.003   6.950 -31.287  1.00  0.00    -0.200 OA
HETATM   15  O   UNL     1       1.047   4.441 -31.041  1.00  0.00    -0.200 OA
BRANCH  13  16
HETATM   16  N   UNL     1      -0.360   5.779 -29.446  1.00  0.00    -0.281 N 
HETATM   17  H   UNL     1      -1.252   5.290 -29.398  1.00  0.00     0.179 HD
BRANCH  16  18
HETATM   18  C   UNL     1      -0.213   6.968 -28.680  1.00  0.00     0.043 A 
HETATM   19  C   UNL     1      -1.115   8.020 -28.853  1.00  0.00     0.037 A 
HETATM   20  C   UNL     1      -0.952   9.208 -28.131  1.00  0.00    -0.059 A 
HETATM   21  C   UNL     1      -1.912  10.350 -28.295  1.00  0.00     0.048 C 
HETATM   22  C   UNL     1       0.111   9.318 -27.223  1.00  0.00     0.013 A 
HETATM   23  C   UNL     1       1.020   8.267 -27.047  1.00  0.00    -0.059 A 
HETATM   24  C   UNL     1       0.852   7.092 -27.789  1.00  0.00     0.037 A 
HETATM   25  C   UNL     1       2.136   8.395 -26.052  1.00  0.00     0.048 C 
ENDBRANCH  16  18
ENDBRANCH  13  16
ENDBRANCH   1  13
BRANCH   7  26
HETATM   26  C   UNL     1      -6.466   2.379 -33.186  1.00  0.00     0.257 C 
HETATM   27  N   UNL     1      -7.024   2.287 -31.937  1.00  0.00    -0.357 N 
HETATM   28  H   UNL     1      -6.645   2.874 -31.191  1.00  0.00     0.162 HD
HETATM   29  O   UNL     1      -6.861   1.722 -34.146  1.00  0.00    -0.267 OA
BRANCH  27  30
HETATM   30  C   UNL     1      -8.155   1.434 -31.647  1.00  0.00     0.125 C 
BRANCH  30  31
HETATM   31  C   UNL     1      -9.393   2.224 -31.241  1.00  0.00     0.046 C 
BRANCH  31  32
HETATM   32  C   UNL     1     -10.221   2.606 -32.461  1.00  0.00     0.168 C 
BRANCH  32  33
HETATM   33  O   UNL     1     -10.223   1.512 -33.375  1.00  0.00    -0.396 OA
HETATM   34  C   UNL     1     -11.545   1.101 -33.699  1.00  0.00     0.201 C 
ENDBRANCH  32  33
ENDBRANCH  31  32
ENDBRANCH  30  31
ENDBRANCH  27  30
ENDBRANCH   7  26
TORSDOF 8
ENDMDL
MODEL 6
REMARK VINA RESULT:      -8.3      2.083      2.397
REMARK  8 active torsions:
REMARK  status: ('A' for Active; 'I' for Inactive)
REMARK    1  A    between atoms: C_4  and  N_5 
REMARK    2  A    between atoms: N_5  and  S_6 
REMARK    3  A    between atoms: S_6  and  C_7 
REMARK    4  A    between atoms: C_13  and  C_14 
REMARK       I    between atoms: C_14  and  N_15 
REMARK    5  A    between atoms: N_15  and  C_16 
REMARK    6  A    between atoms: C_16  and  C_17 
REMARK    7  A    between atoms: C_17  and  C_18 
REMARK    8  A    between atoms: C_18  and  O_19 
ROOT
HETATM    1  C   UNL     1      -7.096   3.137 -32.232  1.00  0.00     0.081 A 
HETATM    2  C   UNL     1      -6.268   4.032 -31.549  1.00  0.00     0.043 A 
HETATM    3  C   UNL     1      -5.296   4.739 -32.262  1.00  0.00     0.043 A 
HETATM    4  C   UNL     1      -5.157   4.575 -33.652  1.00  0.00     0.046 A 
HETATM    5  N   UNL     1      -4.145   5.259 -34.333  1.00  0.00    -0.364 N 
HETATM    6  C   UNL     1      -3.329   6.146 -33.676  1.00  0.00     0.109 A 
HETATM    7  C   UNL     1      -3.365   6.409 -32.359  1.00  0.00     0.098 A 
HETATM    8  C   UNL     1      -4.388   5.683 -31.555  1.00  0.00     0.201 A 
HETATM    9  O   UNL     1      -4.491   5.844 -30.341  1.00  0.00    -0.286 OA
HETATM   10  C   UNL     1      -5.998   3.678 -34.319  1.00  0.00     0.032 A 
HETATM   11  C   UNL     1      -6.976   2.968 -33.616  1.00  0.00     0.027 A 
HETATM   12  H   UNL     1      -4.124   5.243 -35.348  1.00  0.00     0.165 HD
ENDROOT
BRANCH   1  13
HETATM   13  S   UNL     1      -8.351   2.250 -31.333  1.00  0.00     0.263 S 
HETATM   14  O   UNL     1      -9.309   1.743 -32.291  1.00  0.00    -0.200 OA
HETATM   15  O   UNL     1      -8.765   3.097 -30.234  1.00  0.00    -0.200 OA
BRANCH  13  16
HETATM   16  N   UNL     1      -7.487   0.973 -30.645  1.00  0.00    -0.281 N 
HETATM   17  H   UNL     1      -7.203   1.165 -29.686  1.00  0.00     0.179 HD
BRANCH  16  18
HETATM   18  C   UNL     1      -6.598   0.222 -31.463  1.00  0.00     0.043 A 
HETATM   19  C   UNL     1      -5.236   0.191 -31.159  1.00  0.00     0.037 A 
HETATM   20  C   UNL     1      -4.350  -0.513 -31.983  1.00  0.00    -0.059 A 
HETATM   21  C   UNL     1      -2.883  -0.567 -31.672  1.00  0.00     0.048 C 
HETATM   22  C   UNL     1      -4.850  -1.199 -33.099  1.00  0.00     0.013 A 
HETATM   23  C   UNL     1      -6.216  -1.169 -33.410  1.00  0.00    -0.059 A 
HETATM   24  C   UNL     1      -7.085  -0.447 -32.585  1.00  0.00     0.037 A 
HETATM   25  C   UNL     1      -6.735  -1.930 -34.594  1.00  0.00     0.048 C 
ENDBRANCH  16  18
ENDBRANCH  13  16
ENDBRANCH   1  13
BRANCH   7  26
HETATM   26  C   UNL     1      -2.384   7.386 -31.803  1.00  0.00     0.257 C 
HETATM   27  N   UNL     1      -1.881   7.076 -30.566  1.00  0.00    -0.357 N 
HETATM   28  H   UNL     1      -2.199   6.216 -30.114  1.00  0.00     0.162 HD
HETATM   29  O   UNL     1      -2.054   8.392 -32.427  1.00  0.00    -0.267 OA
BRANCH  27  30
HETATM   30  C   UNL     1      -0.886   7.887 -29.901  1.00  0.00     0.125 C 
BRANCH  30  31
HETATM   31  C   UNL     1       0.430   7.145 -29.696  1.00  0.00     0.046 C 
BRANCH  31  32
HETATM   32  C   UNL     1       0.267   6.015 -28.688  1.00  0.00     0.168 C 
BRANCH  32  33
HETATM   33  O   UNL     1       0.520   6.526 -27.381  1.00  0.00    -0.396 OA
HETATM   34  C   UNL     1      -0.524   6.192 -26.476  1.00  0.00     0.201 C 
ENDBRANCH  32  33
ENDBRANCH  31  32
ENDBRANCH  30  31
ENDBRANCH  27  30
ENDBRANCH   7  26
TORSDOF 8
ENDMDL
MODEL 7
REMARK VINA RESULT:      -8.2      1.775      2.094
REMARK  8 active torsions:
REMARK  status: ('A' for Active; 'I' for Inactive)
REMARK    1  A    between atoms: C_4  and  N_5 
REMARK    2  A    between atoms: N_5  and  S_6 
REMARK    3  A    between atoms: S_6  and  C_7 
REMARK    4  A    between atoms: C_13  and  C_14 
REMARK       I    between atoms: C_14  and  N_15 
REMARK    5  A    between atoms: N_15  and  C_16 
REMARK    6  A    between atoms: C_16  and  C_17 
REMARK    7  A    between atoms: C_17  and  C_18 
REMARK    8  A    between atoms: C_18  and  O_19 
ROOT
HETATM    1  C   UNL     1      -7.589   2.116 -32.559  1.00  0.00     0.081 A 
HETATM    2  C   UNL     1      -6.301   2.621 -32.753  1.00  0.00     0.043 A 
HETATM    3  C   UNL     1      -5.797   3.562 -31.850  1.00  0.00     0.043 A 
HETATM    4  C   UNL     1      -6.559   3.987 -30.747  1.00  0.00     0.046 A 
HETATM    5  N   UNL     1      -6.049   4.964 -29.886  1.00  0.00    -0.364 N 
HETATM    6  C   UNL     1      -4.783   5.465 -30.061  1.00  0.00     0.109 A 
HETATM    7  C   UNL     1      -3.946   5.135 -31.058  1.00  0.00     0.098 A 
HETATM    8  C   UNL     1      -4.436   4.131 -32.045  1.00  0.00     0.201 A 
HETATM    9  O   UNL     1      -3.751   3.775 -33.001  1.00  0.00    -0.286 OA
HETATM   10  C   UNL     1      -7.845   3.466 -30.567  1.00  0.00     0.032 A 
HETATM   11  C   UNL     1      -8.358   2.522 -31.462  1.00  0.00     0.027 A 
HETATM   12  H   UNL     1      -6.539   5.177 -29.024  1.00  0.00     0.165 HD
ENDROOT
BRANCH   1  13
HETATM   13  S   UNL     1      -8.228   0.900 -33.692  1.00  0.00     0.263 S 
HETATM   14  O   UNL     1      -9.227   1.544 -34.517  1.00  0.00    -0.200 OA
HETATM   15  O   UNL     1      -8.544  -0.281 -32.916  1.00  0.00    -0.200 OA
BRANCH  13  16
HETATM   16  N   UNL     1      -6.875   0.507 -34.622  1.00  0.00    -0.281 N 
HETATM   17  H   UNL     1      -6.987   0.762 -35.602  1.00  0.00     0.179 HD
BRANCH  16  18
HETATM   18  C   UNL     1      -6.155  -0.682 -34.324  1.00  0.00     0.043 A 
HETATM   19  C   UNL     1      -5.082  -0.637 -33.431  1.00  0.00     0.037 A 
HETATM   20  C   UNL     1      -4.343  -1.796 -33.164  1.00  0.00    -0.059 A 
HETATM   21  C   UNL     1      -3.191  -1.774 -32.203  1.00  0.00     0.048 C 
HETATM   22  C   UNL     1      -4.707  -2.998 -33.787  1.00  0.00     0.013 A 
HETATM   23  C   UNL     1      -5.781  -3.049 -34.685  1.00  0.00    -0.059 A 
HETATM   24  C   UNL     1      -6.498  -1.878 -34.953  1.00  0.00     0.037 A 
HETATM   25  C   UNL     1      -6.170  -4.351 -35.321  1.00  0.00     0.048 C 
ENDBRANCH  16  18
ENDBRANCH  13  16
ENDBRANCH   1  13
BRANCH   7  26
HETATM   26  C   UNL     1      -2.610   5.796 -31.112  1.00  0.00     0.257 C 
HETATM   27  N   UNL     1      -1.546   5.004 -30.764  1.00  0.00    -0.357 N 
HETATM   28  H   UNL     1      -1.729   4.035 -30.498  1.00  0.00     0.162 HD
HETATM   29  O   UNL     1      -2.486   6.970 -31.456  1.00  0.00    -0.267 OA
BRANCH  27  30
HETATM   30  C   UNL     1      -0.178   5.470 -30.806  1.00  0.00     0.125 C 
BRANCH  30  31
HETATM   31  C   UNL     1       0.335   5.899 -29.437  1.00  0.00     0.046 C 
BRANCH  31  32
HETATM   32  C   UNL     1       0.250   7.411 -29.272  1.00  0.00     0.168 C 
BRANCH  32  33
HETATM   33  O   UNL     1       1.211   7.821 -28.301  1.00  0.00    -0.396 OA
HETATM   34  C   UNL     1       0.997   7.183 -27.049  1.00  0.00     0.201 C 
ENDBRANCH  32  33
ENDBRANCH  31  32
ENDBRANCH  30  31
ENDBRANCH  27  30
ENDBRANCH   7  26
TORSDOF 8
ENDMDL
MODEL 8
REMARK VINA RESULT:      -8.1      5.777      8.821
REMARK  8 active torsions:
REMARK  status: ('A' for Active; 'I' for Inactive)
REMARK    1  A    between atoms: C_4  and  N_5 
REMARK    2  A    between atoms: N_5  and  S_6 
REMARK    3  A    between atoms: S_6  and  C_7 
REMARK    4  A    between atoms: C_13  and  C_14 
REMARK       I    between atoms: C_14  and  N_15 
REMARK    5  A    between atoms: N_15  and  C_16 
REMARK    6  A    between atoms: C_16  and  C_17 
REMARK    7  A    between atoms: C_17  and  C_18 
REMARK    8  A    between atoms: C_18  and  O_19 
ROOT
HETATM    1  C   UNL     1     -10.322   1.920 -33.852  1.00  0.00     0.081 A 
HETATM    2  C   UNL     1      -9.897   3.220 -34.136  1.00  0.00     0.043 A 
HETATM    3  C   UNL     1     -10.816   4.139 -34.653  1.00  0.00     0.043 A 
HETATM    4  C   UNL     1     -12.157   3.775 -34.871  1.00  0.00     0.046 A 
HETATM    5  N   UNL     1     -13.044   4.698 -35.434  1.00  0.00    -0.364 N 
HETATM    6  C   UNL     1     -12.642   5.981 -35.711  1.00  0.00     0.109 A 
HETATM    7  C   UNL     1     -11.401   6.463 -35.536  1.00  0.00     0.098 A 
HETATM    8  C   UNL     1     -10.384   5.524 -34.982  1.00  0.00     0.201 A 
HETATM    9  O   UNL     1      -9.219   5.866 -34.800  1.00  0.00    -0.286 OA
HETATM   10  C   UNL     1     -12.564   2.469 -34.577  1.00  0.00     0.032 A 
HETATM   11  C   UNL     1     -11.654   1.544 -34.056  1.00  0.00     0.027 A 
HETATM   12  H   UNL     1     -14.034   4.482 -35.471  1.00  0.00     0.165 HD
ENDROOT
BRANCH   1  13
HETATM   13  S   UNL     1      -9.161   0.753 -33.172  1.00  0.00     0.263 S 
HETATM   14  O   UNL     1      -9.900  -0.422 -32.764  1.00  0.00    -0.200 OA
HETATM   15  O   UNL     1      -8.328   1.478 -32.236  1.00  0.00    -0.200 OA
BRANCH  13  16
HETATM   16  N   UNL     1      -8.178   0.389 -34.496  1.00  0.00    -0.281 N 
HETATM   17  H   UNL     1      -8.698   0.357 -35.371  1.00  0.00     0.179 HD
BRANCH  16  18
HETATM   18  C   UNL     1      -7.106  -0.530 -34.326  1.00  0.00     0.043 A 
HETATM   19  C   UNL     1      -5.899  -0.093 -33.777  1.00  0.00     0.037 A 
HETATM   20  C   UNL     1      -4.826  -0.983 -33.645  1.00  0.00    -0.059 A 
HETATM   21  C   UNL     1      -3.522  -0.539 -33.050  1.00  0.00     0.048 C 
HETATM   22  C   UNL     1      -4.988  -2.315 -34.051  1.00  0.00     0.013 A 
HETATM   23  C   UNL     1      -6.195  -2.758 -34.606  1.00  0.00    -0.059 A 
HETATM   24  C   UNL     1      -7.252  -1.852 -34.746  1.00  0.00     0.037 A 
HETATM   25  C   UNL     1      -6.356  -4.194 -35.011  1.00  0.00     0.048 C 
ENDBRANCH  16  18
ENDBRANCH  13  16
ENDBRANCH   1  13
BRANCH   7  26
HETATM   26  C   UNL     1     -11.130   7.881 -35.915  1.00  0.00     0.257 C 
HETATM   27  N   UNL     1     -10.170   8.060 -36.878  1.00  0.00    -0.357 N 
HETATM   28  H   UNL     1      -9.714   7.233 -37.269  1.00  0.00     0.162 HD
HETATM   29  O   UNL     1     -11.739   8.813 -35.396  1.00  0.00    -0.267 OA
BRANCH  27  30
HETATM   30  C   UNL     1      -9.817   9.362 -37.397  1.00  0.00     0.125 C 
BRANCH  30  31
HETATM   31  C   UNL     1     -10.546   9.691 -38.694  1.00  0.00     0.046 C 
BRANCH  31  32
HETATM   32  C   UNL     1     -11.617  10.750 -38.465  1.00  0.00     0.168 C 
BRANCH  32  33
HETATM   33  O   UNL     1     -12.894  10.179 -38.740  1.00  0.00    -0.396 OA
HETATM   34  C   UNL     1     -12.784   9.003 -39.532  1.00  0.00     0.201 C 
ENDBRANCH  32  33
ENDBRANCH  31  32
ENDBRANCH  30  31
ENDBRANCH  27  30
ENDBRANCH   7  26
TORSDOF 8
ENDMDL
MODEL 9
REMARK VINA RESULT:      -8.1      2.436      9.279
REMARK  8 active torsions:
REMARK  status: ('A' for Active; 'I' for Inactive)
REMARK    1  A    between atoms: C_4  and  N_5 
REMARK    2  A    between atoms: N_5  and  S_6 
REMARK    3  A    between atoms: S_6  and  C_7 
REMARK    4  A    between atoms: C_13  and  C_14 
REMARK       I    between atoms: C_14  and  N_15 
REMARK    5  A    between atoms: N_15  and  C_16 
REMARK    6  A    between atoms: C_16  and  C_17 
REMARK    7  A    between atoms: C_17  and  C_18 
REMARK    8  A    between atoms: C_18  and  O_19 
ROOT
HETATM    1  C   UNL     1      -1.424   5.827 -31.445  1.00  0.00     0.081 A 
HETATM    2  C   UNL     1      -2.111   4.648 -31.742  1.00  0.00     0.043 A 
HETATM    3  C   UNL     1      -3.372   4.727 -32.339  1.00  0.00     0.043 A 
HETATM    4  C   UNL     1      -3.944   5.972 -32.658  1.00  0.00     0.046 A 
HETATM    5  N   UNL     1      -5.228   6.025 -33.210  1.00  0.00    -0.364 N 
HETATM    6  C   UNL     1      -5.912   4.874 -33.513  1.00  0.00     0.109 A 
HETATM    7  C   UNL     1      -5.478   3.625 -33.277  1.00  0.00     0.098 A 
HETATM    8  C   UNL     1      -4.134   3.487 -32.646  1.00  0.00     0.201 A 
HETATM    9  O   UNL     1      -3.656   2.387 -32.377  1.00  0.00    -0.286 OA
HETATM   10  C   UNL     1      -3.238   7.142 -32.357  1.00  0.00     0.032 A 
HETATM   11  C   UNL     1      -1.974   7.073 -31.763  1.00  0.00     0.027 A 
HETATM   12  H   UNL     1      -5.587   6.907 -33.559  1.00  0.00     0.165 HD
ENDROOT
BRANCH   1  13
HETATM   13  S   UNL     1       0.194   5.731 -30.706  1.00  0.00     0.263 S 
HETATM   14  O   UNL     1       0.853   7.002 -30.913  1.00  0.00    -0.200 OA
HETATM   15  O   UNL     1       0.794   4.493 -31.155  1.00  0.00    -0.200 OA
BRANCH  13  16
HETATM   16  N   UNL     1      -0.155   5.520 -29.068  1.00  0.00    -0.281 N 
HETATM   17  H   UNL     1      -0.863   4.805 -28.909  1.00  0.00     0.179 HD
BRANCH  16  18
HETATM   18  C   UNL     1      -0.152   6.653 -28.210  1.00  0.00     0.043 A 
HETATM   19  C   UNL     1       0.992   6.960 -27.471  1.00  0.00     0.037 A 
HETATM   20  C   UNL     1       0.988   8.052 -26.594  1.00  0.00    -0.059 A 
HETATM   21  C   UNL     1       2.208   8.405 -25.795  1.00  0.00     0.048 C 
HETATM   22  C   UNL     1      -0.168   8.838 -26.484  1.00  0.00     0.013 A 
HETATM   23  C   UNL     1      -1.319   8.533 -27.221  1.00  0.00    -0.059 A 
HETATM   24  C   UNL     1      -1.304   7.430 -28.081  1.00  0.00     0.037 A 
HETATM   25  C   UNL     1      -2.537   9.403 -27.109  1.00  0.00     0.048 C 
ENDBRANCH  16  18
ENDBRANCH  13  16
ENDBRANCH   1  13
BRANCH   7  26
HETATM   26  C   UNL     1      -6.363   2.483 -33.648  1.00  0.00     0.257 C 
HETATM   27  N   UNL     1      -5.743   1.264 -33.746  1.00  0.00    -0.357 N 
HETATM   28  H   UNL     1      -4.739   1.214 -33.563  1.00  0.00     0.162 HD
HETATM   29  O   UNL     1      -7.567   2.639 -33.839  1.00  0.00    -0.267 OA
BRANCH  27  30
HETATM   30  C   UNL     1      -6.459   0.045 -34.049  1.00  0.00     0.125 C 
BRANCH  30  31
HETATM   31  C   UNL     1      -6.287  -1.016 -32.969  1.00  0.00     0.046 C 
BRANCH  31  32
HETATM   32  C   UNL     1      -5.570  -0.444 -31.752  1.00  0.00     0.168 C 
BRANCH  32  33
HETATM   33  O   UNL     1      -6.537   0.148 -30.887  1.00  0.00    -0.396 OA
HETATM   34  C   UNL     1      -5.931   1.020 -29.941  1.00  0.00     0.201 C 
ENDBRANCH  32  33
ENDBRANCH  31  32
ENDBRANCH  30  31
ENDBRANCH  27  30
ENDBRANCH   7  26
TORSDOF 8
ENDMDL
MODEL 10
REMARK VINA RESULT:      -8.0     16.851     18.736
REMARK  8 active torsions:
REMARK  status: ('A' for Active; 'I' for Inactive)
REMARK    1  A    between atoms: C_4  and  N_5 
REMARK    2  A    between atoms: N_5  and  S_6 
REMARK    3  A    between atoms: S_6  and  C_7 
REMARK    4  A    between atoms: C_13  and  C_14 
REMARK       I    between atoms: C_14  and  N_15 
REMARK    5  A    between atoms: N_15  and  C_16 
REMARK    6  A    between atoms: C_16  and  C_17 
REMARK    7  A    between atoms: C_17  and  C_18 
REMARK    8  A    between atoms: C_18  and  O_19 
ROOT
HETATM    1  C   UNL     1      -6.003 -14.886 -34.376  1.00  0.00     0.081 A 
HETATM    2  C   UNL     1      -5.110 -14.939 -33.303  1.00  0.00     0.043 A 
HETATM    3  C   UNL     1      -5.471 -15.644 -32.151  1.00  0.00     0.043 A 
HETATM    4  C   UNL     1      -6.706 -16.312 -32.070  1.00  0.00     0.046 A 
HETATM    5  N   UNL     1      -7.063 -16.970 -30.888  1.00  0.00    -0.364 N 
HETATM    6  C   UNL     1      -6.193 -17.035 -29.829  1.00  0.00     0.109 A 
HETATM    7  C   UNL     1      -4.981 -16.459 -29.780  1.00  0.00     0.098 A 
HETATM    8  C   UNL     1      -4.547 -15.698 -30.986  1.00  0.00     0.201 A 
HETATM    9  O   UNL     1      -3.462 -15.124 -31.033  1.00  0.00    -0.286 OA
HETATM   10  C   UNL     1      -7.586 -16.251 -33.156  1.00  0.00     0.032 A 
HETATM   11  C   UNL     1      -7.232 -15.551 -34.314  1.00  0.00     0.027 A 
HETATM   12  H   UNL     1      -7.890 -17.557 -30.872  1.00  0.00     0.165 HD
ENDROOT
BRANCH   1  13
HETATM   13  S   UNL     1      -5.539 -14.009 -35.854  1.00  0.00     0.263 S 
HETATM   14  O   UNL     1      -5.293 -14.986 -36.892  1.00  0.00    -0.200 OA
HETATM   15  O   UNL     1      -4.527 -13.045 -35.476  1.00  0.00    -0.200 OA
BRANCH  13  16
HETATM   16  N   UNL     1      -6.928 -13.119 -36.213  1.00  0.00    -0.281 N 
HETATM   17  H   UNL     1      -7.661 -13.241 -35.516  1.00  0.00     0.179 HD
BRANCH  16  18
HETATM   18  C   UNL     1      -7.321 -12.971 -37.571  1.00  0.00     0.043 A 
HETATM   19  C   UNL     1      -8.609 -13.341 -37.964  1.00  0.00     0.037 A 
HETATM   20  C   UNL     1      -8.989 -13.237 -39.307  1.00  0.00    -0.059 A 
HETATM   21  C   UNL     1     -10.370 -13.622 -39.752  1.00  0.00     0.048 C 
HETATM   22  C   UNL     1      -8.071 -12.739 -40.242  1.00  0.00     0.013 A 
HETATM   23  C   UNL     1      -6.777 -12.368 -39.854  1.00  0.00    -0.059 A 
HETATM   24  C   UNL     1      -6.408 -12.495 -38.510  1.00  0.00     0.037 A 
HETATM   25  C   UNL     1      -5.817 -11.814 -40.866  1.00  0.00     0.048 C 
ENDBRANCH  16  18
ENDBRANCH  13  16
ENDBRANCH   1  13
BRANCH   7  26
HETATM   26  C   UNL     1      -4.173 -16.609 -28.535  1.00  0.00     0.257 C 
HETATM   27  N   UNL     1      -2.942 -17.192 -28.698  1.00  0.00    -0.357 N 
HETATM   28  H   UNL     1      -2.661 -17.477 -29.638  1.00  0.00     0.162 HD
HETATM   29  O   UNL     1      -4.591 -16.224 -27.445  1.00  0.00    -0.267 OA
BRANCH  27  30
HETATM   30  C   UNL     1      -2.011 -17.371 -27.607  1.00  0.00     0.125 C 
BRANCH  30  31
HETATM   31  C   UNL     1      -0.722 -16.582 -27.804  1.00  0.00     0.046 C 
BRANCH  31  32
HETATM   32  C   UNL     1      -0.739 -15.832 -29.130  1.00  0.00     0.168 C 
BRANCH  32  33
HETATM   33  O   UNL     1      -1.048 -14.462 -28.878  1.00  0.00    -0.396 OA
HETATM   34  C   UNL     1       0.104 -13.636 -28.990  1.00  0.00     0.201 C 
ENDBRANCH  32  33
ENDBRANCH  31  32
ENDBRANCH  30  31
ENDBRANCH  27  30
ENDBRANCH   7  26
TORSDOF 8
ENDMDL
