MODEL 1
REMARK VINA RESULT:      -9.0      0.000      0.000
REMARK  9 active torsions:
REMARK  status: ('A' for Active; 'I' for Inactive)
REMARK    1  A    between atoms: C_2  and  O_3 
REMARK    2  A    between atoms: O_3  and  C_4 
REMARK    3  A    between atoms: C_6  and  C_7 
REMARK       I    between atoms: C_7  and  N_8 
REMARK    4  A    between atoms: N_8  and  C_9 
REMARK    5  A    between atoms: C_9  and  N_10 
REMARK    6  A    between atoms: N_10  and  C_11 
REMARK    7  A    between atoms: C_14  and  N_15 
REMARK    8  A    between atoms: N_18  and  C_20 
REMARK    9  A    between atoms: C_20  and  C_21 
ROOT
HETATM    1  C   UNL     1      -8.758   3.764 -33.315  1.00  0.00     0.034 A 
HETATM    2  C   UNL     1      -8.926   3.704 -31.932  1.00  0.00     0.032 A 
HETATM    3  C   UNL     1      -7.827   3.811 -31.068  1.00  0.00     0.031 A 
HETATM    4  C   UNL     1      -6.520   4.005 -31.538  1.00  0.00     0.030 A 
HETATM    5  C   UNL     1      -6.383   4.097 -32.933  1.00  0.00     0.031 A 
HETATM    6  C   UNL     1      -7.478   3.976 -33.811  1.00  0.00     0.032 A 
ENDROOT
BRANCH   1   7
HETATM    7  N   UNL     1      -9.894   3.478 -34.109  1.00  0.00    -0.333 N 
HETATM    8  H   UNL     1     -10.631   4.168 -34.008  1.00  0.00     0.168 HD
BRANCH   7   9
HETATM    9  C   UNL     1     -10.371   2.270 -34.478  1.00  0.00     0.179 C 
HETATM   10  S   UNL     1     -11.974   2.151 -34.952  1.00  0.00    -0.040 SA
BRANCH   9  11
HETATM   11  N   UNL     1      -9.606   1.150 -34.556  1.00  0.00    -0.299 N 
HETATM   12  C   UNL     1      -9.344   0.283 -33.498  1.00  0.00     0.257 C 
HETATM   13  O   UNL     1     -10.200  -0.159 -32.737  1.00  0.00    -0.267 OA
HETATM   14  H   UNL     1      -8.827   1.345 -35.164  1.00  0.00     0.171 HD
BRANCH  12  15
HETATM   15  C   UNL     1      -7.926  -0.204 -33.351  1.00  0.00     0.035 A 
HETATM   16  C   UNL     1      -7.340  -1.183 -34.167  1.00  0.00     0.053 A 
HETATM   17  C   UNL     1      -6.010  -1.578 -33.976  1.00  0.00     0.070 A 
HETATM   18  C   UNL     1      -5.234  -0.966 -32.997  1.00  0.00     0.037 A 
HETATM   19  C   UNL     1      -5.798   0.015 -32.182  1.00  0.00     0.004 A 
HETATM   20  C   UNL     1      -7.135   0.388 -32.353  1.00  0.00     0.017 A 
BRANCH  17  21
HETATM   21  O   UNL     1      -5.554  -2.522 -34.854  1.00  0.00    -0.347 OA
BRANCH  21  22
HETATM   22  C   UNL     1      -5.626  -3.890 -34.430  1.00  0.00     0.120 C 
HETATM   23  C   UNL     1      -4.214  -4.417 -34.204  1.00  0.00     0.040 C 
HETATM   24  C   UNL     1      -6.306  -4.666 -35.556  1.00  0.00     0.040 C 
ENDBRANCH  21  22
ENDBRANCH  17  21
ENDBRANCH  12  15
ENDBRANCH   9  11
ENDBRANCH   7   9
ENDBRANCH   1   7
BRANCH   4  25
HETATM   25  N   UNL     1      -5.440   4.028 -30.662  1.00  0.00    -0.378 N 
HETATM   26  C   UNL     1      -5.308   5.126 -29.683  1.00  0.00     0.150 C 
HETATM   27  C   UNL     1      -4.277   6.164 -30.175  1.00  0.00     0.255 C 
HETATM   28  N   UNL     1      -2.943   5.485 -30.493  1.00  0.00    -0.064 N 
HETATM   29  H   UNL     1      -2.611   5.044 -29.622  1.00  0.00     0.280 HD
HETATM   30  C   UNL     1      -3.133   4.356 -31.505  1.00  0.00     0.255 C 
HETATM   31  C   UNL     1      -4.173   3.347 -30.977  1.00  0.00     0.150 C 
BRANCH  28  32
HETATM   32  C   UNL     1      -1.871   6.459 -30.910  1.00  0.00     0.276 C 
BRANCH  32  33
HETATM   33  C   UNL     1      -0.947   6.859 -29.796  1.00  0.00     0.006 A 
HETATM   34  C   UNL     1      -0.010   5.946 -29.302  1.00  0.00     0.124 A 
HETATM   35  F   UNL     1       0.000   4.699 -29.798  1.00  0.00    -0.206 F 
HETATM   36  C   UNL     1       0.881   6.283 -28.290  1.00  0.00     0.043 A 
HETATM   37  C   UNL     1       0.848   7.568 -27.756  1.00  0.00     0.003 A 
HETATM   38  C   UNL     1      -0.072   8.500 -28.238  1.00  0.00     0.001 A 
HETATM   39  C   UNL     1      -0.966   8.152 -29.255  1.00  0.00     0.012 A 
ENDBRANCH  32  33
ENDBRANCH  28  32
ENDBRANCH   4  25
TORSDOF 9
ENDMDL
MODEL 2
REMARK VINA RESULT:      -9.0      3.392      8.732
REMARK  9 active torsions:
REMARK  status: ('A' for Active; 'I' for Inactive)
REMARK    1  A    between atoms: C_2  and  O_3 
REMARK    2  A    between atoms: O_3  and  C_4 
REMARK    3  A    between atoms: C_6  and  C_7 
REMARK       I    between atoms: C_7  and  N_8 
REMARK    4  A    between atoms: N_8  and  C_9 
REMARK    5  A    between atoms: C_9  and  N_10 
REMARK    6  A    between atoms: N_10  and  C_11 
REMARK    7  A    between atoms: C_14  and  N_15 
REMARK    8  A    between atoms: N_18  and  C_20 
REMARK    9  A    between atoms: C_20  and  C_21 
ROOT
HETATM    1  C   UNL     1      -7.047   5.126 -30.180  1.00  0.00     0.034 A 
HETATM    2  C   UNL     1      -8.245   4.739 -30.781  1.00  0.00     0.032 A 
HETATM    3  C   UNL     1      -8.513   3.388 -31.045  1.00  0.00     0.031 A 
HETATM    4  C   UNL     1      -7.617   2.365 -30.704  1.00  0.00     0.030 A 
HETATM    5  C   UNL     1      -6.434   2.779 -30.070  1.00  0.00     0.031 A 
HETATM    6  C   UNL     1      -6.147   4.134 -29.813  1.00  0.00     0.032 A 
ENDROOT
BRANCH   1   7
HETATM    7  N   UNL     1      -6.791   6.516 -30.108  1.00  0.00    -0.333 N 
HETATM    8  H   UNL     1      -7.189   6.950 -29.281  1.00  0.00     0.168 HD
BRANCH   7   9
HETATM    9  C   UNL     1      -6.646   7.392 -31.125  1.00  0.00     0.179 C 
HETATM   10  S   UNL     1      -7.650   8.732 -31.180  1.00  0.00    -0.040 SA
BRANCH   9  11
HETATM   11  N   UNL     1      -5.680   7.289 -32.075  1.00  0.00    -0.299 N 
HETATM   12  C   UNL     1      -5.494   6.192 -32.911  1.00  0.00     0.257 C 
HETATM   13  O   UNL     1      -6.394   5.634 -33.534  1.00  0.00    -0.267 OA
HETATM   14  H   UNL     1      -4.841   7.712 -31.715  1.00  0.00     0.171 HD
BRANCH  12  15
HETATM   15  C   UNL     1      -4.075   5.731 -33.125  1.00  0.00     0.035 A 
HETATM   16  C   UNL     1      -3.195   5.381 -32.090  1.00  0.00     0.053 A 
HETATM   17  C   UNL     1      -1.893   4.949 -32.368  1.00  0.00     0.070 A 
HETATM   18  C   UNL     1      -1.467   4.819 -33.686  1.00  0.00     0.037 A 
HETATM   19  C   UNL     1      -2.330   5.155 -34.727  1.00  0.00     0.004 A 
HETATM   20  C   UNL     1      -3.622   5.614 -34.449  1.00  0.00     0.017 A 
BRANCH  17  21
HETATM   21  O   UNL     1      -1.147   4.615 -31.272  1.00  0.00    -0.347 OA
BRANCH  21  22
HETATM   22  C   UNL     1      -0.620   5.697 -30.491  1.00  0.00     0.120 C 
HETATM   23  C   UNL     1       0.028   6.714 -31.423  1.00  0.00     0.040 C 
HETATM   24  C   UNL     1       0.426   5.098 -29.553  1.00  0.00     0.040 C 
ENDBRANCH  21  22
ENDBRANCH  17  21
ENDBRANCH  12  15
ENDBRANCH   9  11
ENDBRANCH   7   9
ENDBRANCH   1   7
BRANCH   4  25
HETATM   25  N   UNL     1      -7.874   1.042 -31.051  1.00  0.00    -0.378 N 
HETATM   26  C   UNL     1      -6.827   0.016 -30.867  1.00  0.00     0.150 C 
HETATM   27  C   UNL     1      -6.141  -0.299 -32.214  1.00  0.00     0.255 C 
HETATM   28  N   UNL     1      -7.181  -0.689 -33.266  1.00  0.00    -0.064 N 
HETATM   29  H   UNL     1      -7.670  -1.526 -32.915  1.00  0.00     0.280 HD
HETATM   30  C   UNL     1      -8.242   0.402 -33.415  1.00  0.00     0.255 C 
HETATM   31  C   UNL     1      -8.896   0.688 -32.048  1.00  0.00     0.150 C 
BRANCH  28  32
HETATM   32  C   UNL     1      -6.566  -1.080 -34.586  1.00  0.00     0.276 C 
BRANCH  32  33
HETATM   33  C   UNL     1      -5.982  -2.462 -34.597  1.00  0.00     0.006 A 
HETATM   34  C   UNL     1      -4.631  -2.653 -34.287  1.00  0.00     0.124 A 
HETATM   35  F   UNL     1      -3.865  -1.578 -34.043  1.00  0.00    -0.206 F 
HETATM   36  C   UNL     1      -4.056  -3.918 -34.260  1.00  0.00     0.043 A 
HETATM   37  C   UNL     1      -4.845  -5.030 -34.542  1.00  0.00     0.003 A 
HETATM   38  C   UNL     1      -6.197  -4.865 -34.847  1.00  0.00     0.001 A 
HETATM   39  C   UNL     1      -6.767  -3.589 -34.872  1.00  0.00     0.012 A 
ENDBRANCH  32  33
ENDBRANCH  28  32
ENDBRANCH   4  25
TORSDOF 9
ENDMDL
MODEL 3
REMARK VINA RESULT:      -8.8      4.111      9.351
REMARK  9 active torsions:
REMARK  status: ('A' for Active; 'I' for Inactive)
REMARK    1  A    between atoms: C_2  and  O_3 
REMARK    2  A    between atoms: O_3  and  C_4 
REMARK    3  A    between atoms: C_6  and  C_7 
REMARK       I    between atoms: C_7  and  N_8 
REMARK    4  A    between atoms: N_8  and  C_9 
REMARK    5  A    between atoms: C_9  and  N_10 
REMARK    6  A    between atoms: N_10  and  C_11 
REMARK    7  A    between atoms: C_14  and  N_15 
REMARK    8  A    between atoms: N_18  and  C_20 
REMARK    9  A    between atoms: C_20  and  C_21 
ROOT
HETATM    1  C   UNL     1      -6.096   5.670 -29.690  1.00  0.00     0.034 A 
HETATM    2  C   UNL     1      -7.259   5.033 -29.258  1.00  0.00     0.032 A 
HETATM    3  C   UNL     1      -7.519   3.698 -29.603  1.00  0.00     0.031 A 
HETATM    4  C   UNL     1      -6.627   2.935 -30.369  1.00  0.00     0.030 A 
HETATM    5  C   UNL     1      -5.448   3.589 -30.762  1.00  0.00     0.031 A 
HETATM    6  C   UNL     1      -5.184   4.934 -30.435  1.00  0.00     0.032 A 
ENDROOT
BRANCH   1   7
HETATM    7  N   UNL     1      -6.000   7.059 -29.439  1.00  0.00    -0.333 N 
HETATM    8  H   UNL     1      -6.083   7.620 -30.281  1.00  0.00     0.168 HD
BRANCH   7   9
HETATM    9  C   UNL     1      -5.292   7.686 -28.475  1.00  0.00     0.179 C 
HETATM   10  S   UNL     1      -6.087   8.766 -27.470  1.00  0.00    -0.040 SA
BRANCH   9  11
HETATM   11  N   UNL     1      -3.980   7.440 -28.225  1.00  0.00    -0.299 N 
HETATM   12  C   UNL     1      -2.913   7.996 -28.925  1.00  0.00     0.257 C 
HETATM   13  O   UNL     1      -2.805   9.190 -29.190  1.00  0.00    -0.267 OA
HETATM   14  H   UNL     1      -3.885   6.467 -27.983  1.00  0.00     0.171 HD
BRANCH  12  15
HETATM   15  C   UNL     1      -1.782   7.070 -29.292  1.00  0.00     0.035 A 
HETATM   16  C   UNL     1      -1.730   6.319 -30.475  1.00  0.00     0.053 A 
HETATM   17  C   UNL     1      -0.638   5.487 -30.753  1.00  0.00     0.070 A 
HETATM   18  C   UNL     1       0.437   5.430 -29.873  1.00  0.00     0.037 A 
HETATM   19  C   UNL     1       0.406   6.176 -28.695  1.00  0.00     0.004 A 
HETATM   20  C   UNL     1      -0.697   6.984 -28.404  1.00  0.00     0.017 A 
BRANCH  17  21
HETATM   21  O   UNL     1      -0.700   4.830 -31.951  1.00  0.00    -0.347 OA
BRANCH  21  22
HETATM   22  C   UNL     1      -1.767   5.197 -32.837  1.00  0.00     0.120 C 
HETATM   23  C   UNL     1      -2.622   3.968 -33.123  1.00  0.00     0.040 C 
HETATM   24  C   UNL     1      -1.117   5.700 -34.125  1.00  0.00     0.040 C 
ENDBRANCH  21  22
ENDBRANCH  17  21
ENDBRANCH  12  15
ENDBRANCH   9  11
ENDBRANCH   7   9
ENDBRANCH   1   7
BRANCH   4  25
HETATM   25  N   UNL     1      -6.948   1.639 -30.763  1.00  0.00    -0.378 N 
HETATM   26  C   UNL     1      -6.125   0.503 -30.299  1.00  0.00     0.150 C 
HETATM   27  C   UNL     1      -5.152   0.054 -31.410  1.00  0.00     0.255 C 
HETATM   28  N   UNL     1      -5.917  -0.251 -32.700  1.00  0.00    -0.064 N 
HETATM   29  H   UNL     1      -6.582  -1.008 -32.487  1.00  0.00     0.280 HD
HETATM   30  C   UNL     1      -6.754   0.952 -33.136  1.00  0.00     0.255 C 
HETATM   31  C   UNL     1      -7.705   1.370 -31.996  1.00  0.00     0.150 C 
BRANCH  28  32
HETATM   32  C   UNL     1      -5.028  -0.765 -33.804  1.00  0.00     0.276 C 
BRANCH  32  33
HETATM   33  C   UNL     1      -5.219  -2.222 -34.107  1.00  0.00     0.006 A 
HETATM   34  C   UNL     1      -6.427  -2.671 -34.651  1.00  0.00     0.124 A 
HETATM   35  F   UNL     1      -7.422  -1.789 -34.833  1.00  0.00    -0.206 F 
HETATM   36  C   UNL     1      -6.636  -4.007 -34.972  1.00  0.00     0.043 A 
HETATM   37  C   UNL     1      -5.614  -4.927 -34.754  1.00  0.00     0.003 A 
HETATM   38  C   UNL     1      -4.396  -4.501 -34.220  1.00  0.00     0.001 A 
HETATM   39  C   UNL     1      -4.195  -3.156 -33.900  1.00  0.00     0.012 A 
ENDBRANCH  32  33
ENDBRANCH  28  32
ENDBRANCH   4  25
TORSDOF 9
ENDMDL
MODEL 4
REMARK VINA RESULT:      -8.6      1.579      2.329
REMARK  9 active torsions:
REMARK  status: ('A' for Active; 'I' for Inactive)
REMARK    1  A    between atoms: C_2  and  O_3 
REMARK    2  A    between atoms: O_3  and  C_4 
REMARK    3  A    between atoms: C_6  and  C_7 
REMARK       I    between atoms: C_7  and  N_8 
REMARK    4  A    between atoms: N_8  and  C_9 
REMARK    5  A    between atoms: C_9  and  N_10 
REMARK    6  A    between atoms: N_10  and  C_11 
REMARK    7  A    between atoms: C_14  and  N_15 
REMARK    8  A    between atoms: N_18  and  C_20 
REMARK    9  A    between atoms: C_20  and  C_21 
ROOT
HETATM    1  C   UNL     1      -9.238   4.198 -33.171  1.00  0.00     0.034 A 
HETATM    2  C   UNL     1      -8.996   3.722 -31.882  1.00  0.00     0.032 A 
HETATM    3  C   UNL     1      -7.700   3.724 -31.346  1.00  0.00     0.031 A 
HETATM    4  C   UNL     1      -6.596   4.218 -32.056  1.00  0.00     0.030 A 
HETATM    5  C   UNL     1      -6.873   4.722 -33.338  1.00  0.00     0.031 A 
HETATM    6  C   UNL     1      -8.168   4.711 -33.892  1.00  0.00     0.032 A 
ENDROOT
BRANCH   1   7
HETATM    7  N   UNL     1     -10.540   4.001 -33.689  1.00  0.00    -0.333 N 
HETATM    8  H   UNL     1     -11.260   4.447 -33.129  1.00  0.00     0.168 HD
BRANCH   7   9
HETATM    9  C   UNL     1     -11.012   2.941 -34.379  1.00  0.00     0.179 C 
HETATM   10  S   UNL     1     -12.591   2.985 -34.938  1.00  0.00    -0.040 SA
BRANCH   9  11
HETATM   11  N   UNL     1     -10.257   1.862 -34.711  1.00  0.00    -0.299 N 
HETATM   12  C   UNL     1      -9.968   0.795 -33.865  1.00  0.00     0.257 C 
HETATM   13  O   UNL     1     -10.804   0.203 -33.186  1.00  0.00    -0.267 OA
HETATM   14  H   UNL     1      -9.496   2.179 -35.289  1.00  0.00     0.171 HD
BRANCH  12  15
HETATM   15  C   UNL     1      -8.549   0.287 -33.866  1.00  0.00     0.035 A 
HETATM   16  C   UNL     1      -7.791   0.065 -32.707  1.00  0.00     0.053 A 
HETATM   17  C   UNL     1      -6.480  -0.419 -32.787  1.00  0.00     0.070 A 
HETATM   18  C   UNL     1      -5.925  -0.731 -34.024  1.00  0.00     0.037 A 
HETATM   19  C   UNL     1      -6.668  -0.524 -35.186  1.00  0.00     0.004 A 
HETATM   20  C   UNL     1      -7.967  -0.013 -35.108  1.00  0.00     0.017 A 
BRANCH  17  21
HETATM   21  O   UNL     1      -5.860  -0.615 -31.584  1.00  0.00    -0.347 OA
BRANCH  21  22
HETATM   22  C   UNL     1      -5.123   0.492 -31.046  1.00  0.00     0.120 C 
HETATM   23  C   UNL     1      -3.653   0.105 -30.933  1.00  0.00     0.040 C 
HETATM   24  C   UNL     1      -5.702   0.777 -29.662  1.00  0.00     0.040 C 
ENDBRANCH  21  22
ENDBRANCH  17  21
ENDBRANCH  12  15
ENDBRANCH   9  11
ENDBRANCH   7   9
ENDBRANCH   1   7
BRANCH   4  25
HETATM   25  N   UNL     1      -5.310   4.133 -31.531  1.00  0.00    -0.378 N 
HETATM   26  C   UNL     1      -4.997   4.783 -30.241  1.00  0.00     0.150 C 
HETATM   27  C   UNL     1      -4.264   6.120 -30.478  1.00  0.00     0.255 C 
HETATM   28  N   UNL     1      -3.027   5.906 -31.353  1.00  0.00    -0.064 N 
HETATM   29  H   UNL     1      -2.410   5.249 -30.852  1.00  0.00     0.280 HD
HETATM   30  C   UNL     1      -3.403   5.229 -32.671  1.00  0.00     0.255 C 
HETATM   31  C   UNL     1      -4.137   3.902 -32.389  1.00  0.00     0.150 C 
BRANCH  28  32
HETATM   32  C   UNL     1      -2.226   7.165 -31.560  1.00  0.00     0.276 C 
BRANCH  32  33
HETATM   33  C   UNL     1      -1.378   7.546 -30.381  1.00  0.00     0.006 A 
HETATM   34  C   UNL     1      -0.154   6.905 -30.163  1.00  0.00     0.124 A 
HETATM   35  F   UNL     1       0.211   5.911 -30.987  1.00  0.00    -0.206 F 
HETATM   36  C   UNL     1       0.673   7.246 -29.100  1.00  0.00     0.043 A 
HETATM   37  C   UNL     1       0.280   8.257 -28.229  1.00  0.00     0.003 A 
HETATM   38  C   UNL     1      -0.934   8.917 -28.430  1.00  0.00     0.001 A 
HETATM   39  C   UNL     1      -1.760   8.568 -29.502  1.00  0.00     0.012 A 
ENDBRANCH  32  33
ENDBRANCH  28  32
ENDBRANCH   4  25
TORSDOF 9
ENDMDL
MODEL 5
REMARK VINA RESULT:      -8.6      3.872      9.861
REMARK  9 active torsions:
REMARK  status: ('A' for Active; 'I' for Inactive)
REMARK    1  A    between atoms: C_2  and  O_3 
REMARK    2  A    between atoms: O_3  and  C_4 
REMARK    3  A    between atoms: C_6  and  C_7 
REMARK       I    between atoms: C_7  and  N_8 
REMARK    4  A    between atoms: N_8  and  C_9 
REMARK    5  A    between atoms: C_9  and  N_10 
REMARK    6  A    between atoms: N_10  and  C_11 
REMARK    7  A    between atoms: C_14  and  N_15 
REMARK    8  A    between atoms: N_18  and  C_20 
REMARK    9  A    between atoms: C_20  and  C_21 
ROOT
HETATM    1  C   UNL     1      -6.721   5.257 -30.024  1.00  0.00     0.034 A 
HETATM    2  C   UNL     1      -7.915   4.975 -30.687  1.00  0.00     0.032 A 
HETATM    3  C   UNL     1      -8.272   3.655 -30.997  1.00  0.00     0.031 A 
HETATM    4  C   UNL     1      -7.472   2.559 -30.641  1.00  0.00     0.030 A 
HETATM    5  C   UNL     1      -6.293   2.868 -29.943  1.00  0.00     0.031 A 
HETATM    6  C   UNL     1      -5.917   4.192 -29.641  1.00  0.00     0.032 A 
ENDROOT
BRANCH   1   7
HETATM    7  N   UNL     1      -6.365   6.621 -29.906  1.00  0.00    -0.333 N 
HETATM    8  H   UNL     1      -6.632   7.172 -30.716  1.00  0.00     0.168 HD
BRANCH   7   9
HETATM    9  C   UNL     1      -5.313   7.155 -29.249  1.00  0.00     0.179 C 
HETATM   10  S   UNL     1      -5.408   7.328 -27.586  1.00  0.00    -0.040 SA
BRANCH   9  11
HETATM   11  N   UNL     1      -4.145   7.499 -29.853  1.00  0.00    -0.299 N 
HETATM   12  C   UNL     1      -3.571   6.828 -30.929  1.00  0.00     0.257 C 
HETATM   13  O   UNL     1      -4.181   6.490 -31.939  1.00  0.00    -0.267 OA
HETATM   14  H   UNL     1      -3.505   7.811 -29.140  1.00  0.00     0.171 HD
BRANCH  12  15
HETATM   15  C   UNL     1      -2.084   6.591 -30.871  1.00  0.00     0.035 A 
HETATM   16  C   UNL     1      -1.200   7.327 -30.068  1.00  0.00     0.053 A 
HETATM   17  C   UNL     1       0.171   7.041 -30.059  1.00  0.00     0.070 A 
HETATM   18  C   UNL     1       0.669   5.986 -30.817  1.00  0.00     0.037 A 
HETATM   19  C   UNL     1      -0.197   5.240 -31.615  1.00  0.00     0.004 A 
HETATM   20  C   UNL     1      -1.561   5.544 -31.646  1.00  0.00     0.017 A 
BRANCH  17  21
HETATM   21  O   UNL     1       0.919   7.815 -29.215  1.00  0.00    -0.347 OA
BRANCH  21  22
HETATM   22  C   UNL     1       0.415   7.996 -27.884  1.00  0.00     0.120 C 
HETATM   23  C   UNL     1       1.018   9.264 -27.291  1.00  0.00     0.040 C 
HETATM   24  C   UNL     1       0.852   6.775 -27.077  1.00  0.00     0.040 C 
ENDBRANCH  21  22
ENDBRANCH  17  21
ENDBRANCH  12  15
ENDBRANCH   9  11
ENDBRANCH   7   9
ENDBRANCH   1   7
BRANCH   4  25
HETATM   25  N   UNL     1      -7.812   1.267 -31.031  1.00  0.00    -0.378 N 
HETATM   26  C   UNL     1      -6.854   0.161 -30.828  1.00  0.00     0.150 C 
HETATM   27  C   UNL     1      -6.134  -0.176 -32.151  1.00  0.00     0.255 C 
HETATM   28  N   UNL     1      -7.152  -0.463 -33.257  1.00  0.00    -0.064 N 
HETATM   29  H   UNL     1      -7.717  -1.268 -32.948  1.00  0.00     0.280 HD
HETATM   30  C   UNL     1      -8.120   0.708 -33.424  1.00  0.00     0.255 C 
HETATM   31  C   UNL     1      -8.812   1.013 -32.080  1.00  0.00     0.150 C 
BRANCH  28  32
HETATM   32  C   UNL     1      -6.509  -0.871 -34.558  1.00  0.00     0.276 C 
BRANCH  32  33
HETATM   33  C   UNL     1      -6.004  -2.284 -34.569  1.00  0.00     0.006 A 
HETATM   34  C   UNL     1      -4.667  -2.552 -34.253  1.00  0.00     0.124 A 
HETATM   35  F   UNL     1      -3.843  -1.522 -34.005  1.00  0.00    -0.206 F 
HETATM   36  C   UNL     1      -4.165  -3.847 -34.225  1.00  0.00     0.043 A 
HETATM   37  C   UNL     1      -5.015  -4.912 -34.512  1.00  0.00     0.003 A 
HETATM   38  C   UNL     1      -6.354  -4.671 -34.822  1.00  0.00     0.001 A 
HETATM   39  C   UNL     1      -6.851  -3.365 -34.848  1.00  0.00     0.012 A 
ENDBRANCH  32  33
ENDBRANCH  28  32
ENDBRANCH   4  25
TORSDOF 9
ENDMDL
MODEL 6
REMARK VINA RESULT:      -8.6      1.672      2.818
REMARK  9 active torsions:
REMARK  status: ('A' for Active; 'I' for Inactive)
REMARK    1  A    between atoms: C_2  and  O_3 
REMARK    2  A    between atoms: O_3  and  C_4 
REMARK    3  A    between atoms: C_6  and  C_7 
REMARK       I    between atoms: C_7  and  N_8 
REMARK    4  A    between atoms: N_8  and  C_9 
REMARK    5  A    between atoms: C_9  and  N_10 
REMARK    6  A    between atoms: N_10  and  C_11 
REMARK    7  A    between atoms: C_14  and  N_15 
REMARK    8  A    between atoms: N_18  and  C_20 
REMARK    9  A    between atoms: C_20  and  C_21 
ROOT
HETATM    1  C   UNL     1      -6.151   4.290 -32.351  1.00  0.00     0.034 A 
HETATM    2  C   UNL     1      -5.870   5.499 -32.987  1.00  0.00     0.032 A 
HETATM    3  C   UNL     1      -4.602   6.089 -32.886  1.00  0.00     0.031 A 
HETATM    4  C   UNL     1      -3.553   5.492 -32.170  1.00  0.00     0.030 A 
HETATM    5  C   UNL     1      -3.852   4.259 -31.568  1.00  0.00     0.031 A 
HETATM    6  C   UNL     1      -5.127   3.666 -31.651  1.00  0.00     0.032 A 
ENDROOT
BRANCH   1   7
HETATM    7  N   UNL     1      -7.498   3.859 -32.368  1.00  0.00    -0.333 N 
HETATM    8  H   UNL     1      -7.884   3.730 -31.437  1.00  0.00     0.168 HD
BRANCH   7   9
HETATM    9  C   UNL     1      -8.118   3.090 -33.288  1.00  0.00     0.179 C 
HETATM   10  S   UNL     1      -9.479   3.695 -34.055  1.00  0.00    -0.040 SA
BRANCH   9  11
HETATM   11  N   UNL     1      -7.660   1.874 -33.684  1.00  0.00    -0.299 N 
HETATM   12  C   UNL     1      -7.678   0.719 -32.907  1.00  0.00     0.257 C 
HETATM   13  O   UNL     1      -8.654   0.325 -32.275  1.00  0.00    -0.267 OA
HETATM   14  H   UNL     1      -6.829   2.017 -34.235  1.00  0.00     0.171 HD
BRANCH  12  15
HETATM   15  C   UNL     1      -6.439  -0.139 -32.931  1.00  0.00     0.035 A 
HETATM   16  C   UNL     1      -6.229  -1.195 -33.829  1.00  0.00     0.053 A 
HETATM   17  C   UNL     1      -5.045  -1.942 -33.798  1.00  0.00     0.070 A 
HETATM   18  C   UNL     1      -4.036  -1.613 -32.899  1.00  0.00     0.037 A 
HETATM   19  C   UNL     1      -4.225  -0.561 -32.003  1.00  0.00     0.004 A 
HETATM   20  C   UNL     1      -5.419   0.167 -32.015  1.00  0.00     0.017 A 
BRANCH  17  21
HETATM   21  O   UNL     1      -4.955  -2.927 -34.742  1.00  0.00    -0.347 OA
BRANCH  21  22
HETATM   22  C   UNL     1      -5.552  -4.191 -34.419  1.00  0.00     0.120 C 
HETATM   23  C   UNL     1      -4.449  -5.209 -34.154  1.00  0.00     0.040 C 
HETATM   24  C   UNL     1      -6.379  -4.611 -35.633  1.00  0.00     0.040 C 
ENDBRANCH  21  22
ENDBRANCH  17  21
ENDBRANCH  12  15
ENDBRANCH   9  11
ENDBRANCH   7   9
ENDBRANCH   1   7
BRANCH   4  25
HETATM   25  N   UNL     1      -2.330   6.138 -32.020  1.00  0.00    -0.378 N 
HETATM   26  C   UNL     1      -1.073   5.405 -32.277  1.00  0.00     0.150 C 
HETATM   27  C   UNL     1      -0.427   4.964 -30.947  1.00  0.00     0.255 C 
HETATM   28  N   UNL     1      -0.237   6.167 -30.019  1.00  0.00    -0.064 N 
HETATM   29  H   UNL     1       0.380   6.833 -30.508  1.00  0.00     0.280 HD
HETATM   30  C   UNL     1      -1.562   6.892 -29.788  1.00  0.00     0.255 C 
HETATM   31  C   UNL     1      -2.175   7.309 -31.141  1.00  0.00     0.150 C 
BRANCH  28  32
HETATM   32  C   UNL     1       0.459   5.812 -28.730  1.00  0.00     0.276 C 
BRANCH  32  33
HETATM   33  C   UNL     1       0.703   6.988 -27.829  1.00  0.00     0.006 A 
HETATM   34  C   UNL     1       0.325   6.928 -26.483  1.00  0.00     0.124 A 
HETATM   35  F   UNL     1      -0.311   5.833 -26.038  1.00  0.00    -0.206 F 
HETATM   36  C   UNL     1       0.556   7.982 -25.608  1.00  0.00     0.043 A 
HETATM   37  C   UNL     1       1.189   9.130 -26.079  1.00  0.00     0.003 A 
HETATM   38  C   UNL     1       1.583   9.210 -27.415  1.00  0.00     0.001 A 
HETATM   39  C   UNL     1       1.345   8.145 -28.289  1.00  0.00     0.012 A 
ENDBRANCH  32  33
ENDBRANCH  28  32
ENDBRANCH   4  25
TORSDOF 9
ENDMDL
MODEL 7
REMARK VINA RESULT:      -8.4      4.240      9.303
REMARK  9 active torsions:
REMARK  status: ('A' for Active; 'I' for Inactive)
REMARK    1  A    between atoms: C_2  and  O_3 
REMARK    2  A    between atoms: O_3  and  C_4 
REMARK    3  A    between atoms: C_6  and  C_7 
REMARK       I    between atoms: C_7  and  N_8 
REMARK    4  A    between atoms: N_8  and  C_9 
REMARK    5  A    between atoms: C_9  and  N_10 
REMARK    6  A    between atoms: N_10  and  C_11 
REMARK    7  A    between atoms: C_14  and  N_15 
REMARK    8  A    between atoms: N_18  and  C_20 
REMARK    9  A    between atoms: C_20  and  C_21 
ROOT
HETATM    1  C   UNL     1      -5.055   6.768 -29.208  1.00  0.00     0.034 A 
HETATM    2  C   UNL     1      -5.627   5.625 -28.650  1.00  0.00     0.032 A 
HETATM    3  C   UNL     1      -6.133   4.602 -29.465  1.00  0.00     0.031 A 
HETATM    4  C   UNL     1      -6.072   4.660 -30.866  1.00  0.00     0.030 A 
HETATM    5  C   UNL     1      -5.460   5.805 -31.401  1.00  0.00     0.031 A 
HETATM    6  C   UNL     1      -4.962   6.845 -30.591  1.00  0.00     0.032 A 
ENDROOT
BRANCH   1   7
HETATM    7  N   UNL     1      -4.728   7.817 -28.317  1.00  0.00    -0.333 N 
HETATM    8  H   UNL     1      -4.964   8.734 -28.682  1.00  0.00     0.168 HD
BRANCH   7   9
HETATM    9  C   UNL     1      -3.719   7.867 -27.421  1.00  0.00     0.179 C 
HETATM   10  S   UNL     1      -3.916   8.796 -26.041  1.00  0.00    -0.040 SA
BRANCH   9  11
HETATM   11  N   UNL     1      -2.572   7.149 -27.539  1.00  0.00    -0.299 N 
HETATM   12  C   UNL     1      -1.393   7.610 -28.118  1.00  0.00     0.257 C 
HETATM   13  O   UNL     1      -0.878   8.697 -27.869  1.00  0.00    -0.267 OA
HETATM   14  H   UNL     1      -2.820   6.197 -27.752  1.00  0.00     0.171 HD
BRANCH  12  15
HETATM   15  C   UNL     1      -0.669   6.662 -29.039  1.00  0.00     0.035 A 
HETATM   16  C   UNL     1      -0.930   6.543 -30.412  1.00  0.00     0.053 A 
HETATM   17  C   UNL     1      -0.206   5.646 -31.207  1.00  0.00     0.070 A 
HETATM   18  C   UNL     1       0.819   4.889 -30.649  1.00  0.00     0.037 A 
HETATM   19  C   UNL     1       1.097   5.000 -29.287  1.00  0.00     0.004 A 
HETATM   20  C   UNL     1       0.354   5.875 -28.487  1.00  0.00     0.017 A 
BRANCH  17  21
HETATM   21  O   UNL     1      -0.541   5.646 -32.533  1.00  0.00    -0.347 OA
BRANCH  21  22
HETATM   22  C   UNL     1      -1.940   5.602 -32.848  1.00  0.00     0.120 C 
HETATM   23  C   UNL     1      -2.417   4.155 -32.802  1.00  0.00     0.040 C 
HETATM   24  C   UNL     1      -2.093   6.165 -34.259  1.00  0.00     0.040 C 
ENDBRANCH  21  22
ENDBRANCH  17  21
ENDBRANCH  12  15
ENDBRANCH   9  11
ENDBRANCH   7   9
ENDBRANCH   1   7
BRANCH   4  25
HETATM   25  N   UNL     1      -6.653   3.669 -31.650  1.00  0.00    -0.378 N 
HETATM   26  C   UNL     1      -7.625   2.730 -31.051  1.00  0.00     0.150 C 
HETATM   27  C   UNL     1      -6.947   1.378 -30.744  1.00  0.00     0.255 C 
HETATM   28  N   UNL     1      -6.274   0.819 -31.999  1.00  0.00    -0.064 N 
HETATM   29  H   UNL     1      -7.012   0.691 -32.708  1.00  0.00     0.280 HD
HETATM   30  C   UNL     1      -5.283   1.826 -32.582  1.00  0.00     0.255 C 
HETATM   31  C   UNL     1      -5.999   3.162 -32.868  1.00  0.00     0.150 C 
BRANCH  28  32
HETATM   32  C   UNL     1      -5.656  -0.538 -31.782  1.00  0.00     0.276 C 
BRANCH  32  33
HETATM   33  C   UNL     1      -5.632  -1.399 -33.011  1.00  0.00     0.006 A 
HETATM   34  C   UNL     1      -4.449  -2.039 -33.395  1.00  0.00     0.124 A 
HETATM   35  F   UNL     1      -3.334  -1.816 -32.683  1.00  0.00    -0.206 F 
HETATM   36  C   UNL     1      -4.390  -2.865 -34.510  1.00  0.00     0.043 A 
HETATM   37  C   UNL     1      -5.541  -3.071 -35.266  1.00  0.00     0.003 A 
HETATM   38  C   UNL     1      -6.736  -2.451 -34.898  1.00  0.00     0.001 A 
HETATM   39  C   UNL     1      -6.786  -1.620 -33.775  1.00  0.00     0.012 A 
ENDBRANCH  32  33
ENDBRANCH  28  32
ENDBRANCH   4  25
TORSDOF 9
ENDMDL
MODEL 8
REMARK VINA RESULT:      -8.2      4.369      9.948
REMARK  9 active torsions:
REMARK  status: ('A' for Active; 'I' for Inactive)
REMARK    1  A    between atoms: C_2  and  O_3 
REMARK    2  A    between atoms: O_3  and  C_4 
REMARK    3  A    between atoms: C_6  and  C_7 
REMARK       I    between atoms: C_7  and  N_8 
REMARK    4  A    between atoms: N_8  and  C_9 
REMARK    5  A    between atoms: C_9  and  N_10 
REMARK    6  A    between atoms: N_10  and  C_11 
REMARK    7  A    between atoms: C_14  and  N_15 
REMARK    8  A    between atoms: N_18  and  C_20 
REMARK    9  A    between atoms: C_20  and  C_21 
ROOT
HETATM    1  C   UNL     1      -5.768   7.179 -30.495  1.00  0.00     0.034 A 
HETATM    2  C   UNL     1      -4.969   6.107 -30.098  1.00  0.00     0.032 A 
HETATM    3  C   UNL     1      -4.683   5.056 -30.982  1.00  0.00     0.031 A 
HETATM    4  C   UNL     1      -5.157   5.038 -32.302  1.00  0.00     0.030 A 
HETATM    5  C   UNL     1      -5.930   6.145 -32.687  1.00  0.00     0.031 A 
HETATM    6  C   UNL     1      -6.237   7.198 -31.802  1.00  0.00     0.032 A 
ENDROOT
BRANCH   1   7
HETATM    7  N   UNL     1      -6.142   8.101 -29.490  1.00  0.00    -0.333 N 
HETATM    8  H   UNL     1      -7.133   8.324 -29.505  1.00  0.00     0.168 HD
BRANCH   7   9
HETATM    9  C   UNL     1      -5.403   9.096 -28.953  1.00  0.00     0.179 C 
HETATM   10  S   UNL     1      -6.168  10.234 -27.989  1.00  0.00    -0.040 SA
BRANCH   9  11
HETATM   11  N   UNL     1      -4.055   9.190 -29.091  1.00  0.00    -0.299 N 
HETATM   12  C   UNL     1      -3.386   9.400 -30.293  1.00  0.00     0.257 C 
HETATM   13  O   UNL     1      -3.692  10.258 -31.116  1.00  0.00    -0.267 OA
HETATM   14  H   UNL     1      -3.630   8.528 -28.463  1.00  0.00     0.171 HD
BRANCH  12  15
HETATM   15  C   UNL     1      -2.151   8.572 -30.540  1.00  0.00     0.035 A 
HETATM   16  C   UNL     1      -1.233   8.209 -29.544  1.00  0.00     0.053 A 
HETATM   17  C   UNL     1      -0.113   7.426 -29.848  1.00  0.00     0.070 A 
HETATM   18  C   UNL     1       0.080   6.957 -31.143  1.00  0.00     0.037 A 
HETATM   19  C   UNL     1      -0.826   7.303 -32.145  1.00  0.00     0.004 A 
HETATM   20  C   UNL     1      -1.930   8.109 -31.847  1.00  0.00     0.017 A 
BRANCH  17  21
HETATM   21  O   UNL     1       0.689   7.122 -28.782  1.00  0.00    -0.347 OA
BRANCH  21  22
HETATM   22  C   UNL     1       0.530   7.923 -27.602  1.00  0.00     0.120 C 
HETATM   23  C   UNL     1       1.746   8.828 -27.447  1.00  0.00     0.040 C 
HETATM   24  C   UNL     1       0.435   6.957 -26.423  1.00  0.00     0.040 C 
ENDBRANCH  21  22
ENDBRANCH  17  21
ENDBRANCH  12  15
ENDBRANCH   9  11
ENDBRANCH   7   9
ENDBRANCH   1   7
BRANCH   4  25
HETATM   25  N   UNL     1      -4.924   3.945 -33.132  1.00  0.00    -0.378 N 
HETATM   26  C   UNL     1      -6.022   3.394 -33.952  1.00  0.00     0.150 C 
HETATM   27  C   UNL     1      -6.600   2.124 -33.292  1.00  0.00     0.255 C 
HETATM   28  N   UNL     1      -5.489   1.107 -33.024  1.00  0.00    -0.064 N 
HETATM   29  H   UNL     1      -5.066   0.871 -33.934  1.00  0.00     0.280 HD
HETATM   30  C   UNL     1      -4.376   1.725 -32.177  1.00  0.00     0.255 C 
HETATM   31  C   UNL     1      -3.833   2.992 -32.869  1.00  0.00     0.150 C 
BRANCH  28  32
HETATM   32  C   UNL     1      -6.001  -0.187 -32.447  1.00  0.00     0.276 C 
BRANCH  32  33
HETATM   33  C   UNL     1      -5.872  -1.360 -33.375  1.00  0.00     0.006 A 
HETATM   34  C   UNL     1      -4.622  -1.952 -33.585  1.00  0.00     0.124 A 
HETATM   35  F   UNL     1      -3.544  -1.414 -32.992  1.00  0.00    -0.206 F 
HETATM   36  C   UNL     1      -4.462  -3.055 -34.414  1.00  0.00     0.043 A 
HETATM   37  C   UNL     1      -5.576  -3.593 -35.052  1.00  0.00     0.003 A 
HETATM   38  C   UNL     1      -6.835  -3.025 -34.852  1.00  0.00     0.001 A 
HETATM   39  C   UNL     1      -6.987  -1.915 -34.016  1.00  0.00     0.012 A 
ENDBRANCH  32  33
ENDBRANCH  28  32
ENDBRANCH   4  25
TORSDOF 9
ENDMDL
MODEL 9
REMARK VINA RESULT:      -8.1      2.093      3.129
REMARK  9 active torsions:
REMARK  status: ('A' for Active; 'I' for Inactive)
REMARK    1  A    between atoms: C_2  and  O_3 
REMARK    2  A    between atoms: O_3  and  C_4 
REMARK    3  A    between atoms: C_6  and  C_7 
REMARK       I    between atoms: C_7  and  N_8 
REMARK    4  A    between atoms: N_8  and  C_9 
REMARK    5  A    between atoms: C_9  and  N_10 
REMARK    6  A    between atoms: N_10  and  C_11 
REMARK    7  A    between atoms: C_14  and  N_15 
REMARK    8  A    between atoms: N_18  and  C_20 
REMARK    9  A    between atoms: C_20  and  C_21 
ROOT
HETATM    1  C   UNL     1      -9.457   3.797 -30.870  1.00  0.00     0.034 A 
HETATM    2  C   UNL     1      -8.086   3.563 -30.777  1.00  0.00     0.032 A 
HETATM    3  C   UNL     1      -7.201   4.595 -30.431  1.00  0.00     0.031 A 
HETATM    4  C   UNL     1      -7.642   5.894 -30.140  1.00  0.00     0.030 A 
HETATM    5  C   UNL     1      -9.031   6.094 -30.206  1.00  0.00     0.031 A 
HETATM    6  C   UNL     1      -9.927   5.068 -30.568  1.00  0.00     0.032 A 
ENDROOT
BRANCH   1   7
HETATM    7  N   UNL     1     -10.250   2.746 -31.388  1.00  0.00    -0.333 N 
HETATM    8  H   UNL     1     -10.332   1.960 -30.751  1.00  0.00     0.168 HD
BRANCH   7   9
HETATM    9  C   UNL     1     -10.406   2.376 -32.677  1.00  0.00     0.179 C 
HETATM   10  S   UNL     1     -11.640   3.076 -33.569  1.00  0.00    -0.040 SA
BRANCH   9  11
HETATM   11  N   UNL     1      -9.574   1.515 -33.320  1.00  0.00    -0.299 N 
HETATM   12  C   UNL     1      -9.325   0.202 -32.932  1.00  0.00     0.257 C 
HETATM   13  O   UNL     1     -10.198  -0.610 -32.635  1.00  0.00    -0.267 OA
HETATM   14  H   UNL     1      -8.774   2.036 -33.640  1.00  0.00     0.171 HD
BRANCH  12  15
HETATM   15  C   UNL     1      -7.892  -0.262 -32.975  1.00  0.00     0.035 A 
HETATM   16  C   UNL     1      -7.397  -1.206 -33.887  1.00  0.00     0.053 A 
HETATM   17  C   UNL     1      -6.047  -1.579 -33.874  1.00  0.00     0.070 A 
HETATM   18  C   UNL     1      -5.166  -0.982 -32.979  1.00  0.00     0.037 A 
HETATM   19  C   UNL     1      -5.640  -0.037 -32.070  1.00  0.00     0.004 A 
HETATM   20  C   UNL     1      -6.994   0.316 -32.064  1.00  0.00     0.017 A 
BRANCH  17  21
HETATM   21  O   UNL     1      -5.688  -2.489 -34.830  1.00  0.00    -0.347 OA
BRANCH  21  22
HETATM   22  C   UNL     1      -5.752  -3.874 -34.464  1.00  0.00     0.120 C 
HETATM   23  C   UNL     1      -4.337  -4.403 -34.262  1.00  0.00     0.040 C 
HETATM   24  C   UNL     1      -6.429  -4.606 -35.622  1.00  0.00     0.040 C 
ENDBRANCH  21  22
ENDBRANCH  17  21
ENDBRANCH  12  15
ENDBRANCH   9  11
ENDBRANCH   7   9
ENDBRANCH   1   7
BRANCH   4  25
HETATM   25  N   UNL     1      -6.736   6.916 -29.877  1.00  0.00    -0.378 N 
HETATM   26  C   UNL     1      -6.231   7.755 -30.984  1.00  0.00     0.150 C 
HETATM   27  C   UNL     1      -4.817   7.300 -31.402  1.00  0.00     0.255 C 
HETATM   28  N   UNL     1      -3.881   7.282 -30.192  1.00  0.00    -0.064 N 
HETATM   29  H   UNL     1      -3.846   8.242 -29.820  1.00  0.00     0.280 HD
HETATM   30  C   UNL     1      -4.448   6.405 -29.076  1.00  0.00     0.255 C 
HETATM   31  C   UNL     1      -5.861   6.891 -28.694  1.00  0.00     0.150 C 
BRANCH  28  32
HETATM   32  C   UNL     1      -2.463   6.914 -30.549  1.00  0.00     0.276 C 
BRANCH  32  33
HETATM   33  C   UNL     1      -2.332   6.221 -31.874  1.00  0.00     0.006 A 
HETATM   34  C   UNL     1      -1.984   6.952 -33.015  1.00  0.00     0.124 A 
HETATM   35  F   UNL     1      -1.835   8.282 -32.910  1.00  0.00    -0.206 F 
HETATM   36  C   UNL     1      -1.826   6.346 -34.255  1.00  0.00     0.043 A 
HETATM   37  C   UNL     1      -2.010   4.971 -34.368  1.00  0.00     0.003 A 
HETATM   38  C   UNL     1      -2.349   4.218 -33.243  1.00  0.00     0.001 A 
HETATM   39  C   UNL     1      -2.507   4.836 -31.999  1.00  0.00     0.012 A 
ENDBRANCH  32  33
ENDBRANCH  28  32
ENDBRANCH   4  25
TORSDOF 9
ENDMDL
MODEL 10
REMARK VINA RESULT:      -7.9      4.345      9.116
REMARK  9 active torsions:
REMARK  status: ('A' for Active; 'I' for Inactive)
REMARK    1  A    between atoms: C_2  and  O_3 
REMARK    2  A    between atoms: O_3  and  C_4 
REMARK    3  A    between atoms: C_6  and  C_7 
REMARK       I    between atoms: C_7  and  N_8 
REMARK    4  A    between atoms: N_8  and  C_9 
REMARK    5  A    between atoms: C_9  and  N_10 
REMARK    6  A    between atoms: N_10  and  C_11 
REMARK    7  A    between atoms: C_14  and  N_15 
REMARK    8  A    between atoms: N_18  and  C_20 
REMARK    9  A    between atoms: C_20  and  C_21 
ROOT
HETATM    1  C   UNL     1      -5.887   7.370 -30.297  1.00  0.00     0.034 A 
HETATM    2  C   UNL     1      -6.392   6.209 -29.711  1.00  0.00     0.032 A 
HETATM    3  C   UNL     1      -6.718   5.092 -30.493  1.00  0.00     0.031 A 
HETATM    4  C   UNL     1      -6.536   5.071 -31.884  1.00  0.00     0.030 A 
HETATM    5  C   UNL     1      -5.994   6.239 -32.444  1.00  0.00     0.031 A 
HETATM    6  C   UNL     1      -5.677   7.373 -31.670  1.00  0.00     0.032 A 
ENDROOT
BRANCH   1   7
HETATM    7  N   UNL     1      -5.748   8.500 -29.457  1.00  0.00    -0.333 N 
HETATM    8  H   UNL     1      -6.632   8.957 -29.259  1.00  0.00     0.168 HD
BRANCH   7   9
HETATM    9  C   UNL     1      -4.701   9.348 -29.366  1.00  0.00     0.179 C 
HETATM   10  S   UNL     1      -5.003  10.959 -29.018  1.00  0.00    -0.040 SA
BRANCH   9  11
HETATM   11  N   UNL     1      -3.405   8.958 -29.471  1.00  0.00    -0.299 N 
HETATM   12  C   UNL     1      -2.604   9.132 -30.596  1.00  0.00     0.257 C 
HETATM   13  O   UNL     1      -2.506  10.186 -31.220  1.00  0.00    -0.267 OA
HETATM   14  H   UNL     1      -3.305   8.076 -28.996  1.00  0.00     0.171 HD
BRANCH  12  15
HETATM   15  C   UNL     1      -1.738   7.968 -31.004  1.00  0.00     0.035 A 
HETATM   16  C   UNL     1      -1.767   7.371 -32.273  1.00  0.00     0.053 A 
HETATM   17  C   UNL     1      -0.923   6.298 -32.583  1.00  0.00     0.070 A 
HETATM   18  C   UNL     1      -0.007   5.837 -31.643  1.00  0.00     0.037 A 
HETATM   19  C   UNL     1       0.041   6.424 -30.380  1.00  0.00     0.004 A 
HETATM   20  C   UNL     1      -0.822   7.477 -30.060  1.00  0.00     0.017 A 
BRANCH  17  21
HETATM   21  O   UNL     1      -1.033   5.824 -33.861  1.00  0.00    -0.347 OA
BRANCH  21  22
HETATM   22  C   UNL     1      -2.012   4.801 -34.091  1.00  0.00     0.120 C 
HETATM   23  C   UNL     1      -3.188   5.398 -34.854  1.00  0.00     0.040 C 
HETATM   24  C   UNL     1      -2.467   4.309 -32.718  1.00  0.00     0.040 C 
ENDBRANCH  21  22
ENDBRANCH  17  21
ENDBRANCH  12  15
ENDBRANCH   9  11
ENDBRANCH   7   9
ENDBRANCH   1   7
BRANCH   4  25
HETATM   25  N   UNL     1      -6.942   3.978 -32.643  1.00  0.00    -0.378 N 
HETATM   26  C   UNL     1      -8.048   3.121 -32.168  1.00  0.00     0.150 C 
HETATM   27  C   UNL     1      -7.491   1.828 -31.535  1.00  0.00     0.255 C 
HETATM   28  N   UNL     1      -6.559   1.111 -32.515  1.00  0.00    -0.064 N 
HETATM   29  H   UNL     1      -7.115   0.883 -33.352  1.00  0.00     0.280 HD
HETATM   30  C   UNL     1      -5.437   2.039 -32.979  1.00  0.00     0.255 C 
HETATM   31  C   UNL     1      -6.037   3.318 -33.598  1.00  0.00     0.150 C 
BRANCH  28  32
HETATM   32  C   UNL     1      -6.039  -0.200 -31.982  1.00  0.00     0.276 C 
BRANCH  32  33
HETATM   33  C   UNL     1      -5.829  -1.245 -33.039  1.00  0.00     0.006 A 
HETATM   34  C   UNL     1      -6.905  -1.671 -33.825  1.00  0.00     0.124 A 
HETATM   35  F   UNL     1      -8.127  -1.176 -33.571  1.00  0.00    -0.206 F 
HETATM   36  C   UNL     1      -6.750  -2.616 -34.831  1.00  0.00     0.043 A 
HETATM   37  C   UNL     1      -5.487  -3.151 -35.073  1.00  0.00     0.003 A 
HETATM   38  C   UNL     1      -4.396  -2.735 -34.307  1.00  0.00     0.001 A 
HETATM   39  C   UNL     1      -4.562  -1.784 -33.296  1.00  0.00     0.012 A 
ENDBRANCH  32  33
ENDBRANCH  28  32
ENDBRANCH   4  25
TORSDOF 9
ENDMDL
