MODEL 1
REMARK VINA RESULT:      -8.8      0.000      0.000
REMARK  8 active torsions:
REMARK  status: ('A' for Active; 'I' for Inactive)
REMARK    1  A    between atoms: C_7  and  C_8 
REMARK    2  A    between atoms: C_8  and  O_9 
REMARK    3  A    between atoms: O_9  and  C_10 
REMARK    4  A    between atoms: C_13  and  C_14 
REMARK       I    between atoms: C_14  and  N_15 
REMARK    5  A    between atoms: N_15  and  C_16 
REMARK    6  A    between atoms: C_16  and  C_17 
REMARK    7  A    between atoms: C_18  and  C_19 
REMARK    8  A    between atoms: C_19  and  N_20 
ROOT
HETATM    1  C   UNL     1      -5.319   3.470 -30.791  1.00  0.00     0.251 C 
HETATM    2  N   UNL     1      -4.401   4.244 -31.473  1.00  0.00    -0.353 N 
HETATM    3  O   UNL     1      -5.654   3.693 -29.634  1.00  0.00    -0.268 OA
HETATM    4  H   UNL     1      -4.300   4.124 -32.470  1.00  0.00     0.163 HD
ENDROOT
BRANCH   1   5
HETATM    5  C   UNL     1      -5.902   2.320 -31.529  1.00  0.00     0.032 A 
HETATM    6  C   UNL     1      -5.936   2.283 -32.927  1.00  0.00     0.020 A 
HETATM    7  C   UNL     1      -6.413   1.144 -33.579  1.00  0.00     0.038 A 
HETATM    8  C   UNL     1      -6.837   0.031 -32.850  1.00  0.00     0.069 A 
HETATM    9  C   UNL     1      -6.831   0.077 -31.456  1.00  0.00     0.038 A 
HETATM   10  C   UNL     1      -6.351   1.214 -30.797  1.00  0.00     0.020 A 
BRANCH   8  11
HETATM   11  O   UNL     1      -7.236  -1.032 -33.607  1.00  0.00    -0.347 OA
BRANCH  11  12
HETATM   12  C   UNL     1      -6.412  -1.367 -34.727  1.00  0.00     0.219 C 
BRANCH  12  13
HETATM   13  C   UNL     1      -5.462  -2.446 -34.353  1.00  0.00     0.024 A 
HETATM   14  C   UNL     1      -5.551  -3.829 -34.676  1.00  0.00     0.069 A 
HETATM   15  C   UNL     1      -6.604  -4.523 -35.453  1.00  0.00     0.073 C 
HETATM   16  N   UNL     1      -4.518  -4.516 -34.177  1.00  0.00    -0.133 NA
HETATM   17  O   UNL     1      -3.740  -3.592 -33.507  1.00  0.00    -0.217 OA
HETATM   18  C   UNL     1      -4.305  -2.361 -33.609  1.00  0.00     0.085 A 
HETATM   19  C   UNL     1      -3.598  -1.258 -32.932  1.00  0.00     0.079 C 
ENDBRANCH  12  13
ENDBRANCH  11  12
ENDBRANCH   8  11
ENDBRANCH   1   5
BRANCH   2  20
HETATM   20  C   UNL     1      -3.694   5.307 -30.804  1.00  0.00     0.162 C 
BRANCH  20  21
HETATM   21  C   UNL     1      -2.635   5.926 -31.686  1.00  0.00    -0.033 A 
HETATM   22  C   UNL     1      -1.251   5.930 -31.400  1.00  0.00    -0.025 A 
HETATM   23  C   UNL     1      -0.369   6.544 -32.315  1.00  0.00     0.009 A 
HETATM   24  C   UNL     1      -0.840   7.140 -33.485  1.00  0.00     0.001 A 
HETATM   25  C   UNL     1      -2.199   7.132 -33.766  1.00  0.00     0.001 A 
HETATM   26  C   UNL     1      -3.085   6.529 -32.879  1.00  0.00     0.009 A 
BRANCH  22  27
HETATM   27  C   UNL     1      -0.653   5.315 -30.159  1.00  0.00     0.274 C 
BRANCH  27  28
HETATM   28  N   UNL     1      -0.764   6.190 -28.932  1.00  0.00    -0.067 N 
HETATM   29  H   UNL     1      -1.702   6.027 -28.543  1.00  0.00     0.280 HD
HETATM   30  C   UNL     1      -0.636   7.665 -29.248  1.00  0.00     0.235 C 
HETATM   31  C   UNL     1       0.755   8.017 -28.771  1.00  0.00     0.029 C 
HETATM   32  C   UNL     1       0.873   7.220 -27.489  1.00  0.00     0.029 C 
HETATM   33  C   UNL     1       0.242   5.883 -27.834  1.00  0.00     0.235 C 
ENDBRANCH  27  28
ENDBRANCH  22  27
ENDBRANCH  20  21
ENDBRANCH   2  20
TORSDOF 8
ENDMDL
MODEL 2
REMARK VINA RESULT:      -8.7      2.642      9.621
REMARK  8 active torsions:
REMARK  status: ('A' for Active; 'I' for Inactive)
REMARK    1  A    between atoms: C_7  and  C_8 
REMARK    2  A    between atoms: C_8  and  O_9 
REMARK    3  A    between atoms: O_9  and  C_10 
REMARK    4  A    between atoms: C_13  and  C_14 
REMARK       I    between atoms: C_14  and  N_15 
REMARK    5  A    between atoms: N_15  and  C_16 
REMARK    6  A    between atoms: C_16  and  C_17 
REMARK    7  A    between atoms: C_18  and  C_19 
REMARK    8  A    between atoms: C_19  and  N_20 
ROOT
HETATM    1  C   UNL     1      -4.526   2.040 -31.279  1.00  0.00     0.251 C 
HETATM    2  N   UNL     1      -3.998   0.903 -31.856  1.00  0.00    -0.353 N 
HETATM    3  O   UNL     1      -5.337   2.011 -30.360  1.00  0.00    -0.268 OA
HETATM    4  H   UNL     1      -3.208   0.988 -32.479  1.00  0.00     0.163 HD
ENDROOT
BRANCH   1   5
HETATM    5  C   UNL     1      -4.069   3.343 -31.828  1.00  0.00     0.032 A 
HETATM    6  C   UNL     1      -4.623   4.555 -31.404  1.00  0.00     0.020 A 
HETATM    7  C   UNL     1      -4.103   5.760 -31.882  1.00  0.00     0.038 A 
HETATM    8  C   UNL     1      -3.020   5.768 -32.765  1.00  0.00     0.069 A 
HETATM    9  C   UNL     1      -2.486   4.559 -33.212  1.00  0.00     0.038 A 
HETATM   10  C   UNL     1      -3.001   3.350 -32.734  1.00  0.00     0.020 A 
BRANCH   8  11
HETATM   11  O   UNL     1      -2.580   7.010 -33.120  1.00  0.00    -0.347 OA
BRANCH  11  12
HETATM   12  C   UNL     1      -1.216   7.317 -32.820  1.00  0.00     0.219 C 
BRANCH  12  13
HETATM   13  C   UNL     1      -1.016   7.352 -31.349  1.00  0.00     0.024 A 
HETATM   14  C   UNL     1      -1.574   8.274 -30.420  1.00  0.00     0.069 A 
HETATM   15  C   UNL     1      -2.479   9.416 -30.693  1.00  0.00     0.073 C 
HETATM   16  N   UNL     1      -1.181   8.010 -29.169  1.00  0.00    -0.133 NA
HETATM   17  O   UNL     1      -0.347   6.913 -29.262  1.00  0.00    -0.217 OA
HETATM   18  C   UNL     1      -0.246   6.524 -30.560  1.00  0.00     0.085 A 
HETATM   19  C   UNL     1       0.624   5.366 -30.831  1.00  0.00     0.079 C 
ENDBRANCH  12  13
ENDBRANCH  11  12
ENDBRANCH   8  11
ENDBRANCH   1   5
BRANCH   2  20
HETATM   20  C   UNL     1      -4.471  -0.403 -31.472  1.00  0.00     0.162 C 
BRANCH  20  21
HETATM   21  C   UNL     1      -4.968  -1.197 -32.659  1.00  0.00    -0.033 A 
HETATM   22  C   UNL     1      -6.242  -1.046 -33.251  1.00  0.00    -0.025 A 
HETATM   23  C   UNL     1      -6.577  -1.853 -34.360  1.00  0.00     0.009 A 
HETATM   24  C   UNL     1      -5.677  -2.788 -34.872  1.00  0.00     0.001 A 
HETATM   25  C   UNL     1      -4.425  -2.933 -34.291  1.00  0.00     0.001 A 
HETATM   26  C   UNL     1      -4.074  -2.143 -33.199  1.00  0.00     0.009 A 
BRANCH  22  27
HETATM   27  C   UNL     1      -7.279  -0.066 -32.763  1.00  0.00     0.274 C 
BRANCH  27  28
HETATM   28  N   UNL     1      -8.570  -0.103 -33.547  1.00  0.00    -0.067 N 
HETATM   29  H   UNL     1      -8.569  -0.990 -34.067  1.00  0.00     0.280 HD
HETATM   30  C   UNL     1      -8.683   1.028 -34.548  1.00  0.00     0.235 C 
HETATM   31  C   UNL     1      -9.671   1.978 -33.909  1.00  0.00     0.029 C 
HETATM   32  C   UNL     1     -10.684   1.034 -33.298  1.00  0.00     0.029 C 
HETATM   33  C   UNL     1      -9.833  -0.075 -32.703  1.00  0.00     0.235 C 
ENDBRANCH  27  28
ENDBRANCH  22  27
ENDBRANCH  20  21
ENDBRANCH   2  20
TORSDOF 8
ENDMDL
MODEL 3
REMARK VINA RESULT:      -8.7      2.407      9.244
REMARK  8 active torsions:
REMARK  status: ('A' for Active; 'I' for Inactive)
REMARK    1  A    between atoms: C_7  and  C_8 
REMARK    2  A    between atoms: C_8  and  O_9 
REMARK    3  A    between atoms: O_9  and  C_10 
REMARK    4  A    between atoms: C_13  and  C_14 
REMARK       I    between atoms: C_14  and  N_15 
REMARK    5  A    between atoms: N_15  and  C_16 
REMARK    6  A    between atoms: C_16  and  C_17 
REMARK    7  A    between atoms: C_18  and  C_19 
REMARK    8  A    between atoms: C_19  and  N_20 
ROOT
HETATM    1  C   UNL     1      -4.519   2.033 -31.213  1.00  0.00     0.251 C 
HETATM    2  N   UNL     1      -4.063   0.901 -31.857  1.00  0.00    -0.353 N 
HETATM    3  O   UNL     1      -5.293   1.998 -30.263  1.00  0.00    -0.268 OA
HETATM    4  H   UNL     1      -3.296   0.980 -32.508  1.00  0.00     0.163 HD
ENDROOT
BRANCH   1   5
HETATM    5  C   UNL     1      -4.029   3.338 -31.728  1.00  0.00     0.032 A 
HETATM    6  C   UNL     1      -4.524   4.553 -31.241  1.00  0.00     0.020 A 
HETATM    7  C   UNL     1      -3.973   5.756 -31.691  1.00  0.00     0.038 A 
HETATM    8  C   UNL     1      -2.918   5.757 -32.607  1.00  0.00     0.069 A 
HETATM    9  C   UNL     1      -2.444   4.547 -33.115  1.00  0.00     0.038 A 
HETATM   10  C   UNL     1      -2.990   3.340 -32.666  1.00  0.00     0.020 A 
BRANCH   8  11
HETATM   11  O   UNL     1      -2.442   6.994 -32.930  1.00  0.00    -0.347 OA
BRANCH  11  12
HETATM   12  C   UNL     1      -1.071   7.255 -32.620  1.00  0.00     0.219 C 
BRANCH  12  13
HETATM   13  C   UNL     1      -0.878   7.273 -31.147  1.00  0.00     0.024 A 
HETATM   14  C   UNL     1      -0.086   6.386 -30.367  1.00  0.00     0.069 A 
HETATM   15  C   UNL     1       0.728   5.236 -30.828  1.00  0.00     0.073 C 
HETATM   16  N   UNL     1      -0.140   6.695 -29.066  1.00  0.00    -0.133 NA
HETATM   17  O   UNL     1      -0.980   7.787 -28.975  1.00  0.00    -0.217 OA
HETATM   18  C   UNL     1      -1.422   8.128 -30.213  1.00  0.00     0.085 A 
HETATM   19  C   UNL     1      -2.345   9.275 -30.286  1.00  0.00     0.079 C 
ENDBRANCH  12  13
ENDBRANCH  11  12
ENDBRANCH   8  11
ENDBRANCH   1   5
BRANCH   2  20
HETATM   20  C   UNL     1      -4.575  -0.400 -31.506  1.00  0.00     0.162 C 
BRANCH  20  21
HETATM   21  C   UNL     1      -5.048  -1.168 -32.719  1.00  0.00    -0.033 A 
HETATM   22  C   UNL     1      -6.309  -0.999 -33.337  1.00  0.00    -0.025 A 
HETATM   23  C   UNL     1      -6.621  -1.783 -34.469  1.00  0.00     0.009 A 
HETATM   24  C   UNL     1      -5.714  -2.711 -34.979  1.00  0.00     0.001 A 
HETATM   25  C   UNL     1      -4.476  -2.873 -34.374  1.00  0.00     0.001 A 
HETATM   26  C   UNL     1      -4.146  -2.107 -33.259  1.00  0.00     0.009 A 
BRANCH  22  27
HETATM   27  C   UNL     1      -7.352  -0.025 -32.852  1.00  0.00     0.274 C 
BRANCH  27  28
HETATM   28  N   UNL     1      -7.788   0.972 -33.901  1.00  0.00    -0.067 N 
HETATM   29  H   UNL     1      -7.977   0.432 -34.756  1.00  0.00     0.280 HD
HETATM   30  C   UNL     1      -6.719   1.997 -34.219  1.00  0.00     0.235 C 
HETATM   31  C   UNL     1      -7.205   3.251 -33.529  1.00  0.00     0.029 C 
HETATM   32  C   UNL     1      -8.698   3.204 -33.777  1.00  0.00     0.029 C 
HETATM   33  C   UNL     1      -9.054   1.743 -33.564  1.00  0.00     0.235 C 
ENDBRANCH  27  28
ENDBRANCH  22  27
ENDBRANCH  20  21
ENDBRANCH   2  20
TORSDOF 8
ENDMDL
MODEL 4
REMARK VINA RESULT:      -8.6      3.539      5.014
REMARK  8 active torsions:
REMARK  status: ('A' for Active; 'I' for Inactive)
REMARK    1  A    between atoms: C_7  and  C_8 
REMARK    2  A    between atoms: C_8  and  O_9 
REMARK    3  A    between atoms: O_9  and  C_10 
REMARK    4  A    between atoms: C_13  and  C_14 
REMARK       I    between atoms: C_14  and  N_15 
REMARK    5  A    between atoms: N_15  and  C_16 
REMARK    6  A    between atoms: C_16  and  C_17 
REMARK    7  A    between atoms: C_18  and  C_19 
REMARK    8  A    between atoms: C_19  and  N_20 
ROOT
HETATM    1  C   UNL     1      -4.302   1.803 -32.219  1.00  0.00     0.251 C 
HETATM    2  N   UNL     1      -4.187   3.119 -31.819  1.00  0.00    -0.353 N 
HETATM    3  O   UNL     1      -3.376   1.002 -32.163  1.00  0.00    -0.268 OA
HETATM    4  H   UNL     1      -5.021   3.678 -31.720  1.00  0.00     0.163 HD
ENDROOT
BRANCH   1   5
HETATM    5  C   UNL     1      -5.626   1.377 -32.742  1.00  0.00     0.032 A 
HETATM    6  C   UNL     1      -6.406   0.423 -32.079  1.00  0.00     0.020 A 
HETATM    7  C   UNL     1      -7.682   0.116 -32.558  1.00  0.00     0.038 A 
HETATM    8  C   UNL     1      -8.196   0.768 -33.681  1.00  0.00     0.069 A 
HETATM    9  C   UNL     1      -7.409   1.698 -34.360  1.00  0.00     0.038 A 
HETATM   10  C   UNL     1      -6.131   2.011 -33.883  1.00  0.00     0.020 A 
BRANCH   8  11
HETATM   11  O   UNL     1      -9.470   0.410 -34.017  1.00  0.00    -0.347 OA
BRANCH  11  12
HETATM   12  C   UNL     1     -10.520   0.936 -33.202  1.00  0.00     0.219 C 
BRANCH  12  13
HETATM   13  C   UNL     1     -11.649   1.384 -34.057  1.00  0.00     0.024 A 
HETATM   14  C   UNL     1     -11.702   2.537 -34.889  1.00  0.00     0.069 A 
HETATM   15  C   UNL     1     -10.654   3.564 -35.100  1.00  0.00     0.073 C 
HETATM   16  N   UNL     1     -12.877   2.633 -35.520  1.00  0.00    -0.133 NA
HETATM   17  O   UNL     1     -13.618   1.546 -35.101  1.00  0.00    -0.217 OA
HETATM   18  C   UNL     1     -12.888   0.805 -34.227  1.00  0.00     0.085 A 
HETATM   19  C   UNL     1     -13.548  -0.392 -33.674  1.00  0.00     0.079 C 
ENDBRANCH  12  13
ENDBRANCH  11  12
ENDBRANCH   8  11
ENDBRANCH   1   5
BRANCH   2  20
HETATM   20  C   UNL     1      -2.912   3.654 -31.412  1.00  0.00     0.162 C 
BRANCH  20  21
HETATM   21  C   UNL     1      -2.454   4.776 -32.317  1.00  0.00    -0.033 A 
HETATM   22  C   UNL     1      -2.310   6.124 -31.917  1.00  0.00    -0.025 A 
HETATM   23  C   UNL     1      -1.869   7.071 -32.866  1.00  0.00     0.009 A 
HETATM   24  C   UNL     1      -1.577   6.699 -34.178  1.00  0.00     0.001 A 
HETATM   25  C   UNL     1      -1.716   5.374 -34.568  1.00  0.00     0.001 A 
HETATM   26  C   UNL     1      -2.146   4.423 -33.646  1.00  0.00     0.009 A 
BRANCH  22  27
HETATM   27  C   UNL     1      -2.607   6.618 -30.523  1.00  0.00     0.274 C 
BRANCH  27  28
HETATM   28  N   UNL     1      -1.499   6.346 -29.533  1.00  0.00    -0.067 N 
HETATM   29  H   UNL     1      -1.611   5.370 -29.230  1.00  0.00     0.280 HD
HETATM   30  C   UNL     1      -1.577   7.231 -28.305  1.00  0.00     0.235 C 
HETATM   31  C   UNL     1      -0.473   8.242 -28.518  1.00  0.00     0.029 C 
HETATM   32  C   UNL     1       0.633   7.398 -29.115  1.00  0.00     0.029 C 
HETATM   33  C   UNL     1      -0.092   6.488 -30.092  1.00  0.00     0.235 C 
ENDBRANCH  27  28
ENDBRANCH  22  27
ENDBRANCH  20  21
ENDBRANCH   2  20
TORSDOF 8
ENDMDL
MODEL 5
REMARK VINA RESULT:      -8.6      3.670      4.887
REMARK  8 active torsions:
REMARK  status: ('A' for Active; 'I' for Inactive)
REMARK    1  A    between atoms: C_7  and  C_8 
REMARK    2  A    between atoms: C_8  and  O_9 
REMARK    3  A    between atoms: O_9  and  C_10 
REMARK    4  A    between atoms: C_13  and  C_14 
REMARK       I    between atoms: C_14  and  N_15 
REMARK    5  A    between atoms: N_15  and  C_16 
REMARK    6  A    between atoms: C_16  and  C_17 
REMARK    7  A    between atoms: C_18  and  C_19 
REMARK    8  A    between atoms: C_19  and  N_20 
ROOT
HETATM    1  C   UNL     1      -4.295   1.903 -32.351  1.00  0.00     0.251 C 
HETATM    2  N   UNL     1      -4.061   3.219 -32.006  1.00  0.00    -0.353 N 
HETATM    3  O   UNL     1      -3.460   1.017 -32.212  1.00  0.00    -0.268 OA
HETATM    4  H   UNL     1      -4.837   3.865 -31.975  1.00  0.00     0.163 HD
ENDROOT
BRANCH   1   5
HETATM    5  C   UNL     1      -5.631   1.588 -32.919  1.00  0.00     0.032 A 
HETATM    6  C   UNL     1      -5.962   0.298 -33.348  1.00  0.00     0.020 A 
HETATM    7  C   UNL     1      -7.258   0.027 -33.794  1.00  0.00     0.038 A 
HETATM    8  C   UNL     1      -8.234   1.026 -33.795  1.00  0.00     0.069 A 
HETATM    9  C   UNL     1      -7.898   2.319 -33.395  1.00  0.00     0.038 A 
HETATM   10  C   UNL     1      -6.602   2.595 -32.945  1.00  0.00     0.020 A 
BRANCH   8  11
HETATM   11  O   UNL     1      -9.468   0.619 -34.210  1.00  0.00    -0.347 OA
BRANCH  11  12
HETATM   12  C   UNL     1     -10.561   0.878 -33.325  1.00  0.00     0.219 C 
BRANCH  12  13
HETATM   13  C   UNL     1     -11.738   1.350 -34.097  1.00  0.00     0.024 A 
HETATM   14  C   UNL     1     -13.011   0.723 -34.206  1.00  0.00     0.069 A 
HETATM   15  C   UNL     1     -13.465  -0.544 -33.586  1.00  0.00     0.073 C 
HETATM   16  N   UNL     1     -13.840   1.427 -34.985  1.00  0.00    -0.133 NA
HETATM   17  O   UNL     1     -13.116   2.525 -35.407  1.00  0.00    -0.217 OA
HETATM   18  C   UNL     1     -11.864   2.476 -34.881  1.00  0.00     0.085 A 
HETATM   19  C   UNL     1     -10.957   3.578 -35.250  1.00  0.00     0.079 C 
ENDBRANCH  12  13
ENDBRANCH  11  12
ENDBRANCH   8  11
ENDBRANCH   1   5
BRANCH   2  20
HETATM   20  C   UNL     1      -2.758   3.642 -31.562  1.00  0.00     0.162 C 
BRANCH  20  21
HETATM   21  C   UNL     1      -2.209   4.770 -32.406  1.00  0.00    -0.033 A 
HETATM   22  C   UNL     1      -1.854   6.046 -31.913  1.00  0.00    -0.025 A 
HETATM   23  C   UNL     1      -1.350   7.008 -32.815  1.00  0.00     0.009 A 
HETATM   24  C   UNL     1      -1.198   6.718 -34.171  1.00  0.00     0.001 A 
HETATM   25  C   UNL     1      -1.543   5.463 -34.653  1.00  0.00     0.001 A 
HETATM   26  C   UNL     1      -2.039   4.499 -33.779  1.00  0.00     0.009 A 
BRANCH  22  27
HETATM   27  C   UNL     1      -1.988   6.449 -30.466  1.00  0.00     0.274 C 
BRANCH  27  28
HETATM   28  N   UNL     1      -0.703   6.954 -29.853  1.00  0.00    -0.067 N 
HETATM   29  H   UNL     1      -0.519   7.873 -30.278  1.00  0.00     0.280 HD
HETATM   30  C   UNL     1       0.481   6.056 -30.145  1.00  0.00     0.235 C 
HETATM   31  C   UNL     1       0.717   5.333 -28.838  1.00  0.00     0.029 C 
HETATM   32  C   UNL     1       0.472   6.421 -27.814  1.00  0.00     0.029 C 
HETATM   33  C   UNL     1      -0.747   7.153 -28.347  1.00  0.00     0.235 C 
ENDBRANCH  27  28
ENDBRANCH  22  27
ENDBRANCH  20  21
ENDBRANCH   2  20
TORSDOF 8
ENDMDL
MODEL 6
REMARK VINA RESULT:      -8.1      1.803      4.050
REMARK  8 active torsions:
REMARK  status: ('A' for Active; 'I' for Inactive)
REMARK    1  A    between atoms: C_7  and  C_8 
REMARK    2  A    between atoms: C_8  and  O_9 
REMARK    3  A    between atoms: O_9  and  C_10 
REMARK    4  A    between atoms: C_13  and  C_14 
REMARK       I    between atoms: C_14  and  N_15 
REMARK    5  A    between atoms: N_15  and  C_16 
REMARK    6  A    between atoms: C_16  and  C_17 
REMARK    7  A    between atoms: C_18  and  C_19 
REMARK    8  A    between atoms: C_19  and  N_20 
ROOT
HETATM    1  C   UNL     1      -5.179   5.794 -29.270  1.00  0.00     0.251 C 
HETATM    2  N   UNL     1      -3.843   6.138 -29.303  1.00  0.00    -0.353 N 
HETATM    3  O   UNL     1      -6.019   6.430 -28.644  1.00  0.00    -0.268 OA
HETATM    4  H   UNL     1      -3.235   5.689 -29.973  1.00  0.00     0.163 HD
ENDROOT
BRANCH   1   5
HETATM    5  C   UNL     1      -5.578   4.587 -30.039  1.00  0.00     0.032 A 
HETATM    6  C   UNL     1      -6.684   3.812 -29.671  1.00  0.00     0.020 A 
HETATM    7  C   UNL     1      -7.075   2.737 -30.472  1.00  0.00     0.038 A 
HETATM    8  C   UNL     1      -6.385   2.439 -31.649  1.00  0.00     0.069 A 
HETATM    9  C   UNL     1      -5.264   3.191 -32.002  1.00  0.00     0.038 A 
HETATM   10  C   UNL     1      -4.870   4.271 -31.205  1.00  0.00     0.020 A 
BRANCH   8  11
HETATM   11  O   UNL     1      -6.895   1.393 -32.363  1.00  0.00    -0.347 OA
BRANCH  11  12
HETATM   12  C   UNL     1      -6.778   0.096 -31.774  1.00  0.00     0.219 C 
BRANCH  12  13
HETATM   13  C   UNL     1      -5.693  -0.668 -32.442  1.00  0.00     0.024 A 
HETATM   14  C   UNL     1      -4.317  -0.714 -32.082  1.00  0.00     0.069 A 
HETATM   15  C   UNL     1      -3.638  -0.014 -30.966  1.00  0.00     0.073 C 
HETATM   16  N   UNL     1      -3.622  -1.507 -32.904  1.00  0.00    -0.133 NA
HETATM   17  O   UNL     1      -4.532  -1.985 -33.825  1.00  0.00    -0.217 OA
HETATM   18  C   UNL     1      -5.764  -1.482 -33.551  1.00  0.00     0.085 A 
HETATM   19  C   UNL     1      -6.853  -1.890 -34.458  1.00  0.00     0.079 C 
ENDBRANCH  12  13
ENDBRANCH  11  12
ENDBRANCH   8  11
ENDBRANCH   1   5
BRANCH   2  20
HETATM   20  C   UNL     1      -3.342   7.220 -28.494  1.00  0.00     0.162 C 
BRANCH  20  21
HETATM   21  C   UNL     1      -1.833   7.209 -28.404  1.00  0.00    -0.033 A 
HETATM   22  C   UNL     1      -0.960   7.437 -29.493  1.00  0.00    -0.025 A 
HETATM   23  C   UNL     1       0.433   7.401 -29.266  1.00  0.00     0.009 A 
HETATM   24  C   UNL     1       0.953   7.145 -27.998  1.00  0.00     0.001 A 
HETATM   25  C   UNL     1       0.095   6.924 -26.930  1.00  0.00     0.001 A 
HETATM   26  C   UNL     1      -1.282   6.959 -27.131  1.00  0.00     0.009 A 
BRANCH  22  27
HETATM   27  C   UNL     1      -1.433   7.717 -30.897  1.00  0.00     0.274 C 
BRANCH  27  28
HETATM   28  N   UNL     1      -0.863   6.773 -31.930  1.00  0.00    -0.067 N 
HETATM   29  H   UNL     1       0.159   6.796 -31.813  1.00  0.00     0.280 HD
HETATM   30  C   UNL     1      -1.182   7.192 -33.350  1.00  0.00     0.235 C 
HETATM   31  C   UNL     1      -2.264   6.225 -33.777  1.00  0.00     0.029 C 
HETATM   32  C   UNL     1      -1.797   4.922 -33.164  1.00  0.00     0.029 C 
HETATM   33  C   UNL     1      -1.303   5.325 -31.786  1.00  0.00     0.235 C 
ENDBRANCH  27  28
ENDBRANCH  22  27
ENDBRANCH  20  21
ENDBRANCH   2  20
TORSDOF 8
ENDMDL
MODEL 7
REMARK VINA RESULT:      -8.1      2.464      3.276
REMARK  8 active torsions:
REMARK  status: ('A' for Active; 'I' for Inactive)
REMARK    1  A    between atoms: C_7  and  C_8 
REMARK    2  A    between atoms: C_8  and  O_9 
REMARK    3  A    between atoms: O_9  and  C_10 
REMARK    4  A    between atoms: C_13  and  C_14 
REMARK       I    between atoms: C_14  and  N_15 
REMARK    5  A    between atoms: N_15  and  C_16 
REMARK    6  A    between atoms: C_16  and  C_17 
REMARK    7  A    between atoms: C_18  and  C_19 
REMARK    8  A    between atoms: C_19  and  N_20 
ROOT
HETATM    1  C   UNL     1      -4.343   4.699 -31.692  1.00  0.00     0.251 C 
HETATM    2  N   UNL     1      -3.521   5.096 -30.656  1.00  0.00    -0.353 N 
HETATM    3  O   UNL     1      -4.952   5.488 -32.404  1.00  0.00    -0.268 OA
HETATM    4  H   UNL     1      -2.911   4.418 -30.224  1.00  0.00     0.163 HD
ENDROOT
BRANCH   1   5
HETATM    5  C   UNL     1      -4.473   3.236 -31.918  1.00  0.00     0.032 A 
HETATM    6  C   UNL     1      -3.354   2.399 -31.980  1.00  0.00     0.020 A 
HETATM    7  C   UNL     1      -3.527   1.019 -32.107  1.00  0.00     0.038 A 
HETATM    8  C   UNL     1      -4.808   0.463 -32.151  1.00  0.00     0.069 A 
HETATM    9  C   UNL     1      -5.924   1.298 -32.118  1.00  0.00     0.038 A 
HETATM   10  C   UNL     1      -5.757   2.681 -31.989  1.00  0.00     0.020 A 
BRANCH   8  11
HETATM   11  O   UNL     1      -4.838  -0.899 -32.229  1.00  0.00    -0.347 OA
BRANCH  11  12
HETATM   12  C   UNL     1      -4.104  -1.497 -33.301  1.00  0.00     0.219 C 
BRANCH  12  13
HETATM   13  C   UNL     1      -4.952  -2.491 -34.005  1.00  0.00     0.024 A 
HETATM   14  C   UNL     1      -4.681  -3.873 -34.208  1.00  0.00     0.069 A 
HETATM   15  C   UNL     1      -3.494  -4.648 -33.775  1.00  0.00     0.073 C 
HETATM   16  N   UNL     1      -5.667  -4.473 -34.884  1.00  0.00    -0.133 NA
HETATM   17  O   UNL     1      -6.597  -3.487 -35.145  1.00  0.00    -0.217 OA
HETATM   18  C   UNL     1      -6.170  -2.307 -34.624  1.00  0.00     0.085 A 
HETATM   19  C   UNL     1      -7.052  -1.143 -34.830  1.00  0.00     0.079 C 
ENDBRANCH  12  13
ENDBRANCH  11  12
ENDBRANCH   8  11
ENDBRANCH   1   5
BRANCH   2  20
HETATM   20  C   UNL     1      -3.426   6.485 -30.285  1.00  0.00     0.162 C 
BRANCH  20  21
HETATM   21  C   UNL     1      -2.015   6.876 -29.910  1.00  0.00    -0.033 A 
HETATM   22  C   UNL     1      -1.671   7.677 -28.796  1.00  0.00    -0.025 A 
HETATM   23  C   UNL     1      -0.309   7.964 -28.560  1.00  0.00     0.009 A 
HETATM   24  C   UNL     1       0.690   7.474 -29.402  1.00  0.00     0.001 A 
HETATM   25  C   UNL     1       0.350   6.686 -30.492  1.00  0.00     0.001 A 
HETATM   26  C   UNL     1      -0.987   6.388 -30.741  1.00  0.00     0.009 A 
BRANCH  22  27
HETATM   27  C   UNL     1      -2.682   8.252 -27.837  1.00  0.00     0.274 C 
BRANCH  27  28
HETATM   28  N   UNL     1      -2.099   8.643 -26.500  1.00  0.00    -0.067 N 
HETATM   29  H   UNL     1      -1.077   8.646 -26.617  1.00  0.00     0.280 HD
HETATM   30  C   UNL     1      -2.442   7.662 -25.398  1.00  0.00     0.235 C 
HETATM   31  C   UNL     1      -3.503   8.380 -24.593  1.00  0.00     0.029 C 
HETATM   32  C   UNL     1      -2.998   9.807 -24.586  1.00  0.00     0.029 C 
HETATM   33  C   UNL     1      -2.501  10.024 -26.005  1.00  0.00     0.235 C 
ENDBRANCH  27  28
ENDBRANCH  22  27
ENDBRANCH  20  21
ENDBRANCH   2  20
TORSDOF 8
ENDMDL
MODEL 8
REMARK VINA RESULT:      -8.0      1.437      3.291
REMARK  8 active torsions:
REMARK  status: ('A' for Active; 'I' for Inactive)
REMARK    1  A    between atoms: C_7  and  C_8 
REMARK    2  A    between atoms: C_8  and  O_9 
REMARK    3  A    between atoms: O_9  and  C_10 
REMARK    4  A    between atoms: C_13  and  C_14 
REMARK       I    between atoms: C_14  and  N_15 
REMARK    5  A    between atoms: N_15  and  C_16 
REMARK    6  A    between atoms: C_16  and  C_17 
REMARK    7  A    between atoms: C_18  and  C_19 
REMARK    8  A    between atoms: C_19  and  N_20 
ROOT
HETATM    1  C   UNL     1      -5.075   4.313 -31.607  1.00  0.00     0.251 C 
HETATM    2  N   UNL     1      -3.822   4.533 -31.073  1.00  0.00    -0.353 N 
HETATM    3  O   UNL     1      -5.911   5.199 -31.741  1.00  0.00    -0.268 OA
HETATM    4  H   UNL     1      -3.119   3.812 -31.153  1.00  0.00     0.163 HD
ENDROOT
BRANCH   1   5
HETATM    5  C   UNL     1      -5.390   2.922 -32.023  1.00  0.00     0.032 A 
HETATM    6  C   UNL     1      -5.372   1.860 -31.113  1.00  0.00     0.020 A 
HETATM    7  C   UNL     1      -5.759   0.583 -31.528  1.00  0.00     0.038 A 
HETATM    8  C   UNL     1      -6.185   0.361 -32.840  1.00  0.00     0.069 A 
HETATM    9  C   UNL     1      -6.176   1.412 -33.756  1.00  0.00     0.038 A 
HETATM   10  C   UNL     1      -5.791   2.693 -33.345  1.00  0.00     0.020 A 
BRANCH   8  11
HETATM   11  O   UNL     1      -6.579  -0.919 -33.104  1.00  0.00    -0.347 OA
BRANCH  11  12
HETATM   12  C   UNL     1      -6.177  -1.468 -34.361  1.00  0.00     0.219 C 
BRANCH  12  13
HETATM   13  C   UNL     1      -5.286  -2.636 -34.143  1.00  0.00     0.024 A 
HETATM   14  C   UNL     1      -5.453  -3.958 -34.641  1.00  0.00     0.069 A 
HETATM   15  C   UNL     1      -6.549  -4.487 -35.487  1.00  0.00     0.073 C 
HETATM   16  N   UNL     1      -4.457  -4.760 -34.249  1.00  0.00    -0.133 NA
HETATM   17  O   UNL     1      -3.626  -3.975 -33.475  1.00  0.00    -0.217 OA
HETATM   18  C   UNL     1      -4.121  -2.712 -33.410  1.00  0.00     0.085 A 
HETATM   19  C   UNL     1      -3.350  -1.747 -32.605  1.00  0.00     0.079 C 
ENDBRANCH  12  13
ENDBRANCH  11  12
ENDBRANCH   8  11
ENDBRANCH   1   5
BRANCH   2  20
HETATM   20  C   UNL     1      -3.469   5.821 -30.531  1.00  0.00     0.162 C 
BRANCH  20  21
HETATM   21  C   UNL     1      -2.010   6.149 -30.754  1.00  0.00    -0.033 A 
HETATM   22  C   UNL     1      -1.520   6.969 -31.796  1.00  0.00    -0.025 A 
HETATM   23  C   UNL     1      -0.129   7.196 -31.886  1.00  0.00     0.009 A 
HETATM   24  C   UNL     1       0.757   6.627 -30.972  1.00  0.00     0.001 A 
HETATM   25  C   UNL     1       0.274   5.825 -29.948  1.00  0.00     0.001 A 
HETATM   26  C   UNL     1      -1.095   5.592 -29.839  1.00  0.00     0.009 A 
BRANCH  22  27
HETATM   27  C   UNL     1      -2.402   7.621 -32.831  1.00  0.00     0.274 C 
BRANCH  27  28
HETATM   28  N   UNL     1      -2.331   6.967 -34.191  1.00  0.00    -0.067 N 
HETATM   29  H   UNL     1      -2.507   7.709 -34.881  1.00  0.00     0.280 HD
HETATM   30  C   UNL     1      -3.379   5.890 -34.382  1.00  0.00     0.235 C 
HETATM   31  C   UNL     1      -2.597   4.601 -34.263  1.00  0.00     0.029 C 
HETATM   32  C   UNL     1      -1.310   4.931 -34.989  1.00  0.00     0.029 C 
HETATM   33  C   UNL     1      -0.987   6.343 -34.531  1.00  0.00     0.235 C 
ENDBRANCH  27  28
ENDBRANCH  22  27
ENDBRANCH  20  21
ENDBRANCH   2  20
TORSDOF 8
ENDMDL
MODEL 9
REMARK VINA RESULT:      -7.9      6.091      9.488
REMARK  8 active torsions:
REMARK  status: ('A' for Active; 'I' for Inactive)
REMARK    1  A    between atoms: C_7  and  C_8 
REMARK    2  A    between atoms: C_8  and  O_9 
REMARK    3  A    between atoms: O_9  and  C_10 
REMARK    4  A    between atoms: C_13  and  C_14 
REMARK       I    between atoms: C_14  and  N_15 
REMARK    5  A    between atoms: N_15  and  C_16 
REMARK    6  A    between atoms: C_16  and  C_17 
REMARK    7  A    between atoms: C_18  and  C_19 
REMARK    8  A    between atoms: C_19  and  N_20 
ROOT
HETATM    1  C   UNL     1      -8.986   2.325 -34.305  1.00  0.00     0.251 C 
HETATM    2  N   UNL     1      -8.322   1.205 -34.764  1.00  0.00    -0.353 N 
HETATM    3  O   UNL     1      -8.419   3.380 -34.047  1.00  0.00    -0.268 OA
HETATM    4  H   UNL     1      -8.858   0.430 -35.127  1.00  0.00     0.163 HD
ENDROOT
BRANCH   1   5
HETATM    5  C   UNL     1     -10.455   2.204 -34.123  1.00  0.00     0.032 A 
HETATM    6  C   UNL     1     -11.333   3.214 -34.531  1.00  0.00     0.020 A 
HETATM    7  C   UNL     1     -12.712   3.021 -34.421  1.00  0.00     0.038 A 
HETATM    8  C   UNL     1     -13.225   1.820 -33.926  1.00  0.00     0.069 A 
HETATM    9  C   UNL     1     -12.352   0.824 -33.491  1.00  0.00     0.038 A 
HETATM   10  C   UNL     1     -10.970   1.011 -33.602  1.00  0.00     0.020 A 
BRANCH   8  11
HETATM   11  O   UNL     1     -14.588   1.743 -33.913  1.00  0.00    -0.347 OA
BRANCH  11  12
HETATM   12  C   UNL     1     -15.211   1.613 -32.633  1.00  0.00     0.219 C 
BRANCH  12  13
HETATM   13  C   UNL     1     -15.630   2.948 -32.135  1.00  0.00     0.024 A 
HETATM   14  C   UNL     1     -16.922   3.538 -32.220  1.00  0.00     0.069 A 
HETATM   15  C   UNL     1     -18.151   2.971 -32.824  1.00  0.00     0.073 C 
HETATM   16  N   UNL     1     -16.943   4.755 -31.665  1.00  0.00    -0.133 NA
HETATM   17  O   UNL     1     -15.657   4.986 -31.217  1.00  0.00    -0.217 OA
HETATM   18  C   UNL     1     -14.876   3.911 -31.500  1.00  0.00     0.085 A 
HETATM   19  C   UNL     1     -13.462   4.006 -31.094  1.00  0.00     0.079 C 
ENDBRANCH  12  13
ENDBRANCH  11  12
ENDBRANCH   8  11
ENDBRANCH   1   5
BRANCH   2  20
HETATM   20  C   UNL     1      -6.885   1.189 -34.857  1.00  0.00     0.162 C 
BRANCH  20  21
HETATM   21  C   UNL     1      -6.307  -0.156 -34.478  1.00  0.00    -0.033 A 
HETATM   22  C   UNL     1      -5.284  -0.351 -33.522  1.00  0.00    -0.025 A 
HETATM   23  C   UNL     1      -4.839  -1.666 -33.262  1.00  0.00     0.009 A 
HETATM   24  C   UNL     1      -5.389  -2.761 -33.927  1.00  0.00     0.001 A 
HETATM   25  C   UNL     1      -6.396  -2.567 -34.862  1.00  0.00     0.001 A 
HETATM   26  C   UNL     1      -6.852  -1.280 -35.131  1.00  0.00     0.009 A 
BRANCH  22  27
HETATM   27  C   UNL     1      -4.629   0.772 -32.758  1.00  0.00     0.274 C 
BRANCH  27  28
HETATM   28  N   UNL     1      -5.320   1.108 -31.458  1.00  0.00    -0.067 N 
HETATM   29  H   UNL     1      -4.577   1.239 -30.758  1.00  0.00     0.280 HD
HETATM   30  C   UNL     1      -6.232   0.001 -30.973  1.00  0.00     0.235 C 
HETATM   31  C   UNL     1      -7.621   0.517 -31.277  1.00  0.00     0.029 C 
HETATM   32  C   UNL     1      -7.506   1.987 -30.932  1.00  0.00     0.029 C 
HETATM   33  C   UNL     1      -6.147   2.384 -31.484  1.00  0.00     0.235 C 
ENDBRANCH  27  28
ENDBRANCH  22  27
ENDBRANCH  20  21
ENDBRANCH   2  20
TORSDOF 8
ENDMDL
MODEL 10
REMARK VINA RESULT:      -7.9      2.877     10.658
REMARK  8 active torsions:
REMARK  status: ('A' for Active; 'I' for Inactive)
REMARK    1  A    between atoms: C_7  and  C_8 
REMARK    2  A    between atoms: C_8  and  O_9 
REMARK    3  A    between atoms: O_9  and  C_10 
REMARK    4  A    between atoms: C_13  and  C_14 
REMARK       I    between atoms: C_14  and  N_15 
REMARK    5  A    between atoms: N_15  and  C_16 
REMARK    6  A    between atoms: C_16  and  C_17 
REMARK    7  A    between atoms: C_18  and  C_19 
REMARK    8  A    between atoms: C_19  and  N_20 
ROOT
HETATM    1  C   UNL     1      -2.328   4.141 -32.075  1.00  0.00     0.251 C 
HETATM    2  N   UNL     1      -3.006   3.209 -31.316  1.00  0.00    -0.353 N 
HETATM    3  O   UNL     1      -2.256   4.084 -33.297  1.00  0.00    -0.268 OA
HETATM    4  H   UNL     1      -3.182   3.403 -30.340  1.00  0.00     0.163 HD
ENDROOT
BRANCH   1   5
HETATM    5  C   UNL     1      -1.662   5.246 -31.339  1.00  0.00     0.032 A 
HETATM    6  C   UNL     1      -2.392   6.177 -30.592  1.00  0.00     0.020 A 
HETATM    7  C   UNL     1      -1.720   7.147 -29.845  1.00  0.00     0.038 A 
HETATM    8  C   UNL     1      -0.324   7.185 -29.820  1.00  0.00     0.069 A 
HETATM    9  C   UNL     1       0.405   6.276 -30.587  1.00  0.00     0.038 A 
HETATM   10  C   UNL     1      -0.263   5.301 -31.335  1.00  0.00     0.020 A 
BRANCH   8  11
HETATM   11  O   UNL     1       0.208   8.151 -29.016  1.00  0.00    -0.347 OA
BRANCH  11  12
HETATM   12  C   UNL     1       0.687   7.730 -27.737  1.00  0.00     0.219 C 
BRANCH  12  13
HETATM   13  C   UNL     1      -0.139   8.335 -26.662  1.00  0.00     0.024 A 
HETATM   14  C   UNL     1       0.001   9.628 -26.085  1.00  0.00     0.069 A 
HETATM   15  C   UNL     1       0.999  10.674 -26.410  1.00  0.00     0.073 C 
HETATM   16  N   UNL     1      -0.919   9.845 -25.138  1.00  0.00    -0.133 NA
HETATM   17  O   UNL     1      -1.671   8.689 -25.073  1.00  0.00    -0.217 OA
HETATM   18  C   UNL     1      -1.204   7.789 -25.978  1.00  0.00     0.085 A 
HETATM   19  C   UNL     1      -1.897   6.488 -26.025  1.00  0.00     0.079 C 
ENDBRANCH  12  13
ENDBRANCH  11  12
ENDBRANCH   8  11
ENDBRANCH   1   5
BRANCH   2  20
HETATM   20  C   UNL     1      -3.581   2.038 -31.928  1.00  0.00     0.162 C 
BRANCH  20  21
HETATM   21  C   UNL     1      -5.061   1.920 -31.647  1.00  0.00    -0.033 A 
HETATM   22  C   UNL     1      -5.786   0.706 -31.652  1.00  0.00    -0.025 A 
HETATM   23  C   UNL     1      -7.169   0.739 -31.368  1.00  0.00     0.009 A 
HETATM   24  C   UNL     1      -7.821   1.940 -31.087  1.00  0.00     0.001 A 
HETATM   25  C   UNL     1      -7.107   3.129 -31.079  1.00  0.00     0.001 A 
HETATM   26  C   UNL     1      -5.742   3.118 -31.353  1.00  0.00     0.009 A 
BRANCH  22  27
HETATM   27  C   UNL     1      -5.166  -0.636 -31.949  1.00  0.00     0.274 C 
BRANCH  27  28
HETATM   28  N   UNL     1      -4.936  -0.888 -33.420  1.00  0.00    -0.067 N 
HETATM   29  H   UNL     1      -4.184  -0.249 -33.711  1.00  0.00     0.280 HD
HETATM   30  C   UNL     1      -6.157  -0.591 -34.266  1.00  0.00     0.235 C 
HETATM   31  C   UNL     1      -6.694  -1.960 -34.618  1.00  0.00     0.029 C 
HETATM   32  C   UNL     1      -5.429  -2.753 -34.870  1.00  0.00     0.029 C 
HETATM   33  C   UNL     1      -4.490  -2.300 -33.766  1.00  0.00     0.235 C 
ENDBRANCH  27  28
ENDBRANCH  22  27
ENDBRANCH  20  21
ENDBRANCH   2  20
TORSDOF 8
ENDMDL
