MODEL 1
REMARK VINA RESULT:      -9.0      0.000      0.000
REMARK  7 active torsions:
REMARK  status: ('A' for Active; 'I' for Inactive)
REMARK    1  A    between atoms: C_2  and  C_3 
REMARK    2  A    between atoms: C_3  and  N_4 
REMARK    3  A    between atoms: C_3  and  C_22 
REMARK       I    between atoms: N_4  and  C_5 
REMARK       I    between atoms: C_5  and  N_6 
REMARK    4  A    between atoms: N_6  and  C_7 
REMARK    5  A    between atoms: C_7  and  C_8 
REMARK    6  A    between atoms: C_11  and  N_12 
REMARK       I    between atoms: N_12  and  C_13 
REMARK       I    between atoms: C_13  and  N_14 
REMARK    7  A    between atoms: N_14  and  C_15 
ROOT
HETATM    1  N   UNL     1      -2.384   5.123 -30.855  1.00  0.00    -0.331 N 
HETATM    2  C   UNL     1      -2.628   3.997 -31.582  1.00  0.00     0.317 C 
HETATM    3  N   UNL     1      -3.590   3.225 -30.998  1.00  0.00    -0.339 N 
HETATM    4  O   UNL     1      -2.060   3.717 -32.629  1.00  0.00    -0.247 OA
HETATM    5  H   UNL     1      -3.083   5.417 -30.184  1.00  0.00     0.165 HD
HETATM    6  H   UNL     1      -3.656   3.297 -29.993  1.00  0.00     0.164 HD
ENDROOT
BRANCH   1   7
HETATM    7  C   UNL     1      -1.490   6.170 -31.318  1.00  0.00     0.159 C 
BRANCH   7   8
HETATM    8  C   UNL     1      -2.241   7.304 -32.067  1.00  0.00     0.008 C 
HETATM    9  C   UNL     1      -3.721   7.361 -31.672  1.00  0.00     0.012 C 
HETATM   10  C   UNL     1      -2.109   7.238 -33.593  1.00  0.00     0.012 C 
ENDBRANCH   7   8
BRANCH   7  11
HETATM   11  C   UNL     1      -0.750   6.654 -30.102  1.00  0.00     0.128 A 
HETATM   12  N   UNL     1       0.181   7.592 -30.064  1.00  0.00    -0.231 NA
HETATM   13  C   UNL     1       0.563   7.681 -28.748  1.00  0.00     0.085 A 
HETATM   14  C   UNL     1      -0.162   6.795 -27.960  1.00  0.00     0.062 A 
HETATM   15  C   UNL     1       1.528   8.502 -28.148  1.00  0.00     0.034 A 
HETATM   16  N   UNL     1      -1.001   6.164 -28.842  1.00  0.00    -0.341 N 
HETATM   17  C   UNL     1       0.020   6.671 -26.581  1.00  0.00     0.032 A 
HETATM   18  H   UNL     1      -1.679   5.455 -28.609  1.00  0.00     0.167 HD
HETATM   19  C   UNL     1       0.989   7.497 -25.999  1.00  0.00     0.002 A 
HETATM   20  C   UNL     1       1.732   8.397 -26.766  1.00  0.00     0.002 A 
ENDBRANCH   7  11
ENDBRANCH   1   7
BRANCH   3  21
HETATM   21  C   UNL     1      -3.987   1.969 -31.593  1.00  0.00     0.162 C 
BRANCH  21  22
HETATM   22  C   UNL     1      -5.488   1.860 -31.664  1.00  0.00    -0.040 A 
HETATM   23  C   UNL     1      -6.139   0.704 -31.211  1.00  0.00     0.011 A 
HETATM   24  C   UNL     1      -7.526   0.570 -31.328  1.00  0.00     0.030 A 
HETATM   25  C   UNL     1      -8.291   1.591 -31.890  1.00  0.00     0.036 A 
HETATM   26  C   UNL     1      -7.651   2.770 -32.292  1.00  0.00     0.030 A 
HETATM   27  C   UNL     1      -6.261   2.902 -32.185  1.00  0.00     0.011 A 
BRANCH  25  28
HETATM   28  N   UNL     1      -9.683   1.508 -32.092  1.00  0.00    -0.309 N 
HETATM   29  C   UNL     1     -10.336   1.165 -33.258  1.00  0.00     0.321 C 
HETATM   30  N   UNL     1     -11.705   1.239 -33.079  1.00  0.00    -0.339 N 
HETATM   31  O   UNL     1      -9.816   0.880 -34.327  1.00  0.00    -0.247 OA
HETATM   32  H   UNL     1     -12.027   1.024 -32.149  1.00  0.00     0.164 HD
HETATM   33  H   UNL     1     -10.264   1.939 -31.390  1.00  0.00     0.170 HD
BRANCH  30  34
HETATM   34  C   UNL     1     -12.668   1.020 -34.154  1.00  0.00     0.078 C 
HETATM   35  C   UNL     1     -13.838   0.140 -33.720  1.00  0.00     0.032 C 
HETATM   36  C   UNL     1     -13.146   2.326 -34.782  1.00  0.00     0.032 C 
ENDBRANCH  30  34
ENDBRANCH  25  28
ENDBRANCH  21  22
ENDBRANCH   3  21
TORSDOF 7
ENDMDL
MODEL 2
REMARK VINA RESULT:      -8.4      3.196     10.943
REMARK  7 active torsions:
REMARK  status: ('A' for Active; 'I' for Inactive)
REMARK    1  A    between atoms: C_2  and  C_3 
REMARK    2  A    between atoms: C_3  and  N_4 
REMARK    3  A    between atoms: C_3  and  C_22 
REMARK       I    between atoms: N_4  and  C_5 
REMARK       I    between atoms: C_5  and  N_6 
REMARK    4  A    between atoms: N_6  and  C_7 
REMARK    5  A    between atoms: C_7  and  C_8 
REMARK    6  A    between atoms: C_11  and  N_12 
REMARK       I    between atoms: N_12  and  C_13 
REMARK       I    between atoms: C_13  and  N_14 
REMARK    7  A    between atoms: N_14  and  C_15 
ROOT
HETATM    1  N   UNL     1      -4.839   3.586 -32.545  1.00  0.00    -0.331 N 
HETATM    2  C   UNL     1      -3.478   3.661 -32.563  1.00  0.00     0.317 C 
HETATM    3  N   UNL     1      -3.046   4.714 -33.317  1.00  0.00    -0.339 N 
HETATM    4  O   UNL     1      -2.738   2.886 -31.972  1.00  0.00    -0.247 OA
HETATM    5  H   UNL     1      -5.364   4.412 -32.805  1.00  0.00     0.165 HD
HETATM    6  H   UNL     1      -3.656   4.986 -34.074  1.00  0.00     0.164 HD
ENDROOT
BRANCH   1   7
HETATM    7  C   UNL     1      -5.555   2.629 -31.722  1.00  0.00     0.159 C 
BRANCH   7   8
HETATM    8  C   UNL     1      -6.969   3.130 -31.323  1.00  0.00     0.008 C 
HETATM    9  C   UNL     1      -7.360   4.396 -32.093  1.00  0.00     0.012 C 
HETATM   10  C   UNL     1      -7.149   3.358 -29.818  1.00  0.00     0.012 C 
ENDBRANCH   7   8
BRANCH   7  11
HETATM   11  C   UNL     1      -5.582   1.344 -32.502  1.00  0.00     0.128 A 
HETATM   12  N   UNL     1      -6.485   0.981 -33.396  1.00  0.00    -0.231 NA
HETATM   13  C   UNL     1      -6.095  -0.262 -33.831  1.00  0.00     0.085 A 
HETATM   14  C   UNL     1      -4.921  -0.662 -33.205  1.00  0.00     0.062 A 
HETATM   15  C   UNL     1      -6.700  -1.116 -34.764  1.00  0.00     0.034 A 
HETATM   16  N   UNL     1      -4.606   0.384 -32.375  1.00  0.00    -0.341 N 
HETATM   17  C   UNL     1      -4.297  -1.886 -33.454  1.00  0.00     0.032 A 
HETATM   18  H   UNL     1      -3.802   0.436 -31.769  1.00  0.00     0.167 HD
HETATM   19  C   UNL     1      -4.915  -2.726 -34.388  1.00  0.00     0.002 A 
HETATM   20  C   UNL     1      -6.096  -2.352 -35.033  1.00  0.00     0.002 A 
ENDBRANCH   7  11
ENDBRANCH   1   7
BRANCH   3  21
HETATM   21  C   UNL     1      -1.633   4.964 -33.489  1.00  0.00     0.162 C 
BRANCH  21  22
HETATM   22  C   UNL     1      -1.065   5.676 -32.290  1.00  0.00    -0.040 A 
HETATM   23  C   UNL     1      -1.630   6.878 -31.841  1.00  0.00     0.011 A 
HETATM   24  C   UNL     1      -1.072   7.575 -30.765  1.00  0.00     0.030 A 
HETATM   25  C   UNL     1       0.056   7.082 -30.111  1.00  0.00     0.036 A 
HETATM   26  C   UNL     1       0.591   5.854 -30.521  1.00  0.00     0.030 A 
HETATM   27  C   UNL     1       0.039   5.159 -31.603  1.00  0.00     0.011 A 
BRANCH  25  28
HETATM   28  N   UNL     1       0.708   7.754 -29.057  1.00  0.00    -0.309 N 
HETATM   29  C   UNL     1       0.554   7.530 -27.704  1.00  0.00     0.321 C 
HETATM   30  N   UNL     1       1.327   8.419 -26.981  1.00  0.00    -0.339 N 
HETATM   31  O   UNL     1      -0.188   6.711 -27.182  1.00  0.00    -0.247 OA
HETATM   32  H   UNL     1       2.186   8.700 -27.429  1.00  0.00     0.164 HD
HETATM   33  H   UNL     1       1.172   8.616 -29.296  1.00  0.00     0.170 HD
BRANCH  30  34
HETATM   34  C   UNL     1       1.313   8.494 -25.524  1.00  0.00     0.078 C 
HETATM   35  C   UNL     1       2.692   8.798 -24.940  1.00  0.00     0.032 C 
HETATM   36  C   UNL     1       0.253   9.459 -25.001  1.00  0.00     0.032 C 
ENDBRANCH  30  34
ENDBRANCH  25  28
ENDBRANCH  21  22
ENDBRANCH   3  21
TORSDOF 7
ENDMDL
MODEL 3
REMARK VINA RESULT:      -8.3      3.903     12.183
REMARK  7 active torsions:
REMARK  status: ('A' for Active; 'I' for Inactive)
REMARK    1  A    between atoms: C_2  and  C_3 
REMARK    2  A    between atoms: C_3  and  N_4 
REMARK    3  A    between atoms: C_3  and  C_22 
REMARK       I    between atoms: N_4  and  C_5 
REMARK       I    between atoms: C_5  and  N_6 
REMARK    4  A    between atoms: N_6  and  C_7 
REMARK    5  A    between atoms: C_7  and  C_8 
REMARK    6  A    between atoms: C_11  and  N_12 
REMARK       I    between atoms: N_12  and  C_13 
REMARK       I    between atoms: C_13  and  N_14 
REMARK    7  A    between atoms: N_14  and  C_15 
ROOT
HETATM    1  N   UNL     1      -2.206   5.455 -30.781  1.00  0.00    -0.331 N 
HETATM    2  C   UNL     1      -2.650   6.548 -30.099  1.00  0.00     0.317 C 
HETATM    3  N   UNL     1      -1.992   6.698 -28.913  1.00  0.00    -0.339 N 
HETATM    4  O   UNL     1      -3.524   7.304 -30.504  1.00  0.00    -0.247 OA
HETATM    5  H   UNL     1      -1.306   5.068 -30.526  1.00  0.00     0.165 HD
HETATM    6  H   UNL     1      -1.654   5.845 -28.492  1.00  0.00     0.164 HD
ENDROOT
BRANCH   1   7
HETATM    7  C   UNL     1      -2.658   5.139 -32.124  1.00  0.00     0.159 C 
BRANCH   7   8
HETATM    8  C   UNL     1      -1.532   5.295 -33.181  1.00  0.00     0.008 C 
HETATM    9  C   UNL     1      -0.780   6.620 -33.017  1.00  0.00     0.012 C 
HETATM   10  C   UNL     1      -2.010   5.142 -34.630  1.00  0.00     0.012 C 
ENDBRANCH   7   8
BRANCH   7  11
HETATM   11  C   UNL     1      -3.218   3.745 -32.059  1.00  0.00     0.128 A 
HETATM   12  N   UNL     1      -2.691   2.710 -31.428  1.00  0.00    -0.231 NA
HETATM   13  C   UNL     1      -3.549   1.662 -31.655  1.00  0.00     0.085 A 
HETATM   14  C   UNL     1      -4.633   2.067 -32.425  1.00  0.00     0.062 A 
HETATM   15  C   UNL     1      -3.466   0.328 -31.234  1.00  0.00     0.034 A 
HETATM   16  N   UNL     1      -4.406   3.399 -32.656  1.00  0.00    -0.341 N 
HETATM   17  C   UNL     1      -5.662   1.206 -32.812  1.00  0.00     0.032 A 
HETATM   18  H   UNL     1      -5.005   4.018 -33.183  1.00  0.00     0.167 HD
HETATM   19  C   UNL     1      -5.562  -0.123 -32.384  1.00  0.00     0.002 A 
HETATM   20  C   UNL     1      -4.484  -0.559 -31.609  1.00  0.00     0.002 A 
ENDBRANCH   7  11
ENDBRANCH   1   7
BRANCH   3  21
HETATM   21  C   UNL     1      -2.324   7.784 -28.020  1.00  0.00     0.162 C 
BRANCH  21  22
HETATM   22  C   UNL     1      -1.078   8.403 -27.441  1.00  0.00    -0.040 A 
HETATM   23  C   UNL     1       0.189   7.986 -27.872  1.00  0.00     0.011 A 
HETATM   24  C   UNL     1       1.351   8.513 -27.298  1.00  0.00     0.030 A 
HETATM   25  C   UNL     1       1.269   9.473 -26.290  1.00  0.00     0.036 A 
HETATM   26  C   UNL     1       0.006   9.932 -25.896  1.00  0.00     0.030 A 
HETATM   27  C   UNL     1      -1.158   9.399 -26.463  1.00  0.00     0.011 A 
BRANCH  25  28
HETATM   28  N   UNL     1       2.390  10.009 -25.625  1.00  0.00    -0.309 N 
HETATM   29  C   UNL     1       3.056   9.467 -24.545  1.00  0.00     0.321 C 
HETATM   30  N   UNL     1       4.078  10.307 -24.142  1.00  0.00    -0.339 N 
HETATM   31  O   UNL     1       2.781   8.425 -23.968  1.00  0.00    -0.247 OA
HETATM   32  H   UNL     1       4.507  10.842 -24.881  1.00  0.00     0.164 HD
HETATM   33  H   UNL     1       2.601  10.977 -25.814  1.00  0.00     0.170 HD
BRANCH  30  34
HETATM   34  C   UNL     1       4.910  10.054 -22.970  1.00  0.00     0.078 C 
HETATM   35  C   UNL     1       6.198   9.311 -23.317  1.00  0.00     0.032 C 
HETATM   36  C   UNL     1       5.187  11.323 -22.169  1.00  0.00     0.032 C 
ENDBRANCH  30  34
ENDBRANCH  25  28
ENDBRANCH  21  22
ENDBRANCH   3  21
TORSDOF 7
ENDMDL
MODEL 4
REMARK VINA RESULT:      -8.1      2.524     11.028
REMARK  7 active torsions:
REMARK  status: ('A' for Active; 'I' for Inactive)
REMARK    1  A    between atoms: C_2  and  C_3 
REMARK    2  A    between atoms: C_3  and  N_4 
REMARK    3  A    between atoms: C_3  and  C_22 
REMARK       I    between atoms: N_4  and  C_5 
REMARK       I    between atoms: C_5  and  N_6 
REMARK    4  A    between atoms: N_6  and  C_7 
REMARK    5  A    between atoms: C_7  and  C_8 
REMARK    6  A    between atoms: C_11  and  N_12 
REMARK       I    between atoms: N_12  and  C_13 
REMARK       I    between atoms: C_13  and  N_14 
REMARK    7  A    between atoms: N_14  and  C_15 
ROOT
HETATM    1  N   UNL     1     -11.480   2.001 -33.053  1.00  0.00    -0.331 N 
HETATM    2  C   UNL     1     -10.324   1.282 -33.119  1.00  0.00     0.317 C 
HETATM    3  N   UNL     1      -9.741   1.162 -31.891  1.00  0.00    -0.339 N 
HETATM    4  O   UNL     1      -9.870   0.801 -34.148  1.00  0.00    -0.247 OA
HETATM    5  H   UNL     1     -11.924   2.105 -32.150  1.00  0.00     0.165 HD
HETATM    6  H   UNL     1      -9.922   1.918 -31.247  1.00  0.00     0.164 HD
ENDROOT
BRANCH   1   7
HETATM    7  C   UNL     1     -12.355   2.174 -34.199  1.00  0.00     0.159 C 
BRANCH   7   8
HETATM    8  C   UNL     1     -13.840   1.873 -33.861  1.00  0.00     0.008 C 
HETATM    9  C   UNL     1     -14.222   2.390 -32.470  1.00  0.00     0.012 C 
HETATM   10  C   UNL     1     -14.223   0.394 -33.992  1.00  0.00     0.012 C 
ENDBRANCH   7   8
BRANCH   7  11
HETATM   11  C   UNL     1     -12.133   3.579 -34.685  1.00  0.00     0.128 A 
HETATM   12  N   UNL     1     -10.978   4.219 -34.755  1.00  0.00    -0.231 NA
HETATM   13  C   UNL     1     -11.275   5.464 -35.252  1.00  0.00     0.085 A 
HETATM   14  C   UNL     1     -12.635   5.584 -35.510  1.00  0.00     0.062 A 
HETATM   15  C   UNL     1     -10.429   6.551 -35.511  1.00  0.00     0.034 A 
HETATM   16  N   UNL     1     -13.157   4.367 -35.155  1.00  0.00    -0.341 N 
HETATM   17  C   UNL     1     -13.219   6.746 -36.019  1.00  0.00     0.032 A 
HETATM   18  H   UNL     1     -14.127   4.098 -35.219  1.00  0.00     0.167 HD
HETATM   19  C   UNL     1     -12.359   7.822 -36.270  1.00  0.00     0.002 A 
HETATM   20  C   UNL     1     -10.987   7.730 -36.021  1.00  0.00     0.002 A 
ENDBRANCH   7  11
ENDBRANCH   1   7
BRANCH   3  21
HETATM   21  C   UNL     1      -8.489   0.455 -31.737  1.00  0.00     0.162 C 
BRANCH  21  22
HETATM   22  C   UNL     1      -7.367   1.412 -31.430  1.00  0.00    -0.040 A 
HETATM   23  C   UNL     1      -7.277   2.642 -32.097  1.00  0.00     0.011 A 
HETATM   24  C   UNL     1      -6.207   3.510 -31.861  1.00  0.00     0.030 A 
HETATM   25  C   UNL     1      -5.210   3.171 -30.947  1.00  0.00     0.036 A 
HETATM   26  C   UNL     1      -5.325   1.969 -30.238  1.00  0.00     0.030 A 
HETATM   27  C   UNL     1      -6.392   1.095 -30.480  1.00  0.00     0.011 A 
BRANCH  25  28
HETATM   28  N   UNL     1      -4.073   3.966 -30.696  1.00  0.00    -0.309 N 
HETATM   29  C   UNL     1      -2.964   4.112 -31.505  1.00  0.00     0.321 C 
HETATM   30  N   UNL     1      -2.037   4.938 -30.899  1.00  0.00    -0.339 N 
HETATM   31  O   UNL     1      -2.772   3.567 -32.582  1.00  0.00    -0.247 OA
HETATM   32  H   UNL     1      -2.426   5.659 -30.311  1.00  0.00     0.164 HD
HETATM   33  H   UNL     1      -3.957   4.294 -29.751  1.00  0.00     0.170 HD
BRANCH  30  34
HETATM   34  C   UNL     1      -0.720   5.218 -31.465  1.00  0.00     0.078 C 
HETATM   35  C   UNL     1      -0.693   6.516 -32.270  1.00  0.00     0.032 C 
HETATM   36  C   UNL     1       0.384   5.182 -30.412  1.00  0.00     0.032 C 
ENDBRANCH  30  34
ENDBRANCH  25  28
ENDBRANCH  21  22
ENDBRANCH   3  21
TORSDOF 7
ENDMDL
MODEL 5
REMARK VINA RESULT:      -7.9      2.638     10.261
REMARK  7 active torsions:
REMARK  status: ('A' for Active; 'I' for Inactive)
REMARK    1  A    between atoms: C_2  and  C_3 
REMARK    2  A    between atoms: C_3  and  N_4 
REMARK    3  A    between atoms: C_3  and  C_22 
REMARK       I    between atoms: N_4  and  C_5 
REMARK       I    between atoms: C_5  and  N_6 
REMARK    4  A    between atoms: N_6  and  C_7 
REMARK    5  A    between atoms: C_7  and  C_8 
REMARK    6  A    between atoms: C_11  and  N_12 
REMARK       I    between atoms: N_12  and  C_13 
REMARK       I    between atoms: C_13  and  N_14 
REMARK    7  A    between atoms: N_14  and  C_15 
ROOT
HETATM    1  N   UNL     1     -10.109   3.048 -32.803  1.00  0.00    -0.331 N 
HETATM    2  C   UNL     1      -9.921   3.586 -31.566  1.00  0.00     0.317 C 
HETATM    3  N   UNL     1      -9.690   4.929 -31.636  1.00  0.00    -0.339 N 
HETATM    4  O   UNL     1      -9.961   2.946 -30.523  1.00  0.00    -0.247 OA
HETATM    5  H   UNL     1     -10.348   3.673 -33.562  1.00  0.00     0.165 HD
HETATM    6  H   UNL     1      -9.250   5.252 -32.486  1.00  0.00     0.164 HD
ENDROOT
BRANCH   1   7
HETATM    7  C   UNL     1     -10.489   1.660 -32.999  1.00  0.00     0.159 C 
BRANCH   7   8
HETATM    8  C   UNL     1     -11.488   1.479 -34.173  1.00  0.00     0.008 C 
HETATM    9  C   UNL     1     -11.861   2.820 -34.813  1.00  0.00     0.012 C 
HETATM   10  C   UNL     1     -12.758   0.707 -33.799  1.00  0.00     0.012 C 
ENDBRANCH   7   8
BRANCH   7  11
HETATM   11  C   UNL     1      -9.207   0.899 -33.191  1.00  0.00     0.128 A 
HETATM   12  N   UNL     1      -8.764   0.367 -34.317  1.00  0.00    -0.231 NA
HETATM   13  C   UNL     1      -7.566  -0.225 -34.000  1.00  0.00     0.085 A 
HETATM   14  C   UNL     1      -7.259  -0.036 -32.658  1.00  0.00     0.062 A 
HETATM   15  C   UNL     1      -6.680  -0.946 -34.812  1.00  0.00     0.034 A 
HETATM   16  N   UNL     1      -8.311   0.694 -32.169  1.00  0.00    -0.341 N 
HETATM   17  C   UNL     1      -6.099  -0.533 -32.060  1.00  0.00     0.032 A 
HETATM   18  H   UNL     1      -8.414   1.018 -31.219  1.00  0.00     0.167 HD
HETATM   19  C   UNL     1      -5.226  -1.252 -32.885  1.00  0.00     0.002 A 
HETATM   20  C   UNL     1      -5.509  -1.458 -34.238  1.00  0.00     0.002 A 
ENDBRANCH   7  11
ENDBRANCH   1   7
BRANCH   3  21
HETATM   21  C   UNL     1      -9.441   5.696 -30.437  1.00  0.00     0.162 C 
BRANCH  21  22
HETATM   22  C   UNL     1      -7.961   5.844 -30.193  1.00  0.00    -0.040 A 
HETATM   23  C   UNL     1      -7.222   6.823 -30.872  1.00  0.00     0.011 A 
HETATM   24  C   UNL     1      -5.839   6.929 -30.696  1.00  0.00     0.030 A 
HETATM   25  C   UNL     1      -5.168   6.065 -29.832  1.00  0.00     0.036 A 
HETATM   26  C   UNL     1      -5.910   5.122 -29.110  1.00  0.00     0.030 A 
HETATM   27  C   UNL     1      -7.294   5.008 -29.292  1.00  0.00     0.011 A 
BRANCH  25  28
HETATM   28  N   UNL     1      -3.771   6.072 -29.644  1.00  0.00    -0.309 N 
HETATM   29  C   UNL     1      -2.801   5.840 -30.599  1.00  0.00     0.321 C 
HETATM   30  N   UNL     1      -1.545   5.886 -30.024  1.00  0.00    -0.339 N 
HETATM   31  O   UNL     1      -2.988   5.578 -31.778  1.00  0.00    -0.247 OA
HETATM   32  H   UNL     1      -1.454   6.520 -29.246  1.00  0.00     0.164 HD
HETATM   33  H   UNL     1      -3.448   6.033 -28.691  1.00  0.00     0.170 HD
BRANCH  30  34
HETATM   34  C   UNL     1      -0.316   5.594 -30.757  1.00  0.00     0.078 C 
HETATM   35  C   UNL     1       0.272   6.833 -31.429  1.00  0.00     0.032 C 
HETATM   36  C   UNL     1       0.717   4.874 -29.895  1.00  0.00     0.032 C 
ENDBRANCH  30  34
ENDBRANCH  25  28
ENDBRANCH  21  22
ENDBRANCH   3  21
TORSDOF 7
ENDMDL
MODEL 6
REMARK VINA RESULT:      -7.8      2.862     11.295
REMARK  7 active torsions:
REMARK  status: ('A' for Active; 'I' for Inactive)
REMARK    1  A    between atoms: C_2  and  C_3 
REMARK    2  A    between atoms: C_3  and  N_4 
REMARK    3  A    between atoms: C_3  and  C_22 
REMARK       I    between atoms: N_4  and  C_5 
REMARK       I    between atoms: C_5  and  N_6 
REMARK    4  A    between atoms: N_6  and  C_7 
REMARK    5  A    between atoms: C_7  and  C_8 
REMARK    6  A    between atoms: C_11  and  N_12 
REMARK       I    between atoms: N_12  and  C_13 
REMARK       I    between atoms: C_13  and  N_14 
REMARK    7  A    between atoms: N_14  and  C_15 
ROOT
HETATM    1  N   UNL     1      -5.075   3.016 -30.104  1.00  0.00    -0.331 N 
HETATM    2  C   UNL     1      -4.487   3.800 -31.051  1.00  0.00     0.317 C 
HETATM    3  N   UNL     1      -3.141   3.899 -30.852  1.00  0.00    -0.339 N 
HETATM    4  O   UNL     1      -5.091   4.340 -31.968  1.00  0.00    -0.247 OA
HETATM    5  H   UNL     1      -4.485   2.387 -29.574  1.00  0.00     0.165 HD
HETATM    6  H   UNL     1      -2.835   3.814 -29.893  1.00  0.00     0.164 HD
ENDROOT
BRANCH   1   7
HETATM    7  C   UNL     1      -6.480   2.653 -30.155  1.00  0.00     0.159 C 
BRANCH   7   8
HETATM    8  C   UNL     1      -7.412   3.894 -30.195  1.00  0.00     0.008 C 
HETATM    9  C   UNL     1      -7.130   4.853 -29.034  1.00  0.00     0.012 C 
HETATM   10  C   UNL     1      -8.905   3.552 -30.241  1.00  0.00     0.012 C 
ENDBRANCH   7   8
BRANCH   7  11
HETATM   11  C   UNL     1      -6.636   1.758 -31.353  1.00  0.00     0.128 A 
HETATM   12  N   UNL     1      -6.386   0.461 -31.409  1.00  0.00    -0.231 NA
HETATM   13  C   UNL     1      -6.669   0.085 -32.699  1.00  0.00     0.085 A 
HETATM   14  C   UNL     1      -7.120   1.169 -33.444  1.00  0.00     0.062 A 
HETATM   15  C   UNL     1      -6.564  -1.172 -33.310  1.00  0.00     0.034 A 
HETATM   16  N   UNL     1      -7.104   2.217 -32.561  1.00  0.00    -0.341 N 
HETATM   17  C   UNL     1      -7.479   1.076 -34.790  1.00  0.00     0.032 A 
HETATM   18  H   UNL     1      -7.379   3.166 -32.765  1.00  0.00     0.167 HD
HETATM   19  C   UNL     1      -7.367  -0.186 -35.385  1.00  0.00     0.002 A 
HETATM   20  C   UNL     1      -6.917  -1.293 -34.661  1.00  0.00     0.002 A 
ENDBRANCH   7  11
ENDBRANCH   1   7
BRANCH   3  21
HETATM   21  C   UNL     1      -2.325   4.704 -31.731  1.00  0.00     0.162 C 
BRANCH  21  22
HETATM   22  C   UNL     1      -1.412   5.605 -30.940  1.00  0.00    -0.040 A 
HETATM   23  C   UNL     1      -0.166   5.143 -30.495  1.00  0.00     0.011 A 
HETATM   24  C   UNL     1       0.662   5.952 -29.710  1.00  0.00     0.030 A 
HETATM   25  C   UNL     1       0.264   7.242 -29.362  1.00  0.00     0.036 A 
HETATM   26  C   UNL     1      -0.955   7.728 -29.850  1.00  0.00     0.030 A 
HETATM   27  C   UNL     1      -1.789   6.915 -30.629  1.00  0.00     0.011 A 
BRANCH  25  28
HETATM   28  N   UNL     1       1.015   8.096 -28.530  1.00  0.00    -0.309 N 
HETATM   29  C   UNL     1       0.933   8.205 -27.156  1.00  0.00     0.321 C 
HETATM   30  N   UNL     1       1.796   9.184 -26.702  1.00  0.00    -0.339 N 
HETATM   31  O   UNL     1       0.182   7.581 -26.420  1.00  0.00    -0.247 OA
HETATM   32  H   UNL     1       2.639   9.296 -27.244  1.00  0.00     0.164 HD
HETATM   33  H   UNL     1       1.508   8.847 -28.987  1.00  0.00     0.170 HD
BRANCH  30  34
HETATM   34  C   UNL     1       1.877   9.598 -25.304  1.00  0.00     0.078 C 
HETATM   35  C   UNL     1       3.142   9.089 -24.616  1.00  0.00     0.032 C 
HETATM   36  C   UNL     1       1.706  11.104 -25.132  1.00  0.00     0.032 C 
ENDBRANCH  30  34
ENDBRANCH  25  28
ENDBRANCH  21  22
ENDBRANCH   3  21
TORSDOF 7
ENDMDL
MODEL 7
REMARK VINA RESULT:      -7.7      2.751      4.977
REMARK  7 active torsions:
REMARK  status: ('A' for Active; 'I' for Inactive)
REMARK    1  A    between atoms: C_2  and  C_3 
REMARK    2  A    between atoms: C_3  and  N_4 
REMARK    3  A    between atoms: C_3  and  C_22 
REMARK       I    between atoms: N_4  and  C_5 
REMARK       I    between atoms: C_5  and  N_6 
REMARK    4  A    between atoms: N_6  and  C_7 
REMARK    5  A    between atoms: C_7  and  C_8 
REMARK    6  A    between atoms: C_11  and  N_12 
REMARK       I    between atoms: N_12  and  C_13 
REMARK       I    between atoms: C_13  and  N_14 
REMARK    7  A    between atoms: N_14  and  C_15 
ROOT
HETATM    1  N   UNL     1      -2.333   6.909 -28.203  1.00  0.00    -0.331 N 
HETATM    2  C   UNL     1      -3.579   7.421 -28.408  1.00  0.00     0.317 C 
HETATM    3  N   UNL     1      -4.483   6.901 -27.528  1.00  0.00    -0.339 N 
HETATM    4  O   UNL     1      -3.850   8.248 -29.268  1.00  0.00    -0.247 OA
HETATM    5  H   UNL     1      -2.139   6.471 -27.311  1.00  0.00     0.165 HD
HETATM    6  H   UNL     1      -4.283   5.968 -27.198  1.00  0.00     0.164 HD
ENDROOT
BRANCH   1   7
HETATM    7  C   UNL     1      -1.167   7.384 -28.927  1.00  0.00     0.159 C 
BRANCH   7   8
HETATM    8  C   UNL     1       0.164   6.984 -28.235  1.00  0.00     0.008 C 
HETATM    9  C   UNL     1      -0.081   6.308 -26.882  1.00  0.00     0.012 C 
HETATM   10  C   UNL     1       1.154   8.143 -28.069  1.00  0.00     0.012 C 
ENDBRANCH   7   8
BRANCH   7  11
HETATM   11  C   UNL     1      -1.293   6.843 -30.323  1.00  0.00     0.128 A 
HETATM   12  N   UNL     1      -0.909   7.437 -31.440  1.00  0.00    -0.231 NA
HETATM   13  C   UNL     1      -1.232   6.567 -32.452  1.00  0.00     0.085 A 
HETATM   14  C   UNL     1      -1.809   5.408 -31.945  1.00  0.00     0.062 A 
HETATM   15  C   UNL     1      -1.062   6.699 -33.837  1.00  0.00     0.034 A 
HETATM   16  N   UNL     1      -1.823   5.602 -30.588  1.00  0.00    -0.341 N 
HETATM   17  C   UNL     1      -2.237   4.351 -32.750  1.00  0.00     0.032 A 
HETATM   18  H   UNL     1      -2.171   4.950 -29.902  1.00  0.00     0.167 HD
HETATM   19  C   UNL     1      -2.061   4.501 -34.131  1.00  0.00     0.002 A 
HETATM   20  C   UNL     1      -1.484   5.654 -34.669  1.00  0.00     0.002 A 
ENDBRANCH   7  11
ENDBRANCH   1   7
BRANCH   3  21
HETATM   21  C   UNL     1      -5.873   7.292 -27.585  1.00  0.00     0.162 C 
BRANCH  21  22
HETATM   22  C   UNL     1      -6.679   6.293 -28.374  1.00  0.00    -0.040 A 
HETATM   23  C   UNL     1      -7.979   6.603 -28.797  1.00  0.00     0.011 A 
HETATM   24  C   UNL     1      -8.755   5.660 -29.478  1.00  0.00     0.030 A 
HETATM   25  C   UNL     1      -8.245   4.393 -29.759  1.00  0.00     0.036 A 
HETATM   26  C   UNL     1      -6.928   4.099 -29.387  1.00  0.00     0.030 A 
HETATM   27  C   UNL     1      -6.152   5.038 -28.696  1.00  0.00     0.011 A 
BRANCH  25  28
HETATM   28  N   UNL     1      -8.984   3.372 -30.390  1.00  0.00    -0.309 N 
HETATM   29  C   UNL     1      -8.845   2.925 -31.688  1.00  0.00     0.321 C 
HETATM   30  N   UNL     1      -9.780   1.942 -31.958  1.00  0.00    -0.339 N 
HETATM   31  O   UNL     1      -8.057   3.345 -32.523  1.00  0.00    -0.247 OA
HETATM   32  H   UNL     1     -10.035   1.368 -31.169  1.00  0.00     0.164 HD
HETATM   33  H   UNL     1      -9.831   3.082 -29.928  1.00  0.00     0.170 HD
BRANCH  30  34
HETATM   34  C   UNL     1      -9.946   1.331 -33.273  1.00  0.00     0.078 C 
HETATM   35  C   UNL     1      -9.048   0.111 -33.469  1.00  0.00     0.032 C 
HETATM   36  C   UNL     1     -11.405   1.015 -33.588  1.00  0.00     0.032 C 
ENDBRANCH  30  34
ENDBRANCH  25  28
ENDBRANCH  21  22
ENDBRANCH   3  21
TORSDOF 7
ENDMDL
MODEL 8
REMARK VINA RESULT:      -7.7      5.223      8.822
REMARK  7 active torsions:
REMARK  status: ('A' for Active; 'I' for Inactive)
REMARK    1  A    between atoms: C_2  and  C_3 
REMARK    2  A    between atoms: C_3  and  N_4 
REMARK    3  A    between atoms: C_3  and  C_22 
REMARK       I    between atoms: N_4  and  C_5 
REMARK       I    between atoms: C_5  and  N_6 
REMARK    4  A    between atoms: N_6  and  C_7 
REMARK    5  A    between atoms: C_7  and  C_8 
REMARK    6  A    between atoms: C_11  and  N_12 
REMARK       I    between atoms: N_12  and  C_13 
REMARK       I    between atoms: C_13  and  N_14 
REMARK    7  A    between atoms: N_14  and  C_15 
ROOT
HETATM    1  N   UNL     1      -6.367   1.478 -33.050  1.00  0.00    -0.331 N 
HETATM    2  C   UNL     1      -6.615   2.707 -33.584  1.00  0.00     0.317 C 
HETATM    3  N   UNL     1      -7.907   3.090 -33.375  1.00  0.00    -0.339 N 
HETATM    4  O   UNL     1      -5.780   3.383 -34.172  1.00  0.00    -0.247 OA
HETATM    5  H   UNL     1      -7.004   1.128 -32.346  1.00  0.00     0.165 HD
HETATM    6  H   UNL     1      -8.578   2.339 -33.303  1.00  0.00     0.164 HD
ENDROOT
BRANCH   1   7
HETATM    7  C   UNL     1      -5.039   0.890 -33.031  1.00  0.00     0.159 C 
BRANCH   7   8
HETATM    8  C   UNL     1      -4.359   1.007 -31.640  1.00  0.00     0.008 C 
HETATM    9  C   UNL     1      -5.366   0.825 -30.499  1.00  0.00     0.012 C 
HETATM   10  C   UNL     1      -3.569   2.306 -31.438  1.00  0.00     0.012 C 
ENDBRANCH   7   8
BRANCH   7  11
HETATM   11  C   UNL     1      -5.204  -0.531 -33.490  1.00  0.00     0.128 A 
HETATM   12  N   UNL     1      -6.280  -1.063 -34.045  1.00  0.00    -0.231 NA
HETATM   13  C   UNL     1      -5.961  -2.377 -34.285  1.00  0.00     0.085 A 
HETATM   14  C   UNL     1      -4.658  -2.652 -33.886  1.00  0.00     0.062 A 
HETATM   15  C   UNL     1      -6.738  -3.401 -34.843  1.00  0.00     0.034 A 
HETATM   16  N   UNL     1      -4.193  -1.458 -33.398  1.00  0.00    -0.341 N 
HETATM   17  C   UNL     1      -4.068  -3.912 -34.010  1.00  0.00     0.032 A 
HETATM   18  H   UNL     1      -3.271  -1.291 -33.025  1.00  0.00     0.167 HD
HETATM   19  C   UNL     1      -4.859  -4.923 -34.569  1.00  0.00     0.002 A 
HETATM   20  C   UNL     1      -6.172  -4.676 -34.979  1.00  0.00     0.002 A 
ENDBRANCH   7  11
ENDBRANCH   1   7
BRANCH   3  21
HETATM   21  C   UNL     1      -8.390   4.355 -33.882  1.00  0.00     0.162 C 
BRANCH  21  22
HETATM   22  C   UNL     1      -9.895   4.411 -33.834  1.00  0.00    -0.040 A 
HETATM   23  C   UNL     1     -10.566   5.635 -33.971  1.00  0.00     0.011 A 
HETATM   24  C   UNL     1     -11.959   5.704 -33.869  1.00  0.00     0.030 A 
HETATM   25  C   UNL     1     -12.709   4.553 -33.638  1.00  0.00     0.036 A 
HETATM   26  C   UNL     1     -12.048   3.321 -33.556  1.00  0.00     0.030 A 
HETATM   27  C   UNL     1     -10.653   3.250 -33.648  1.00  0.00     0.011 A 
BRANCH  25  28
HETATM   28  N   UNL     1     -14.109   4.550 -33.467  1.00  0.00    -0.309 N 
HETATM   29  C   UNL     1     -14.810   4.889 -32.328  1.00  0.00     0.321 C 
HETATM   30  N   UNL     1     -16.166   4.717 -32.532  1.00  0.00    -0.339 N 
HETATM   31  O   UNL     1     -14.334   5.245 -31.259  1.00  0.00    -0.247 OA
HETATM   32  H   UNL     1     -16.480   4.877 -33.477  1.00  0.00     0.164 HD
HETATM   33  H   UNL     1     -14.643   4.056 -34.165  1.00  0.00     0.170 HD
BRANCH  30  34
HETATM   34  C   UNL     1     -17.166   4.908 -31.486  1.00  0.00     0.078 C 
HETATM   35  C   UNL     1     -17.674   6.347 -31.419  1.00  0.00     0.032 C 
HETATM   36  C   UNL     1     -18.314   3.907 -31.588  1.00  0.00     0.032 C 
ENDBRANCH  30  34
ENDBRANCH  25  28
ENDBRANCH  21  22
ENDBRANCH   3  21
TORSDOF 7
ENDMDL
MODEL 9
REMARK VINA RESULT:      -7.6      1.961     11.272
REMARK  7 active torsions:
REMARK  status: ('A' for Active; 'I' for Inactive)
REMARK    1  A    between atoms: C_2  and  C_3 
REMARK    2  A    between atoms: C_3  and  N_4 
REMARK    3  A    between atoms: C_3  and  C_22 
REMARK       I    between atoms: N_4  and  C_5 
REMARK       I    between atoms: C_5  and  N_6 
REMARK    4  A    between atoms: N_6  and  C_7 
REMARK    5  A    between atoms: C_7  and  C_8 
REMARK    6  A    between atoms: C_11  and  N_12 
REMARK       I    between atoms: N_12  and  C_13 
REMARK       I    between atoms: C_13  and  N_14 
REMARK    7  A    between atoms: N_14  and  C_15 
ROOT
HETATM    1  N   UNL     1      -7.452   2.838 -33.013  1.00  0.00    -0.331 N 
HETATM    2  C   UNL     1      -6.320   2.998 -33.755  1.00  0.00     0.317 C 
HETATM    3  N   UNL     1      -5.948   4.309 -33.822  1.00  0.00    -0.339 N 
HETATM    4  O   UNL     1      -5.710   2.080 -34.287  1.00  0.00    -0.247 OA
HETATM    5  H   UNL     1      -7.716   3.583 -32.382  1.00  0.00     0.165 HD
HETATM    6  H   UNL     1      -6.701   4.979 -33.754  1.00  0.00     0.164 HD
ENDROOT
BRANCH   1   7
HETATM    7  C   UNL     1      -7.991   1.529 -32.688  1.00  0.00     0.159 C 
BRANCH   7   8
HETATM    8  C   UNL     1      -7.648   1.090 -31.239  1.00  0.00     0.008 C 
HETATM    9  C   UNL     1      -7.213   2.278 -30.374  1.00  0.00     0.012 C 
HETATM   10  C   UNL     1      -6.601  -0.027 -31.156  1.00  0.00     0.012 C 
ENDBRANCH   7   8
BRANCH   7  11
HETATM   11  C   UNL     1      -9.469   1.611 -32.946  1.00  0.00     0.128 A 
HETATM   12  N   UNL     1     -10.250   0.639 -33.387  1.00  0.00    -0.231 NA
HETATM   13  C   UNL     1     -11.508   1.184 -33.470  1.00  0.00     0.085 A 
HETATM   14  C   UNL     1     -11.502   2.511 -33.054  1.00  0.00     0.062 A 
HETATM   15  C   UNL     1     -12.711   0.604 -33.894  1.00  0.00     0.034 A 
HETATM   16  N   UNL     1     -10.197   2.753 -32.712  1.00  0.00    -0.341 N 
HETATM   17  C   UNL     1     -12.645   3.312 -33.035  1.00  0.00     0.032 A 
HETATM   18  H   UNL     1      -9.831   3.624 -32.357  1.00  0.00     0.167 HD
HETATM   19  C   UNL     1     -13.837   2.717 -33.464  1.00  0.00     0.002 A 
HETATM   20  C   UNL     1     -13.873   1.386 -33.888  1.00  0.00     0.002 A 
ENDBRANCH   7  11
ENDBRANCH   1   7
BRANCH   3  21
HETATM   21  C   UNL     1      -4.784   4.706 -34.580  1.00  0.00     0.162 C 
BRANCH  21  22
HETATM   22  C   UNL     1      -3.645   5.069 -33.663  1.00  0.00    -0.040 A 
HETATM   23  C   UNL     1      -3.156   4.142 -32.733  1.00  0.00     0.011 A 
HETATM   24  C   UNL     1      -2.140   4.491 -31.838  1.00  0.00     0.030 A 
HETATM   25  C   UNL     1      -1.586   5.770 -31.861  1.00  0.00     0.036 A 
HETATM   26  C   UNL     1      -2.033   6.681 -32.825  1.00  0.00     0.030 A 
HETATM   27  C   UNL     1      -3.057   6.337 -33.716  1.00  0.00     0.011 A 
BRANCH  25  28
HETATM   28  N   UNL     1      -0.600   6.213 -30.957  1.00  0.00    -0.309 N 
HETATM   29  C   UNL     1      -0.802   6.768 -29.709  1.00  0.00     0.321 C 
HETATM   30  N   UNL     1       0.407   7.120 -29.141  1.00  0.00    -0.339 N 
HETATM   31  O   UNL     1      -1.880   6.979 -29.173  1.00  0.00    -0.247 OA
HETATM   32  H   UNL     1       1.187   6.534 -29.397  1.00  0.00     0.164 HD
HETATM   33  H   UNL     1       0.328   6.335 -31.331  1.00  0.00     0.170 HD
BRANCH  30  34
HETATM   34  C   UNL     1       0.521   7.811 -27.860  1.00  0.00     0.078 C 
HETATM   35  C   UNL     1       0.532   6.848 -26.675  1.00  0.00     0.032 C 
HETATM   36  C   UNL     1       1.708   8.770 -27.820  1.00  0.00     0.032 C 
ENDBRANCH  30  34
ENDBRANCH  25  28
ENDBRANCH  21  22
ENDBRANCH   3  21
TORSDOF 7
ENDMDL
MODEL 10
REMARK VINA RESULT:      -7.5     19.176     21.995
REMARK  7 active torsions:
REMARK  status: ('A' for Active; 'I' for Inactive)
REMARK    1  A    between atoms: C_2  and  C_3 
REMARK    2  A    between atoms: C_3  and  N_4 
REMARK    3  A    between atoms: C_3  and  C_22 
REMARK       I    between atoms: N_4  and  C_5 
REMARK       I    between atoms: C_5  and  N_6 
REMARK    4  A    between atoms: N_6  and  C_7 
REMARK    5  A    between atoms: C_7  and  C_8 
REMARK    6  A    between atoms: C_11  and  N_12 
REMARK       I    between atoms: N_12  and  C_13 
REMARK       I    between atoms: C_13  and  N_14 
REMARK    7  A    between atoms: N_14  and  C_15 
ROOT
HETATM    1  N   UNL     1      -4.301 -13.821 -38.649  1.00  0.00    -0.331 N 
HETATM    2  C   UNL     1      -5.311 -12.918 -38.799  1.00  0.00     0.317 C 
HETATM    3  N   UNL     1      -6.395 -13.251 -38.040  1.00  0.00    -0.339 N 
HETATM    4  O   UNL     1      -5.250 -11.931 -39.519  1.00  0.00    -0.247 OA
HETATM    5  H   UNL     1      -4.319 -14.424 -37.836  1.00  0.00     0.165 HD
HETATM    6  H   UNL     1      -6.515 -14.238 -37.862  1.00  0.00     0.164 HD
ENDROOT
BRANCH   1   7
HETATM    7  C   UNL     1      -2.994 -13.635 -39.255  1.00  0.00     0.159 C 
BRANCH   7   8
HETATM    8  C   UNL     1      -1.844 -14.161 -38.355  1.00  0.00     0.008 C 
HETATM    9  C   UNL     1      -2.159 -13.978 -36.867  1.00  0.00     0.012 C 
HETATM   10  C   UNL     1      -0.473 -13.555 -38.677  1.00  0.00     0.012 C 
ENDBRANCH   7   8
BRANCH   7  11
HETATM   11  C   UNL     1      -3.055 -14.314 -40.594  1.00  0.00     0.128 A 
HETATM   12  N   UNL     1      -2.418 -15.417 -40.952  1.00  0.00    -0.231 NA
HETATM   13  C   UNL     1      -2.778 -15.644 -42.257  1.00  0.00     0.085 A 
HETATM   14  C   UNL     1      -3.666 -14.674 -42.704  1.00  0.00     0.062 A 
HETATM   15  C   UNL     1      -2.382 -16.666 -43.131  1.00  0.00     0.034 A 
HETATM   16  N   UNL     1      -3.838 -13.848 -41.623  1.00  0.00    -0.341 N 
HETATM   17  C   UNL     1      -4.196 -14.656 -43.996  1.00  0.00     0.032 A 
HETATM   18  H   UNL     1      -4.431 -13.032 -41.591  1.00  0.00     0.167 HD
HETATM   19  C   UNL     1      -3.789 -15.683 -44.855  1.00  0.00     0.002 A 
HETATM   20  C   UNL     1      -2.897 -16.673 -44.434  1.00  0.00     0.002 A 
ENDBRANCH   7  11
ENDBRANCH   1   7
BRANCH   3  21
HETATM   21  C   UNL     1      -7.590 -12.439 -38.068  1.00  0.00     0.162 C 
BRANCH  21  22
HETATM   22  C   UNL     1      -8.659 -13.087 -38.909  1.00  0.00    -0.040 A 
HETATM   23  C   UNL     1      -8.809 -14.481 -38.919  1.00  0.00     0.011 A 
HETATM   24  C   UNL     1      -9.760 -15.094 -39.742  1.00  0.00     0.030 A 
HETATM   25  C   UNL     1     -10.584 -14.327 -40.563  1.00  0.00     0.036 A 
HETATM   26  C   UNL     1     -10.475 -12.932 -40.515  1.00  0.00     0.030 A 
HETATM   27  C   UNL     1      -9.517 -12.316 -39.699  1.00  0.00     0.011 A 
BRANCH  25  28
HETATM   28  N   UNL     1     -11.525 -14.873 -41.459  1.00  0.00    -0.309 N 
HETATM   29  C   UNL     1     -11.314 -15.884 -42.375  1.00  0.00     0.321 C 
HETATM   30  N   UNL     1     -12.464 -16.113 -43.108  1.00  0.00    -0.339 N 
HETATM   31  O   UNL     1     -10.264 -16.479 -42.574  1.00  0.00    -0.247 OA
HETATM   32  H   UNL     1     -13.326 -15.949 -42.612  1.00  0.00     0.164 HD
HETATM   33  H   UNL     1     -12.371 -14.343 -41.598  1.00  0.00     0.170 HD
BRANCH  30  34
HETATM   34  C   UNL     1     -12.534 -17.062 -44.215  1.00  0.00     0.078 C 
HETATM   35  C   UNL     1     -13.919 -17.690 -44.359  1.00  0.00     0.032 C 
HETATM   36  C   UNL     1     -12.048 -16.458 -45.530  1.00  0.00     0.032 C 
ENDBRANCH  30  34
ENDBRANCH  25  28
ENDBRANCH  21  22
ENDBRANCH   3  21
TORSDOF 7
ENDMDL
