MODEL 1
REMARK VINA RESULT:      -9.7      0.000      0.000
REMARK  9 active torsions:
REMARK  status: ('A' for Active; 'I' for Inactive)
REMARK    1  A    between atoms: C_3  and  C_4 
REMARK    2  A    between atoms: C_4  and  C_5 
REMARK    3  A    between atoms: C_5  and  N_6 
REMARK       I    between atoms: N_6  and  C_7 
REMARK    4  A    between atoms: C_7  and  C_8 
REMARK    5  A    between atoms: C_8  and  C_9 
REMARK    6  A    between atoms: C_9  and  C_10 
REMARK    7  A    between atoms: C_9  and  C_26 
REMARK    8  A    between atoms: C_14  and  C_15 
REMARK    9  A    between atoms: C_28  and  N_29 
ROOT
HETATM    1  C   UNL     1      -4.897   4.108 -31.774  1.00  0.00     0.062 C 
ENDROOT
BRANCH   1   2
HETATM    2  C   UNL     1      -5.817   5.155 -31.125  1.00  0.00     0.116 C 
BRANCH   2   3
HETATM    3  C   UNL     1      -7.083   4.639 -30.465  1.00  0.00     0.218 C 
HETATM    4  N   UNL     1      -8.261   5.003 -31.077  1.00  0.00    -0.361 N 
HETATM    5  H   UNL     1      -8.243   5.727 -31.786  1.00  0.00     0.162 HD
HETATM    6  O   UNL     1      -7.047   3.907 -29.479  1.00  0.00    -0.274 OA
BRANCH   4   7
HETATM    7  C   UNL     1      -9.535   4.580 -30.526  1.00  0.00     0.128 C 
BRANCH   7   8
HETATM    8  C   UNL     1     -10.508   4.096 -31.595  1.00  0.00     0.079 C 
BRANCH   8   9
HETATM    9  C   UNL     1     -10.146   2.706 -32.047  1.00  0.00     0.035 A 
HETATM   10  C   UNL     1     -10.745   2.142 -33.171  1.00  0.00     0.027 A 
HETATM   11  C   UNL     1     -10.416   0.836 -33.523  1.00  0.00     0.003 A 
HETATM   12  C   UNL     1      -9.509   0.128 -32.746  1.00  0.00     0.019 A 
HETATM   13  C   UNL     1      -8.962   0.760 -31.643  1.00  0.00     0.117 A 
HETATM   14  N   UNL     1      -9.260   2.027 -31.280  1.00  0.00    -0.266 NA
ENDBRANCH   8   9
ENDBRANCH   7   8
ENDBRANCH   4   7
ENDBRANCH   2   3
ENDBRANCH   1   2
BRANCH   1  15
HETATM   15  C   UNL     1      -5.612   3.243 -32.794  1.00  0.00    -0.021 A 
HETATM   16  C   UNL     1      -5.389   1.835 -32.979  1.00  0.00    -0.001 A 
HETATM   17  C   UNL     1      -6.257   1.390 -33.973  1.00  0.00     0.043 A 
HETATM   18  C   UNL     1      -4.540   0.893 -32.367  1.00  0.00     0.015 A 
HETATM   19  C   UNL     1      -6.317   0.050 -34.387  1.00  0.00     0.044 A 
HETATM   20  N   UNL     1      -6.974   2.483 -34.400  1.00  0.00    -0.365 N 
HETATM   21  C   UNL     1      -5.475  -0.896 -33.767  1.00  0.00    -0.005 A 
HETATM   22  C   UNL     1      -4.601  -0.451 -32.762  1.00  0.00     0.015 A 
HETATM   23  H   UNL     1      -7.672   2.462 -35.130  1.00  0.00     0.165 HD
HETATM   24  C   UNL     1      -6.623   3.590 -33.676  1.00  0.00     0.097 A 
BRANCH  21  25
HETATM   25  C   UNL     1      -5.510  -2.327 -34.136  1.00  0.00     0.066 A 
HETATM   26  N   UNL     1      -4.356  -3.014 -33.933  1.00  0.00    -0.260 NA
HETATM   27  C   UNL     1      -4.336  -4.328 -34.248  1.00  0.00     0.117 A 
HETATM   28  C   UNL     1      -5.418  -5.010 -34.772  1.00  0.00     0.019 A 
HETATM   29  C   UNL     1      -6.593  -4.301 -34.987  1.00  0.00     0.004 A 
HETATM   30  C   UNL     1      -6.642  -2.946 -34.667  1.00  0.00     0.032 A 
ENDBRANCH  21  25
ENDBRANCH   1  15
BRANCH   1  31
HETATM   31  C   UNL     1      -3.562   4.550 -32.375  1.00  0.00    -0.047 A 
HETATM   32  C   UNL     1      -2.447   4.737 -31.528  1.00  0.00     0.043 A 
HETATM   33  C   UNL     1      -1.213   5.160 -32.045  1.00  0.00     0.103 A 
HETATM   34  C   UNL     1      -1.066   5.427 -33.409  1.00  0.00     0.036 A 
HETATM   35  C   UNL     1      -2.163   5.273 -34.250  1.00  0.00     0.003 A 
HETATM   36  C   UNL     1      -3.394   4.844 -33.738  1.00  0.00     0.008 A 
BRANCH  33  37
HETATM   37  N   UNL     1      -0.063   5.323 -31.147  1.00  0.00    -0.116 N 
HETATM   38  O   UNL     1       0.594   6.371 -31.231  1.00  0.00    -0.532 OA
HETATM   39  O   UNL     1       0.185   4.403 -30.353  1.00  0.00    -0.532 OA
ENDBRANCH  33  37
ENDBRANCH   1  31
TORSDOF 9
ENDMDL
MODEL 2
REMARK VINA RESULT:      -9.7      3.164      7.741
REMARK  9 active torsions:
REMARK  status: ('A' for Active; 'I' for Inactive)
REMARK    1  A    between atoms: C_3  and  C_4 
REMARK    2  A    between atoms: C_4  and  C_5 
REMARK    3  A    between atoms: C_5  and  N_6 
REMARK       I    between atoms: N_6  and  C_7 
REMARK    4  A    between atoms: C_7  and  C_8 
REMARK    5  A    between atoms: C_8  and  C_9 
REMARK    6  A    between atoms: C_9  and  C_10 
REMARK    7  A    between atoms: C_9  and  C_26 
REMARK    8  A    between atoms: C_14  and  C_15 
REMARK    9  A    between atoms: C_28  and  N_29 
ROOT
HETATM    1  C   UNL     1     -10.533   3.593 -33.114  1.00  0.00     0.062 C 
ENDROOT
BRANCH   1   2
HETATM    2  C   UNL     1     -10.107   5.060 -32.947  1.00  0.00     0.116 C 
BRANCH   2   3
HETATM    3  C   UNL     1      -8.691   5.415 -33.365  1.00  0.00     0.218 C 
HETATM    4  N   UNL     1      -7.873   5.875 -32.359  1.00  0.00    -0.361 N 
HETATM    5  H   UNL     1      -8.287   6.137 -31.470  1.00  0.00     0.162 HD
HETATM    6  O   UNL     1      -8.296   5.251 -34.517  1.00  0.00    -0.274 OA
BRANCH   4   7
HETATM    7  C   UNL     1      -6.503   6.259 -32.644  1.00  0.00     0.128 C 
BRANCH   7   8
HETATM    8  C   UNL     1      -5.486   5.274 -32.080  1.00  0.00     0.079 C 
BRANCH   8   9
HETATM    9  C   UNL     1      -4.315   5.131 -33.015  1.00  0.00     0.035 A 
HETATM   10  C   UNL     1      -3.065   4.740 -32.540  1.00  0.00     0.027 A 
HETATM   11  C   UNL     1      -1.999   4.669 -33.433  1.00  0.00     0.003 A 
HETATM   12  C   UNL     1      -2.205   4.993 -34.768  1.00  0.00     0.019 A 
HETATM   13  C   UNL     1      -3.477   5.375 -35.158  1.00  0.00     0.117 A 
HETATM   14  N   UNL     1      -4.529   5.450 -34.314  1.00  0.00    -0.266 NA
ENDBRANCH   8   9
ENDBRANCH   7   8
ENDBRANCH   4   7
ENDBRANCH   2   3
ENDBRANCH   1   2
BRANCH   1  15
HETATM   15  C   UNL     1      -9.620   2.625 -32.386  1.00  0.00    -0.021 A 
HETATM   16  C   UNL     1      -8.915   1.536 -33.006  1.00  0.00    -0.001 A 
HETATM   17  C   UNL     1      -8.151   0.906 -32.026  1.00  0.00     0.043 A 
HETATM   18  C   UNL     1      -8.840   1.046 -34.324  1.00  0.00     0.015 A 
HETATM   19  C   UNL     1      -7.318  -0.190 -32.298  1.00  0.00     0.044 A 
HETATM   20  N   UNL     1      -8.390   1.567 -30.844  1.00  0.00    -0.365 N 
HETATM   21  C   UNL     1      -7.234  -0.675 -33.620  1.00  0.00    -0.005 A 
HETATM   22  C   UNL     1      -8.000  -0.039 -34.611  1.00  0.00     0.015 A 
HETATM   23  H   UNL     1      -7.980   1.318 -29.954  1.00  0.00     0.165 HD
HETATM   24  C   UNL     1      -9.238   2.620 -31.054  1.00  0.00     0.097 A 
BRANCH  21  25
HETATM   25  C   UNL     1      -6.354  -1.807 -33.978  1.00  0.00     0.066 A 
HETATM   26  N   UNL     1      -5.050  -1.673 -33.621  1.00  0.00    -0.260 NA
HETATM   27  C   UNL     1      -4.204  -2.683 -33.919  1.00  0.00     0.117 A 
HETATM   28  C   UNL     1      -4.586  -3.840 -34.572  1.00  0.00     0.019 A 
HETATM   29  C   UNL     1      -5.919  -3.969 -34.942  1.00  0.00     0.004 A 
HETATM   30  C   UNL     1      -6.814  -2.944 -34.644  1.00  0.00     0.032 A 
ENDBRANCH  21  25
ENDBRANCH   1  15
BRANCH   1  31
HETATM   31  C   UNL     1     -11.980   3.192 -32.823  1.00  0.00    -0.047 A 
HETATM   32  C   UNL     1     -12.519   2.041 -33.439  1.00  0.00     0.043 A 
HETATM   33  C   UNL     1     -13.849   1.656 -33.209  1.00  0.00     0.103 A 
HETATM   34  C   UNL     1     -14.677   2.418 -32.381  1.00  0.00     0.036 A 
HETATM   35  C   UNL     1     -14.167   3.570 -31.789  1.00  0.00     0.003 A 
HETATM   36  C   UNL     1     -12.839   3.952 -32.012  1.00  0.00     0.008 A 
BRANCH  33  37
HETATM   37  N   UNL     1     -14.377   0.441 -33.841  1.00  0.00    -0.116 N 
HETATM   38  O   UNL     1     -13.876  -0.645 -33.516  1.00  0.00    -0.532 OA
HETATM   39  O   UNL     1     -15.298   0.571 -34.662  1.00  0.00    -0.532 OA
ENDBRANCH  33  37
ENDBRANCH   1  31
TORSDOF 9
ENDMDL
MODEL 3
REMARK VINA RESULT:      -9.6      2.457      5.529
REMARK  9 active torsions:
REMARK  status: ('A' for Active; 'I' for Inactive)
REMARK    1  A    between atoms: C_3  and  C_4 
REMARK    2  A    between atoms: C_4  and  C_5 
REMARK    3  A    between atoms: C_5  and  N_6 
REMARK       I    between atoms: N_6  and  C_7 
REMARK    4  A    between atoms: C_7  and  C_8 
REMARK    5  A    between atoms: C_8  and  C_9 
REMARK    6  A    between atoms: C_9  and  C_10 
REMARK    7  A    between atoms: C_9  and  C_26 
REMARK    8  A    between atoms: C_14  and  C_15 
REMARK    9  A    between atoms: C_28  and  N_29 
ROOT
HETATM    1  C   UNL     1      -4.430   3.840 -31.282  1.00  0.00     0.062 C 
ENDROOT
BRANCH   1   2
HETATM    2  C   UNL     1      -5.282   4.704 -30.338  1.00  0.00     0.116 C 
BRANCH   2   3
HETATM    3  C   UNL     1      -4.852   6.149 -30.156  1.00  0.00     0.218 C 
HETATM    4  N   UNL     1      -3.989   6.383 -29.110  1.00  0.00    -0.361 N 
HETATM    5  H   UNL     1      -3.845   5.654 -28.419  1.00  0.00     0.162 HD
HETATM    6  O   UNL     1      -5.216   7.035 -30.926  1.00  0.00    -0.274 OA
BRANCH   4   7
HETATM    7  C   UNL     1      -3.522   7.729 -28.830  1.00  0.00     0.128 C 
BRANCH   7   8
HETATM    8  C   UNL     1      -2.222   8.063 -29.552  1.00  0.00     0.079 C 
BRANCH   8   9
HETATM    9  C   UNL     1      -1.037   7.741 -28.681  1.00  0.00     0.035 A 
HETATM   10  C   UNL     1      -0.051   8.694 -28.436  1.00  0.00     0.027 A 
HETATM   11  C   UNL     1       1.052   8.335 -27.666  1.00  0.00     0.003 A 
HETATM   12  C   UNL     1       1.145   7.042 -27.168  1.00  0.00     0.019 A 
HETATM   13  C   UNL     1       0.124   6.156 -27.460  1.00  0.00     0.117 A 
HETATM   14  N   UNL     1      -0.959   6.477 -28.202  1.00  0.00    -0.266 NA
ENDBRANCH   8   9
ENDBRANCH   7   8
ENDBRANCH   4   7
ENDBRANCH   2   3
ENDBRANCH   1   2
BRANCH   1  15
HETATM   15  C   UNL     1      -5.259   3.073 -32.294  1.00  0.00    -0.021 A 
HETATM   16  C   UNL     1      -5.092   1.680 -32.606  1.00  0.00    -0.001 A 
HETATM   17  C   UNL     1      -6.061   1.332 -33.544  1.00  0.00     0.043 A 
HETATM   18  C   UNL     1      -4.215   0.676 -32.152  1.00  0.00     0.015 A 
HETATM   19  C   UNL     1      -6.196   0.031 -34.053  1.00  0.00     0.044 A 
HETATM   20  N   UNL     1      -6.785   2.469 -33.816  1.00  0.00    -0.365 N 
HETATM   21  C   UNL     1      -5.325  -0.978 -33.591  1.00  0.00    -0.005 A 
HETATM   22  C   UNL     1      -4.349  -0.631 -32.642  1.00  0.00     0.015 A 
HETATM   23  H   UNL     1      -7.549   2.520 -34.475  1.00  0.00     0.165 HD
HETATM   24  C   UNL     1      -6.339   3.508 -33.045  1.00  0.00     0.097 A 
BRANCH  21  25
HETATM   25  C   UNL     1      -5.432  -2.374 -34.064  1.00  0.00     0.066 A 
HETATM   26  N   UNL     1      -4.325  -3.141 -33.887  1.00  0.00    -0.260 NA
HETATM   27  C   UNL     1      -4.373  -4.427 -34.297  1.00  0.00     0.117 A 
HETATM   28  C   UNL     1      -5.479  -5.005 -34.892  1.00  0.00     0.019 A 
HETATM   29  C   UNL     1      -6.605  -4.215 -35.080  1.00  0.00     0.004 A 
HETATM   30  C   UNL     1      -6.585  -2.885 -34.663  1.00  0.00     0.032 A 
ENDBRANCH  21  25
ENDBRANCH   1  15
BRANCH   1  31
HETATM   31  C   UNL     1      -3.246   4.472 -32.017  1.00  0.00    -0.047 A 
HETATM   32  C   UNL     1      -2.028   4.670 -31.331  1.00  0.00     0.043 A 
HETATM   33  C   UNL     1      -0.929   5.264 -31.971  1.00  0.00     0.103 A 
HETATM   34  C   UNL     1      -1.024   5.694 -33.297  1.00  0.00     0.036 A 
HETATM   35  C   UNL     1      -2.227   5.529 -33.976  1.00  0.00     0.003 A 
HETATM   36  C   UNL     1      -3.323   4.931 -33.342  1.00  0.00     0.008 A 
BRANCH  33  37
HETATM   37  N   UNL     1       0.334   5.435 -31.243  1.00  0.00    -0.116 N 
HETATM   38  O   UNL     1       0.865   6.556 -31.258  1.00  0.00    -0.532 OA
HETATM   39  O   UNL     1       0.798   4.449 -30.652  1.00  0.00    -0.532 OA
ENDBRANCH  33  37
ENDBRANCH   1  31
TORSDOF 9
ENDMDL
MODEL 4
REMARK VINA RESULT:      -9.6      3.138      7.424
REMARK  9 active torsions:
REMARK  status: ('A' for Active; 'I' for Inactive)
REMARK    1  A    between atoms: C_3  and  C_4 
REMARK    2  A    between atoms: C_4  and  C_5 
REMARK    3  A    between atoms: C_5  and  N_6 
REMARK       I    between atoms: N_6  and  C_7 
REMARK    4  A    between atoms: C_7  and  C_8 
REMARK    5  A    between atoms: C_8  and  C_9 
REMARK    6  A    between atoms: C_9  and  C_10 
REMARK    7  A    between atoms: C_9  and  C_26 
REMARK    8  A    between atoms: C_14  and  C_15 
REMARK    9  A    between atoms: C_28  and  N_29 
ROOT
HETATM    1  C   UNL     1     -10.702   3.664 -33.093  1.00  0.00     0.062 C 
ENDROOT
BRANCH   1   2
HETATM    2  C   UNL     1     -10.287   5.133 -32.911  1.00  0.00     0.116 C 
BRANCH   2   3
HETATM    3  C   UNL     1      -8.799   5.417 -32.814  1.00  0.00     0.218 C 
HETATM    4  N   UNL     1      -8.029   4.902 -33.832  1.00  0.00    -0.361 N 
HETATM    5  H   UNL     1      -8.438   4.219 -34.460  1.00  0.00     0.162 HD
HETATM    6  O   UNL     1      -8.329   6.104 -31.911  1.00  0.00    -0.274 OA
BRANCH   4   7
HETATM    7  C   UNL     1      -6.591   5.098 -33.836  1.00  0.00     0.128 C 
BRANCH   7   8
HETATM    8  C   UNL     1      -5.820   3.803 -34.066  1.00  0.00     0.079 C 
BRANCH   8   9
HETATM    9  C   UNL     1      -5.423   3.184 -32.753  1.00  0.00     0.035 A 
HETATM   10  C   UNL     1      -4.594   2.065 -32.712  1.00  0.00     0.027 A 
HETATM   11  C   UNL     1      -4.294   1.497 -31.477  1.00  0.00     0.003 A 
HETATM   12  C   UNL     1      -4.828   2.053 -30.322  1.00  0.00     0.019 A 
HETATM   13  C   UNL     1      -5.645   3.162 -30.450  1.00  0.00     0.117 A 
HETATM   14  N   UNL     1      -5.951   3.736 -31.634  1.00  0.00    -0.266 NA
ENDBRANCH   8   9
ENDBRANCH   7   8
ENDBRANCH   4   7
ENDBRANCH   2   3
ENDBRANCH   1   2
BRANCH   1  15
HETATM   15  C   UNL     1      -9.802   2.697 -32.348  1.00  0.00    -0.021 A 
HETATM   16  C   UNL     1      -9.047   1.638 -32.961  1.00  0.00    -0.001 A 
HETATM   17  C   UNL     1      -8.315   1.001 -31.962  1.00  0.00     0.043 A 
HETATM   18  C   UNL     1      -8.902   1.184 -34.285  1.00  0.00     0.015 A 
HETATM   19  C   UNL     1      -7.447  -0.072 -32.222  1.00  0.00     0.044 A 
HETATM   20  N   UNL     1      -8.621   1.626 -30.777  1.00  0.00    -0.365 N 
HETATM   21  C   UNL     1      -7.293  -0.521 -33.550  1.00  0.00    -0.005 A 
HETATM   22  C   UNL     1      -8.027   0.123 -34.559  1.00  0.00     0.015 A 
HETATM   23  H   UNL     1      -8.246   1.364 -29.875  1.00  0.00     0.165 HD
HETATM   24  C   UNL     1      -9.481   2.667 -31.000  1.00  0.00     0.097 A 
BRANCH  21  25
HETATM   25  C   UNL     1      -6.373  -1.626 -33.895  1.00  0.00     0.066 A 
HETATM   26  N   UNL     1      -5.092  -1.478 -33.468  1.00  0.00    -0.260 NA
HETATM   27  C   UNL     1      -4.212  -2.463 -33.751  1.00  0.00     0.117 A 
HETATM   28  C   UNL     1      -4.537  -3.607 -34.455  1.00  0.00     0.019 A 
HETATM   29  C   UNL     1      -5.846  -3.750 -34.897  1.00  0.00     0.004 A 
HETATM   30  C   UNL     1      -6.775  -2.750 -34.616  1.00  0.00     0.032 A 
ENDBRANCH  21  25
ENDBRANCH   1  15
BRANCH   1  31
HETATM   31  C   UNL     1     -12.154   3.256 -32.838  1.00  0.00    -0.047 A 
HETATM   32  C   UNL     1     -12.666   2.090 -33.450  1.00  0.00     0.043 A 
HETATM   33  C   UNL     1     -13.999   1.698 -33.252  1.00  0.00     0.103 A 
HETATM   34  C   UNL     1     -14.857   2.467 -32.461  1.00  0.00     0.036 A 
HETATM   35  C   UNL     1     -14.373   3.632 -31.874  1.00  0.00     0.003 A 
HETATM   36  C   UNL     1     -13.042   4.022 -32.065  1.00  0.00     0.008 A 
BRANCH  33  37
HETATM   37  N   UNL     1     -14.499   0.469 -33.879  1.00  0.00    -0.116 N 
HETATM   38  O   UNL     1     -13.977  -0.605 -33.546  1.00  0.00    -0.532 OA
HETATM   39  O   UNL     1     -15.419   0.574 -34.704  1.00  0.00    -0.532 OA
ENDBRANCH  33  37
ENDBRANCH   1  31
TORSDOF 9
ENDMDL
MODEL 5
REMARK VINA RESULT:      -9.6      3.060      6.626
REMARK  9 active torsions:
REMARK  status: ('A' for Active; 'I' for Inactive)
REMARK    1  A    between atoms: C_3  and  C_4 
REMARK    2  A    between atoms: C_4  and  C_5 
REMARK    3  A    between atoms: C_5  and  N_6 
REMARK       I    between atoms: N_6  and  C_7 
REMARK    4  A    between atoms: C_7  and  C_8 
REMARK    5  A    between atoms: C_8  and  C_9 
REMARK    6  A    between atoms: C_9  and  C_10 
REMARK    7  A    between atoms: C_9  and  C_26 
REMARK    8  A    between atoms: C_14  and  C_15 
REMARK    9  A    between atoms: C_28  and  N_29 
ROOT
HETATM    1  C   UNL     1      -8.346   4.189 -33.769  1.00  0.00     0.062 C 
ENDROOT
BRANCH   1   2
HETATM    2  C   UNL     1      -7.508   5.333 -33.175  1.00  0.00     0.116 C 
BRANCH   2   3
HETATM    3  C   UNL     1      -6.042   5.384 -33.569  1.00  0.00     0.218 C 
HETATM    4  N   UNL     1      -5.224   6.092 -32.718  1.00  0.00    -0.361 N 
HETATM    5  H   UNL     1      -5.645   6.686 -32.013  1.00  0.00     0.162 HD
HETATM    6  O   UNL     1      -5.616   4.790 -34.556  1.00  0.00    -0.274 OA
BRANCH   4   7
HETATM    7  C   UNL     1      -3.807   6.222 -33.002  1.00  0.00     0.128 C 
BRANCH   7   8
HETATM    8  C   UNL     1      -2.934   5.487 -31.992  1.00  0.00     0.079 C 
BRANCH   8   9
HETATM    9  C   UNL     1      -3.477   4.108 -31.728  1.00  0.00     0.035 A 
HETATM   10  C   UNL     1      -3.093   3.026 -32.518  1.00  0.00     0.027 A 
HETATM   11  C   UNL     1      -3.659   1.779 -32.269  1.00  0.00     0.003 A 
HETATM   12  C   UNL     1      -4.593   1.645 -31.249  1.00  0.00     0.019 A 
HETATM   13  C   UNL     1      -4.921   2.769 -30.514  1.00  0.00     0.117 A 
HETATM   14  N   UNL     1      -4.386   3.991 -30.731  1.00  0.00    -0.266 NA
ENDBRANCH   8   9
ENDBRANCH   7   8
ENDBRANCH   4   7
ENDBRANCH   2   3
ENDBRANCH   1   2
BRANCH   1  15
HETATM   15  C   UNL     1      -8.207   2.891 -32.997  1.00  0.00    -0.021 A 
HETATM   16  C   UNL     1      -7.663   1.672 -33.531  1.00  0.00    -0.001 A 
HETATM   17  C   UNL     1      -7.662   0.721 -32.513  1.00  0.00     0.043 A 
HETATM   18  C   UNL     1      -7.145   1.302 -34.787  1.00  0.00     0.015 A 
HETATM   19  C   UNL     1      -7.171  -0.583 -32.689  1.00  0.00     0.044 A 
HETATM   20  N   UNL     1      -8.203   1.322 -31.401  1.00  0.00    -0.365 N 
HETATM   21  C   UNL     1      -6.643  -0.951 -33.944  1.00  0.00    -0.005 A 
HETATM   22  C   UNL     1      -6.639   0.007 -34.971  1.00  0.00     0.015 A 
HETATM   23  H   UNL     1      -8.341   0.863 -30.510  1.00  0.00     0.165 HD
HETATM   24  C   UNL     1      -8.498   2.631 -31.667  1.00  0.00     0.097 A 
BRANCH  21  25
HETATM   25  C   UNL     1      -6.085  -2.298 -34.186  1.00  0.00     0.066 A 
HETATM   26  N   UNL     1      -4.773  -2.455 -33.872  1.00  0.00    -0.260 NA
HETATM   27  C   UNL     1      -4.214  -3.669 -34.069  1.00  0.00     0.117 A 
HETATM   28  C   UNL     1      -4.899  -4.758 -34.577  1.00  0.00     0.019 A 
HETATM   29  C   UNL     1      -6.238  -4.590 -34.905  1.00  0.00     0.004 A 
HETATM   30  C   UNL     1      -6.839  -3.349 -34.709  1.00  0.00     0.032 A 
ENDBRANCH  21  25
ENDBRANCH   1  15
BRANCH   1  31
HETATM   31  C   UNL     1      -9.831   4.415 -34.056  1.00  0.00    -0.047 A 
HETATM   32  C   UNL     1     -10.572   3.411 -34.717  1.00  0.00     0.043 A 
HETATM   33  C   UNL     1     -11.932   3.595 -35.013  1.00  0.00     0.103 A 
HETATM   34  C   UNL     1     -12.578   4.788 -34.677  1.00  0.00     0.036 A 
HETATM   35  C   UNL     1     -11.853   5.796 -34.050  1.00  0.00     0.003 A 
HETATM   36  C   UNL     1     -10.498   5.613 -33.748  1.00  0.00     0.008 A 
BRANCH  33  37
HETATM   37  N   UNL     1     -12.685   2.526 -35.678  1.00  0.00    -0.116 N 
HETATM   38  O   UNL     1     -12.410   2.272 -36.860  1.00  0.00    -0.532 OA
HETATM   39  O   UNL     1     -13.553   1.934 -35.018  1.00  0.00    -0.532 OA
ENDBRANCH  33  37
ENDBRANCH   1  31
TORSDOF 9
ENDMDL
MODEL 6
REMARK VINA RESULT:      -9.5      1.886      2.326
REMARK  9 active torsions:
REMARK  status: ('A' for Active; 'I' for Inactive)
REMARK    1  A    between atoms: C_3  and  C_4 
REMARK    2  A    between atoms: C_4  and  C_5 
REMARK    3  A    between atoms: C_5  and  N_6 
REMARK       I    between atoms: N_6  and  C_7 
REMARK    4  A    between atoms: C_7  and  C_8 
REMARK    5  A    between atoms: C_8  and  C_9 
REMARK    6  A    between atoms: C_9  and  C_10 
REMARK    7  A    between atoms: C_9  and  C_26 
REMARK    8  A    between atoms: C_14  and  C_15 
REMARK    9  A    between atoms: C_28  and  N_29 
ROOT
HETATM    1  C   UNL     1      -5.357   4.557 -32.888  1.00  0.00     0.062 C 
ENDROOT
BRANCH   1   2
HETATM    2  C   UNL     1      -6.424   4.456 -33.990  1.00  0.00     0.116 C 
BRANCH   2   3
HETATM    3  C   UNL     1      -7.802   5.003 -33.662  1.00  0.00     0.218 C 
HETATM    4  N   UNL     1      -8.861   4.231 -34.081  1.00  0.00    -0.361 N 
HETATM    5  H   UNL     1      -8.690   3.473 -34.733  1.00  0.00     0.162 HD
HETATM    6  O   UNL     1      -7.950   6.041 -33.022  1.00  0.00    -0.274 OA
BRANCH   4   7
HETATM    7  C   UNL     1     -10.225   4.663 -33.837  1.00  0.00     0.128 C 
BRANCH   7   8
HETATM    8  C   UNL     1     -11.102   3.551 -33.271  1.00  0.00     0.079 C 
BRANCH   8   9
HETATM    9  C   UNL     1     -10.256   2.394 -32.810  1.00  0.00     0.035 A 
HETATM   10  C   UNL     1     -10.351   1.149 -33.429  1.00  0.00     0.027 A 
HETATM   11  C   UNL     1      -9.586   0.096 -32.936  1.00  0.00     0.003 A 
HETATM   12  C   UNL     1      -8.755   0.307 -31.843  1.00  0.00     0.019 A 
HETATM   13  C   UNL     1      -8.722   1.573 -31.286  1.00  0.00     0.117 A 
HETATM   14  N   UNL     1      -9.451   2.615 -31.744  1.00  0.00    -0.266 NA
ENDBRANCH   8   9
ENDBRANCH   7   8
ENDBRANCH   4   7
ENDBRANCH   2   3
ENDBRANCH   1   2
BRANCH   1  15
HETATM   15  C   UNL     1      -4.902   3.202 -32.379  1.00  0.00    -0.021 A 
HETATM   16  C   UNL     1      -5.257   1.940 -32.969  1.00  0.00    -0.001 A 
HETATM   17  C   UNL     1      -4.615   0.936 -32.249  1.00  0.00     0.043 A 
HETATM   18  C   UNL     1      -6.051   1.567 -34.070  1.00  0.00     0.015 A 
HETATM   19  C   UNL     1      -4.729  -0.425 -32.576  1.00  0.00     0.044 A 
HETATM   20  N   UNL     1      -3.908   1.549 -31.243  1.00  0.00    -0.365 N 
HETATM   21  C   UNL     1      -5.514  -0.800 -33.686  1.00  0.00    -0.005 A 
HETATM   22  C   UNL     1      -6.160   0.213 -34.415  1.00  0.00     0.015 A 
HETATM   23  H   UNL     1      -3.354   1.064 -30.551  1.00  0.00     0.165 HD
HETATM   24  C   UNL     1      -4.041   2.909 -31.333  1.00  0.00     0.097 A 
BRANCH  21  25
HETATM   25  C   UNL     1      -5.652  -2.212 -34.099  1.00  0.00     0.066 A 
HETATM   26  N   UNL     1      -4.534  -2.973 -33.970  1.00  0.00    -0.260 NA
HETATM   27  C   UNL     1      -4.607  -4.273 -34.328  1.00  0.00     0.117 A 
HETATM   28  C   UNL     1      -5.750  -4.871 -34.825  1.00  0.00     0.019 A 
HETATM   29  C   UNL     1      -6.888  -4.088 -34.964  1.00  0.00     0.004 A 
HETATM   30  C   UNL     1      -6.841  -2.744 -34.599  1.00  0.00     0.032 A 
ENDBRANCH  21  25
ENDBRANCH   1  15
BRANCH   1  31
HETATM   31  C   UNL     1      -4.116   5.420 -33.120  1.00  0.00    -0.047 A 
HETATM   32  C   UNL     1      -3.830   6.478 -32.229  1.00  0.00     0.043 A 
HETATM   33  C   UNL     1      -2.710   7.302 -32.423  1.00  0.00     0.103 A 
HETATM   34  C   UNL     1      -1.864   7.105 -33.518  1.00  0.00     0.036 A 
HETATM   35  C   UNL     1      -2.150   6.084 -34.419  1.00  0.00     0.003 A 
HETATM   36  C   UNL     1      -3.263   5.257 -34.223  1.00  0.00     0.008 A 
BRANCH  33  37
HETATM   37  N   UNL     1      -2.421   8.378 -31.468  1.00  0.00    -0.116 N 
HETATM   38  O   UNL     1      -2.070   9.477 -31.923  1.00  0.00    -0.532 OA
HETATM   39  O   UNL     1      -2.546   8.127 -30.260  1.00  0.00    -0.532 OA
ENDBRANCH  33  37
ENDBRANCH   1  31
TORSDOF 9
ENDMDL
MODEL 7
REMARK VINA RESULT:      -9.5      2.751      7.103
REMARK  9 active torsions:
REMARK  status: ('A' for Active; 'I' for Inactive)
REMARK    1  A    between atoms: C_3  and  C_4 
REMARK    2  A    between atoms: C_4  and  C_5 
REMARK    3  A    between atoms: C_5  and  N_6 
REMARK       I    between atoms: N_6  and  C_7 
REMARK    4  A    between atoms: C_7  and  C_8 
REMARK    5  A    between atoms: C_8  and  C_9 
REMARK    6  A    between atoms: C_9  and  C_10 
REMARK    7  A    between atoms: C_9  and  C_26 
REMARK    8  A    between atoms: C_14  and  C_15 
REMARK    9  A    between atoms: C_28  and  N_29 
ROOT
HETATM    1  C   UNL     1      -7.717   4.326 -33.690  1.00  0.00     0.062 C 
ENDROOT
BRANCH   1   2
HETATM    2  C   UNL     1      -7.144   5.558 -32.971  1.00  0.00     0.116 C 
BRANCH   2   3
HETATM    3  C   UNL     1      -5.656   5.814 -33.131  1.00  0.00     0.218 C 
HETATM    4  N   UNL     1      -5.046   5.140 -34.164  1.00  0.00    -0.361 N 
HETATM    5  H   UNL     1      -5.546   4.386 -34.623  1.00  0.00     0.162 HD
HETATM    6  O   UNL     1      -5.055   6.609 -32.412  1.00  0.00    -0.274 OA
BRANCH   4   7
HETATM    7  C   UNL     1      -3.622   5.295 -34.402  1.00  0.00     0.128 C 
BRANCH   7   8
HETATM    8  C   UNL     1      -2.776   4.360 -33.545  1.00  0.00     0.079 C 
BRANCH   8   9
HETATM    9  C   UNL     1      -1.808   5.148 -32.704  1.00  0.00     0.035 A 
HETATM   10  C   UNL     1      -1.427   6.437 -33.070  1.00  0.00     0.027 A 
HETATM   11  C   UNL     1      -0.490   7.108 -32.289  1.00  0.00     0.003 A 
HETATM   12  C   UNL     1       0.043   6.478 -31.172  1.00  0.00     0.019 A 
HETATM   13  C   UNL     1      -0.387   5.196 -30.879  1.00  0.00     0.117 A 
HETATM   14  N   UNL     1      -1.296   4.522 -31.617  1.00  0.00    -0.266 NA
ENDBRANCH   8   9
ENDBRANCH   7   8
ENDBRANCH   4   7
ENDBRANCH   2   3
ENDBRANCH   1   2
BRANCH   1  15
HETATM   15  C   UNL     1      -7.546   3.045 -32.896  1.00  0.00    -0.021 A 
HETATM   16  C   UNL     1      -7.173   1.774 -33.457  1.00  0.00    -0.001 A 
HETATM   17  C   UNL     1      -7.077   0.858 -32.413  1.00  0.00     0.043 A 
HETATM   18  C   UNL     1      -6.884   1.331 -34.761  1.00  0.00     0.015 A 
HETATM   19  C   UNL     1      -6.708  -0.483 -32.609  1.00  0.00     0.044 A 
HETATM   20  N   UNL     1      -7.397   1.528 -31.257  1.00  0.00    -0.365 N 
HETATM   21  C   UNL     1      -6.406  -0.926 -33.914  1.00  0.00    -0.005 A 
HETATM   22  C   UNL     1      -6.499  -0.002 -34.967  1.00  0.00     0.015 A 
HETATM   23  H   UNL     1      -7.426   1.108 -30.338  1.00  0.00     0.165 HD
HETATM   24  C   UNL     1      -7.643   2.847 -31.528  1.00  0.00     0.097 A 
BRANCH  21  25
HETATM   25  C   UNL     1      -5.983  -2.316 -34.184  1.00  0.00     0.066 A 
HETATM   26  N   UNL     1      -4.682  -2.597 -33.914  1.00  0.00    -0.260 NA
HETATM   27  C   UNL     1      -4.245  -3.855 -34.137  1.00  0.00     0.117 A 
HETATM   28  C   UNL     1      -5.043  -4.871 -34.630  1.00  0.00     0.019 A 
HETATM   29  C   UNL     1      -6.370  -4.577 -34.914  1.00  0.00     0.004 A 
HETATM   30  C   UNL     1      -6.848  -3.287 -34.689  1.00  0.00     0.032 A 
ENDBRANCH  21  25
ENDBRANCH   1  15
BRANCH   1  31
HETATM   31  C   UNL     1      -9.149   4.367 -34.225  1.00  0.00    -0.047 A 
HETATM   32  C   UNL     1      -9.891   3.168 -34.317  1.00  0.00     0.043 A 
HETATM   33  C   UNL     1     -11.200   3.167 -34.822  1.00  0.00     0.103 A 
HETATM   34  C   UNL     1     -11.793   4.353 -35.266  1.00  0.00     0.036 A 
HETATM   35  C   UNL     1     -11.063   5.536 -35.206  1.00  0.00     0.003 A 
HETATM   36  C   UNL     1      -9.759   5.540 -34.697  1.00  0.00     0.008 A 
BRANCH  33  37
HETATM   37  N   UNL     1     -11.959   1.912 -34.884  1.00  0.00    -0.116 N 
HETATM   38  O   UNL     1     -11.870   1.134 -33.922  1.00  0.00    -0.532 OA
HETATM   39  O   UNL     1     -12.648   1.703 -35.893  1.00  0.00    -0.532 OA
ENDBRANCH  33  37
ENDBRANCH   1  31
TORSDOF 9
ENDMDL
MODEL 8
REMARK VINA RESULT:      -9.3      2.208      2.845
REMARK  9 active torsions:
REMARK  status: ('A' for Active; 'I' for Inactive)
REMARK    1  A    between atoms: C_3  and  C_4 
REMARK    2  A    between atoms: C_4  and  C_5 
REMARK    3  A    between atoms: C_5  and  N_6 
REMARK       I    between atoms: N_6  and  C_7 
REMARK    4  A    between atoms: C_7  and  C_8 
REMARK    5  A    between atoms: C_8  and  C_9 
REMARK    6  A    between atoms: C_9  and  C_10 
REMARK    7  A    between atoms: C_9  and  C_26 
REMARK    8  A    between atoms: C_14  and  C_15 
REMARK    9  A    between atoms: C_28  and  N_29 
ROOT
HETATM    1  C   UNL     1      -6.040   4.723 -32.119  1.00  0.00     0.062 C 
ENDROOT
BRANCH   1   2
HETATM    2  C   UNL     1      -6.829   5.070 -33.393  1.00  0.00     0.116 C 
BRANCH   2   3
HETATM    3  C   UNL     1      -8.338   5.162 -33.261  1.00  0.00     0.218 C 
HETATM    4  N   UNL     1      -9.058   4.614 -34.298  1.00  0.00    -0.361 N 
HETATM    5  H   UNL     1      -8.576   4.368 -35.155  1.00  0.00     0.162 HD
HETATM    6  O   UNL     1      -8.873   5.649 -32.267  1.00  0.00    -0.274 OA
BRANCH   4   7
HETATM    7  C   UNL     1     -10.509   4.657 -34.287  1.00  0.00     0.128 C 
BRANCH   7   8
HETATM    8  C   UNL     1     -11.132   3.803 -35.385  1.00  0.00     0.079 C 
BRANCH   8   9
HETATM    9  C   UNL     1     -11.812   2.597 -34.794  1.00  0.00     0.035 A 
HETATM   10  C   UNL     1     -11.109   1.702 -33.991  1.00  0.00     0.027 A 
HETATM   11  C   UNL     1     -11.766   0.574 -33.508  1.00  0.00     0.003 A 
HETATM   12  C   UNL     1     -13.099   0.366 -33.840  1.00  0.00     0.019 A 
HETATM   13  C   UNL     1     -13.723   1.302 -34.645  1.00  0.00     0.117 A 
HETATM   14  N   UNL     1     -13.112   2.407 -35.126  1.00  0.00    -0.266 NA
ENDBRANCH   8   9
ENDBRANCH   7   8
ENDBRANCH   4   7
ENDBRANCH   2   3
ENDBRANCH   1   2
BRANCH   1  15
HETATM   15  C   UNL     1      -6.322   3.322 -31.612  1.00  0.00    -0.021 A 
HETATM   16  C   UNL     1      -6.197   2.123 -32.396  1.00  0.00    -0.001 A 
HETATM   17  C   UNL     1      -6.497   1.040 -31.574  1.00  0.00     0.043 A 
HETATM   18  C   UNL     1      -5.828   1.864 -33.730  1.00  0.00     0.015 A 
HETATM   19  C   UNL     1      -6.450  -0.290 -32.020  1.00  0.00     0.044 A 
HETATM   20  N   UNL     1      -6.815   1.549 -30.337  1.00  0.00    -0.365 N 
HETATM   21  C   UNL     1      -6.070  -0.552 -33.352  1.00  0.00    -0.005 A 
HETATM   22  C   UNL     1      -5.762   0.538 -34.182  1.00  0.00     0.015 A 
HETATM   23  H   UNL     1      -7.091   0.992 -29.540  1.00  0.00     0.165 HD
HETATM   24  C   UNL     1      -6.677   2.911 -30.337  1.00  0.00     0.097 A 
BRANCH  21  25
HETATM   25  C   UNL     1      -5.972  -1.931 -33.876  1.00  0.00     0.066 A 
HETATM   26  N   UNL     1      -4.728  -2.476 -33.865  1.00  0.00    -0.260 NA
HETATM   27  C   UNL     1      -4.584  -3.738 -34.327  1.00  0.00     0.117 A 
HETATM   28  C   UNL     1      -5.627  -4.502 -34.816  1.00  0.00     0.019 A 
HETATM   29  C   UNL     1      -6.896  -3.937 -34.833  1.00  0.00     0.004 A 
HETATM   30  C   UNL     1      -7.073  -2.639 -34.359  1.00  0.00     0.032 A 
ENDBRANCH  21  25
ENDBRANCH   1  15
BRANCH   1  31
HETATM   31  C   UNL     1      -4.528   4.947 -32.087  1.00  0.00    -0.047 A 
HETATM   32  C   UNL     1      -3.992   6.149 -32.599  1.00  0.00     0.043 A 
HETATM   33  C   UNL     1      -2.607   6.378 -32.602  1.00  0.00     0.103 A 
HETATM   34  C   UNL     1      -1.725   5.409 -32.117  1.00  0.00     0.036 A 
HETATM   35  C   UNL     1      -2.237   4.209 -31.635  1.00  0.00     0.003 A 
HETATM   36  C   UNL     1      -3.619   3.981 -31.625  1.00  0.00     0.008 A 
BRANCH  33  37
HETATM   37  N   UNL     1      -2.078   7.647 -33.116  1.00  0.00    -0.116 N 
HETATM   38  O   UNL     1      -2.084   8.627 -32.357  1.00  0.00    -0.532 OA
HETATM   39  O   UNL     1      -1.653   7.666 -34.281  1.00  0.00    -0.532 OA
ENDBRANCH  33  37
ENDBRANCH   1  31
TORSDOF 9
ENDMDL
MODEL 9
REMARK VINA RESULT:      -9.2      3.079      6.771
REMARK  9 active torsions:
REMARK  status: ('A' for Active; 'I' for Inactive)
REMARK    1  A    between atoms: C_3  and  C_4 
REMARK    2  A    between atoms: C_4  and  C_5 
REMARK    3  A    between atoms: C_5  and  N_6 
REMARK       I    between atoms: N_6  and  C_7 
REMARK    4  A    between atoms: C_7  and  C_8 
REMARK    5  A    between atoms: C_8  and  C_9 
REMARK    6  A    between atoms: C_9  and  C_10 
REMARK    7  A    between atoms: C_9  and  C_26 
REMARK    8  A    between atoms: C_14  and  C_15 
REMARK    9  A    between atoms: C_28  and  N_29 
ROOT
HETATM    1  C   UNL     1      -4.045  -0.034 -31.949  1.00  0.00     0.062 C 
ENDROOT
BRANCH   1   2
HETATM    2  C   UNL     1      -3.659   1.085 -32.930  1.00  0.00     0.116 C 
BRANCH   2   3
HETATM    3  C   UNL     1      -3.302   2.432 -32.327  1.00  0.00     0.218 C 
HETATM    4  N   UNL     1      -3.624   3.528 -33.093  1.00  0.00    -0.361 N 
HETATM    5  H   UNL     1      -3.887   3.391 -34.063  1.00  0.00     0.162 HD
HETATM    6  O   UNL     1      -2.804   2.528 -31.207  1.00  0.00    -0.274 OA
BRANCH   4   7
HETATM    7  C   UNL     1      -3.316   4.867 -32.624  1.00  0.00     0.128 C 
BRANCH   7   8
HETATM    8  C   UNL     1      -4.445   5.857 -32.885  1.00  0.00     0.079 C 
BRANCH   8   9
HETATM    9  C   UNL     1      -5.783   5.197 -32.682  1.00  0.00     0.035 A 
HETATM   10  C   UNL     1      -6.719   5.148 -33.712  1.00  0.00     0.027 A 
HETATM   11  C   UNL     1      -7.962   4.572 -33.464  1.00  0.00     0.003 A 
HETATM   12  C   UNL     1      -8.240   4.068 -32.200  1.00  0.00     0.019 A 
HETATM   13  C   UNL     1      -7.256   4.158 -31.232  1.00  0.00     0.117 A 
HETATM   14  N   UNL     1      -6.041   4.709 -31.445  1.00  0.00    -0.266 NA
ENDBRANCH   8   9
ENDBRANCH   7   8
ENDBRANCH   4   7
ENDBRANCH   2   3
ENDBRANCH   1   2
BRANCH   1  15
HETATM   15  C   UNL     1      -5.453   0.114 -31.406  1.00  0.00    -0.021 A 
HETATM   16  C   UNL     1      -6.619   0.379 -32.205  1.00  0.00    -0.001 A 
HETATM   17  C   UNL     1      -7.723   0.402 -31.357  1.00  0.00     0.043 A 
HETATM   18  C   UNL     1      -6.833   0.574 -33.583  1.00  0.00     0.015 A 
HETATM   19  C   UNL     1      -9.032   0.615 -31.818  1.00  0.00     0.044 A 
HETATM   20  N   UNL     1      -7.257   0.182 -30.083  1.00  0.00    -0.365 N 
HETATM   21  C   UNL     1      -9.250   0.800 -33.199  1.00  0.00    -0.005 A 
HETATM   22  C   UNL     1      -8.138   0.772 -34.057  1.00  0.00     0.015 A 
HETATM   23  H   UNL     1      -7.837   0.160 -29.255  1.00  0.00     0.165 HD
HETATM   24  C   UNL     1      -5.905  -0.030 -30.104  1.00  0.00     0.097 A 
BRANCH  21  25
HETATM   25  C   UNL     1     -10.606   0.999 -33.752  1.00  0.00     0.066 A 
HETATM   26  N   UNL     1     -11.560   0.152 -33.286  1.00  0.00    -0.260 NA
HETATM   27  C   UNL     1     -12.819   0.295 -33.755  1.00  0.00     0.117 A 
HETATM   28  C   UNL     1     -13.190   1.248 -34.685  1.00  0.00     0.019 A 
HETATM   29  C   UNL     1     -12.209   2.106 -35.166  1.00  0.00     0.004 A 
HETATM   30  C   UNL     1     -10.903   1.982 -34.696  1.00  0.00     0.032 A 
ENDBRANCH  21  25
ENDBRANCH   1  15
BRANCH   1  31
HETATM   31  C   UNL     1      -3.843  -1.495 -32.357  1.00  0.00    -0.047 A 
HETATM   32  C   UNL     1      -4.599  -2.029 -33.424  1.00  0.00     0.043 A 
HETATM   33  C   UNL     1      -4.451  -3.370 -33.811  1.00  0.00     0.103 A 
HETATM   34  C   UNL     1      -3.567  -4.213 -33.134  1.00  0.00     0.036 A 
HETATM   35  C   UNL     1      -2.836  -3.707 -32.063  1.00  0.00     0.003 A 
HETATM   36  C   UNL     1      -2.977  -2.368 -31.679  1.00  0.00     0.008 A 
BRANCH  33  37
HETATM   37  N   UNL     1      -5.230  -3.893 -34.940  1.00  0.00    -0.116 N 
HETATM   38  O   UNL     1      -5.576  -3.096 -35.824  1.00  0.00    -0.532 OA
HETATM   39  O   UNL     1      -5.495  -5.105 -34.946  1.00  0.00    -0.532 OA
ENDBRANCH  33  37
ENDBRANCH   1  31
TORSDOF 9
ENDMDL
MODEL 10
REMARK VINA RESULT:      -9.1      3.089      7.100
REMARK  9 active torsions:
REMARK  status: ('A' for Active; 'I' for Inactive)
REMARK    1  A    between atoms: C_3  and  C_4 
REMARK    2  A    between atoms: C_4  and  C_5 
REMARK    3  A    between atoms: C_5  and  N_6 
REMARK       I    between atoms: N_6  and  C_7 
REMARK    4  A    between atoms: C_7  and  C_8 
REMARK    5  A    between atoms: C_8  and  C_9 
REMARK    6  A    between atoms: C_9  and  C_10 
REMARK    7  A    between atoms: C_9  and  C_26 
REMARK    8  A    between atoms: C_14  and  C_15 
REMARK    9  A    between atoms: C_28  and  N_29 
ROOT
HETATM    1  C   UNL     1      -7.237   0.485 -33.271  1.00  0.00     0.062 C 
ENDROOT
BRANCH   1   2
HETATM    2  C   UNL     1      -8.737   0.233 -33.051  1.00  0.00     0.116 C 
BRANCH   2   3
HETATM    3  C   UNL     1      -9.664   1.424 -33.217  1.00  0.00     0.218 C 
HETATM    4  N   UNL     1      -9.974   1.757 -34.515  1.00  0.00    -0.361 N 
HETATM    5  H   UNL     1      -9.438   1.343 -35.271  1.00  0.00     0.162 HD
HETATM    6  O   UNL     1     -10.140   2.013 -32.250  1.00  0.00    -0.274 OA
BRANCH   4   7
HETATM    7  C   UNL     1     -10.840   2.888 -34.796  1.00  0.00     0.128 C 
BRANCH   7   8
HETATM    8  C   UNL     1     -12.123   2.484 -35.512  1.00  0.00     0.079 C 
BRANCH   8   9
HETATM    9  C   UNL     1     -13.231   2.253 -34.520  1.00  0.00     0.035 A 
HETATM   10  C   UNL     1     -13.303   2.995 -33.343  1.00  0.00     0.027 A 
HETATM   11  C   UNL     1     -14.316   2.712 -32.431  1.00  0.00     0.003 A 
HETATM   12  C   UNL     1     -15.224   1.699 -32.713  1.00  0.00     0.019 A 
HETATM   13  C   UNL     1     -15.081   1.008 -33.902  1.00  0.00     0.117 A 
HETATM   14  N   UNL     1     -14.109   1.262 -34.806  1.00  0.00    -0.266 NA
ENDBRANCH   8   9
ENDBRANCH   7   8
ENDBRANCH   4   7
ENDBRANCH   2   3
ENDBRANCH   1   2
BRANCH   1  15
HETATM   15  C   UNL     1      -6.610   1.325 -32.174  1.00  0.00    -0.021 A 
HETATM   16  C   UNL     1      -5.769   2.469 -32.394  1.00  0.00    -0.001 A 
HETATM   17  C   UNL     1      -5.427   2.995 -31.151  1.00  0.00     0.043 A 
HETATM   18  C   UNL     1      -5.289   3.120 -33.547  1.00  0.00     0.015 A 
HETATM   19  C   UNL     1      -4.626   4.139 -31.003  1.00  0.00     0.044 A 
HETATM   20  N   UNL     1      -6.016   2.197 -30.200  1.00  0.00    -0.365 N 
HETATM   21  C   UNL     1      -4.154   4.798 -32.157  1.00  0.00    -0.005 A 
HETATM   22  C   UNL     1      -4.501   4.272 -33.412  1.00  0.00     0.015 A 
HETATM   23  H   UNL     1      -5.927   2.331 -29.202  1.00  0.00     0.165 HD
HETATM   24  C   UNL     1      -6.758   1.216 -30.800  1.00  0.00     0.097 A 
BRANCH  21  25
HETATM   25  C   UNL     1      -3.331   6.024 -32.070  1.00  0.00     0.066 A 
HETATM   26  N   UNL     1      -3.958   7.117 -31.563  1.00  0.00    -0.260 NA
HETATM   27  C   UNL     1      -3.249   8.261 -31.456  1.00  0.00     0.117 A 
HETATM   28  C   UNL     1      -1.927   8.386 -31.839  1.00  0.00     0.019 A 
HETATM   29  C   UNL     1      -1.293   7.269 -32.365  1.00  0.00     0.004 A 
HETATM   30  C   UNL     1      -2.000   6.074 -32.483  1.00  0.00     0.032 A 
ENDBRANCH  21  25
ENDBRANCH   1  15
BRANCH   1  31
HETATM   31  C   UNL     1      -6.309  -0.698 -33.554  1.00  0.00    -0.047 A 
HETATM   32  C   UNL     1      -5.174  -0.901 -32.738  1.00  0.00     0.043 A 
HETATM   33  C   UNL     1      -4.292  -1.965 -32.983  1.00  0.00     0.103 A 
HETATM   34  C   UNL     1      -4.507  -2.836 -34.054  1.00  0.00     0.036 A 
HETATM   35  C   UNL     1      -5.607  -2.631 -34.881  1.00  0.00     0.003 A 
HETATM   36  C   UNL     1      -6.491  -1.574 -34.636  1.00  0.00     0.008 A 
BRANCH  33  37
HETATM   37  N   UNL     1      -3.133  -2.169 -32.105  1.00  0.00    -0.116 N 
HETATM   38  O   UNL     1      -2.895  -3.322 -31.719  1.00  0.00    -0.532 OA
HETATM   39  O   UNL     1      -2.455  -1.175 -31.803  1.00  0.00    -0.532 OA
ENDBRANCH  33  37
ENDBRANCH   1  31
TORSDOF 9
ENDMDL
