MODEL 1
REMARK VINA RESULT:      -8.5      0.000      0.000
REMARK  10 active torsions:
REMARK  status: ('A' for Active; 'I' for Inactive)
REMARK    1  A    between atoms: C_2  and  O_3 
REMARK    2  A    between atoms: O_3  and  C_4 
REMARK    3  A    between atoms: C_9  and  C_10 
REMARK    4  A    between atoms: C_10  and  O_11 
REMARK    5  A    between atoms: O_11  and  C_12 
REMARK    6  A    between atoms: C_12  and  C_13 
REMARK       I    between atoms: C_13  and  N_14 
REMARK    7  A    between atoms: N_14  and  C_15 
REMARK    8  A    between atoms: C_16  and  C_17 
REMARK       I    between atoms: C_17  and  N_18 
REMARK    9  A    between atoms: N_18  and  C_19 
REMARK   10  A    between atoms: C_19  and  C_20 
ROOT
HETATM    1  C   UNL     1      -4.838  -2.439 -34.111  1.00  0.00     0.050 A 
HETATM    2  C   UNL     1      -6.213  -2.381 -34.434  1.00  0.00     0.058 A 
HETATM    3  C   UNL     1      -6.896  -3.540 -34.844  1.00  0.00     0.019 A 
HETATM    4  C   UNL     1      -6.224  -4.753 -34.969  1.00  0.00     0.001 A 
HETATM    5  C   UNL     1      -4.867  -4.813 -34.682  1.00  0.00     0.002 A 
HETATM    6  C   UNL     1      -4.182  -3.670 -34.257  1.00  0.00     0.030 A 
ENDROOT
BRANCH   1   7
HETATM    7  N   UNL     1      -4.168  -1.285 -33.624  1.00  0.00    -0.324 N 
HETATM    8  C   UNL     1      -3.603  -1.099 -32.373  1.00  0.00     0.246 C 
HETATM    9  O   UNL     1      -3.583  -1.913 -31.453  1.00  0.00    -0.271 OA
HETATM   10  H   UNL     1      -4.151  -0.478 -34.254  1.00  0.00     0.169 HD
BRANCH   8  11
HETATM   11  C   UNL     1      -2.912   0.258 -32.211  1.00  0.00     0.282 C 
BRANCH  11  12
HETATM   12  O   UNL     1      -3.663   1.345 -32.745  1.00  0.00    -0.308 OA
BRANCH  12  13
HETATM   13  C   UNL     1      -3.407   2.550 -32.176  1.00  0.00     0.298 C 
HETATM   14  O   UNL     1      -2.594   2.740 -31.287  1.00  0.00    -0.259 OA
BRANCH  13  15
HETATM   15  C   UNL     1      -4.283   3.565 -32.801  1.00  0.00     0.092 A 
HETATM   16  C   UNL     1      -3.885   4.892 -32.919  1.00  0.00     0.180 A 
HETATM   17  N   UNL     1      -4.670   5.852 -33.474  1.00  0.00    -0.236 NA
HETATM   18  C   UNL     1      -5.889   5.480 -33.922  1.00  0.00     0.119 A 
HETATM   19  C   UNL     1      -6.371   4.186 -33.846  1.00  0.00     0.020 A 
HETATM   20  C   UNL     1      -5.555   3.214 -33.275  1.00  0.00     0.023 A 
BRANCH  16  21
HETATM   21  O   UNL     1      -2.620   5.244 -32.499  1.00  0.00    -0.334 OA
BRANCH  21  22
HETATM   22  C   UNL     1      -1.930   6.109 -33.404  1.00  0.00     0.173 C 
HETATM   23  C   UNL     1      -1.469   5.279 -34.588  1.00  0.00     0.034 C 
ENDBRANCH  21  22
ENDBRANCH  16  21
ENDBRANCH  13  15
ENDBRANCH  12  13
ENDBRANCH  11  12
ENDBRANCH   8  11
ENDBRANCH   1   7
BRANCH   2  24
HETATM   24  C   UNL     1      -7.020  -1.126 -34.432  1.00  0.00     0.254 C 
HETATM   25  N   UNL     1      -7.928  -0.998 -33.402  1.00  0.00    -0.349 N 
HETATM   26  H   UNL     1      -7.799  -1.610 -32.605  1.00  0.00     0.163 HD
HETATM   27  O   UNL     1      -6.805  -0.253 -35.264  1.00  0.00    -0.268 OA
BRANCH  25  28
HETATM   28  C   UNL     1      -8.634   0.251 -33.146  1.00  0.00     0.114 C 
HETATM   29  C   UNL     1     -10.138   0.053 -32.934  1.00  0.00     0.037 C 
BRANCH  28  30
HETATM   30  C   UNL     1      -7.980   0.943 -31.959  1.00  0.00    -0.036 A 
HETATM   31  C   UNL     1      -6.837   0.413 -31.338  1.00  0.00     0.009 A 
HETATM   32  C   UNL     1      -6.231   1.077 -30.271  1.00  0.00     0.001 A 
HETATM   33  C   UNL     1      -6.754   2.285 -29.814  1.00  0.00     0.000 A 
HETATM   34  C   UNL     1      -7.882   2.830 -30.425  1.00  0.00     0.001 A 
HETATM   35  C   UNL     1      -8.489   2.166 -31.493  1.00  0.00     0.009 A 
ENDBRANCH  28  30
ENDBRANCH  25  28
ENDBRANCH   2  24
TORSDOF 10
ENDMDL
MODEL 2
REMARK VINA RESULT:      -8.5      1.730      2.325
REMARK  10 active torsions:
REMARK  status: ('A' for Active; 'I' for Inactive)
REMARK    1  A    between atoms: C_2  and  O_3 
REMARK    2  A    between atoms: O_3  and  C_4 
REMARK    3  A    between atoms: C_9  and  C_10 
REMARK    4  A    between atoms: C_10  and  O_11 
REMARK    5  A    between atoms: O_11  and  C_12 
REMARK    6  A    between atoms: C_12  and  C_13 
REMARK       I    between atoms: C_13  and  N_14 
REMARK    7  A    between atoms: N_14  and  C_15 
REMARK    8  A    between atoms: C_16  and  C_17 
REMARK       I    between atoms: C_17  and  N_18 
REMARK    9  A    between atoms: N_18  and  C_19 
REMARK   10  A    between atoms: C_19  and  C_20 
ROOT
HETATM    1  C   UNL     1      -5.155  -1.165 -33.500  1.00  0.00     0.050 A 
HETATM    2  C   UNL     1      -6.292  -1.373 -34.313  1.00  0.00     0.058 A 
HETATM    3  C   UNL     1      -6.481  -2.603 -34.970  1.00  0.00     0.019 A 
HETATM    4  C   UNL     1      -5.537  -3.620 -34.856  1.00  0.00     0.001 A 
HETATM    5  C   UNL     1      -4.402  -3.414 -34.083  1.00  0.00     0.002 A 
HETATM    6  C   UNL     1      -4.214  -2.201 -33.412  1.00  0.00     0.030 A 
ENDROOT
BRANCH   1   7
HETATM    7  N   UNL     1      -5.004   0.048 -32.777  1.00  0.00    -0.324 N 
HETATM    8  C   UNL     1      -5.608   0.402 -31.581  1.00  0.00     0.246 C 
HETATM    9  O   UNL     1      -6.391  -0.283 -30.928  1.00  0.00    -0.271 OA
HETATM   10  H   UNL     1      -4.424   0.766 -33.221  1.00  0.00     0.169 HD
BRANCH   8  11
HETATM   11  C   UNL     1      -5.171   1.774 -31.060  1.00  0.00     0.282 C 
BRANCH  11  12
HETATM   12  O   UNL     1      -4.277   2.457 -31.935  1.00  0.00    -0.308 OA
BRANCH  12  13
HETATM   13  C   UNL     1      -4.088   3.769 -31.647  1.00  0.00     0.298 C 
HETATM   14  O   UNL     1      -4.495   4.326 -30.642  1.00  0.00    -0.259 OA
BRANCH  13  15
HETATM   15  C   UNL     1      -3.330   4.392 -32.754  1.00  0.00     0.092 A 
HETATM   16  C   UNL     1      -1.973   4.668 -32.639  1.00  0.00     0.180 A 
HETATM   17  N   UNL     1      -1.250   5.252 -33.630  1.00  0.00    -0.236 NA
HETATM   18  C   UNL     1      -1.900   5.574 -34.769  1.00  0.00     0.119 A 
HETATM   19  C   UNL     1      -3.248   5.340 -34.975  1.00  0.00     0.020 A 
HETATM   20  C   UNL     1      -3.973   4.741 -33.950  1.00  0.00     0.023 A 
BRANCH  16  21
HETATM   21  O   UNL     1      -1.316   4.289 -31.487  1.00  0.00    -0.334 OA
BRANCH  21  22
HETATM   22  C   UNL     1      -0.744   5.380 -30.762  1.00  0.00     0.173 C 
HETATM   23  C   UNL     1       0.750   5.139 -30.651  1.00  0.00     0.034 C 
ENDBRANCH  21  22
ENDBRANCH  16  21
ENDBRANCH  13  15
ENDBRANCH  12  13
ENDBRANCH  11  12
ENDBRANCH   8  11
ENDBRANCH   1   7
BRANCH   2  24
HETATM   24  C   UNL     1      -7.323  -0.331 -34.591  1.00  0.00     0.254 C 
HETATM   25  N   UNL     1      -8.340  -0.230 -33.665  1.00  0.00    -0.349 N 
HETATM   26  H   UNL     1      -8.178  -0.666 -32.765  1.00  0.00     0.163 HD
HETATM   27  O   UNL     1      -7.196   0.422 -35.550  1.00  0.00    -0.268 OA
BRANCH  25  28
HETATM   28  C   UNL     1      -9.297   0.868 -33.686  1.00  0.00     0.114 C 
HETATM   29  C   UNL     1     -10.716   0.429 -33.311  1.00  0.00     0.037 C 
BRANCH  28  30
HETATM   30  C   UNL     1      -8.786   1.974 -32.775  1.00  0.00    -0.036 A 
HETATM   31  C   UNL     1      -8.069   3.071 -33.282  1.00  0.00     0.009 A 
HETATM   32  C   UNL     1      -7.635   4.094 -32.436  1.00  0.00     0.001 A 
HETATM   33  C   UNL     1      -7.919   4.038 -31.074  1.00  0.00     0.000 A 
HETATM   34  C   UNL     1      -8.638   2.962 -30.556  1.00  0.00     0.001 A 
HETATM   35  C   UNL     1      -9.072   1.939 -31.401  1.00  0.00     0.009 A 
ENDBRANCH  28  30
ENDBRANCH  25  28
ENDBRANCH   2  24
TORSDOF 10
ENDMDL
MODEL 3
REMARK VINA RESULT:      -8.4      1.275      1.880
REMARK  10 active torsions:
REMARK  status: ('A' for Active; 'I' for Inactive)
REMARK    1  A    between atoms: C_2  and  O_3 
REMARK    2  A    between atoms: O_3  and  C_4 
REMARK    3  A    between atoms: C_9  and  C_10 
REMARK    4  A    between atoms: C_10  and  O_11 
REMARK    5  A    between atoms: O_11  and  C_12 
REMARK    6  A    between atoms: C_12  and  C_13 
REMARK       I    between atoms: C_13  and  N_14 
REMARK    7  A    between atoms: N_14  and  C_15 
REMARK    8  A    between atoms: C_16  and  C_17 
REMARK       I    between atoms: C_17  and  N_18 
REMARK    9  A    between atoms: N_18  and  C_19 
REMARK   10  A    between atoms: C_19  and  C_20 
ROOT
HETATM    1  C   UNL     1      -4.958  -2.038 -34.119  1.00  0.00     0.050 A 
HETATM    2  C   UNL     1      -6.337  -2.043 -34.430  1.00  0.00     0.058 A 
HETATM    3  C   UNL     1      -6.993  -3.250 -34.733  1.00  0.00     0.019 A 
HETATM    4  C   UNL     1      -6.290  -4.452 -34.761  1.00  0.00     0.001 A 
HETATM    5  C   UNL     1      -4.929  -4.452 -34.485  1.00  0.00     0.002 A 
HETATM    6  C   UNL     1      -4.271  -3.260 -34.167  1.00  0.00     0.030 A 
ENDROOT
BRANCH   1   7
HETATM    7  N   UNL     1      -4.315  -0.830 -33.740  1.00  0.00    -0.324 N 
HETATM    8  C   UNL     1      -4.024  -0.391 -32.458  1.00  0.00     0.246 C 
HETATM    9  O   UNL     1      -4.277  -0.981 -31.410  1.00  0.00    -0.271 OA
HETATM   10  H   UNL     1      -4.090  -0.183 -34.502  1.00  0.00     0.169 HD
BRANCH   8  11
HETATM   11  C   UNL     1      -3.271   0.942 -32.426  1.00  0.00     0.282 C 
BRANCH  11  12
HETATM   12  O   UNL     1      -3.927   1.946 -31.655  1.00  0.00    -0.308 OA
BRANCH  12  13
HETATM   13  C   UNL     1      -4.458   2.964 -32.379  1.00  0.00     0.298 C 
HETATM   14  O   UNL     1      -5.251   2.827 -33.293  1.00  0.00    -0.259 OA
BRANCH  13  15
HETATM   15  C   UNL     1      -3.900   4.240 -31.880  1.00  0.00     0.092 A 
HETATM   16  C   UNL     1      -2.794   4.831 -32.480  1.00  0.00     0.180 A 
HETATM   17  N   UNL     1      -2.248   5.994 -32.039  1.00  0.00    -0.236 NA
HETATM   18  C   UNL     1      -2.818   6.585 -30.966  1.00  0.00     0.119 A 
HETATM   19  C   UNL     1      -3.919   6.072 -30.304  1.00  0.00     0.020 A 
HETATM   20  C   UNL     1      -4.466   4.880 -30.768  1.00  0.00     0.023 A 
BRANCH  16  21
HETATM   21  O   UNL     1      -2.254   4.239 -33.602  1.00  0.00    -0.334 OA
BRANCH  21  22
HETATM   22  C   UNL     1      -2.217   5.095 -34.746  1.00  0.00     0.173 C 
HETATM   23  C   UNL     1      -3.632   5.234 -35.275  1.00  0.00     0.034 C 
ENDBRANCH  21  22
ENDBRANCH  16  21
ENDBRANCH  13  15
ENDBRANCH  12  13
ENDBRANCH  11  12
ENDBRANCH   8  11
ENDBRANCH   1   7
BRANCH   2  24
HETATM   24  C   UNL     1      -7.177  -0.814 -34.527  1.00  0.00     0.254 C 
HETATM   25  N   UNL     1      -8.095  -0.633 -33.513  1.00  0.00    -0.349 N 
HETATM   26  H   UNL     1      -7.955  -1.181 -32.673  1.00  0.00     0.163 HD
HETATM   27  O   UNL     1      -6.980   0.000 -35.421  1.00  0.00    -0.268 OA
BRANCH  25  28
HETATM   28  C   UNL     1      -8.835   0.612 -33.356  1.00  0.00     0.114 C 
HETATM   29  C   UNL     1     -10.344   0.393 -33.198  1.00  0.00     0.037 C 
BRANCH  28  30
HETATM   30  C   UNL     1      -8.248   1.380 -32.180  1.00  0.00    -0.036 A 
HETATM   31  C   UNL     1      -8.588   2.721 -31.937  1.00  0.00     0.009 A 
HETATM   32  C   UNL     1      -8.066   3.401 -30.835  1.00  0.00     0.001 A 
HETATM   33  C   UNL     1      -7.204   2.748 -29.958  1.00  0.00     0.000 A 
HETATM   34  C   UNL     1      -6.864   1.414 -30.179  1.00  0.00     0.001 A 
HETATM   35  C   UNL     1      -7.386   0.733 -31.281  1.00  0.00     0.009 A 
ENDBRANCH  28  30
ENDBRANCH  25  28
ENDBRANCH   2  24
TORSDOF 10
ENDMDL
MODEL 4
REMARK VINA RESULT:      -8.4      2.057      5.631
REMARK  10 active torsions:
REMARK  status: ('A' for Active; 'I' for Inactive)
REMARK    1  A    between atoms: C_2  and  O_3 
REMARK    2  A    between atoms: O_3  and  C_4 
REMARK    3  A    between atoms: C_9  and  C_10 
REMARK    4  A    between atoms: C_10  and  O_11 
REMARK    5  A    between atoms: O_11  and  C_12 
REMARK    6  A    between atoms: C_12  and  C_13 
REMARK       I    between atoms: C_13  and  N_14 
REMARK    7  A    between atoms: N_14  and  C_15 
REMARK    8  A    between atoms: C_16  and  C_17 
REMARK       I    between atoms: C_17  and  N_18 
REMARK    9  A    between atoms: N_18  and  C_19 
REMARK   10  A    between atoms: C_19  and  C_20 
ROOT
HETATM    1  C   UNL     1      -9.035   2.706 -33.569  1.00  0.00     0.050 A 
HETATM    2  C   UNL     1      -8.520   1.391 -33.610  1.00  0.00     0.058 A 
HETATM    3  C   UNL     1      -9.383   0.285 -33.501  1.00  0.00     0.019 A 
HETATM    4  C   UNL     1     -10.751   0.468 -33.318  1.00  0.00     0.001 A 
HETATM    5  C   UNL     1     -11.263   1.757 -33.246  1.00  0.00     0.002 A 
HETATM    6  C   UNL     1     -10.415   2.863 -33.372  1.00  0.00     0.030 A 
ENDROOT
BRANCH   1   7
HETATM    7  N   UNL     1      -8.173   3.819 -33.757  1.00  0.00    -0.324 N 
HETATM    8  C   UNL     1      -7.732   4.719 -32.801  1.00  0.00     0.246 C 
HETATM    9  O   UNL     1      -8.014   4.710 -31.605  1.00  0.00    -0.271 OA
HETATM   10  H   UNL     1      -7.890   4.009 -34.723  1.00  0.00     0.169 HD
BRANCH   8  11
HETATM   11  C   UNL     1      -6.763   5.768 -33.352  1.00  0.00     0.282 C 
BRANCH  11  12
HETATM   12  O   UNL     1      -5.426   5.608 -32.885  1.00  0.00    -0.308 OA
BRANCH  12  13
HETATM   13  C   UNL     1      -4.518   5.306 -33.848  1.00  0.00     0.298 C 
HETATM   14  O   UNL     1      -4.796   4.925 -34.971  1.00  0.00    -0.259 OA
BRANCH  13  15
HETATM   15  C   UNL     1      -3.160   5.501 -33.295  1.00  0.00     0.092 A 
HETATM   16  C   UNL     1      -2.479   4.467 -32.663  1.00  0.00     0.180 A 
HETATM   17  N   UNL     1      -1.238   4.615 -32.131  1.00  0.00    -0.236 NA
HETATM   18  C   UNL     1      -0.658   5.831 -32.230  1.00  0.00     0.119 A 
HETATM   19  C   UNL     1      -1.256   6.918 -32.839  1.00  0.00     0.020 A 
HETATM   20  C   UNL     1      -2.528   6.750 -33.378  1.00  0.00     0.023 A 
BRANCH  16  21
HETATM   21  O   UNL     1      -3.067   3.220 -32.613  1.00  0.00    -0.334 OA
BRANCH  21  22
HETATM   22  C   UNL     1      -3.310   2.748 -31.286  1.00  0.00     0.173 C 
HETATM   23  C   UNL     1      -4.809   2.753 -31.052  1.00  0.00     0.034 C 
ENDBRANCH  21  22
ENDBRANCH  16  21
ENDBRANCH  13  15
ENDBRANCH  12  13
ENDBRANCH  11  12
ENDBRANCH   8  11
ENDBRANCH   1   7
BRANCH   2  24
HETATM   24  C   UNL     1      -7.067   1.064 -33.706  1.00  0.00     0.254 C 
HETATM   25  N   UNL     1      -6.666  -0.085 -33.057  1.00  0.00    -0.349 N 
HETATM   26  H   UNL     1      -7.396  -0.739 -32.801  1.00  0.00     0.163 HD
HETATM   27  O   UNL     1      -6.323   1.754 -34.393  1.00  0.00    -0.268 OA
BRANCH  25  28
HETATM   28  C   UNL     1      -5.332  -0.645 -33.232  1.00  0.00     0.114 C 
HETATM   29  C   UNL     1      -4.525  -0.679 -31.930  1.00  0.00     0.037 C 
BRANCH  28  30
HETATM   30  C   UNL     1      -5.464  -2.028 -33.853  1.00  0.00    -0.036 A 
HETATM   31  C   UNL     1      -4.387  -2.929 -33.872  1.00  0.00     0.009 A 
HETATM   32  C   UNL     1      -4.535  -4.206 -34.417  1.00  0.00     0.001 A 
HETATM   33  C   UNL     1      -5.762  -4.602 -34.942  1.00  0.00     0.000 A 
HETATM   34  C   UNL     1      -6.844  -3.723 -34.922  1.00  0.00     0.001 A 
HETATM   35  C   UNL     1      -6.697  -2.445 -34.377  1.00  0.00     0.009 A 
ENDBRANCH  28  30
ENDBRANCH  25  28
ENDBRANCH   2  24
TORSDOF 10
ENDMDL
MODEL 5
REMARK VINA RESULT:      -8.3      2.136      5.409
REMARK  10 active torsions:
REMARK  status: ('A' for Active; 'I' for Inactive)
REMARK    1  A    between atoms: C_2  and  O_3 
REMARK    2  A    between atoms: O_3  and  C_4 
REMARK    3  A    between atoms: C_9  and  C_10 
REMARK    4  A    between atoms: C_10  and  O_11 
REMARK    5  A    between atoms: O_11  and  C_12 
REMARK    6  A    between atoms: C_12  and  C_13 
REMARK       I    between atoms: C_13  and  N_14 
REMARK    7  A    between atoms: N_14  and  C_15 
REMARK    8  A    between atoms: C_16  and  C_17 
REMARK       I    between atoms: C_17  and  N_18 
REMARK    9  A    between atoms: N_18  and  C_19 
REMARK   10  A    between atoms: C_19  and  C_20 
ROOT
HETATM    1  C   UNL     1      -8.389   2.410 -32.191  1.00  0.00     0.050 A 
HETATM    2  C   UNL     1      -8.005   1.556 -33.250  1.00  0.00     0.058 A 
HETATM    3  C   UNL     1      -8.976   0.997 -34.100  1.00  0.00     0.019 A 
HETATM    4  C   UNL     1     -10.330   1.250 -33.894  1.00  0.00     0.001 A 
HETATM    5  C   UNL     1     -10.718   2.064 -32.839  1.00  0.00     0.002 A 
HETATM    6  C   UNL     1      -9.759   2.638 -31.998  1.00  0.00     0.030 A 
ENDROOT
BRANCH   1   7
HETATM    7  N   UNL     1      -7.403   3.033 -31.382  1.00  0.00    -0.324 N 
HETATM    8  C   UNL     1      -6.996   4.357 -31.411  1.00  0.00     0.246 C 
HETATM    9  O   UNL     1      -7.424   5.235 -32.155  1.00  0.00    -0.271 OA
HETATM   10  H   UNL     1      -6.895   2.417 -30.739  1.00  0.00     0.169 HD
BRANCH   8  11
HETATM   11  C   UNL     1      -5.942   4.695 -30.353  1.00  0.00     0.282 C 
BRANCH  11  12
HETATM   12  O   UNL     1      -4.675   5.044 -30.903  1.00  0.00    -0.308 OA
BRANCH  12  13
HETATM   13  C   UNL     1      -4.001   4.017 -31.481  1.00  0.00     0.298 C 
HETATM   14  O   UNL     1      -4.026   2.862 -31.091  1.00  0.00    -0.259 OA
BRANCH  13  15
HETATM   15  C   UNL     1      -3.234   4.542 -32.631  1.00  0.00     0.092 A 
HETATM   16  C   UNL     1      -1.874   4.812 -32.533  1.00  0.00     0.180 A 
HETATM   17  N   UNL     1      -1.142   5.308 -33.565  1.00  0.00    -0.236 NA
HETATM   18  C   UNL     1      -1.786   5.544 -34.729  1.00  0.00     0.119 A 
HETATM   19  C   UNL     1      -3.135   5.307 -34.921  1.00  0.00     0.020 A 
HETATM   20  C   UNL     1      -3.870   4.800 -33.854  1.00  0.00     0.023 A 
BRANCH  16  21
HETATM   21  O   UNL     1      -1.224   4.520 -31.352  1.00  0.00    -0.334 OA
BRANCH  21  22
HETATM   22  C   UNL     1       0.016   5.211 -31.189  1.00  0.00     0.173 C 
HETATM   23  C   UNL     1       0.565   4.873 -29.815  1.00  0.00     0.034 C 
ENDBRANCH  21  22
ENDBRANCH  16  21
ENDBRANCH  13  15
ENDBRANCH  12  13
ENDBRANCH  11  12
ENDBRANCH   8  11
ENDBRANCH   1   7
BRANCH   2  24
HETATM   24  C   UNL     1      -6.599   1.132 -33.515  1.00  0.00     0.254 C 
HETATM   25  N   UNL     1      -6.320  -0.199 -33.286  1.00  0.00    -0.349 N 
HETATM   26  H   UNL     1      -7.114  -0.823 -33.215  1.00  0.00     0.163 HD
HETATM   27  O   UNL     1      -5.793   1.927 -33.984  1.00  0.00    -0.268 OA
BRANCH  25  28
HETATM   28  C   UNL     1      -5.059  -0.805 -33.695  1.00  0.00     0.114 C 
HETATM   29  C   UNL     1      -3.965  -0.682 -32.629  1.00  0.00     0.037 C 
BRANCH  28  30
HETATM   30  C   UNL     1      -5.319  -2.255 -34.076  1.00  0.00    -0.036 A 
HETATM   31  C   UNL     1      -6.550  -2.662 -34.617  1.00  0.00     0.009 A 
HETATM   32  C   UNL     1      -6.761  -3.990 -34.992  1.00  0.00     0.001 A 
HETATM   33  C   UNL     1      -5.742  -4.927 -34.838  1.00  0.00     0.000 A 
HETATM   34  C   UNL     1      -4.512  -4.538 -34.312  1.00  0.00     0.001 A 
HETATM   35  C   UNL     1      -4.300  -3.210 -33.936  1.00  0.00     0.009 A 
ENDBRANCH  28  30
ENDBRANCH  25  28
ENDBRANCH   2  24
TORSDOF 10
ENDMDL
MODEL 6
REMARK VINA RESULT:      -8.0      2.410      6.311
REMARK  10 active torsions:
REMARK  status: ('A' for Active; 'I' for Inactive)
REMARK    1  A    between atoms: C_2  and  O_3 
REMARK    2  A    between atoms: O_3  and  C_4 
REMARK    3  A    between atoms: C_9  and  C_10 
REMARK    4  A    between atoms: C_10  and  O_11 
REMARK    5  A    between atoms: O_11  and  C_12 
REMARK    6  A    between atoms: C_12  and  C_13 
REMARK       I    between atoms: C_13  and  N_14 
REMARK    7  A    between atoms: N_14  and  C_15 
REMARK    8  A    between atoms: C_16  and  C_17 
REMARK       I    between atoms: C_17  and  N_18 
REMARK    9  A    between atoms: N_18  and  C_19 
REMARK   10  A    between atoms: C_19  and  C_20 
ROOT
HETATM    1  C   UNL     1      -5.198   4.151 -31.662  1.00  0.00     0.050 A 
HETATM    2  C   UNL     1      -5.237   2.757 -31.430  1.00  0.00     0.058 A 
HETATM    3  C   UNL     1      -6.251   2.198 -30.630  1.00  0.00     0.019 A 
HETATM    4  C   UNL     1      -7.211   3.010 -30.031  1.00  0.00     0.001 A 
HETATM    5  C   UNL     1      -7.163   4.383 -30.229  1.00  0.00     0.002 A 
HETATM    6  C   UNL     1      -6.169   4.947 -31.036  1.00  0.00     0.030 A 
ENDROOT
BRANCH   1   7
HETATM    7  N   UNL     1      -4.220   4.704 -32.530  1.00  0.00    -0.324 N 
HETATM    8  C   UNL     1      -4.366   5.039 -33.867  1.00  0.00     0.246 C 
HETATM    9  O   UNL     1      -5.383   4.912 -34.543  1.00  0.00    -0.271 OA
HETATM   10  H   UNL     1      -3.282   4.818 -32.135  1.00  0.00     0.169 HD
BRANCH   8  11
HETATM   11  C   UNL     1      -3.111   5.666 -34.479  1.00  0.00     0.282 C 
BRANCH  11  12
HETATM   12  O   UNL     1      -2.009   5.730 -33.577  1.00  0.00    -0.308 OA
BRANCH  12  13
HETATM   13  C   UNL     1      -1.633   6.986 -33.224  1.00  0.00     0.298 C 
HETATM   14  O   UNL     1      -1.645   7.950 -33.968  1.00  0.00    -0.259 OA
BRANCH  13  15
HETATM   15  C   UNL     1      -1.200   6.969 -31.810  1.00  0.00     0.092 A 
HETATM   16  C   UNL     1      -2.112   7.103 -30.770  1.00  0.00     0.180 A 
HETATM   17  N   UNL     1      -1.747   7.106 -29.461  1.00  0.00    -0.236 NA
HETATM   18  C   UNL     1      -0.432   6.976 -29.180  1.00  0.00     0.119 A 
HETATM   19  C   UNL     1       0.548   6.838 -30.146  1.00  0.00     0.020 A 
HETATM   20  C   UNL     1       0.157   6.837 -31.482  1.00  0.00     0.023 A 
BRANCH  16  21
HETATM   21  O   UNL     1      -3.455   7.187 -31.074  1.00  0.00    -0.334 OA
BRANCH  21  22
HETATM   22  C   UNL     1      -3.907   8.519 -31.329  1.00  0.00     0.173 C 
HETATM   23  C   UNL     1      -3.241   9.442 -30.325  1.00  0.00     0.034 C 
ENDBRANCH  21  22
ENDBRANCH  16  21
ENDBRANCH  13  15
ENDBRANCH  12  13
ENDBRANCH  11  12
ENDBRANCH   8  11
ENDBRANCH   1   7
BRANCH   2  24
HETATM   24  C   UNL     1      -4.215   1.796 -31.935  1.00  0.00     0.254 C 
HETATM   25  N   UNL     1      -4.666   0.518 -32.188  1.00  0.00    -0.349 N 
HETATM   26  H   UNL     1      -5.669   0.398 -32.266  1.00  0.00     0.163 HD
HETATM   27  O   UNL     1      -3.075   2.176 -32.175  1.00  0.00    -0.268 OA
BRANCH  25  28
HETATM   28  C   UNL     1      -3.844  -0.469 -32.878  1.00  0.00     0.114 C 
HETATM   29  C   UNL     1      -2.864  -1.186 -31.944  1.00  0.00     0.037 C 
BRANCH  28  30
HETATM   30  C   UNL     1      -4.762  -1.447 -33.596  1.00  0.00    -0.036 A 
HETATM   31  C   UNL     1      -4.318  -2.725 -33.977  1.00  0.00     0.009 A 
HETATM   32  C   UNL     1      -5.183  -3.623 -34.606  1.00  0.00     0.001 A 
HETATM   33  C   UNL     1      -6.503  -3.258 -34.857  1.00  0.00     0.000 A 
HETATM   34  C   UNL     1      -6.962  -1.998 -34.477  1.00  0.00     0.001 A 
HETATM   35  C   UNL     1      -6.098  -1.099 -33.847  1.00  0.00     0.009 A 
ENDBRANCH  28  30
ENDBRANCH  25  28
ENDBRANCH   2  24
TORSDOF 10
ENDMDL
MODEL 7
REMARK VINA RESULT:      -7.8      2.662      4.301
REMARK  10 active torsions:
REMARK  status: ('A' for Active; 'I' for Inactive)
REMARK    1  A    between atoms: C_2  and  O_3 
REMARK    2  A    between atoms: O_3  and  C_4 
REMARK    3  A    between atoms: C_9  and  C_10 
REMARK    4  A    between atoms: C_10  and  O_11 
REMARK    5  A    between atoms: O_11  and  C_12 
REMARK    6  A    between atoms: C_12  and  C_13 
REMARK       I    between atoms: C_13  and  N_14 
REMARK    7  A    between atoms: N_14  and  C_15 
REMARK    8  A    between atoms: C_16  and  C_17 
REMARK       I    between atoms: C_17  and  N_18 
REMARK    9  A    between atoms: N_18  and  C_19 
REMARK   10  A    between atoms: C_19  and  C_20 
ROOT
HETATM    1  C   UNL     1      -6.235   0.508 -32.831  1.00  0.00     0.050 A 
HETATM    2  C   UNL     1      -7.588   0.404 -33.228  1.00  0.00     0.058 A 
HETATM    3  C   UNL     1      -8.040  -0.732 -33.922  1.00  0.00     0.019 A 
HETATM    4  C   UNL     1      -7.159  -1.756 -34.258  1.00  0.00     0.001 A 
HETATM    5  C   UNL     1      -5.822  -1.650 -33.899  1.00  0.00     0.002 A 
HETATM    6  C   UNL     1      -5.366  -0.531 -33.193  1.00  0.00     0.030 A 
ENDROOT
BRANCH   1   7
HETATM    7  N   UNL     1      -5.797   1.620 -32.065  1.00  0.00    -0.324 N 
HETATM    8  C   UNL     1      -5.743   1.728 -30.685  1.00  0.00     0.246 C 
HETATM    9  O   UNL     1      -6.070   0.867 -29.872  1.00  0.00    -0.271 OA
HETATM   10  H   UNL     1      -5.544   2.459 -32.595  1.00  0.00     0.169 HD
BRANCH   8  11
HETATM   11  C   UNL     1      -5.163   3.060 -30.200  1.00  0.00     0.282 C 
BRANCH  11  12
HETATM   12  O   UNL     1      -3.995   3.464 -30.910  1.00  0.00    -0.308 OA
BRANCH  12  13
HETATM   13  C   UNL     1      -3.936   4.788 -31.204  1.00  0.00     0.298 C 
HETATM   14  O   UNL     1      -4.391   5.676 -30.505  1.00  0.00    -0.259 OA
BRANCH  13  15
HETATM   15  C   UNL     1      -3.251   4.953 -32.505  1.00  0.00     0.092 A 
HETATM   16  C   UNL     1      -1.867   4.877 -32.609  1.00  0.00     0.180 A 
HETATM   17  N   UNL     1      -1.205   5.038 -33.785  1.00  0.00    -0.236 NA
HETATM   18  C   UNL     1      -1.944   5.285 -34.889  1.00  0.00     0.119 A 
HETATM   19  C   UNL     1      -3.324   5.378 -34.882  1.00  0.00     0.020 A 
HETATM   20  C   UNL     1      -3.987   5.211 -33.670  1.00  0.00     0.023 A 
BRANCH  16  21
HETATM   21  O   UNL     1      -1.133   4.577 -31.481  1.00  0.00    -0.334 OA
BRANCH  21  22
HETATM   22  C   UNL     1       0.048   5.368 -31.333  1.00  0.00     0.173 C 
HETATM   23  C   UNL     1       0.355   5.481 -29.852  1.00  0.00     0.034 C 
ENDBRANCH  21  22
ENDBRANCH  16  21
ENDBRANCH  13  15
ENDBRANCH  12  13
ENDBRANCH  11  12
ENDBRANCH   8  11
ENDBRANCH   1   7
BRANCH   2  24
HETATM   24  C   UNL     1      -8.607   1.473 -33.013  1.00  0.00     0.254 C 
HETATM   25  N   UNL     1      -9.435   1.737 -34.083  1.00  0.00    -0.349 N 
HETATM   26  H   UNL     1      -9.469   1.035 -34.813  1.00  0.00     0.163 HD
HETATM   27  O   UNL     1      -8.722   2.004 -31.914  1.00  0.00    -0.268 OA
BRANCH  25  28
HETATM   28  C   UNL     1     -10.605   2.597 -33.961  1.00  0.00     0.114 C 
HETATM   29  C   UNL     1     -10.680   3.662 -35.061  1.00  0.00     0.037 C 
BRANCH  28  30
HETATM   30  C   UNL     1     -11.849   1.722 -33.933  1.00  0.00    -0.036 A 
HETATM   31  C   UNL     1     -13.098   2.208 -34.357  1.00  0.00     0.009 A 
HETATM   32  C   UNL     1     -14.223   1.382 -34.356  1.00  0.00     0.001 A 
HETATM   33  C   UNL     1     -14.114   0.058 -33.939  1.00  0.00     0.000 A 
HETATM   34  C   UNL     1     -12.882  -0.443 -33.525  1.00  0.00     0.001 A 
HETATM   35  C   UNL     1     -11.755   0.382 -33.526  1.00  0.00     0.009 A 
ENDBRANCH  28  30
ENDBRANCH  25  28
ENDBRANCH   2  24
TORSDOF 10
ENDMDL
MODEL 8
REMARK VINA RESULT:      -7.8      3.198      6.619
REMARK  10 active torsions:
REMARK  status: ('A' for Active; 'I' for Inactive)
REMARK    1  A    between atoms: C_2  and  O_3 
REMARK    2  A    between atoms: O_3  and  C_4 
REMARK    3  A    between atoms: C_9  and  C_10 
REMARK    4  A    between atoms: C_10  and  O_11 
REMARK    5  A    between atoms: O_11  and  C_12 
REMARK    6  A    between atoms: C_12  and  C_13 
REMARK       I    between atoms: C_13  and  N_14 
REMARK    7  A    between atoms: N_14  and  C_15 
REMARK    8  A    between atoms: C_16  and  C_17 
REMARK       I    between atoms: C_17  and  N_18 
REMARK    9  A    between atoms: N_18  and  C_19 
REMARK   10  A    between atoms: C_19  and  C_20 
ROOT
HETATM    1  C   UNL     1      -6.840  -1.530 -33.769  1.00  0.00     0.050 A 
HETATM    2  C   UNL     1      -5.622  -1.134 -33.170  1.00  0.00     0.058 A 
HETATM    3  C   UNL     1      -4.419  -1.778 -33.513  1.00  0.00     0.019 A 
HETATM    4  C   UNL     1      -4.412  -2.833 -34.420  1.00  0.00     0.001 A 
HETATM    5  C   UNL     1      -5.608  -3.249 -34.992  1.00  0.00     0.002 A 
HETATM    6  C   UNL     1      -6.807  -2.604 -34.671  1.00  0.00     0.030 A 
ENDROOT
BRANCH   1   7
HETATM    7  N   UNL     1      -8.041  -0.829 -33.480  1.00  0.00    -0.324 N 
HETATM    8  C   UNL     1      -8.493   0.348 -34.052  1.00  0.00     0.246 C 
HETATM    9  O   UNL     1      -7.923   1.002 -34.922  1.00  0.00    -0.271 OA
HETATM   10  H   UNL     1      -8.611  -1.213 -32.721  1.00  0.00     0.169 HD
BRANCH   8  11
HETATM   11  C   UNL     1      -9.864   0.791 -33.534  1.00  0.00     0.282 C 
BRANCH  11  12
HETATM   12  O   UNL     1      -9.885   2.134 -33.058  1.00  0.00    -0.308 OA
BRANCH  12  13
HETATM   13  C   UNL     1     -10.719   2.966 -33.732  1.00  0.00     0.298 C 
HETATM   14  O   UNL     1     -10.494   3.432 -34.835  1.00  0.00    -0.259 OA
BRANCH  13  15
HETATM   15  C   UNL     1     -11.915   3.215 -32.898  1.00  0.00     0.092 A 
HETATM   16  C   UNL     1     -13.165   2.724 -33.259  1.00  0.00     0.180 A 
HETATM   17  N   UNL     1     -14.286   2.945 -32.524  1.00  0.00    -0.236 NA
HETATM   18  C   UNL     1     -14.159   3.681 -31.398  1.00  0.00     0.119 A 
HETATM   19  C   UNL     1     -12.959   4.211 -30.960  1.00  0.00     0.020 A 
HETATM   20  C   UNL     1     -11.821   3.975 -31.724  1.00  0.00     0.023 A 
BRANCH  16  21
HETATM   21  O   UNL     1     -13.267   1.936 -34.386  1.00  0.00    -0.334 OA
BRANCH  21  22
HETATM   22  C   UNL     1     -14.178   0.844 -34.248  1.00  0.00     0.173 C 
HETATM   23  C   UNL     1     -13.418  -0.332 -33.662  1.00  0.00     0.034 C 
ENDBRANCH  21  22
ENDBRANCH  16  21
ENDBRANCH  13  15
ENDBRANCH  12  13
ENDBRANCH  11  12
ENDBRANCH   8  11
ENDBRANCH   1   7
BRANCH   2  24
HETATM   24  C   UNL     1      -5.512  -0.084 -32.116  1.00  0.00     0.254 C 
HETATM   25  N   UNL     1      -4.696   0.986 -32.418  1.00  0.00    -0.349 N 
HETATM   26  H   UNL     1      -4.455   1.111 -33.394  1.00  0.00     0.163 HD
HETATM   27  O   UNL     1      -6.181  -0.164 -31.093  1.00  0.00    -0.268 OA
BRANCH  25  28
HETATM   28  C   UNL     1      -4.651   2.182 -31.585  1.00  0.00     0.114 C 
HETATM   29  C   UNL     1      -3.260   2.821 -31.535  1.00  0.00     0.037 C 
BRANCH  28  30
HETATM   30  C   UNL     1      -5.707   3.158 -32.083  1.00  0.00    -0.036 A 
HETATM   31  C   UNL     1      -5.821   3.485 -33.444  1.00  0.00     0.009 A 
HETATM   32  C   UNL     1      -6.816   4.358 -33.888  1.00  0.00     0.001 A 
HETATM   33  C   UNL     1      -7.714   4.910 -32.979  1.00  0.00     0.000 A 
HETATM   34  C   UNL     1      -7.621   4.590 -31.626  1.00  0.00     0.001 A 
HETATM   35  C   UNL     1      -6.626   3.716 -31.180  1.00  0.00     0.009 A 
ENDBRANCH  28  30
ENDBRANCH  25  28
ENDBRANCH   2  24
TORSDOF 10
ENDMDL
MODEL 9
REMARK VINA RESULT:      -7.8      2.123      3.494
REMARK  10 active torsions:
REMARK  status: ('A' for Active; 'I' for Inactive)
REMARK    1  A    between atoms: C_2  and  O_3 
REMARK    2  A    between atoms: O_3  and  C_4 
REMARK    3  A    between atoms: C_9  and  C_10 
REMARK    4  A    between atoms: C_10  and  O_11 
REMARK    5  A    between atoms: O_11  and  C_12 
REMARK    6  A    between atoms: C_12  and  C_13 
REMARK       I    between atoms: C_13  and  N_14 
REMARK    7  A    between atoms: N_14  and  C_15 
REMARK    8  A    between atoms: C_16  and  C_17 
REMARK       I    between atoms: C_17  and  N_18 
REMARK    9  A    between atoms: N_18  and  C_19 
REMARK   10  A    between atoms: C_19  and  C_20 
ROOT
HETATM    1  C   UNL     1      -5.339  -0.690 -33.501  1.00  0.00     0.050 A 
HETATM    2  C   UNL     1      -6.751  -0.731 -33.442  1.00  0.00     0.058 A 
HETATM    3  C   UNL     1      -7.455  -1.816 -33.994  1.00  0.00     0.019 A 
HETATM    4  C   UNL     1      -6.777  -2.850 -34.634  1.00  0.00     0.001 A 
HETATM    5  C   UNL     1      -5.391  -2.805 -34.722  1.00  0.00     0.002 A 
HETATM    6  C   UNL     1      -4.681  -1.738 -34.161  1.00  0.00     0.030 A 
ENDROOT
BRANCH   1   7
HETATM    7  N   UNL     1      -4.627   0.367 -32.877  1.00  0.00    -0.324 N 
HETATM    8  C   UNL     1      -3.820   0.298 -31.753  1.00  0.00     0.246 C 
HETATM    9  O   UNL     1      -3.577  -0.707 -31.090  1.00  0.00    -0.271 OA
HETATM   10  H   UNL     1      -4.772   1.301 -33.273  1.00  0.00     0.169 HD
BRANCH   8  11
HETATM   11  C   UNL     1      -3.163   1.632 -31.390  1.00  0.00     0.282 C 
BRANCH  11  12
HETATM   12  O   UNL     1      -4.088   2.618 -30.938  1.00  0.00    -0.308 OA
BRANCH  12  13
HETATM   13  C   UNL     1      -4.422   3.554 -31.861  1.00  0.00     0.298 C 
HETATM   14  O   UNL     1      -5.200   3.375 -32.783  1.00  0.00    -0.259 OA
BRANCH  13  15
HETATM   15  C   UNL     1      -3.676   4.797 -31.567  1.00  0.00     0.092 A 
HETATM   16  C   UNL     1      -2.552   5.158 -32.300  1.00  0.00     0.180 A 
HETATM   17  N   UNL     1      -1.835   6.285 -32.047  1.00  0.00    -0.236 NA
HETATM   18  C   UNL     1      -2.249   7.073 -31.031  1.00  0.00     0.119 A 
HETATM   19  C   UNL     1      -3.354   6.795 -30.246  1.00  0.00     0.020 A 
HETATM   20  C   UNL     1      -4.077   5.637 -30.518  1.00  0.00     0.023 A 
BRANCH  16  21
HETATM   21  O   UNL     1      -2.172   4.367 -33.363  1.00  0.00    -0.334 OA
BRANCH  21  22
HETATM   22  C   UNL     1      -2.035   5.079 -34.594  1.00  0.00     0.173 C 
HETATM   23  C   UNL     1      -3.425   5.328 -35.150  1.00  0.00     0.034 C 
ENDBRANCH  21  22
ENDBRANCH  16  21
ENDBRANCH  13  15
ENDBRANCH  12  13
ENDBRANCH  11  12
ENDBRANCH   8  11
ENDBRANCH   1   7
BRANCH   2  24
HETATM   24  C   UNL     1      -7.595   0.359 -32.871  1.00  0.00     0.254 C 
HETATM   25  N   UNL     1      -8.258   1.148 -33.787  1.00  0.00    -0.349 N 
HETATM   26  H   UNL     1      -8.335   0.782 -34.729  1.00  0.00     0.163 HD
HETATM   27  O   UNL     1      -7.731   0.463 -31.657  1.00  0.00    -0.268 OA
BRANCH  25  28
HETATM   28  C   UNL     1      -9.276   2.110 -33.385  1.00  0.00     0.114 C 
HETATM   29  C   UNL     1      -9.012   3.519 -33.926  1.00  0.00     0.037 C 
BRANCH  28  30
HETATM   30  C   UNL     1     -10.638   1.583 -33.816  1.00  0.00    -0.036 A 
HETATM   31  C   UNL     1     -11.203   0.441 -33.224  1.00  0.00     0.009 A 
HETATM   32  C   UNL     1     -12.467  -0.010 -33.608  1.00  0.00     0.001 A 
HETATM   33  C   UNL     1     -13.186   0.679 -34.582  1.00  0.00     0.000 A 
HETATM   34  C   UNL     1     -12.644   1.819 -35.171  1.00  0.00     0.001 A 
HETATM   35  C   UNL     1     -11.379   2.272 -34.788  1.00  0.00     0.009 A 
ENDBRANCH  28  30
ENDBRANCH  25  28
ENDBRANCH   2  24
TORSDOF 10
ENDMDL
MODEL 10
REMARK VINA RESULT:      -7.7      2.095      7.805
REMARK  10 active torsions:
REMARK  status: ('A' for Active; 'I' for Inactive)
REMARK    1  A    between atoms: C_2  and  O_3 
REMARK    2  A    between atoms: O_3  and  C_4 
REMARK    3  A    between atoms: C_9  and  C_10 
REMARK    4  A    between atoms: C_10  and  O_11 
REMARK    5  A    between atoms: O_11  and  C_12 
REMARK    6  A    between atoms: C_12  and  C_13 
REMARK       I    between atoms: C_13  and  N_14 
REMARK    7  A    between atoms: N_14  and  C_15 
REMARK    8  A    between atoms: C_16  and  C_17 
REMARK       I    between atoms: C_17  and  N_18 
REMARK    9  A    between atoms: N_18  and  C_19 
REMARK   10  A    between atoms: C_19  and  C_20 
ROOT
HETATM    1  C   UNL     1      -7.348   3.912 -31.689  1.00  0.00     0.050 A 
HETATM    2  C   UNL     1      -6.084   4.544 -31.664  1.00  0.00     0.058 A 
HETATM    3  C   UNL     1      -5.894   5.725 -30.924  1.00  0.00     0.019 A 
HETATM    4  C   UNL     1      -6.953   6.307 -30.232  1.00  0.00     0.001 A 
HETATM    5  C   UNL     1      -8.206   5.709 -30.275  1.00  0.00     0.002 A 
HETATM    6  C   UNL     1      -8.400   4.525 -30.994  1.00  0.00     0.030 A 
ENDROOT
BRANCH   1   7
HETATM    7  N   UNL     1      -7.518   2.680 -32.374  1.00  0.00    -0.324 N 
HETATM    8  C   UNL     1      -7.557   1.407 -31.830  1.00  0.00     0.246 C 
HETATM    9  O   UNL     1      -7.449   1.118 -30.640  1.00  0.00    -0.271 OA
HETATM   10  H   UNL     1      -7.562   2.737 -33.396  1.00  0.00     0.169 HD
BRANCH   8  11
HETATM   11  C   UNL     1      -7.811   0.308 -32.865  1.00  0.00     0.282 C 
BRANCH  11  12
HETATM   12  O   UNL     1      -6.692  -0.552 -33.067  1.00  0.00    -0.308 OA
BRANCH  12  13
HETATM   13  C   UNL     1      -6.461  -0.893 -34.361  1.00  0.00     0.298 C 
HETATM   14  O   UNL     1      -6.653  -0.162 -35.317  1.00  0.00    -0.259 OA
BRANCH  13  15
HETATM   15  C   UNL     1      -5.963  -2.285 -34.401  1.00  0.00     0.092 A 
HETATM   16  C   UNL     1      -4.669  -2.603 -34.005  1.00  0.00     0.180 A 
HETATM   17  N   UNL     1      -4.175  -3.868 -34.042  1.00  0.00    -0.236 NA
HETATM   18  C   UNL     1      -4.993  -4.845 -34.493  1.00  0.00     0.119 A 
HETATM   19  C   UNL     1      -6.293  -4.624 -34.909  1.00  0.00     0.020 A 
HETATM   20  C   UNL     1      -6.784  -3.323 -34.864  1.00  0.00     0.023 A 
BRANCH  16  21
HETATM   21  O   UNL     1      -3.864  -1.602 -33.504  1.00  0.00    -0.334 OA
BRANCH  21  22
HETATM   22  C   UNL     1      -3.463  -1.807 -32.148  1.00  0.00     0.173 C 
HETATM   23  C   UNL     1      -3.097  -0.457 -31.557  1.00  0.00     0.034 C 
ENDBRANCH  21  22
ENDBRANCH  16  21
ENDBRANCH  13  15
ENDBRANCH  12  13
ENDBRANCH  11  12
ENDBRANCH   8  11
ENDBRANCH   1   7
BRANCH   2  24
HETATM   24  C   UNL     1      -4.898   4.075 -32.438  1.00  0.00     0.254 C 
HETATM   25  N   UNL     1      -3.995   5.051 -32.803  1.00  0.00    -0.349 N 
HETATM   26  H   UNL     1      -4.059   5.934 -32.311  1.00  0.00     0.163 HD
HETATM   27  O   UNL     1      -4.732   2.879 -32.648  1.00  0.00    -0.268 OA
BRANCH  25  28
HETATM   28  C   UNL     1      -2.694   4.724 -33.374  1.00  0.00     0.114 C 
HETATM   29  C   UNL     1      -2.541   5.204 -34.821  1.00  0.00     0.037 C 
BRANCH  28  30
HETATM   30  C   UNL     1      -1.611   5.294 -32.471  1.00  0.00    -0.036 A 
HETATM   31  C   UNL     1      -0.970   6.508 -32.769  1.00  0.00     0.009 A 
HETATM   32  C   UNL     1      -0.001   7.033 -31.912  1.00  0.00     0.001 A 
HETATM   33  C   UNL     1       0.335   6.356 -30.742  1.00  0.00     0.000 A 
HETATM   34  C   UNL     1      -0.298   5.155 -30.427  1.00  0.00     0.001 A 
HETATM   35  C   UNL     1      -1.268   4.629 -31.283  1.00  0.00     0.009 A 
ENDBRANCH  28  30
ENDBRANCH  25  28
ENDBRANCH   2  24
TORSDOF 10
ENDMDL
