MODEL 1
REMARK VINA RESULT:      -9.7      0.000      0.000
REMARK  5 active torsions:
REMARK  status: ('A' for Active; 'I' for Inactive)
REMARK    1  A    between atoms: C_5  and  C_6 
REMARK    2  A    between atoms: C_9  and  O_10 
REMARK    3  A    between atoms: N_14  and  C_15 
REMARK    4  A    between atoms: C_15  and  C_16 
REMARK       I    between atoms: C_16  and  N_17 
REMARK    5  A    between atoms: N_17  and  C_18 
ROOT
HETATM    1  C   UNL     1      -3.669   0.121 -30.884  1.00  0.00     0.156 C 
HETATM    2  N   UNL     1      -4.552   0.286 -32.014  1.00  0.00    -0.346 N 
HETATM    3  C   UNL     1      -5.128   1.442 -32.412  1.00  0.00     0.113 A 
HETATM    4  C   UNL     1      -5.955   1.203 -33.475  1.00  0.00     0.014 A 
HETATM    5  C   UNL     1      -6.596   2.463 -33.930  1.00  0.00     0.158 A 
HETATM    6  N   UNL     1      -5.918   3.428 -33.023  1.00  0.00    -0.325 N 
HETATM    7  C   UNL     1      -5.052   2.828 -32.104  1.00  0.00     0.272 A 
HETATM    8  O   UNL     1      -4.300   3.386 -31.325  1.00  0.00    -0.266 OA
HETATM    9  C   UNL     1      -5.808  -0.146 -33.845  1.00  0.00     0.002 A 
HETATM   10  C   UNL     1      -4.920  -0.713 -32.908  1.00  0.00     0.045 A 
HETATM   11  C   UNL     1      -6.303  -0.948 -34.891  1.00  0.00     0.014 A 
HETATM   12  C   UNL     1      -5.908  -2.286 -34.976  1.00  0.00     0.001 A 
HETATM   13  C   UNL     1      -5.037  -2.832 -34.036  1.00  0.00     0.002 A 
HETATM   14  C   UNL     1      -4.532  -2.060 -32.986  1.00  0.00     0.030 A 
ENDROOT
BRANCH   6  15
HETATM   15  C   UNL     1      -5.856   4.844 -33.351  1.00  0.00     0.229 C 
BRANCH  15  16
HETATM   16  C   UNL     1      -4.572   5.204 -34.118  1.00  0.00     0.235 C 
HETATM   17  N   UNL     1      -3.561   5.727 -33.339  1.00  0.00    -0.355 N 
HETATM   18  H   UNL     1      -3.818   6.072 -32.422  1.00  0.00     0.162 HD
HETATM   19  O   UNL     1      -4.491   5.094 -35.339  1.00  0.00    -0.272 OA
BRANCH  17  20
HETATM   20  C   UNL     1      -2.249   6.088 -33.858  1.00  0.00     0.084 C 
HETATM   21  C   UNL     1      -1.864   7.520 -33.470  1.00  0.00     0.025 C 
HETATM   22  C   UNL     1      -1.505   7.659 -31.990  1.00  0.00     0.002 C 
HETATM   23  C   UNL     1      -0.443   6.649 -31.564  1.00  0.00     0.000 C 
HETATM   24  C   UNL     1      -0.863   5.221 -31.897  1.00  0.00     0.002 C 
HETATM   25  C   UNL     1      -1.204   5.070 -33.379  1.00  0.00     0.025 C 
ENDBRANCH  17  20
ENDBRANCH  15  16
ENDBRANCH   6  15
BRANCH   5  26
HETATM   26  C   UNL     1      -8.080   2.305 -33.673  1.00  0.00    -0.030 A 
HETATM   27  C   UNL     1      -8.919   1.559 -34.515  1.00  0.00     0.012 A 
HETATM   28  C   UNL     1     -10.291   1.469 -34.264  1.00  0.00     0.037 A 
HETATM   29  C   UNL     1     -10.862   2.123 -33.173  1.00  0.00     0.068 A 
HETATM   30  C   UNL     1     -10.042   2.865 -32.325  1.00  0.00     0.037 A 
HETATM   31  C   UNL     1      -8.665   2.951 -32.571  1.00  0.00     0.012 A 
BRANCH  29  32
HETATM   32  O   UNL     1     -12.215   1.963 -33.055  1.00  0.00    -0.356 OA
HETATM   33  C   UNL     1     -12.808   0.913 -33.806  1.00  0.00     0.210 C 
ENDBRANCH  29  32
ENDBRANCH   5  26
TORSDOF 5
ENDMDL
MODEL 2
REMARK VINA RESULT:      -9.4      2.115      5.088
REMARK  5 active torsions:
REMARK  status: ('A' for Active; 'I' for Inactive)
REMARK    1  A    between atoms: C_5  and  C_6 
REMARK    2  A    between atoms: C_9  and  O_10 
REMARK    3  A    between atoms: N_14  and  C_15 
REMARK    4  A    between atoms: C_15  and  C_16 
REMARK       I    between atoms: C_16  and  N_17 
REMARK    5  A    between atoms: N_17  and  C_18 
ROOT
HETATM    1  C   UNL     1     -10.003   5.153 -35.358  1.00  0.00     0.156 C 
HETATM    2  N   UNL     1      -9.853   3.940 -34.590  1.00  0.00    -0.346 N 
HETATM    3  C   UNL     1      -8.763   3.579 -33.877  1.00  0.00     0.113 A 
HETATM    4  C   UNL     1      -8.955   2.337 -33.338  1.00  0.00     0.014 A 
HETATM    5  C   UNL     1      -7.768   1.923 -32.546  1.00  0.00     0.158 A 
HETATM    6  N   UNL     1      -6.954   3.163 -32.655  1.00  0.00    -0.325 N 
HETATM    7  C   UNL     1      -7.530   4.151 -33.457  1.00  0.00     0.272 A 
HETATM    8  O   UNL     1      -7.131   5.290 -33.630  1.00  0.00    -0.266 OA
HETATM    9  C   UNL     1     -10.273   1.938 -33.624  1.00  0.00     0.002 A 
HETATM   10  C   UNL     1     -10.827   2.962 -34.420  1.00  0.00     0.045 A 
HETATM   11  C   UNL     1     -11.075   0.837 -33.270  1.00  0.00     0.014 A 
HETATM   12  C   UNL     1     -12.398   0.780 -33.718  1.00  0.00     0.001 A 
HETATM   13  C   UNL     1     -12.926   1.796 -34.511  1.00  0.00     0.002 A 
HETATM   14  C   UNL     1     -12.151   2.900 -34.880  1.00  0.00     0.030 A 
ENDROOT
BRANCH   6  15
HETATM   15  C   UNL     1      -5.898   3.449 -31.695  1.00  0.00     0.229 C 
BRANCH  15  16
HETATM   16  C   UNL     1      -4.499   3.195 -32.280  1.00  0.00     0.235 C 
HETATM   17  N   UNL     1      -3.751   4.332 -32.504  1.00  0.00    -0.355 N 
HETATM   18  H   UNL     1      -4.249   5.214 -32.525  1.00  0.00     0.162 HD
HETATM   19  O   UNL     1      -4.115   2.068 -32.584  1.00  0.00    -0.272 OA
BRANCH  17  20
HETATM   20  C   UNL     1      -2.385   4.311 -33.007  1.00  0.00     0.084 C 
HETATM   21  C   UNL     1      -2.265   5.049 -34.345  1.00  0.00     0.025 C 
HETATM   22  C   UNL     1      -2.368   6.568 -34.199  1.00  0.00     0.002 C 
HETATM   23  C   UNL     1      -1.388   7.108 -33.161  1.00  0.00     0.000 C 
HETATM   24  C   UNL     1      -1.556   6.412 -31.815  1.00  0.00     0.002 C 
HETATM   25  C   UNL     1      -1.434   4.894 -31.951  1.00  0.00     0.025 C 
ENDBRANCH  17  20
ENDBRANCH  15  16
ENDBRANCH   6  15
BRANCH   5  26
HETATM   26  C   UNL     1      -7.176   0.725 -33.259  1.00  0.00    -0.030 A 
HETATM   27  C   UNL     1      -7.277   0.544 -34.647  1.00  0.00     0.012 A 
HETATM   28  C   UNL     1      -6.751  -0.595 -35.262  1.00  0.00     0.037 A 
HETATM   29  C   UNL     1      -6.115  -1.584 -34.511  1.00  0.00     0.068 A 
HETATM   30  C   UNL     1      -6.003  -1.417 -33.132  1.00  0.00     0.037 A 
HETATM   31  C   UNL     1      -6.525  -0.272 -32.514  1.00  0.00     0.012 A 
BRANCH  29  32
HETATM   32  O   UNL     1      -5.661  -2.650 -35.236  1.00  0.00    -0.356 OA
HETATM   33  C   UNL     1      -6.299  -3.899 -35.013  1.00  0.00     0.210 C 
ENDBRANCH  29  32
ENDBRANCH   5  26
TORSDOF 5
ENDMDL
MODEL 3
REMARK VINA RESULT:      -9.2      2.206      7.440
REMARK  5 active torsions:
REMARK  status: ('A' for Active; 'I' for Inactive)
REMARK    1  A    between atoms: C_5  and  C_6 
REMARK    2  A    between atoms: C_9  and  O_10 
REMARK    3  A    between atoms: N_14  and  C_15 
REMARK    4  A    between atoms: C_15  and  C_16 
REMARK       I    between atoms: C_16  and  N_17 
REMARK    5  A    between atoms: N_17  and  C_18 
ROOT
HETATM    1  C   UNL     1      -7.009  -2.269 -34.315  1.00  0.00     0.156 C 
HETATM    2  N   UNL     1      -6.435  -1.282 -33.432  1.00  0.00    -0.346 N 
HETATM    3  C   UNL     1      -7.050  -0.169 -32.975  1.00  0.00     0.113 A 
HETATM    4  C   UNL     1      -6.177   0.563 -32.217  1.00  0.00     0.014 A 
HETATM    5  C   UNL     1      -6.835   1.790 -31.702  1.00  0.00     0.158 A 
HETATM    6  N   UNL     1      -8.215   1.562 -32.208  1.00  0.00    -0.325 N 
HETATM    7  C   UNL     1      -8.352   0.405 -32.980  1.00  0.00     0.272 A 
HETATM    8  O   UNL     1      -9.382  -0.071 -33.424  1.00  0.00    -0.266 OA
HETATM    9  C   UNL     1      -4.987  -0.177 -32.090  1.00  0.00     0.002 A 
HETATM   10  C   UNL     1      -5.166  -1.340 -32.867  1.00  0.00     0.045 A 
HETATM   11  C   UNL     1      -3.786  -0.010 -31.376  1.00  0.00     0.014 A 
HETATM   12  C   UNL     1      -2.797  -0.995 -31.455  1.00  0.00     0.001 A 
HETATM   13  C   UNL     1      -2.987  -2.133 -32.235  1.00  0.00     0.002 A 
HETATM   14  C   UNL     1      -4.169  -2.324 -32.957  1.00  0.00     0.030 A 
ENDROOT
BRANCH   6  15
HETATM   15  C   UNL     1      -9.352   2.243 -31.608  1.00  0.00     0.229 C 
BRANCH  15  16
HETATM   16  C   UNL     1     -10.236   2.932 -32.661  1.00  0.00     0.235 C 
HETATM   17  N   UNL     1     -11.393   2.252 -32.979  1.00  0.00    -0.355 N 
HETATM   18  H   UNL     1     -11.438   1.274 -32.718  1.00  0.00     0.162 HD
HETATM   19  O   UNL     1      -9.894   3.973 -33.217  1.00  0.00    -0.272 OA
BRANCH  17  20
HETATM   20  C   UNL     1     -12.390   2.753 -33.915  1.00  0.00     0.084 C 
HETATM   21  C   UNL     1     -12.881   1.650 -34.860  1.00  0.00     0.025 C 
HETATM   22  C   UNL     1     -13.792   0.636 -34.168  1.00  0.00     0.002 C 
HETATM   23  C   UNL     1     -14.947   1.314 -33.436  1.00  0.00     0.000 C 
HETATM   24  C   UNL     1     -14.447   2.365 -32.452  1.00  0.00     0.002 C 
HETATM   25  C   UNL     1     -13.551   3.394 -33.141  1.00  0.00     0.025 C 
ENDBRANCH  17  20
ENDBRANCH  15  16
ENDBRANCH   6  15
BRANCH   5  26
HETATM   26  C   UNL     1      -6.122   2.960 -32.347  1.00  0.00    -0.030 A 
HETATM   27  C   UNL     1      -6.457   3.442 -33.623  1.00  0.00     0.012 A 
HETATM   28  C   UNL     1      -5.749   4.499 -34.199  1.00  0.00     0.037 A 
HETATM   29  C   UNL     1      -4.687   5.100 -33.524  1.00  0.00     0.068 A 
HETATM   30  C   UNL     1      -4.343   4.636 -32.256  1.00  0.00     0.037 A 
HETATM   31  C   UNL     1      -5.056   3.579 -31.672  1.00  0.00     0.012 A 
BRANCH  29  32
HETATM   32  O   UNL     1      -4.073   6.111 -34.209  1.00  0.00    -0.356 OA
HETATM   33  C   UNL     1      -2.653   6.154 -34.160  1.00  0.00     0.210 C 
ENDBRANCH  29  32
ENDBRANCH   5  26
TORSDOF 5
ENDMDL
MODEL 4
REMARK VINA RESULT:      -9.1      2.414      5.063
REMARK  5 active torsions:
REMARK  status: ('A' for Active; 'I' for Inactive)
REMARK    1  A    between atoms: C_5  and  C_6 
REMARK    2  A    between atoms: C_9  and  O_10 
REMARK    3  A    between atoms: N_14  and  C_15 
REMARK    4  A    between atoms: C_15  and  C_16 
REMARK       I    between atoms: C_16  and  N_17 
REMARK    5  A    between atoms: N_17  and  C_18 
ROOT
HETATM    1  C   UNL     1      -9.370   0.373 -32.760  1.00  0.00     0.156 C 
HETATM    2  N   UNL     1      -7.939   0.493 -32.615  1.00  0.00    -0.346 N 
HETATM    3  C   UNL     1      -7.288   1.430 -31.888  1.00  0.00     0.113 A 
HETATM    4  C   UNL     1      -5.937   1.275 -32.042  1.00  0.00     0.014 A 
HETATM    5  C   UNL     1      -5.204   2.293 -31.248  1.00  0.00     0.158 A 
HETATM    6  N   UNL     1      -6.351   2.952 -30.568  1.00  0.00    -0.325 N 
HETATM    7  C   UNL     1      -7.599   2.455 -30.953  1.00  0.00     0.272 A 
HETATM    8  O   UNL     1      -8.686   2.739 -30.481  1.00  0.00    -0.266 OA
HETATM    9  C   UNL     1      -5.716   0.116 -32.807  1.00  0.00     0.002 A 
HETATM   10  C   UNL     1      -6.993  -0.365 -33.164  1.00  0.00     0.045 A 
HETATM   11  C   UNL     1      -4.577  -0.603 -33.212  1.00  0.00     0.014 A 
HETATM   12  C   UNL     1      -4.733  -1.773 -33.961  1.00  0.00     0.001 A 
HETATM   13  C   UNL     1      -6.002  -2.228 -34.313  1.00  0.00     0.002 A 
HETATM   14  C   UNL     1      -7.151  -1.533 -33.927  1.00  0.00     0.030 A 
ENDROOT
BRANCH   6  15
HETATM   15  C   UNL     1      -6.155   3.719 -29.347  1.00  0.00     0.229 C 
BRANCH  15  16
HETATM   16  C   UNL     1      -5.987   5.221 -29.628  1.00  0.00     0.235 C 
HETATM   17  N   UNL     1      -4.685   5.677 -29.570  1.00  0.00    -0.355 N 
HETATM   18  H   UNL     1      -4.010   5.083 -29.105  1.00  0.00     0.162 HD
HETATM   19  O   UNL     1      -6.949   5.960 -29.819  1.00  0.00    -0.272 OA
BRANCH  17  20
HETATM   20  C   UNL     1      -4.301   7.053 -29.851  1.00  0.00     0.084 C 
HETATM   21  C   UNL     1      -3.702   7.735 -28.616  1.00  0.00     0.025 C 
HETATM   22  C   UNL     1      -2.297   7.232 -28.282  1.00  0.00     0.002 C 
HETATM   23  C   UNL     1      -1.363   7.311 -29.486  1.00  0.00     0.000 C 
HETATM   24  C   UNL     1      -1.938   6.577 -30.691  1.00  0.00     0.002 C 
HETATM   25  C   UNL     1      -3.335   7.088 -31.043  1.00  0.00     0.025 C 
ENDBRANCH  17  20
ENDBRANCH  15  16
ENDBRANCH   6  15
BRANCH   5  26
HETATM   26  C   UNL     1      -4.483   3.175 -32.246  1.00  0.00    -0.030 A 
HETATM   27  C   UNL     1      -3.083   3.226 -32.339  1.00  0.00     0.012 A 
HETATM   28  C   UNL     1      -2.455   4.082 -33.247  1.00  0.00     0.037 A 
HETATM   29  C   UNL     1      -3.204   4.912 -34.082  1.00  0.00     0.068 A 
HETATM   30  C   UNL     1      -4.594   4.871 -34.004  1.00  0.00     0.037 A 
HETATM   31  C   UNL     1      -5.227   4.009 -33.098  1.00  0.00     0.012 A 
BRANCH  29  32
HETATM   32  O   UNL     1      -2.463   5.709 -34.910  1.00  0.00    -0.356 OA
HETATM   33  C   UNL     1      -1.123   5.975 -34.519  1.00  0.00     0.210 C 
ENDBRANCH  29  32
ENDBRANCH   5  26
TORSDOF 5
ENDMDL
MODEL 5
REMARK VINA RESULT:      -8.7      2.333      7.686
REMARK  5 active torsions:
REMARK  status: ('A' for Active; 'I' for Inactive)
REMARK    1  A    between atoms: C_5  and  C_6 
REMARK    2  A    between atoms: C_9  and  O_10 
REMARK    3  A    between atoms: N_14  and  C_15 
REMARK    4  A    between atoms: C_15  and  C_16 
REMARK       I    between atoms: C_16  and  N_17 
REMARK    5  A    between atoms: N_17  and  C_18 
ROOT
HETATM    1  C   UNL     1      -4.819   5.261 -29.893  1.00  0.00     0.156 C 
HETATM    2  N   UNL     1      -5.224   4.711 -31.164  1.00  0.00    -0.346 N 
HETATM    3  C   UNL     1      -6.268   3.879 -31.375  1.00  0.00     0.113 A 
HETATM    4  C   UNL     1      -6.305   3.510 -32.692  1.00  0.00     0.014 A 
HETATM    5  C   UNL     1      -7.449   2.598 -32.945  1.00  0.00     0.158 A 
HETATM    6  N   UNL     1      -8.079   2.609 -31.598  1.00  0.00    -0.325 N 
HETATM    7  C   UNL     1      -7.375   3.358 -30.651  1.00  0.00     0.272 A 
HETATM    8  O   UNL     1      -7.719   3.619 -29.511  1.00  0.00    -0.266 OA
HETATM    9  C   UNL     1      -5.310   4.233 -33.374  1.00  0.00     0.002 A 
HETATM   10  C   UNL     1      -4.632   4.986 -32.392  1.00  0.00     0.045 A 
HETATM   11  C   UNL     1      -4.924   4.362 -34.721  1.00  0.00     0.014 A 
HETATM   12  C   UNL     1      -3.878   5.227 -35.056  1.00  0.00     0.001 A 
HETATM   13  C   UNL     1      -3.214   5.955 -34.072  1.00  0.00     0.002 A 
HETATM   14  C   UNL     1      -3.574   5.845 -32.726  1.00  0.00     0.030 A 
ENDROOT
BRANCH   6  15
HETATM   15  C   UNL     1      -9.473   2.233 -31.423  1.00  0.00     0.229 C 
BRANCH  15  16
HETATM   16  C   UNL     1     -10.396   2.947 -32.425  1.00  0.00     0.235 C 
HETATM   17  N   UNL     1     -11.290   2.121 -33.075  1.00  0.00    -0.355 N 
HETATM   18  H   UNL     1     -11.099   1.127 -33.051  1.00  0.00     0.162 HD
HETATM   19  O   UNL     1     -10.289   4.146 -32.668  1.00  0.00    -0.272 OA
BRANCH  17  20
HETATM   20  C   UNL     1     -12.283   2.601 -34.026  1.00  0.00     0.084 C 
HETATM   21  C   UNL     1     -12.707   1.499 -35.003  1.00  0.00     0.025 C 
HETATM   22  C   UNL     1     -13.594   0.436 -34.353  1.00  0.00     0.002 C 
HETATM   23  C   UNL     1     -14.792   1.055 -33.638  1.00  0.00     0.000 C 
HETATM   24  C   UNL     1     -14.358   2.105 -32.622  1.00  0.00     0.002 C 
HETATM   25  C   UNL     1     -13.487   3.182 -33.270  1.00  0.00     0.025 C 
ENDBRANCH  17  20
ENDBRANCH  15  16
ENDBRANCH   6  15
BRANCH   5  26
HETATM   26  C   UNL     1      -6.851   1.263 -33.341  1.00  0.00    -0.030 A 
HETATM   27  C   UNL     1      -5.813   0.655 -32.618  1.00  0.00     0.012 A 
HETATM   28  C   UNL     1      -5.261  -0.559 -33.038  1.00  0.00     0.037 A 
HETATM   29  C   UNL     1      -5.726  -1.194 -34.190  1.00  0.00     0.068 A 
HETATM   30  C   UNL     1      -6.758  -0.605 -34.917  1.00  0.00     0.037 A 
HETATM   31  C   UNL     1      -7.317   0.609 -34.494  1.00  0.00     0.012 A 
BRANCH  29  32
HETATM   32  O   UNL     1      -5.088  -2.365 -34.493  1.00  0.00    -0.356 OA
HETATM   33  C   UNL     1      -5.895  -3.433 -34.969  1.00  0.00     0.210 C 
ENDBRANCH  29  32
ENDBRANCH   5  26
TORSDOF 5
ENDMDL
MODEL 6
REMARK VINA RESULT:      -8.6      2.678      4.354
REMARK  5 active torsions:
REMARK  status: ('A' for Active; 'I' for Inactive)
REMARK    1  A    between atoms: C_5  and  C_6 
REMARK    2  A    between atoms: C_9  and  O_10 
REMARK    3  A    between atoms: N_14  and  C_15 
REMARK    4  A    between atoms: C_15  and  C_16 
REMARK       I    between atoms: C_16  and  N_17 
REMARK    5  A    between atoms: N_17  and  C_18 
ROOT
HETATM    1  C   UNL     1      -3.612   0.030 -31.094  1.00  0.00     0.156 C 
HETATM    2  N   UNL     1      -4.502   0.036 -32.230  1.00  0.00    -0.346 N 
HETATM    3  C   UNL     1      -5.202   1.099 -32.688  1.00  0.00     0.113 A 
HETATM    4  C   UNL     1      -5.991   0.714 -33.738  1.00  0.00     0.014 A 
HETATM    5  C   UNL     1      -6.766   1.868 -34.258  1.00  0.00     0.158 A 
HETATM    6  N   UNL     1      -6.206   2.948 -33.403  1.00  0.00    -0.325 N 
HETATM    7  C   UNL     1      -5.283   2.499 -32.454  1.00  0.00     0.272 A 
HETATM    8  O   UNL     1      -4.602   3.177 -31.705  1.00  0.00    -0.266 OA
HETATM    9  C   UNL     1      -5.692  -0.628 -34.036  1.00  0.00     0.002 A 
HETATM   10  C   UNL     1      -4.750  -1.043 -33.071  1.00  0.00     0.045 A 
HETATM   11  C   UNL     1      -6.087  -1.533 -35.039  1.00  0.00     0.014 A 
HETATM   12  C   UNL     1      -5.544  -2.821 -35.053  1.00  0.00     0.001 A 
HETATM   13  C   UNL     1      -4.623  -3.217 -34.087  1.00  0.00     0.002 A 
HETATM   14  C   UNL     1      -4.214  -2.339 -33.078  1.00  0.00     0.030 A 
ENDROOT
BRANCH   6  15
HETATM   15  C   UNL     1      -6.300   4.344 -33.804  1.00  0.00     0.229 C 
BRANCH  15  16
HETATM   16  C   UNL     1      -6.984   5.209 -32.733  1.00  0.00     0.235 C 
HETATM   17  N   UNL     1      -8.346   5.019 -32.619  1.00  0.00    -0.355 N 
HETATM   18  H   UNL     1      -8.811   4.554 -33.390  1.00  0.00     0.162 HD
HETATM   19  O   UNL     1      -6.367   6.049 -32.083  1.00  0.00    -0.272 OA
BRANCH  17  20
HETATM   20  C   UNL     1      -9.175   5.701 -31.636  1.00  0.00     0.084 C 
HETATM   21  C   UNL     1     -10.543   6.078 -32.216  1.00  0.00     0.025 C 
HETATM   22  C   UNL     1     -11.463   4.871 -32.405  1.00  0.00     0.002 C 
HETATM   23  C   UNL     1     -11.594   4.050 -31.125  1.00  0.00     0.000 C 
HETATM   24  C   UNL     1     -10.231   3.625 -30.589  1.00  0.00     0.002 C 
HETATM   25  C   UNL     1      -9.313   4.830 -30.380  1.00  0.00     0.025 C 
ENDBRANCH  17  20
ENDBRANCH  15  16
ENDBRANCH   6  15
BRANCH   5  26
HETATM   26  C   UNL     1      -8.224   1.558 -33.992  1.00  0.00    -0.030 A 
HETATM   27  C   UNL     1      -9.272   2.282 -34.581  1.00  0.00     0.012 A 
HETATM   28  C   UNL     1     -10.605   1.990 -34.280  1.00  0.00     0.037 A 
HETATM   29  C   UNL     1     -10.928   0.973 -33.381  1.00  0.00     0.068 A 
HETATM   30  C   UNL     1      -9.900   0.243 -32.789  1.00  0.00     0.037 A 
HETATM   31  C   UNL     1      -8.562   0.530 -33.095  1.00  0.00     0.012 A 
BRANCH  29  32
HETATM   32  O   UNL     1     -12.267   0.804 -33.166  1.00  0.00    -0.356 OA
HETATM   33  C   UNL     1     -13.088   0.637 -34.314  1.00  0.00     0.210 C 
ENDBRANCH  29  32
ENDBRANCH   5  26
TORSDOF 5
ENDMDL
MODEL 7
REMARK VINA RESULT:      -8.5      2.430      7.399
REMARK  5 active torsions:
REMARK  status: ('A' for Active; 'I' for Inactive)
REMARK    1  A    between atoms: C_5  and  C_6 
REMARK    2  A    between atoms: C_9  and  O_10 
REMARK    3  A    between atoms: N_14  and  C_15 
REMARK    4  A    between atoms: C_15  and  C_16 
REMARK       I    between atoms: C_16  and  N_17 
REMARK    5  A    between atoms: N_17  and  C_18 
ROOT
HETATM    1  C   UNL     1      -3.860   7.637 -28.635  1.00  0.00     0.156 C 
HETATM    2  N   UNL     1      -3.449   6.756 -29.702  1.00  0.00    -0.346 N 
HETATM    3  C   UNL     1      -4.269   6.039 -30.503  1.00  0.00     0.113 A 
HETATM    4  C   UNL     1      -3.524   5.266 -31.351  1.00  0.00     0.014 A 
HETATM    5  C   UNL     1      -4.407   4.472 -32.243  1.00  0.00     0.158 A 
HETATM    6  N   UNL     1      -5.730   5.004 -31.820  1.00  0.00    -0.325 N 
HETATM    7  C   UNL     1      -5.661   5.928 -30.773  1.00  0.00     0.272 A 
HETATM    8  O   UNL     1      -6.573   6.590 -30.309  1.00  0.00    -0.266 OA
HETATM    9  C   UNL     1      -2.170   5.594 -31.161  1.00  0.00     0.002 A 
HETATM   10  C   UNL     1      -2.139   6.536 -30.112  1.00  0.00     0.045 A 
HETATM   11  C   UNL     1      -0.963   5.224 -31.783  1.00  0.00     0.014 A 
HETATM   12  C   UNL     1       0.237   5.792 -31.346  1.00  0.00     0.001 A 
HETATM   13  C   UNL     1       0.250   6.714 -30.302  1.00  0.00     0.002 A 
HETATM   14  C   UNL     1      -0.934   7.098 -29.665  1.00  0.00     0.030 A 
ENDROOT
BRANCH   6  15
HETATM   15  C   UNL     1      -6.894   4.885 -32.685  1.00  0.00     0.229 C 
BRANCH  15  16
HETATM   16  C   UNL     1      -7.785   3.694 -32.295  1.00  0.00     0.235 C 
HETATM   17  N   UNL     1      -7.708   2.612 -33.147  1.00  0.00    -0.355 N 
HETATM   18  H   UNL     1      -7.307   2.775 -34.062  1.00  0.00     0.162 HD
HETATM   19  O   UNL     1      -8.551   3.740 -31.336  1.00  0.00    -0.272 OA
BRANCH  17  20
HETATM   20  C   UNL     1      -8.432   1.366 -32.934  1.00  0.00     0.084 C 
HETATM   21  C   UNL     1      -9.114   0.883 -34.219  1.00  0.00     0.025 C 
HETATM   22  C   UNL     1      -8.125   0.331 -35.246  1.00  0.00     0.002 C 
HETATM   23  C   UNL     1      -7.219  -0.740 -34.645  1.00  0.00     0.000 C 
HETATM   24  C   UNL     1      -6.496  -0.231 -33.403  1.00  0.00     0.002 C 
HETATM   25  C   UNL     1      -7.481   0.305 -32.364  1.00  0.00     0.025 C 
ENDBRANCH  17  20
ENDBRANCH  15  16
ENDBRANCH   6  15
BRANCH   5  26
HETATM   26  C   UNL     1      -4.179   3.018 -31.885  1.00  0.00    -0.030 A 
HETATM   27  C   UNL     1      -3.429   2.148 -32.693  1.00  0.00     0.012 A 
HETATM   28  C   UNL     1      -3.274   0.803 -32.348  1.00  0.00     0.037 A 
HETATM   29  C   UNL     1      -3.865   0.289 -31.193  1.00  0.00     0.068 A 
HETATM   30  C   UNL     1      -4.609   1.140 -30.379  1.00  0.00     0.037 A 
HETATM   31  C   UNL     1      -4.760   2.491 -30.720  1.00  0.00     0.012 A 
BRANCH  29  32
HETATM   32  O   UNL     1      -3.645  -1.044 -30.984  1.00  0.00    -0.356 OA
HETATM   33  C   UNL     1      -3.117  -1.789 -32.073  1.00  0.00     0.210 C 
ENDBRANCH  29  32
ENDBRANCH   5  26
TORSDOF 5
ENDMDL
MODEL 8
REMARK VINA RESULT:      -8.3      2.814      3.837
REMARK  5 active torsions:
REMARK  status: ('A' for Active; 'I' for Inactive)
REMARK    1  A    between atoms: C_5  and  C_6 
REMARK    2  A    between atoms: C_9  and  O_10 
REMARK    3  A    between atoms: N_14  and  C_15 
REMARK    4  A    between atoms: C_15  and  C_16 
REMARK       I    between atoms: C_16  and  N_17 
REMARK    5  A    between atoms: N_17  and  C_18 
ROOT
HETATM    1  C   UNL     1      -3.223  -0.411 -31.478  1.00  0.00     0.156 C 
HETATM    2  N   UNL     1      -4.219   0.301 -32.243  1.00  0.00    -0.346 N 
HETATM    3  C   UNL     1      -4.392   1.641 -32.271  1.00  0.00     0.113 A 
HETATM    4  C   UNL     1      -5.474   1.950 -33.050  1.00  0.00     0.014 A 
HETATM    5  C   UNL     1      -5.680   3.420 -33.096  1.00  0.00     0.158 A 
HETATM    6  N   UNL     1      -4.495   3.861 -32.313  1.00  0.00    -0.325 N 
HETATM    7  C   UNL     1      -3.729   2.809 -31.803  1.00  0.00     0.272 A 
HETATM    8  O   UNL     1      -2.661   2.886 -31.222  1.00  0.00    -0.266 OA
HETATM    9  C   UNL     1      -5.938   0.760 -33.639  1.00  0.00     0.002 A 
HETATM   10  C   UNL     1      -5.136  -0.274 -33.115  1.00  0.00     0.045 A 
HETATM   11  C   UNL     1      -6.930   0.443 -34.586  1.00  0.00     0.014 A 
HETATM   12  C   UNL     1      -7.101  -0.886 -34.982  1.00  0.00     0.001 A 
HETATM   13  C   UNL     1      -6.305  -1.896 -34.447  1.00  0.00     0.002 A 
HETATM   14  C   UNL     1      -5.314  -1.611 -33.504  1.00  0.00     0.030 A 
ENDROOT
BRANCH   6  15
HETATM   15  C   UNL     1      -3.983   5.217 -32.434  1.00  0.00     0.229 C 
BRANCH  15  16
HETATM   16  C   UNL     1      -3.952   5.948 -31.082  1.00  0.00     0.235 C 
HETATM   17  N   UNL     1      -5.193   6.224 -30.546  1.00  0.00    -0.355 N 
HETATM   18  H   UNL     1      -5.986   6.176 -31.174  1.00  0.00     0.162 HD
HETATM   19  O   UNL     1      -2.900   6.312 -30.562  1.00  0.00    -0.272 OA
BRANCH  17  20
HETATM   20  C   UNL     1      -5.387   6.865 -29.253  1.00  0.00     0.084 C 
HETATM   21  C   UNL     1      -6.476   7.942 -29.315  1.00  0.00     0.025 C 
HETATM   22  C   UNL     1      -7.884   7.359 -29.429  1.00  0.00     0.002 C 
HETATM   23  C   UNL     1      -8.164   6.330 -28.337  1.00  0.00     0.000 C 
HETATM   24  C   UNL     1      -7.111   5.227 -28.323  1.00  0.00     0.002 C 
HETATM   25  C   UNL     1      -5.701   5.803 -28.190  1.00  0.00     0.025 C 
ENDBRANCH  17  20
ENDBRANCH  15  16
ENDBRANCH   6  15
BRANCH   5  26
HETATM   26  C   UNL     1      -7.008   3.686 -32.419  1.00  0.00    -0.030 A 
HETATM   27  C   UNL     1      -7.840   4.758 -32.779  1.00  0.00     0.012 A 
HETATM   28  C   UNL     1      -9.040   4.993 -32.103  1.00  0.00     0.037 A 
HETATM   29  C   UNL     1      -9.440   4.171 -31.049  1.00  0.00     0.068 A 
HETATM   30  C   UNL     1      -8.627   3.102 -30.681  1.00  0.00     0.037 A 
HETATM   31  C   UNL     1      -7.425   2.860 -31.362  1.00  0.00     0.012 A 
BRANCH  29  32
HETATM   32  O   UNL     1     -10.625   4.524 -30.468  1.00  0.00    -0.356 OA
HETATM   33  C   UNL     1     -11.110   5.832 -30.734  1.00  0.00     0.210 C 
ENDBRANCH  29  32
ENDBRANCH   5  26
TORSDOF 5
ENDMDL
MODEL 9
REMARK VINA RESULT:      -8.2      2.448      7.116
REMARK  5 active torsions:
REMARK  status: ('A' for Active; 'I' for Inactive)
REMARK    1  A    between atoms: C_5  and  C_6 
REMARK    2  A    between atoms: C_9  and  O_10 
REMARK    3  A    between atoms: N_14  and  C_15 
REMARK    4  A    between atoms: C_15  and  C_16 
REMARK       I    between atoms: C_16  and  N_17 
REMARK    5  A    between atoms: N_17  and  C_18 
ROOT
HETATM    1  C   UNL     1      -3.543   8.033 -30.930  1.00  0.00     0.156 C 
HETATM    2  N   UNL     1      -3.904   7.106 -31.976  1.00  0.00    -0.346 N 
HETATM    3  C   UNL     1      -5.149   6.654 -32.244  1.00  0.00     0.113 A 
HETATM    4  C   UNL     1      -5.099   5.738 -33.258  1.00  0.00     0.014 A 
HETATM    5  C   UNL     1      -6.459   5.231 -33.571  1.00  0.00     0.158 A 
HETATM    6  N   UNL     1      -7.258   6.080 -32.648  1.00  0.00    -0.325 N 
HETATM    7  C   UNL     1      -6.487   6.922 -31.842  1.00  0.00     0.272 A 
HETATM    8  O   UNL     1      -6.885   7.787 -31.082  1.00  0.00    -0.266 OA
HETATM    9  C   UNL     1      -3.776   5.691 -33.736  1.00  0.00     0.002 A 
HETATM   10  C   UNL     1      -3.032   6.560 -32.912  1.00  0.00     0.045 A 
HETATM   11  C   UNL     1      -3.128   5.034 -34.798  1.00  0.00     0.014 A 
HETATM   12  C   UNL     1      -1.763   5.253 -35.010  1.00  0.00     0.001 A 
HETATM   13  C   UNL     1      -1.042   6.108 -34.180  1.00  0.00     0.002 A 
HETATM   14  C   UNL     1      -1.660   6.772 -33.116  1.00  0.00     0.030 A 
ENDROOT
BRANCH   6  15
HETATM   15  C   UNL     1      -8.679   6.298 -32.875  1.00  0.00     0.229 C 
BRANCH  15  16
HETATM   16  C   UNL     1      -9.548   5.271 -32.130  1.00  0.00     0.235 C 
HETATM   17  N   UNL     1      -9.946   4.191 -32.891  1.00  0.00    -0.355 N 
HETATM   18  H   UNL     1      -9.874   4.285 -33.897  1.00  0.00     0.162 HD
HETATM   19  O   UNL     1      -9.908   5.444 -30.968  1.00  0.00    -0.272 OA
BRANCH  17  20
HETATM   20  C   UNL     1     -10.732   3.083 -32.366  1.00  0.00     0.084 C 
HETATM   21  C   UNL     1     -12.205   3.193 -32.774  1.00  0.00     0.025 C 
HETATM   22  C   UNL     1     -12.438   2.881 -34.253  1.00  0.00     0.002 C 
HETATM   23  C   UNL     1     -11.836   1.537 -34.653  1.00  0.00     0.000 C 
HETATM   24  C   UNL     1     -10.354   1.460 -34.301  1.00  0.00     0.002 C 
HETATM   25  C   UNL     1     -10.116   1.751 -32.819  1.00  0.00     0.025 C 
ENDBRANCH  17  20
ENDBRANCH  15  16
ENDBRANCH   6  15
BRANCH   5  26
HETATM   26  C   UNL     1      -6.458   3.758 -33.217  1.00  0.00    -0.030 A 
HETATM   27  C   UNL     1      -6.484   2.746 -34.188  1.00  0.00     0.012 A 
HETATM   28  C   UNL     1      -6.521   1.398 -33.820  1.00  0.00     0.037 A 
HETATM   29  C   UNL     1      -6.539   1.026 -32.476  1.00  0.00     0.068 A 
HETATM   30  C   UNL     1      -6.511   2.018 -31.499  1.00  0.00     0.037 A 
HETATM   31  C   UNL     1      -6.467   3.371 -31.866  1.00  0.00     0.012 A 
BRANCH  29  32
HETATM   32  O   UNL     1      -6.592  -0.323 -32.257  1.00  0.00    -0.356 OA
HETATM   33  C   UNL     1      -6.396  -1.166 -33.384  1.00  0.00     0.210 C 
ENDBRANCH  29  32
ENDBRANCH   5  26
TORSDOF 5
ENDMDL
MODEL 10
REMARK VINA RESULT:      -8.2      1.613      2.078
REMARK  5 active torsions:
REMARK  status: ('A' for Active; 'I' for Inactive)
REMARK    1  A    between atoms: C_5  and  C_6 
REMARK    2  A    between atoms: C_9  and  O_10 
REMARK    3  A    between atoms: N_14  and  C_15 
REMARK    4  A    between atoms: C_15  and  C_16 
REMARK       I    between atoms: C_16  and  N_17 
REMARK    5  A    between atoms: N_17  and  C_18 
ROOT
HETATM    1  C   UNL     1      -3.104   0.047 -32.080  1.00  0.00     0.156 C 
HETATM    2  N   UNL     1      -4.344   0.420 -32.719  1.00  0.00    -0.346 N 
HETATM    3  C   UNL     1      -4.805   1.679 -32.890  1.00  0.00     0.113 A 
HETATM    4  C   UNL     1      -6.042   1.643 -33.472  1.00  0.00     0.014 A 
HETATM    5  C   UNL     1      -6.565   3.018 -33.671  1.00  0.00     0.158 A 
HETATM    6  N   UNL     1      -5.389   3.800 -33.205  1.00  0.00    -0.325 N 
HETATM    7  C   UNL     1      -4.340   3.013 -32.723  1.00  0.00     0.272 A 
HETATM    8  O   UNL     1      -3.231   3.386 -32.382  1.00  0.00    -0.266 OA
HETATM    9  C   UNL     1      -6.331   0.304 -33.793  1.00  0.00     0.002 A 
HETATM   10  C   UNL     1      -5.248  -0.457 -33.307  1.00  0.00     0.045 A 
HETATM   11  C   UNL     1      -7.376  -0.350 -34.473  1.00  0.00     0.014 A 
HETATM   12  C   UNL     1      -7.321  -1.736 -34.647  1.00  0.00     0.001 A 
HETATM   13  C   UNL     1      -6.248  -2.473 -34.152  1.00  0.00     0.002 A 
HETATM   14  C   UNL     1      -5.197  -1.850 -33.471  1.00  0.00     0.030 A 
ENDROOT
BRANCH   6  15
HETATM   15  C   UNL     1      -5.209   5.187 -33.606  1.00  0.00     0.229 C 
BRANCH  15  16
HETATM   16  C   UNL     1      -4.737   6.070 -32.438  1.00  0.00     0.235 C 
HETATM   17  N   UNL     1      -3.397   6.395 -32.464  1.00  0.00    -0.355 N 
HETATM   18  H   UNL     1      -2.799   5.835 -33.061  1.00  0.00     0.162 HD
HETATM   19  O   UNL     1      -5.490   6.398 -31.524  1.00  0.00    -0.272 OA
BRANCH  17  20
HETATM   20  C   UNL     1      -2.759   7.259 -31.481  1.00  0.00     0.084 C 
HETATM   21  C   UNL     1      -2.209   6.457 -30.296  1.00  0.00     0.025 C 
HETATM   22  C   UNL     1      -0.959   5.652 -30.651  1.00  0.00     0.002 C 
HETATM   23  C   UNL     1       0.116   6.524 -31.295  1.00  0.00     0.000 C 
HETATM   24  C   UNL     1      -0.422   7.270 -32.511  1.00  0.00     0.002 C 
HETATM   25  C   UNL     1      -1.661   8.093 -32.158  1.00  0.00     0.025 C 
ENDBRANCH  17  20
ENDBRANCH  15  16
ENDBRANCH   6  15
BRANCH   5  26
HETATM   26  C   UNL     1      -7.786   3.143 -32.784  1.00  0.00    -0.030 A 
HETATM   27  C   UNL     1      -9.095   3.027 -33.278  1.00  0.00     0.012 A 
HETATM   28  C   UNL     1     -10.197   3.188 -32.433  1.00  0.00     0.037 A 
HETATM   29  C   UNL     1     -10.024   3.473 -31.079  1.00  0.00     0.068 A 
HETATM   30  C   UNL     1      -8.731   3.589 -30.573  1.00  0.00     0.037 A 
HETATM   31  C   UNL     1      -7.624   3.421 -31.416  1.00  0.00     0.012 A 
BRANCH  29  32
HETATM   32  O   UNL     1     -11.185   3.621 -30.373  1.00  0.00    -0.356 OA
HETATM   33  C   UNL     1     -12.093   4.614 -30.827  1.00  0.00     0.210 C 
ENDBRANCH  29  32
ENDBRANCH   5  26
TORSDOF 5
ENDMDL
