MODEL 1
REMARK VINA RESULT:      -8.4      0.000      0.000
REMARK  9 active torsions:
REMARK  status: ('A' for Active; 'I' for Inactive)
REMARK    1  A    between atoms: C_2  and  N_3 
REMARK    2  A    between atoms: C_2  and  C_23 
REMARK       I    between atoms: N_3  and  C_4 
REMARK       I    between atoms: C_4  and  N_5 
REMARK    3  A    between atoms: N_5  and  C_6 
REMARK    4  A    between atoms: C_6  and  C_7 
REMARK    5  A    between atoms: C_7  and  N_8 
REMARK    6  A    between atoms: C_7  and  C_14 
REMARK    7  A    between atoms: C_15  and  O_16 
REMARK    8  A    between atoms: C_23  and  C_24 
REMARK    9  A    between atoms: C_27  and  O_28 
ROOT
HETATM    1  N   UNL     1      -9.205   2.745 -34.846  1.00  0.00    -0.339 N 
HETATM    2  C   UNL     1      -9.094   1.459 -34.397  1.00  0.00     0.316 C 
HETATM    3  N   UNL     1      -8.104   0.770 -35.056  1.00  0.00    -0.341 N 
HETATM    4  O   UNL     1      -9.849   0.925 -33.597  1.00  0.00    -0.248 OA
HETATM    5  H   UNL     1      -8.344   3.190 -35.124  1.00  0.00     0.164 HD
HETATM    6  H   UNL     1      -7.369   1.361 -35.419  1.00  0.00     0.164 HD
ENDROOT
BRANCH   3   7
HETATM    7  C   UNL     1      -7.680  -0.534 -34.560  1.00  0.00     0.162 C 
BRANCH   7   8
HETATM    8  C   UNL     1      -6.173  -0.719 -34.156  1.00  0.00     0.241 C 
BRANCH   8   9
HETATM    9  N   UNL     1      -5.814  -0.093 -32.786  1.00  0.00    -0.061 N 
HETATM   10  H   UNL     1      -4.940  -0.565 -32.529  1.00  0.00     0.280 HD
HETATM   11  C   UNL     1      -6.781  -0.265 -31.641  1.00  0.00     0.236 C 
HETATM   12  C   UNL     1      -7.225   1.138 -31.289  1.00  0.00     0.029 C 
HETATM   13  C   UNL     1      -5.984   1.963 -31.549  1.00  0.00     0.029 C 
HETATM   14  C   UNL     1      -5.432   1.378 -32.836  1.00  0.00     0.236 C 
ENDBRANCH   8   9
BRANCH   8  15
HETATM   15  C   UNL     1      -5.784  -2.202 -34.269  1.00  0.00     0.007 A 
HETATM   16  C   UNL     1      -4.498  -2.604 -33.833  1.00  0.00     0.076 A 
HETATM   17  C   UNL     1      -4.107  -3.944 -33.918  1.00  0.00     0.037 A 
HETATM   18  C   UNL     1      -4.975  -4.898 -34.445  1.00  0.00     0.003 A 
HETATM   19  C   UNL     1      -6.234  -4.519 -34.892  1.00  0.00     0.001 A 
HETATM   20  C   UNL     1      -6.636  -3.183 -34.809  1.00  0.00     0.012 A 
BRANCH  16  21
HETATM   21  O   UNL     1      -3.705  -1.611 -33.319  1.00  0.00    -0.355 OA
HETATM   22  C   UNL     1      -3.065  -1.866 -32.070  1.00  0.00     0.210 C 
ENDBRANCH  16  21
ENDBRANCH   8  15
ENDBRANCH   7   8
ENDBRANCH   3   7
BRANCH   1  23
HETATM   23  C   UNL     1     -10.240   3.672 -34.374  1.00  0.00     0.086 C 
HETATM   24  C   UNL     1      -9.753   5.121 -34.451  1.00  0.00     0.032 C 
BRANCH  23  25
HETATM   25  C   UNL     1     -11.606   3.514 -35.075  1.00  0.00     0.063 C 
BRANCH  25  26
HETATM   26  C   UNL     1     -12.700   3.011 -34.161  1.00  0.00    -0.056 A 
HETATM   27  C   UNL     1     -13.449   1.874 -34.494  1.00  0.00     0.010 A 
HETATM   28  C   UNL     1     -14.466   1.424 -33.648  1.00  0.00     0.037 A 
HETATM   29  C   UNL     1     -14.732   2.115 -32.470  1.00  0.00     0.065 A 
HETATM   30  C   UNL     1     -13.999   3.242 -32.124  1.00  0.00     0.037 A 
HETATM   31  C   UNL     1     -12.983   3.689 -32.967  1.00  0.00     0.010 A 
BRANCH  29  32
HETATM   32  O   UNL     1     -15.715   1.712 -31.615  1.00  0.00    -0.361 OA
HETATM   33  H   UNL     1     -15.342   1.644 -30.720  1.00  0.00     0.217 HD
ENDBRANCH  29  32
ENDBRANCH  25  26
ENDBRANCH  23  25
ENDBRANCH   1  23
TORSDOF 9
ENDMDL
MODEL 2
REMARK VINA RESULT:      -8.3      4.018      8.401
REMARK  9 active torsions:
REMARK  status: ('A' for Active; 'I' for Inactive)
REMARK    1  A    between atoms: C_2  and  N_3 
REMARK    2  A    between atoms: C_2  and  C_23 
REMARK       I    between atoms: N_3  and  C_4 
REMARK       I    between atoms: C_4  and  N_5 
REMARK    3  A    between atoms: N_5  and  C_6 
REMARK    4  A    between atoms: C_6  and  C_7 
REMARK    5  A    between atoms: C_7  and  N_8 
REMARK    6  A    between atoms: C_7  and  C_14 
REMARK    7  A    between atoms: C_15  and  O_16 
REMARK    8  A    between atoms: C_23  and  C_24 
REMARK    9  A    between atoms: C_27  and  O_28 
ROOT
HETATM    1  N   UNL     1      -6.483   1.050 -33.570  1.00  0.00    -0.339 N 
HETATM    2  C   UNL     1      -5.462   1.354 -32.713  1.00  0.00     0.316 C 
HETATM    3  N   UNL     1      -4.846   2.536 -33.048  1.00  0.00    -0.341 N 
HETATM    4  O   UNL     1      -5.047   0.623 -31.826  1.00  0.00    -0.248 OA
HETATM    5  H   UNL     1      -7.003   1.836 -33.930  1.00  0.00     0.164 HD
HETATM    6  H   UNL     1      -5.446   3.181 -33.544  1.00  0.00     0.164 HD
ENDROOT
BRANCH   3   7
HETATM    7  C   UNL     1      -3.896   3.141 -32.124  1.00  0.00     0.162 C 
BRANCH   7   8
HETATM    8  C   UNL     1      -4.139   4.627 -31.676  1.00  0.00     0.241 C 
BRANCH   8   9
HETATM    9  N   UNL     1      -4.618   4.765 -30.210  1.00  0.00    -0.061 N 
HETATM   10  H   UNL     1      -3.755   4.648 -29.664  1.00  0.00     0.280 HD
HETATM   11  C   UNL     1      -5.626   3.773 -29.686  1.00  0.00     0.236 C 
HETATM   12  C   UNL     1      -6.846   4.600 -29.341  1.00  0.00     0.029 C 
HETATM   13  C   UNL     1      -6.249   5.902 -28.855  1.00  0.00     0.029 C 
HETATM   14  C   UNL     1      -5.106   6.151 -29.823  1.00  0.00     0.236 C 
ENDBRANCH   8   9
BRANCH   8  15
HETATM   15  C   UNL     1      -2.898   5.477 -31.994  1.00  0.00     0.007 A 
HETATM   16  C   UNL     1      -2.844   6.169 -33.228  1.00  0.00     0.076 A 
HETATM   17  C   UNL     1      -1.732   6.952 -33.553  1.00  0.00     0.037 A 
HETATM   18  C   UNL     1      -0.659   7.052 -32.671  1.00  0.00     0.003 A 
HETATM   19  C   UNL     1      -0.689   6.368 -31.462  1.00  0.00     0.001 A 
HETATM   20  C   UNL     1      -1.796   5.584 -31.126  1.00  0.00     0.012 A 
BRANCH  16  21
HETATM   21  O   UNL     1      -3.940   6.029 -34.039  1.00  0.00    -0.355 OA
HETATM   22  C   UNL     1      -3.771   5.283 -35.243  1.00  0.00     0.210 C 
ENDBRANCH  16  21
ENDBRANCH   8  15
ENDBRANCH   7   8
ENDBRANCH   3   7
BRANCH   1  23
HETATM   23  C   UNL     1      -7.249  -0.198 -33.492  1.00  0.00     0.086 C 
HETATM   24  C   UNL     1      -8.706   0.076 -33.112  1.00  0.00     0.032 C 
BRANCH  23  25
HETATM   25  C   UNL     1      -7.170  -1.075 -34.761  1.00  0.00     0.063 C 
BRANCH  25  26
HETATM   26  C   UNL     1      -6.287  -2.292 -34.601  1.00  0.00    -0.056 A 
HETATM   27  C   UNL     1      -6.755  -3.569 -34.940  1.00  0.00     0.010 A 
HETATM   28  C   UNL     1      -5.935  -4.689 -34.776  1.00  0.00     0.037 A 
HETATM   29  C   UNL     1      -4.649  -4.528 -34.273  1.00  0.00     0.065 A 
HETATM   30  C   UNL     1      -4.169  -3.270 -33.933  1.00  0.00     0.037 A 
HETATM   31  C   UNL     1      -4.986  -2.153 -34.099  1.00  0.00     0.010 A 
BRANCH  29  32
HETATM   32  O   UNL     1      -3.815  -5.591 -34.097  1.00  0.00    -0.361 OA
HETATM   33  H   UNL     1      -3.893  -5.901 -33.179  1.00  0.00     0.217 HD
ENDBRANCH  29  32
ENDBRANCH  25  26
ENDBRANCH  23  25
ENDBRANCH   1  23
TORSDOF 9
ENDMDL
MODEL 3
REMARK VINA RESULT:      -8.0      3.820      7.925
REMARK  9 active torsions:
REMARK  status: ('A' for Active; 'I' for Inactive)
REMARK    1  A    between atoms: C_2  and  N_3 
REMARK    2  A    between atoms: C_2  and  C_23 
REMARK       I    between atoms: N_3  and  C_4 
REMARK       I    between atoms: C_4  and  N_5 
REMARK    3  A    between atoms: N_5  and  C_6 
REMARK    4  A    between atoms: C_6  and  C_7 
REMARK    5  A    between atoms: C_7  and  N_8 
REMARK    6  A    between atoms: C_7  and  C_14 
REMARK    7  A    between atoms: C_15  and  O_16 
REMARK    8  A    between atoms: C_23  and  C_24 
REMARK    9  A    between atoms: C_27  and  O_28 
ROOT
HETATM    1  N   UNL     1      -7.113   0.444 -32.227  1.00  0.00    -0.339 N 
HETATM    2  C   UNL     1      -6.110   1.360 -32.377  1.00  0.00     0.316 C 
HETATM    3  N   UNL     1      -5.836   2.016 -31.201  1.00  0.00    -0.341 N 
HETATM    4  O   UNL     1      -5.590   1.667 -33.439  1.00  0.00    -0.248 OA
HETATM    5  H   UNL     1      -7.148  -0.028 -31.336  1.00  0.00     0.164 HD
HETATM    6  H   UNL     1      -6.062   1.480 -30.374  1.00  0.00     0.164 HD
ENDROOT
BRANCH   3   7
HETATM    7  C   UNL     1      -4.649   2.857 -31.103  1.00  0.00     0.162 C 
BRANCH   7   8
HETATM    8  C   UNL     1      -4.783   4.376 -31.483  1.00  0.00     0.241 C 
BRANCH   8   9
HETATM    9  N   UNL     1      -4.533   5.338 -30.295  1.00  0.00    -0.061 N 
HETATM   10  H   UNL     1      -3.550   5.167 -30.051  1.00  0.00     0.280 HD
HETATM   11  C   UNL     1      -5.352   5.162 -29.041  1.00  0.00     0.236 C 
HETATM   12  C   UNL     1      -6.140   6.447 -28.904  1.00  0.00     0.029 C 
HETATM   13  C   UNL     1      -5.185   7.490 -29.441  1.00  0.00     0.029 C 
HETATM   14  C   UNL     1      -4.566   6.816 -30.651  1.00  0.00     0.236 C 
ENDBRANCH   8   9
BRANCH   8  15
HETATM   15  C   UNL     1      -3.912   4.684 -32.711  1.00  0.00     0.007 A 
HETATM   16  C   UNL     1      -2.504   4.702 -32.560  1.00  0.00     0.076 A 
HETATM   17  C   UNL     1      -1.678   4.978 -33.655  1.00  0.00     0.037 A 
HETATM   18  C   UNL     1      -2.231   5.249 -34.904  1.00  0.00     0.003 A 
HETATM   19  C   UNL     1      -3.611   5.251 -35.066  1.00  0.00     0.001 A 
HETATM   20  C   UNL     1      -4.446   4.975 -33.980  1.00  0.00     0.012 A 
BRANCH  16  21
HETATM   21  O   UNL     1      -2.035   4.417 -31.305  1.00  0.00    -0.355 OA
HETATM   22  C   UNL     1      -0.845   5.082 -30.886  1.00  0.00     0.210 C 
ENDBRANCH  16  21
ENDBRANCH   8  15
ENDBRANCH   7   8
ENDBRANCH   3   7
BRANCH   1  23
HETATM   23  C   UNL     1      -7.662  -0.333 -33.344  1.00  0.00     0.086 C 
HETATM   24  C   UNL     1      -8.940   0.312 -33.884  1.00  0.00     0.032 C 
BRANCH  23  25
HETATM   25  C   UNL     1      -6.659  -0.602 -34.487  1.00  0.00     0.063 C 
BRANCH  25  26
HETATM   26  C   UNL     1      -6.098  -2.006 -34.482  1.00  0.00    -0.056 A 
HETATM   27  C   UNL     1      -4.757  -2.244 -34.151  1.00  0.00     0.010 A 
HETATM   28  C   UNL     1      -4.245  -3.544 -34.161  1.00  0.00     0.037 A 
HETATM   29  C   UNL     1      -5.078  -4.604 -34.502  1.00  0.00     0.065 A 
HETATM   30  C   UNL     1      -6.410  -4.387 -34.831  1.00  0.00     0.037 A 
HETATM   31  C   UNL     1      -6.920  -3.090 -34.818  1.00  0.00     0.010 A 
BRANCH  29  32
HETATM   32  O   UNL     1      -4.622  -5.889 -34.524  1.00  0.00    -0.361 OA
HETATM   33  H   UNL     1      -5.088  -6.374 -35.226  1.00  0.00     0.217 HD
ENDBRANCH  29  32
ENDBRANCH  25  26
ENDBRANCH  23  25
ENDBRANCH   1  23
TORSDOF 9
ENDMDL
MODEL 4
REMARK VINA RESULT:      -7.9      3.416      7.040
REMARK  9 active torsions:
REMARK  status: ('A' for Active; 'I' for Inactive)
REMARK    1  A    between atoms: C_2  and  N_3 
REMARK    2  A    between atoms: C_2  and  C_23 
REMARK       I    between atoms: N_3  and  C_4 
REMARK       I    between atoms: C_4  and  N_5 
REMARK    3  A    between atoms: N_5  and  C_6 
REMARK    4  A    between atoms: C_6  and  C_7 
REMARK    5  A    between atoms: C_7  and  N_8 
REMARK    6  A    between atoms: C_7  and  C_14 
REMARK    7  A    between atoms: C_15  and  O_16 
REMARK    8  A    between atoms: C_23  and  C_24 
REMARK    9  A    between atoms: C_27  and  O_28 
ROOT
HETATM    1  N   UNL     1      -4.932   3.615 -31.295  1.00  0.00    -0.339 N 
HETATM    2  C   UNL     1      -5.592   3.074 -32.362  1.00  0.00     0.316 C 
HETATM    3  N   UNL     1      -5.080   1.848 -32.714  1.00  0.00    -0.341 N 
HETATM    4  O   UNL     1      -6.453   3.642 -33.018  1.00  0.00    -0.248 OA
HETATM    5  H   UNL     1      -4.602   2.959 -30.603  1.00  0.00     0.164 HD
HETATM    6  H   UNL     1      -4.640   1.357 -31.948  1.00  0.00     0.164 HD
ENDROOT
BRANCH   3   7
HETATM    7  C   UNL     1      -5.796   1.015 -33.671  1.00  0.00     0.162 C 
BRANCH   7   8
HETATM    8  C   UNL     1      -6.579  -0.234 -33.128  1.00  0.00     0.241 C 
BRANCH   8   9
HETATM    9  N   UNL     1      -8.098  -0.197 -33.430  1.00  0.00    -0.061 N 
HETATM   10  H   UNL     1      -8.344  -1.187 -33.544  1.00  0.00     0.280 HD
HETATM   11  C   UNL     1      -8.568   0.535 -34.662  1.00  0.00     0.236 C 
HETATM   12  C   UNL     1      -9.436   1.660 -34.142  1.00  0.00     0.029 C 
HETATM   13  C   UNL     1     -10.092   1.049 -32.923  1.00  0.00     0.029 C 
HETATM   14  C   UNL     1      -8.969   0.262 -32.272  1.00  0.00     0.236 C 
ENDBRANCH   8   9
BRANCH   8  15
HETATM   15  C   UNL     1      -5.895  -1.525 -33.606  1.00  0.00     0.007 A 
HETATM   16  C   UNL     1      -4.658  -1.896 -33.024  1.00  0.00     0.076 A 
HETATM   17  C   UNL     1      -4.005  -3.064 -33.432  1.00  0.00     0.037 A 
HETATM   18  C   UNL     1      -4.558  -3.870 -34.424  1.00  0.00     0.003 A 
HETATM   19  C   UNL     1      -5.763  -3.513 -35.016  1.00  0.00     0.001 A 
HETATM   20  C   UNL     1      -6.426  -2.350 -34.615  1.00  0.00     0.012 A 
BRANCH  16  21
HETATM   21  O   UNL     1      -4.182  -1.058 -32.050  1.00  0.00    -0.355 OA
HETATM   22  C   UNL     1      -2.766  -0.951 -31.915  1.00  0.00     0.210 C 
ENDBRANCH  16  21
ENDBRANCH   8  15
ENDBRANCH   7   8
ENDBRANCH   3   7
BRANCH   1  23
HETATM   23  C   UNL     1      -5.219   4.955 -30.770  1.00  0.00     0.086 C 
HETATM   24  C   UNL     1      -5.725   4.881 -29.328  1.00  0.00     0.032 C 
BRANCH  23  25
HETATM   25  C   UNL     1      -4.045   5.951 -30.889  1.00  0.00     0.063 C 
BRANCH  25  26
HETATM   26  C   UNL     1      -3.195   5.739 -32.121  1.00  0.00    -0.056 A 
HETATM   27  C   UNL     1      -1.867   5.303 -32.012  1.00  0.00     0.010 A 
HETATM   28  C   UNL     1      -1.086   5.122 -33.157  1.00  0.00     0.037 A 
HETATM   29  C   UNL     1      -1.636   5.379 -34.408  1.00  0.00     0.065 A 
HETATM   30  C   UNL     1      -2.950   5.810 -34.534  1.00  0.00     0.037 A 
HETATM   31  C   UNL     1      -3.730   5.988 -33.393  1.00  0.00     0.010 A 
BRANCH  29  32
HETATM   32  O   UNL     1      -0.911   5.216 -35.551  1.00  0.00    -0.361 OA
HETATM   33  H   UNL     1      -1.454   4.736 -36.200  1.00  0.00     0.217 HD
ENDBRANCH  29  32
ENDBRANCH  25  26
ENDBRANCH  23  25
ENDBRANCH   1  23
TORSDOF 9
ENDMDL
MODEL 5
REMARK VINA RESULT:      -7.9      5.181      9.300
REMARK  9 active torsions:
REMARK  status: ('A' for Active; 'I' for Inactive)
REMARK    1  A    between atoms: C_2  and  N_3 
REMARK    2  A    between atoms: C_2  and  C_23 
REMARK       I    between atoms: N_3  and  C_4 
REMARK       I    between atoms: C_4  and  N_5 
REMARK    3  A    between atoms: N_5  and  C_6 
REMARK    4  A    between atoms: C_6  and  C_7 
REMARK    5  A    between atoms: C_7  and  N_8 
REMARK    6  A    between atoms: C_7  and  C_14 
REMARK    7  A    between atoms: C_15  and  O_16 
REMARK    8  A    between atoms: C_23  and  C_24 
REMARK    9  A    between atoms: C_27  and  O_28 
ROOT
HETATM    1  N   UNL     1      -5.747   1.760 -32.403  1.00  0.00    -0.339 N 
HETATM    2  C   UNL     1      -4.877   2.475 -31.627  1.00  0.00     0.316 C 
HETATM    3  N   UNL     1      -5.120   3.825 -31.698  1.00  0.00    -0.341 N 
HETATM    4  O   UNL     1      -3.917   2.008 -31.033  1.00  0.00    -0.248 OA
HETATM    5  H   UNL     1      -6.684   2.128 -32.467  1.00  0.00     0.164 HD
HETATM    6  H   UNL     1      -6.079   4.056 -31.920  1.00  0.00     0.164 HD
ENDROOT
BRANCH   3   7
HETATM    7  C   UNL     1      -4.454   4.728 -30.767  1.00  0.00     0.162 C 
BRANCH   7   8
HETATM    8  C   UNL     1      -3.068   5.338 -31.188  1.00  0.00     0.241 C 
BRANCH   8   9
HETATM    9  N   UNL     1      -2.998   5.752 -32.679  1.00  0.00    -0.061 N 
HETATM   10  H   UNL     1      -3.980   5.730 -32.980  1.00  0.00     0.280 HD
HETATM   11  C   UNL     1      -2.210   4.885 -33.629  1.00  0.00     0.236 C 
HETATM   12  C   UNL     1      -1.095   5.775 -34.136  1.00  0.00     0.029 C 
HETATM   13  C   UNL     1      -1.747   7.138 -34.195  1.00  0.00     0.029 C 
HETATM   14  C   UNL     1      -2.575   7.191 -32.924  1.00  0.00     0.236 C 
ENDBRANCH   8   9
BRANCH   8  15
HETATM   15  C   UNL     1      -2.685   6.471 -30.223  1.00  0.00     0.007 A 
HETATM   16  C   UNL     1      -1.313   6.712 -29.966  1.00  0.00     0.076 A 
HETATM   17  C   UNL     1      -0.924   7.735 -29.095  1.00  0.00     0.037 A 
HETATM   18  C   UNL     1      -1.882   8.520 -28.459  1.00  0.00     0.003 A 
HETATM   19  C   UNL     1      -3.233   8.288 -28.688  1.00  0.00     0.001 A 
HETATM   20  C   UNL     1      -3.633   7.271 -29.558  1.00  0.00     0.012 A 
BRANCH  16  21
HETATM   21  O   UNL     1      -0.431   5.904 -30.634  1.00  0.00    -0.355 OA
HETATM   22  C   UNL     1       0.400   5.053 -29.847  1.00  0.00     0.210 C 
ENDBRANCH  16  21
ENDBRANCH   8  15
ENDBRANCH   7   8
ENDBRANCH   3   7
BRANCH   1  23
HETATM   23  C   UNL     1      -5.655   0.306 -32.577  1.00  0.00     0.086 C 
HETATM   24  C   UNL     1      -6.395  -0.428 -31.457  1.00  0.00     0.032 C 
BRANCH  23  25
HETATM   25  C   UNL     1      -6.115  -0.200 -33.962  1.00  0.00     0.063 C 
BRANCH  25  26
HETATM   26  C   UNL     1      -5.829  -1.666 -34.195  1.00  0.00    -0.056 A 
HETATM   27  C   UNL     1      -6.845  -2.540 -34.606  1.00  0.00     0.010 A 
HETATM   28  C   UNL     1      -6.572  -3.896 -34.808  1.00  0.00     0.037 A 
HETATM   29  C   UNL     1      -5.283  -4.374 -34.597  1.00  0.00     0.065 A 
HETATM   30  C   UNL     1      -4.265  -3.522 -34.191  1.00  0.00     0.037 A 
HETATM   31  C   UNL     1      -4.536  -2.169 -33.993  1.00  0.00     0.010 A 
BRANCH  29  32
HETATM   32  O   UNL     1      -4.973  -5.688 -34.781  1.00  0.00    -0.361 OA
HETATM   33  H   UNL     1      -4.044  -5.828 -34.531  1.00  0.00     0.217 HD
ENDBRANCH  29  32
ENDBRANCH  25  26
ENDBRANCH  23  25
ENDBRANCH   1  23
TORSDOF 9
ENDMDL
MODEL 6
REMARK VINA RESULT:      -7.8      5.757     10.008
REMARK  9 active torsions:
REMARK  status: ('A' for Active; 'I' for Inactive)
REMARK    1  A    between atoms: C_2  and  N_3 
REMARK    2  A    between atoms: C_2  and  C_23 
REMARK       I    between atoms: N_3  and  C_4 
REMARK       I    between atoms: C_4  and  N_5 
REMARK    3  A    between atoms: N_5  and  C_6 
REMARK    4  A    between atoms: C_6  and  C_7 
REMARK    5  A    between atoms: C_7  and  N_8 
REMARK    6  A    between atoms: C_7  and  C_14 
REMARK    7  A    between atoms: C_15  and  O_16 
REMARK    8  A    between atoms: C_23  and  C_24 
REMARK    9  A    between atoms: C_27  and  O_28 
ROOT
HETATM    1  N   UNL     1      -3.484   6.779 -29.033  1.00  0.00    -0.339 N 
HETATM    2  C   UNL     1      -4.144   6.181 -30.070  1.00  0.00     0.316 C 
HETATM    3  N   UNL     1      -4.398   4.854 -29.818  1.00  0.00    -0.341 N 
HETATM    4  O   UNL     1      -4.382   6.704 -31.148  1.00  0.00    -0.248 OA
HETATM    5  H   UNL     1      -3.726   6.450 -28.110  1.00  0.00     0.164 HD
HETATM    6  H   UNL     1      -4.468   4.632 -28.834  1.00  0.00     0.164 HD
ENDROOT
BRANCH   3   7
HETATM    7  C   UNL     1      -5.292   4.111 -30.697  1.00  0.00     0.162 C 
BRANCH   7   8
HETATM    8  C   UNL     1      -4.658   3.087 -31.707  1.00  0.00     0.241 C 
BRANCH   8   9
HETATM    9  N   UNL     1      -5.645   1.996 -32.189  1.00  0.00    -0.061 N 
HETATM   10  H   UNL     1      -6.075   2.413 -33.023  1.00  0.00     0.280 HD
HETATM   11  C   UNL     1      -6.759   1.574 -31.263  1.00  0.00     0.236 C 
HETATM   12  C   UNL     1      -6.498   0.111 -30.978  1.00  0.00     0.029 C 
HETATM   13  C   UNL     1      -5.919  -0.393 -32.281  1.00  0.00     0.029 C 
HETATM   14  C   UNL     1      -4.991   0.728 -32.714  1.00  0.00     0.236 C 
ENDBRANCH   8   9
BRANCH   8  15
HETATM   15  C   UNL     1      -3.979   3.846 -32.859  1.00  0.00     0.007 A 
HETATM   16  C   UNL     1      -4.785   4.365 -33.901  1.00  0.00     0.076 A 
HETATM   17  C   UNL     1      -4.204   5.062 -34.966  1.00  0.00     0.037 A 
HETATM   18  C   UNL     1      -2.825   5.244 -35.019  1.00  0.00     0.003 A 
HETATM   19  C   UNL     1      -2.018   4.729 -34.012  1.00  0.00     0.001 A 
HETATM   20  C   UNL     1      -2.587   4.033 -32.943  1.00  0.00     0.012 A 
BRANCH  16  21
HETATM   21  O   UNL     1      -6.133   4.153 -33.774  1.00  0.00    -0.355 OA
HETATM   22  C   UNL     1      -6.965   5.304 -33.638  1.00  0.00     0.210 C 
ENDBRANCH  16  21
ENDBRANCH   8  15
ENDBRANCH   7   8
ENDBRANCH   3   7
BRANCH   1  23
HETATM   23  C   UNL     1      -3.015   8.168 -29.077  1.00  0.00     0.086 C 
HETATM   24  C   UNL     1      -3.833   9.052 -28.133  1.00  0.00     0.032 C 
BRANCH  23  25
HETATM   25  C   UNL     1      -1.503   8.339 -28.815  1.00  0.00     0.063 C 
BRANCH  25  26
HETATM   26  C   UNL     1      -0.660   7.226 -29.397  1.00  0.00    -0.056 A 
HETATM   27  C   UNL     1      -0.489   7.103 -30.783  1.00  0.00     0.010 A 
HETATM   28  C   UNL     1       0.282   6.064 -31.310  1.00  0.00     0.037 A 
HETATM   29  C   UNL     1       0.881   5.150 -30.450  1.00  0.00     0.065 A 
HETATM   30  C   UNL     1       0.723   5.259 -29.074  1.00  0.00     0.037 A 
HETATM   31  C   UNL     1      -0.044   6.296 -28.548  1.00  0.00     0.010 A 
BRANCH  29  32
HETATM   32  O   UNL     1       1.641   4.122 -30.920  1.00  0.00    -0.361 OA
HETATM   33  H   UNL     1       1.064   3.493 -31.385  1.00  0.00     0.217 HD
ENDBRANCH  29  32
ENDBRANCH  25  26
ENDBRANCH  23  25
ENDBRANCH   1  23
TORSDOF 9
ENDMDL
MODEL 7
REMARK VINA RESULT:      -7.8      1.716      8.872
REMARK  9 active torsions:
REMARK  status: ('A' for Active; 'I' for Inactive)
REMARK    1  A    between atoms: C_2  and  N_3 
REMARK    2  A    between atoms: C_2  and  C_23 
REMARK       I    between atoms: N_3  and  C_4 
REMARK       I    between atoms: C_4  and  N_5 
REMARK    3  A    between atoms: N_5  and  C_6 
REMARK    4  A    between atoms: C_6  and  C_7 
REMARK    5  A    between atoms: C_7  and  N_8 
REMARK    6  A    between atoms: C_7  and  C_14 
REMARK    7  A    between atoms: C_15  and  O_16 
REMARK    8  A    between atoms: C_23  and  C_24 
REMARK    9  A    between atoms: C_27  and  O_28 
ROOT
HETATM    1  N   UNL     1      -7.217   1.534 -33.842  1.00  0.00    -0.339 N 
HETATM    2  C   UNL     1      -8.549   1.660 -34.122  1.00  0.00     0.316 C 
HETATM    3  N   UNL     1      -8.959   2.971 -34.082  1.00  0.00    -0.341 N 
HETATM    4  O   UNL     1      -9.328   0.730 -34.270  1.00  0.00    -0.248 OA
HETATM    5  H   UNL     1      -6.627   2.285 -34.166  1.00  0.00     0.164 HD
HETATM    6  H   UNL     1      -8.222   3.634 -34.281  1.00  0.00     0.164 HD
ENDROOT
BRANCH   3   7
HETATM    7  C   UNL     1     -10.282   3.329 -34.578  1.00  0.00     0.162 C 
BRANCH   7   8
HETATM    8  C   UNL     1     -11.366   3.787 -33.537  1.00  0.00     0.241 C 
BRANCH   8   9
HETATM    9  N   UNL     1     -11.772   5.276 -33.676  1.00  0.00    -0.061 N 
HETATM   10  H   UNL     1     -12.196   5.494 -32.767  1.00  0.00     0.280 HD
HETATM   11  C   UNL     1     -12.765   5.654 -34.746  1.00  0.00     0.236 C 
HETATM   12  C   UNL     1     -12.009   6.581 -35.673  1.00  0.00     0.029 C 
HETATM   13  C   UNL     1     -11.089   7.327 -34.731  1.00  0.00     0.029 C 
HETATM   14  C   UNL     1     -10.609   6.249 -33.777  1.00  0.00     0.236 C 
ENDBRANCH   8   9
BRANCH   8  15
HETATM   15  C   UNL     1     -12.563   2.824 -33.574  1.00  0.00     0.007 A 
HETATM   16  C   UNL     1     -13.551   2.925 -32.566  1.00  0.00     0.076 A 
HETATM   17  C   UNL     1     -14.656   2.067 -32.566  1.00  0.00     0.037 A 
HETATM   18  C   UNL     1     -14.790   1.093 -33.553  1.00  0.00     0.003 A 
HETATM   19  C   UNL     1     -13.822   0.970 -34.542  1.00  0.00     0.001 A 
HETATM   20  C   UNL     1     -12.715   1.823 -34.553  1.00  0.00     0.012 A 
BRANCH  16  21
HETATM   21  O   UNL     1     -13.354   3.912 -31.636  1.00  0.00    -0.355 OA
HETATM   22  C   UNL     1     -14.486   4.700 -31.270  1.00  0.00     0.210 C 
ENDBRANCH  16  21
ENDBRANCH   8  15
ENDBRANCH   7   8
ENDBRANCH   3   7
BRANCH   1  23
HETATM   23  C   UNL     1      -6.541   0.236 -33.732  1.00  0.00     0.086 C 
HETATM   24  C   UNL     1      -6.871  -0.442 -32.401  1.00  0.00     0.032 C 
BRANCH  23  25
HETATM   25  C   UNL     1      -6.803  -0.720 -34.916  1.00  0.00     0.063 C 
BRANCH  25  26
HETATM   26  C   UNL     1      -6.170  -2.083 -34.743  1.00  0.00    -0.056 A 
HETATM   27  C   UNL     1      -4.808  -2.209 -34.437  1.00  0.00     0.010 A 
HETATM   28  C   UNL     1      -4.230  -3.473 -34.291  1.00  0.00     0.037 A 
HETATM   29  C   UNL     1      -5.017  -4.608 -34.452  1.00  0.00     0.065 A 
HETATM   30  C   UNL     1      -6.369  -4.501 -34.753  1.00  0.00     0.037 A 
HETATM   31  C   UNL     1      -6.945  -3.240 -34.896  1.00  0.00     0.010 A 
BRANCH  29  32
HETATM   32  O   UNL     1      -4.496  -5.861 -34.319  1.00  0.00    -0.361 OA
HETATM   33  H   UNL     1      -3.814  -5.990 -34.999  1.00  0.00     0.217 HD
ENDBRANCH  29  32
ENDBRANCH  25  26
ENDBRANCH  23  25
ENDBRANCH   1  23
TORSDOF 9
ENDMDL
MODEL 8
REMARK VINA RESULT:      -7.7      5.123      9.046
REMARK  9 active torsions:
REMARK  status: ('A' for Active; 'I' for Inactive)
REMARK    1  A    between atoms: C_2  and  N_3 
REMARK    2  A    between atoms: C_2  and  C_23 
REMARK       I    between atoms: N_3  and  C_4 
REMARK       I    between atoms: C_4  and  N_5 
REMARK    3  A    between atoms: N_5  and  C_6 
REMARK    4  A    between atoms: C_6  and  C_7 
REMARK    5  A    between atoms: C_7  and  N_8 
REMARK    6  A    between atoms: C_7  and  C_14 
REMARK    7  A    between atoms: C_15  and  O_16 
REMARK    8  A    between atoms: C_23  and  C_24 
REMARK    9  A    between atoms: C_27  and  O_28 
ROOT
HETATM    1  N   UNL     1      -5.766   1.753 -32.484  1.00  0.00    -0.339 N 
HETATM    2  C   UNL     1      -4.954   2.496 -31.674  1.00  0.00     0.316 C 
HETATM    3  N   UNL     1      -5.208   3.842 -31.788  1.00  0.00    -0.341 N 
HETATM    4  O   UNL     1      -4.025   2.055 -31.012  1.00  0.00    -0.248 OA
HETATM    5  H   UNL     1      -6.702   2.108 -32.612  1.00  0.00     0.164 HD
HETATM    6  H   UNL     1      -6.155   4.054 -32.073  1.00  0.00     0.164 HD
ENDROOT
BRANCH   3   7
HETATM    7  C   UNL     1      -4.610   4.773 -30.839  1.00  0.00     0.162 C 
BRANCH   7   8
HETATM    8  C   UNL     1      -4.354   6.250 -31.310  1.00  0.00     0.241 C 
BRANCH   8   9
HETATM    9  N   UNL     1      -5.044   7.314 -30.422  1.00  0.00    -0.061 N 
HETATM   10  H   UNL     1      -4.369   7.468 -29.663  1.00  0.00     0.280 HD
HETATM   11  C   UNL     1      -6.371   6.974 -29.790  1.00  0.00     0.236 C 
HETATM   12  C   UNL     1      -7.352   7.962 -30.383  1.00  0.00     0.029 C 
HETATM   13  C   UNL     1      -6.517   9.212 -30.551  1.00  0.00     0.029 C 
HETATM   14  C   UNL     1      -5.188   8.685 -31.062  1.00  0.00     0.236 C 
ENDBRANCH   8   9
BRANCH   8  15
HETATM   15  C   UNL     1      -2.845   6.486 -31.483  1.00  0.00     0.007 A 
HETATM   16  C   UNL     1      -2.325   6.644 -32.790  1.00  0.00     0.076 A 
HETATM   17  C   UNL     1      -0.958   6.862 -32.988  1.00  0.00     0.037 A 
HETATM   18  C   UNL     1      -0.089   6.913 -31.901  1.00  0.00     0.003 A 
HETATM   19  C   UNL     1      -0.579   6.745 -30.612  1.00  0.00     0.001 A 
HETATM   20  C   UNL     1      -1.944   6.529 -30.402  1.00  0.00     0.012 A 
BRANCH  16  21
HETATM   21  O   UNL     1      -3.242   6.590 -33.807  1.00  0.00    -0.355 OA
HETATM   22  C   UNL     1      -3.178   5.467 -34.685  1.00  0.00     0.210 C 
ENDBRANCH  16  21
ENDBRANCH   8  15
ENDBRANCH   7   8
ENDBRANCH   3   7
BRANCH   1  23
HETATM   23  C   UNL     1      -5.647   0.297 -32.620  1.00  0.00     0.086 C 
HETATM   24  C   UNL     1      -6.418  -0.422 -31.513  1.00  0.00     0.032 C 
BRANCH  23  25
HETATM   25  C   UNL     1      -6.045  -0.247 -34.009  1.00  0.00     0.063 C 
BRANCH  25  26
HETATM   26  C   UNL     1      -5.731  -1.714 -34.196  1.00  0.00    -0.056 A 
HETATM   27  C   UNL     1      -4.448  -2.214 -33.932  1.00  0.00     0.010 A 
HETATM   28  C   UNL     1      -4.165  -3.570 -34.120  1.00  0.00     0.037 A 
HETATM   29  C   UNL     1      -5.167  -4.422 -34.572  1.00  0.00     0.065 A 
HETATM   30  C   UNL     1      -6.443  -3.944 -34.837  1.00  0.00     0.037 A 
HETATM   31  C   UNL     1      -6.727  -2.592 -34.647  1.00  0.00     0.010 A 
BRANCH  29  32
HETATM   32  O   UNL     1      -4.936  -5.751 -34.769  1.00  0.00    -0.361 OA
HETATM   33  H   UNL     1      -5.234  -5.991 -35.662  1.00  0.00     0.217 HD
ENDBRANCH  29  32
ENDBRANCH  25  26
ENDBRANCH  23  25
ENDBRANCH   1  23
TORSDOF 9
ENDMDL
MODEL 9
REMARK VINA RESULT:      -7.7      6.073      9.897
REMARK  9 active torsions:
REMARK  status: ('A' for Active; 'I' for Inactive)
REMARK    1  A    between atoms: C_2  and  N_3 
REMARK    2  A    between atoms: C_2  and  C_23 
REMARK       I    between atoms: N_3  and  C_4 
REMARK       I    between atoms: C_4  and  N_5 
REMARK    3  A    between atoms: N_5  and  C_6 
REMARK    4  A    between atoms: C_6  and  C_7 
REMARK    5  A    between atoms: C_7  and  N_8 
REMARK    6  A    between atoms: C_7  and  C_14 
REMARK    7  A    between atoms: C_15  and  O_16 
REMARK    8  A    between atoms: C_23  and  C_24 
REMARK    9  A    between atoms: C_27  and  O_28 
ROOT
HETATM    1  N   UNL     1      -2.320   5.211 -30.631  1.00  0.00    -0.339 N 
HETATM    2  C   UNL     1      -2.477   4.250 -31.591  1.00  0.00     0.316 C 
HETATM    3  N   UNL     1      -3.331   3.253 -31.184  1.00  0.00    -0.341 N 
HETATM    4  O   UNL     1      -1.853   4.195 -32.641  1.00  0.00    -0.248 OA
HETATM    5  H   UNL     1      -3.134   5.406 -30.068  1.00  0.00     0.164 HD
HETATM    6  H   UNL     1      -4.009   3.554 -30.497  1.00  0.00     0.164 HD
ENDROOT
BRANCH   3   7
HETATM    7  C   UNL     1      -3.803   2.269 -32.149  1.00  0.00     0.162 C 
BRANCH   7   8
HETATM    8  C   UNL     1      -5.352   2.041 -32.279  1.00  0.00     0.241 C 
BRANCH   8   9
HETATM    9  N   UNL     1      -6.094   3.198 -32.992  1.00  0.00    -0.061 N 
HETATM   10  H   UNL     1      -6.997   2.780 -33.250  1.00  0.00     0.280 HD
HETATM   11  C   UNL     1      -5.486   3.780 -34.243  1.00  0.00     0.236 C 
HETATM   12  C   UNL     1      -5.187   5.223 -33.899  1.00  0.00     0.029 C 
HETATM   13  C   UNL     1      -6.321   5.592 -32.968  1.00  0.00     0.029 C 
HETATM   14  C   UNL     1      -6.478   4.362 -32.093  1.00  0.00     0.236 C 
ENDBRANCH   8   9
BRANCH   8  15
HETATM   15  C   UNL     1      -5.624   0.664 -32.906  1.00  0.00     0.007 A 
HETATM   16  C   UNL     1      -6.966   0.269 -33.127  1.00  0.00     0.076 A 
HETATM   17  C   UNL     1      -7.254  -0.976 -33.697  1.00  0.00     0.037 A 
HETATM   18  C   UNL     1      -6.224  -1.846 -34.042  1.00  0.00     0.003 A 
HETATM   19  C   UNL     1      -4.902  -1.481 -33.819  1.00  0.00     0.001 A 
HETATM   20  C   UNL     1      -4.602  -0.240 -33.252  1.00  0.00     0.012 A 
BRANCH  16  21
HETATM   21  O   UNL     1      -7.923   1.182 -32.769  1.00  0.00    -0.355 OA
HETATM   22  C   UNL     1      -8.786   0.834 -31.688  1.00  0.00     0.210 C 
ENDBRANCH  16  21
ENDBRANCH   8  15
ENDBRANCH   7   8
ENDBRANCH   3   7
BRANCH   1  23
HETATM   23  C   UNL     1      -1.397   6.342 -30.773  1.00  0.00     0.086 C 
HETATM   24  C   UNL     1      -1.964   7.598 -30.110  1.00  0.00     0.032 C 
BRANCH  23  25
HETATM   25  C   UNL     1       0.038   6.060 -30.276  1.00  0.00     0.063 C 
BRANCH  25  26
HETATM   26  C   UNL     1       0.361   6.722 -28.956  1.00  0.00    -0.056 A 
HETATM   27  C   UNL     1       1.079   7.926 -28.913  1.00  0.00     0.010 A 
HETATM   28  C   UNL     1       1.383   8.524 -27.687  1.00  0.00     0.037 A 
HETATM   29  C   UNL     1       0.969   7.916 -26.507  1.00  0.00     0.065 A 
HETATM   30  C   UNL     1       0.257   6.724 -26.532  1.00  0.00     0.037 A 
HETATM   31  C   UNL     1      -0.049   6.129 -27.754  1.00  0.00     0.010 A 
BRANCH  29  32
HETATM   32  O   UNL     1       1.244   8.463 -25.289  1.00  0.00    -0.361 OA
HETATM   33  H   UNL     1       0.406   8.666 -24.841  1.00  0.00     0.217 HD
ENDBRANCH  29  32
ENDBRANCH  25  26
ENDBRANCH  23  25
ENDBRANCH   1  23
TORSDOF 9
ENDMDL
MODEL 10
REMARK VINA RESULT:      -7.6      5.032      9.295
REMARK  9 active torsions:
REMARK  status: ('A' for Active; 'I' for Inactive)
REMARK    1  A    between atoms: C_2  and  N_3 
REMARK    2  A    between atoms: C_2  and  C_23 
REMARK       I    between atoms: N_3  and  C_4 
REMARK       I    between atoms: C_4  and  N_5 
REMARK    3  A    between atoms: N_5  and  C_6 
REMARK    4  A    between atoms: C_6  and  C_7 
REMARK    5  A    between atoms: C_7  and  N_8 
REMARK    6  A    between atoms: C_7  and  C_14 
REMARK    7  A    between atoms: C_15  and  O_16 
REMARK    8  A    between atoms: C_23  and  C_24 
REMARK    9  A    between atoms: C_27  and  O_28 
ROOT
HETATM    1  N   UNL     1      -2.842   4.974 -32.818  1.00  0.00    -0.339 N 
HETATM    2  C   UNL     1      -3.117   3.866 -32.067  1.00  0.00     0.316 C 
HETATM    3  N   UNL     1      -4.443   3.807 -31.708  1.00  0.00    -0.341 N 
HETATM    4  O   UNL     1      -2.285   3.075 -31.648  1.00  0.00    -0.248 OA
HETATM    5  H   UNL     1      -3.575   5.276 -33.443  1.00  0.00     0.164 HD
HETATM    6  H   UNL     1      -5.060   4.285 -32.350  1.00  0.00     0.164 HD
ENDROOT
BRANCH   3   7
HETATM    7  C   UNL     1      -4.974   2.590 -31.108  1.00  0.00     0.162 C 
BRANCH   7   8
HETATM    8  C   UNL     1      -5.405   1.419 -32.062  1.00  0.00     0.241 C 
BRANCH   8   9
HETATM    9  N   UNL     1      -4.867   0.033 -31.629  1.00  0.00    -0.061 N 
HETATM   10  H   UNL     1      -5.570  -0.298 -30.958  1.00  0.00     0.280 HD
HETATM   11  C   UNL     1      -3.521  -0.037 -30.952  1.00  0.00     0.236 C 
HETATM   12  C   UNL     1      -2.657  -0.859 -31.883  1.00  0.00     0.029 C 
HETATM   13  C   UNL     1      -3.635  -1.857 -32.463  1.00  0.00     0.029 C 
HETATM   14  C   UNL     1      -4.879  -1.027 -32.719  1.00  0.00     0.236 C 
ENDBRANCH   8   9
BRANCH   8  15
HETATM   15  C   UNL     1      -6.929   1.446 -32.262  1.00  0.00     0.007 A 
HETATM   16  C   UNL     1      -7.478   2.362 -33.192  1.00  0.00     0.076 A 
HETATM   17  C   UNL     1      -8.860   2.415 -33.403  1.00  0.00     0.037 A 
HETATM   18  C   UNL     1      -9.713   1.575 -32.691  1.00  0.00     0.003 A 
HETATM   19  C   UNL     1      -9.193   0.681 -31.764  1.00  0.00     0.001 A 
HETATM   20  C   UNL     1      -7.814   0.618 -31.547  1.00  0.00     0.012 A 
BRANCH  16  21
HETATM   21  O   UNL     1      -6.576   3.148 -33.859  1.00  0.00    -0.355 OA
HETATM   22  C   UNL     1      -6.869   4.540 -33.957  1.00  0.00     0.210 C 
ENDBRANCH  16  21
ENDBRANCH   8  15
ENDBRANCH   7   8
ENDBRANCH   3   7
BRANCH   1  23
HETATM   23  C   UNL     1      -1.488   5.326 -33.261  1.00  0.00     0.086 C 
HETATM   24  C   UNL     1      -1.392   5.319 -34.788  1.00  0.00     0.032 C 
BRANCH  23  25
HETATM   25  C   UNL     1      -0.954   6.654 -32.684  1.00  0.00     0.063 C 
BRANCH  25  26
HETATM   26  C   UNL     1      -0.538   6.559 -31.233  1.00  0.00    -0.056 A 
HETATM   27  C   UNL     1       0.194   5.459 -30.765  1.00  0.00     0.010 A 
HETATM   28  C   UNL     1       0.562   5.375 -29.420  1.00  0.00     0.037 A 
HETATM   29  C   UNL     1       0.196   6.392 -28.545  1.00  0.00     0.065 A 
HETATM   30  C   UNL     1      -0.528   7.490 -28.992  1.00  0.00     0.037 A 
HETATM   31  C   UNL     1      -0.893   7.575 -30.334  1.00  0.00     0.010 A 
BRANCH  29  32
HETATM   32  O   UNL     1       0.534   6.352 -27.225  1.00  0.00    -0.361 OA
HETATM   33  H   UNL     1       0.997   7.174 -26.996  1.00  0.00     0.217 HD
ENDBRANCH  29  32
ENDBRANCH  25  26
ENDBRANCH  23  25
ENDBRANCH   1  23
TORSDOF 9
ENDMDL
