MODEL 1
REMARK VINA RESULT:      -9.9      0.000      0.000
REMARK  5 active torsions:
REMARK  status: ('A' for Active; 'I' for Inactive)
REMARK    1  A    between atoms: C_3  and  O_4 
REMARK    2  A    between atoms: C_6  and  N_7 
REMARK       I    between atoms: N_7  and  C_8 
REMARK    3  A    between atoms: C_8  and  C_9 
REMARK    4  A    between atoms: C_14  and  C_15 
REMARK    5  A    between atoms: C_23  and  C_24 
ROOT
HETATM    1  C   UNL     1      -9.370   1.747 -33.690  1.00  0.00     0.148 A 
HETATM    2  N   UNL     1      -8.895   1.880 -32.426  1.00  0.00    -0.165 NA
HETATM    3  N   UNL     1      -7.624   1.449 -32.531  1.00  0.00    -0.240 N 
HETATM    4  C   UNL     1      -7.309   0.934 -33.756  1.00  0.00     0.123 A 
HETATM    5  N   UNL     1      -6.130   0.319 -33.973  1.00  0.00    -0.366 N 
HETATM    6  C   UNL     1      -5.194   0.005 -32.896  1.00  0.00     0.118 C 
HETATM    7  C   UNL     1      -5.853   0.142 -31.506  1.00  0.00     0.066 C 
HETATM    8  C   UNL     1      -6.721   1.405 -31.399  1.00  0.00     0.221 C 
HETATM    9  C   UNL     1      -8.392   1.181 -34.555  1.00  0.00     0.089 A 
HETATM   10  H   UNL     1      -5.878  -0.036 -34.896  1.00  0.00     0.161 HD
ENDROOT
BRANCH   1  11
HETATM   11  C   UNL     1     -10.754   2.109 -34.051  1.00  0.00     0.276 C 
HETATM   12  N   UNL     1     -11.673   1.511 -33.212  1.00  0.00    -0.322 N 
HETATM   13  H   UNL     1     -11.244   0.936 -32.491  1.00  0.00     0.169 HD
HETATM   14  O   UNL     1     -10.992   2.832 -35.011  1.00  0.00    -0.266 OA
BRANCH  12  15
HETATM   15  C   UNL     1     -13.075   1.566 -33.272  1.00  0.00     0.037 A 
HETATM   16  C   UNL     1     -13.849   0.806 -34.150  1.00  0.00     0.066 A 
HETATM   17  C   UNL     1     -15.239   0.922 -34.133  1.00  0.00     0.067 A 
HETATM   18  C   UNL     1     -15.877   1.783 -33.248  1.00  0.00     0.036 A 
HETATM   19  C   UNL     1     -15.112   2.545 -32.368  1.00  0.00     0.005 A 
HETATM   20  C   UNL     1     -13.718   2.439 -32.383  1.00  0.00     0.029 A 
BRANCH  17  21
HETATM   21  O   UNL     1     -15.951   0.163 -35.016  1.00  0.00    -0.361 OA
HETATM   22  H   UNL     1     -16.166   0.705 -35.792  1.00  0.00     0.217 HD
ENDBRANCH  17  21
ENDBRANCH  12  15
ENDBRANCH   1  11
BRANCH   8  23
HETATM   23  C   UNL     1      -5.904   2.675 -31.340  1.00  0.00     0.409 C 
HETATM   24  F   UNL     1      -5.735   3.236 -32.557  1.00  0.00    -0.169 F 
HETATM   25  F   UNL     1      -6.549   3.597 -30.577  1.00  0.00    -0.169 F 
HETATM   26  F   UNL     1      -4.683   2.509 -30.789  1.00  0.00    -0.169 F 
ENDBRANCH   8  23
BRANCH   6  27
HETATM   27  C   UNL     1      -4.660  -1.404 -33.104  1.00  0.00    -0.035 A 
HETATM   28  C   UNL     1      -5.067  -2.163 -34.213  1.00  0.00     0.012 A 
HETATM   29  C   UNL     1      -4.576  -3.457 -34.401  1.00  0.00     0.043 A 
HETATM   30  C   UNL     1      -3.678  -3.995 -33.488  1.00  0.00     0.116 A 
HETATM   31  F   UNL     1      -3.210  -5.236 -33.673  1.00  0.00    -0.206 F 
HETATM   32  C   UNL     1      -3.261  -3.265 -32.383  1.00  0.00     0.043 A 
HETATM   33  C   UNL     1      -3.751  -1.974 -32.190  1.00  0.00     0.012 A 
ENDBRANCH   6  27
TORSDOF 5
ENDMDL
MODEL 2
REMARK VINA RESULT:      -9.8      4.247      7.976
REMARK  5 active torsions:
REMARK  status: ('A' for Active; 'I' for Inactive)
REMARK    1  A    between atoms: C_3  and  O_4 
REMARK    2  A    between atoms: C_6  and  N_7 
REMARK       I    between atoms: N_7  and  C_8 
REMARK    3  A    between atoms: C_8  and  C_9 
REMARK    4  A    between atoms: C_14  and  C_15 
REMARK    5  A    between atoms: C_23  and  C_24 
ROOT
HETATM    1  C   UNL     1      -5.354   3.096 -32.198  1.00  0.00     0.148 A 
HETATM    2  N   UNL     1      -6.088   3.165 -33.337  1.00  0.00    -0.165 NA
HETATM    3  N   UNL     1      -6.600   1.925 -33.445  1.00  0.00    -0.240 N 
HETATM    4  C   UNL     1      -6.130   1.044 -32.513  1.00  0.00     0.123 A 
HETATM    5  N   UNL     1      -6.423  -0.270 -32.585  1.00  0.00    -0.366 N 
HETATM    6  C   UNL     1      -7.100  -0.867 -33.733  1.00  0.00     0.118 C 
HETATM    7  C   UNL     1      -7.119   0.088 -34.946  1.00  0.00     0.066 C 
HETATM    8  C   UNL     1      -7.460   1.531 -34.543  1.00  0.00     0.221 C 
HETATM    9  C   UNL     1      -5.381   1.785 -31.643  1.00  0.00     0.089 A 
HETATM   10  H   UNL     1      -6.102  -0.924 -31.871  1.00  0.00     0.161 HD
ENDROOT
BRANCH   1  11
HETATM   11  C   UNL     1      -4.599   4.252 -31.679  1.00  0.00     0.276 C 
HETATM   12  N   UNL     1      -3.439   4.467 -32.397  1.00  0.00    -0.322 N 
HETATM   13  H   UNL     1      -3.309   3.805 -33.158  1.00  0.00     0.169 HD
HETATM   14  O   UNL     1      -4.991   4.882 -30.704  1.00  0.00    -0.266 OA
BRANCH  12  15
HETATM   15  C   UNL     1      -2.438   5.427 -32.172  1.00  0.00     0.037 A 
HETATM   16  C   UNL     1      -2.605   6.794 -32.394  1.00  0.00     0.066 A 
HETATM   17  C   UNL     1      -1.554   7.675 -32.135  1.00  0.00     0.067 A 
HETATM   18  C   UNL     1      -0.334   7.216 -31.652  1.00  0.00     0.036 A 
HETATM   19  C   UNL     1      -0.160   5.852 -31.429  1.00  0.00     0.005 A 
HETATM   20  C   UNL     1      -1.206   4.962 -31.691  1.00  0.00     0.029 A 
BRANCH  17  21
HETATM   21  O   UNL     1      -1.764   9.002 -32.374  1.00  0.00    -0.361 OA
HETATM   22  H   UNL     1      -0.905   9.451 -32.425  1.00  0.00     0.217 HD
ENDBRANCH  17  21
ENDBRANCH  12  15
ENDBRANCH   1  11
BRANCH   8  23
HETATM   23  C   UNL     1      -8.910   1.703 -34.151  1.00  0.00     0.409 C 
HETATM   24  F   UNL     1      -9.087   1.690 -32.813  1.00  0.00    -0.169 F 
HETATM   25  F   UNL     1      -9.359   2.910 -34.588  1.00  0.00    -0.169 F 
HETATM   26  F   UNL     1      -9.729   0.774 -34.687  1.00  0.00    -0.169 F 
ENDBRANCH   8  23
BRANCH   6  27
HETATM   27  C   UNL     1      -6.410  -2.175 -34.086  1.00  0.00    -0.035 A 
HETATM   28  C   UNL     1      -5.019  -2.307 -33.942  1.00  0.00     0.012 A 
HETATM   29  C   UNL     1      -4.386  -3.509 -34.267  1.00  0.00     0.043 A 
HETATM   30  C   UNL     1      -5.137  -4.581 -34.734  1.00  0.00     0.116 A 
HETATM   31  F   UNL     1      -4.526  -5.730 -35.044  1.00  0.00    -0.206 F 
HETATM   32  C   UNL     1      -6.513  -4.475 -34.887  1.00  0.00     0.043 A 
HETATM   33  C   UNL     1      -7.148  -3.276 -34.565  1.00  0.00     0.012 A 
ENDBRANCH   6  27
TORSDOF 5
ENDMDL
MODEL 3
REMARK VINA RESULT:      -9.6      5.663      8.349
REMARK  5 active torsions:
REMARK  status: ('A' for Active; 'I' for Inactive)
REMARK    1  A    between atoms: C_3  and  O_4 
REMARK    2  A    between atoms: C_6  and  N_7 
REMARK       I    between atoms: N_7  and  C_8 
REMARK    3  A    between atoms: C_8  and  C_9 
REMARK    4  A    between atoms: C_14  and  C_15 
REMARK    5  A    between atoms: C_23  and  C_24 
ROOT
HETATM    1  C   UNL     1      -4.797   1.210 -32.339  1.00  0.00     0.148 A 
HETATM    2  N   UNL     1      -5.650   2.229 -32.070  1.00  0.00    -0.165 NA
HETATM    3  N   UNL     1      -4.860   3.316 -32.144  1.00  0.00    -0.240 N 
HETATM    4  C   UNL     1      -3.536   3.033 -32.319  1.00  0.00     0.123 A 
HETATM    5  N   UNL     1      -2.600   4.001 -32.254  1.00  0.00    -0.366 N 
HETATM    6  C   UNL     1      -2.903   5.364 -31.826  1.00  0.00     0.118 C 
HETATM    7  C   UNL     1      -4.289   5.459 -31.153  1.00  0.00     0.066 C 
HETATM    8  C   UNL     1      -5.358   4.658 -31.913  1.00  0.00     0.221 C 
HETATM    9  C   UNL     1      -3.467   1.683 -32.526  1.00  0.00     0.089 A 
HETATM   10  H   UNL     1      -1.614   3.797 -32.418  1.00  0.00     0.161 HD
ENDROOT
BRANCH   1  11
HETATM   11  C   UNL     1      -5.238  -0.197 -32.368  1.00  0.00     0.276 C 
HETATM   12  N   UNL     1      -4.846  -0.831 -33.530  1.00  0.00    -0.322 N 
HETATM   13  H   UNL     1      -4.318  -0.229 -34.158  1.00  0.00     0.169 HD
HETATM   14  O   UNL     1      -5.898  -0.676 -31.454  1.00  0.00    -0.266 OA
BRANCH  12  15
HETATM   15  C   UNL     1      -5.124  -2.144 -33.946  1.00  0.00     0.037 A 
HETATM   16  C   UNL     1      -4.217  -3.200 -33.852  1.00  0.00     0.066 A 
HETATM   17  C   UNL     1      -4.586  -4.474 -34.286  1.00  0.00     0.067 A 
HETATM   18  C   UNL     1      -5.850  -4.718 -34.810  1.00  0.00     0.036 A 
HETATM   19  C   UNL     1      -6.760  -3.667 -34.907  1.00  0.00     0.005 A 
HETATM   20  C   UNL     1      -6.397  -2.387 -34.481  1.00  0.00     0.029 A 
BRANCH  17  21
HETATM   21  O   UNL     1      -3.661  -5.472 -34.180  1.00  0.00    -0.361 OA
HETATM   22  H   UNL     1      -2.775  -5.078 -34.168  1.00  0.00     0.217 HD
ENDBRANCH  17  21
ENDBRANCH  12  15
ENDBRANCH   1  11
BRANCH   8  23
HETATM   23  C   UNL     1      -5.747   5.298 -33.225  1.00  0.00     0.409 C 
HETATM   24  F   UNL     1      -7.023   5.025 -33.574  1.00  0.00    -0.169 F 
HETATM   25  F   UNL     1      -5.658   6.650 -33.116  1.00  0.00    -0.169 F 
HETATM   26  F   UNL     1      -4.952   4.944 -34.257  1.00  0.00    -0.169 F 
ENDBRANCH   8  23
BRANCH   6  27
HETATM   27  C   UNL     1      -1.810   5.837 -30.880  1.00  0.00    -0.035 A 
HETATM   28  C   UNL     1      -1.981   7.007 -30.122  1.00  0.00     0.012 A 
HETATM   29  C   UNL     1      -0.977   7.439 -29.253  1.00  0.00     0.043 A 
HETATM   30  C   UNL     1       0.198   6.707 -29.136  1.00  0.00     0.116 A 
HETATM   31  F   UNL     1       1.158   7.125 -28.303  1.00  0.00    -0.206 F 
HETATM   32  C   UNL     1       0.392   5.547 -29.875  1.00  0.00     0.043 A 
HETATM   33  C   UNL     1      -0.608   5.114 -30.745  1.00  0.00     0.012 A 
ENDBRANCH   6  27
TORSDOF 5
ENDMDL
MODEL 4
REMARK VINA RESULT:      -9.6      5.042      8.670
REMARK  5 active torsions:
REMARK  status: ('A' for Active; 'I' for Inactive)
REMARK    1  A    between atoms: C_3  and  O_4 
REMARK    2  A    between atoms: C_6  and  N_7 
REMARK       I    between atoms: N_7  and  C_8 
REMARK    3  A    between atoms: C_8  and  C_9 
REMARK    4  A    between atoms: C_14  and  C_15 
REMARK    5  A    between atoms: C_23  and  C_24 
ROOT
HETATM    1  C   UNL     1      -3.429   3.448 -32.401  1.00  0.00     0.148 A 
HETATM    2  N   UNL     1      -4.478   3.706 -33.222  1.00  0.00    -0.165 NA
HETATM    3  N   UNL     1      -5.214   2.582 -33.138  1.00  0.00    -0.240 N 
HETATM    4  C   UNL     1      -4.628   1.584 -32.414  1.00  0.00     0.123 A 
HETATM    5  N   UNL     1      -5.163   0.347 -32.369  1.00  0.00    -0.366 N 
HETATM    6  C   UNL     1      -6.284  -0.059 -33.213  1.00  0.00     0.118 C 
HETATM    7  C   UNL     1      -6.535   0.949 -34.356  1.00  0.00     0.066 C 
HETATM    8  C   UNL     1      -6.450   2.405 -33.874  1.00  0.00     0.221 C 
HETATM    9  C   UNL     1      -3.507   2.135 -31.858  1.00  0.00     0.089 A 
HETATM   10  H   UNL     1      -4.746  -0.391 -31.801  1.00  0.00     0.161 HD
ENDROOT
BRANCH   1  11
HETATM   11  C   UNL     1      -2.346   4.424 -32.181  1.00  0.00     0.276 C 
HETATM   12  N   UNL     1      -2.324   4.877 -30.876  1.00  0.00    -0.322 N 
HETATM   13  H   UNL     1      -3.046   4.458 -30.294  1.00  0.00     0.169 HD
HETATM   14  O   UNL     1      -1.609   4.774 -33.095  1.00  0.00    -0.266 OA
BRANCH  12  15
HETATM   15  C   UNL     1      -1.485   5.845 -30.301  1.00  0.00     0.037 A 
HETATM   16  C   UNL     1      -1.898   7.136 -29.969  1.00  0.00     0.066 A 
HETATM   17  C   UNL     1      -0.994   8.030 -29.394  1.00  0.00     0.067 A 
HETATM   18  C   UNL     1       0.321   7.657 -29.137  1.00  0.00     0.036 A 
HETATM   19  C   UNL     1       0.740   6.370 -29.466  1.00  0.00     0.005 A 
HETATM   20  C   UNL     1      -0.158   5.471 -30.049  1.00  0.00     0.029 A 
BRANCH  17  21
HETATM   21  O   UNL     1      -1.443   9.283 -29.094  1.00  0.00    -0.361 OA
HETATM   22  H   UNL     1      -2.387   9.233 -28.872  1.00  0.00     0.217 HD
ENDBRANCH  17  21
ENDBRANCH  12  15
ENDBRANCH   1  11
BRANCH   8  23
HETATM   23  C   UNL     1      -7.626   2.807 -33.014  1.00  0.00     0.409 C 
HETATM   24  F   UNL     1      -7.362   2.694 -31.695  1.00  0.00    -0.169 F 
HETATM   25  F   UNL     1      -7.927   4.114 -33.236  1.00  0.00    -0.169 F 
HETATM   26  F   UNL     1      -8.750   2.107 -33.272  1.00  0.00    -0.169 F 
ENDBRANCH   8  23
BRANCH   6  27
HETATM   27  C   UNL     1      -6.004  -1.447 -33.768  1.00  0.00    -0.035 A 
HETATM   28  C   UNL     1      -4.694  -1.953 -33.792  1.00  0.00     0.012 A 
HETATM   29  C   UNL     1      -4.439  -3.228 -34.302  1.00  0.00     0.043 A 
HETATM   30  C   UNL     1      -5.487  -4.000 -34.788  1.00  0.00     0.116 A 
HETATM   31  F   UNL     1      -5.238  -5.221 -35.277  1.00  0.00    -0.206 F 
HETATM   32  C   UNL     1      -6.791  -3.522 -34.778  1.00  0.00     0.043 A 
HETATM   33  C   UNL     1      -7.049  -2.249 -34.270  1.00  0.00     0.012 A 
ENDBRANCH   6  27
TORSDOF 5
ENDMDL
MODEL 5
REMARK VINA RESULT:      -9.3      5.745      8.798
REMARK  5 active torsions:
REMARK  status: ('A' for Active; 'I' for Inactive)
REMARK    1  A    between atoms: C_3  and  O_4 
REMARK    2  A    between atoms: C_6  and  N_7 
REMARK       I    between atoms: N_7  and  C_8 
REMARK    3  A    between atoms: C_8  and  C_9 
REMARK    4  A    between atoms: C_14  and  C_15 
REMARK    5  A    between atoms: C_23  and  C_24 
ROOT
HETATM    1  C   UNL     1      -4.484   1.700 -32.401  1.00  0.00     0.148 A 
HETATM    2  N   UNL     1      -4.943   2.747 -33.131  1.00  0.00    -0.165 NA
HETATM    3  N   UNL     1      -4.103   3.743 -32.794  1.00  0.00    -0.240 N 
HETATM    4  C   UNL     1      -3.222   3.420 -31.802  1.00  0.00     0.123 A 
HETATM    5  N   UNL     1      -2.425   4.353 -31.244  1.00  0.00    -0.366 N 
HETATM    6  C   UNL     1      -2.563   5.780 -31.527  1.00  0.00     0.118 C 
HETATM    7  C   UNL     1      -3.898   6.098 -32.235  1.00  0.00     0.066 C 
HETATM    8  C   UNL     1      -4.224   5.081 -33.339  1.00  0.00     0.221 C 
HETATM    9  C   UNL     1      -3.389   2.082 -31.576  1.00  0.00     0.089 A 
HETATM   10  H   UNL     1      -1.743   4.108 -30.526  1.00  0.00     0.161 HD
ENDROOT
BRANCH   1  11
HETATM   11  C   UNL     1      -5.117   0.368 -32.455  1.00  0.00     0.276 C 
HETATM   12  N   UNL     1      -4.617  -0.392 -33.494  1.00  0.00    -0.322 N 
HETATM   13  H   UNL     1      -3.901   0.087 -34.034  1.00  0.00     0.169 HD
HETATM   14  O   UNL     1      -5.997   0.049 -31.665  1.00  0.00    -0.266 OA
BRANCH  12  15
HETATM   15  C   UNL     1      -5.007  -1.679 -33.902  1.00  0.00     0.037 A 
HETATM   16  C   UNL     1      -4.180  -2.800 -33.838  1.00  0.00     0.066 A 
HETATM   17  C   UNL     1      -4.657  -4.042 -34.259  1.00  0.00     0.067 A 
HETATM   18  C   UNL     1      -5.952  -4.188 -34.743  1.00  0.00     0.036 A 
HETATM   19  C   UNL     1      -6.783  -3.072 -34.809  1.00  0.00     0.005 A 
HETATM   20  C   UNL     1      -6.311  -1.824 -34.395  1.00  0.00     0.029 A 
BRANCH  17  21
HETATM   21  O   UNL     1      -3.807  -5.107 -34.184  1.00  0.00    -0.361 OA
HETATM   22  H   UNL     1      -4.329  -5.916 -34.059  1.00  0.00     0.217 HD
ENDBRANCH  17  21
ENDBRANCH  12  15
ENDBRANCH   1  11
BRANCH   8  23
HETATM   23  C   UNL     1      -3.333   5.227 -34.552  1.00  0.00     0.409 C 
HETATM   24  F   UNL     1      -3.997   5.012 -35.708  1.00  0.00    -0.169 F 
HETATM   25  F   UNL     1      -2.853   6.497 -34.613  1.00  0.00    -0.169 F 
HETATM   26  F   UNL     1      -2.258   4.412 -34.535  1.00  0.00    -0.169 F 
ENDBRANCH   8  23
BRANCH   6  27
HETATM   27  C   UNL     1      -2.446   6.553 -30.222  1.00  0.00    -0.035 A 
HETATM   28  C   UNL     1      -1.194   6.998 -29.767  1.00  0.00     0.012 A 
HETATM   29  C   UNL     1      -1.090   7.708 -28.568  1.00  0.00     0.043 A 
HETATM   30  C   UNL     1      -2.231   7.977 -27.823  1.00  0.00     0.116 A 
HETATM   31  F   UNL     1      -2.126   8.657 -26.676  1.00  0.00    -0.206 F 
HETATM   32  C   UNL     1      -3.481   7.547 -28.251  1.00  0.00     0.043 A 
HETATM   33  C   UNL     1      -3.588   6.837 -29.446  1.00  0.00     0.012 A 
ENDBRANCH   6  27
TORSDOF 5
ENDMDL
MODEL 6
REMARK VINA RESULT:      -9.1      4.431      9.197
REMARK  5 active torsions:
REMARK  status: ('A' for Active; 'I' for Inactive)
REMARK    1  A    between atoms: C_3  and  O_4 
REMARK    2  A    between atoms: C_6  and  N_7 
REMARK       I    between atoms: N_7  and  C_8 
REMARK    3  A    between atoms: C_8  and  C_9 
REMARK    4  A    between atoms: C_14  and  C_15 
REMARK    5  A    between atoms: C_23  and  C_24 
ROOT
HETATM    1  C   UNL     1      -6.552   3.458 -32.994  1.00  0.00     0.148 A 
HETATM    2  N   UNL     1      -6.512   2.135 -32.699  1.00  0.00    -0.165 NA
HETATM    3  N   UNL     1      -7.617   1.656 -33.301  1.00  0.00    -0.240 N 
HETATM    4  C   UNL     1      -8.416   2.617 -33.850  1.00  0.00     0.123 A 
HETATM    5  N   UNL     1      -9.632   2.315 -34.347  1.00  0.00    -0.366 N 
HETATM    6  C   UNL     1     -10.247   1.001 -34.183  1.00  0.00     0.118 C 
HETATM    7  C   UNL     1      -9.517   0.156 -33.116  1.00  0.00     0.066 C 
HETATM    8  C   UNL     1      -7.989   0.256 -33.242  1.00  0.00     0.221 C 
HETATM    9  C   UNL     1      -7.721   3.790 -33.737  1.00  0.00     0.089 A 
HETATM   10  H   UNL     1     -10.216   3.026 -34.788  1.00  0.00     0.161 HD
ENDROOT
BRANCH   1  11
HETATM   11  C   UNL     1      -5.515   4.398 -32.528  1.00  0.00     0.276 C 
HETATM   12  N   UNL     1      -4.376   4.327 -33.306  1.00  0.00    -0.322 N 
HETATM   13  H   UNL     1      -4.449   3.653 -34.064  1.00  0.00     0.169 HD
HETATM   14  O   UNL     1      -5.692   5.105 -31.544  1.00  0.00    -0.266 OA
BRANCH  12  15
HETATM   15  C   UNL     1      -3.163   5.017 -33.144  1.00  0.00     0.037 A 
HETATM   16  C   UNL     1      -2.107   4.562 -32.355  1.00  0.00     0.066 A 
HETATM   17  C   UNL     1      -0.935   5.313 -32.260  1.00  0.00     0.067 A 
HETATM   18  C   UNL     1      -0.793   6.514 -32.944  1.00  0.00     0.036 A 
HETATM   19  C   UNL     1      -1.844   6.975 -33.735  1.00  0.00     0.005 A 
HETATM   20  C   UNL     1      -3.024   6.231 -33.830  1.00  0.00     0.029 A 
BRANCH  17  21
HETATM   21  O   UNL     1       0.067   4.829 -31.469  1.00  0.00    -0.361 OA
HETATM   22  H   UNL     1      -0.035   5.194 -30.575  1.00  0.00     0.217 HD
ENDBRANCH  17  21
ENDBRANCH  12  15
ENDBRANCH   1  11
BRANCH   8  23
HETATM   23  C   UNL     1      -7.453  -0.473 -34.453  1.00  0.00     0.409 C 
HETATM   24  F   UNL     1      -6.165  -0.163 -34.712  1.00  0.00    -0.169 F 
HETATM   25  F   UNL     1      -7.489  -1.814 -34.229  1.00  0.00    -0.169 F 
HETATM   26  F   UNL     1      -8.166  -0.253 -35.578  1.00  0.00    -0.169 F 
ENDBRANCH   8  23
BRANCH   6  27
HETATM   27  C   UNL     1     -11.711   1.186 -33.815  1.00  0.00    -0.035 A 
HETATM   28  C   UNL     1     -12.195   2.447 -33.430  1.00  0.00     0.012 A 
HETATM   29  C   UNL     1     -13.540   2.615 -33.093  1.00  0.00     0.043 A 
HETATM   30  C   UNL     1     -14.405   1.529 -33.141  1.00  0.00     0.116 A 
HETATM   31  F   UNL     1     -15.693   1.695 -32.817  1.00  0.00    -0.206 F 
HETATM   32  C   UNL     1     -13.952   0.271 -33.518  1.00  0.00     0.043 A 
HETATM   33  C   UNL     1     -12.609   0.100 -33.853  1.00  0.00     0.012 A 
ENDBRANCH   6  27
TORSDOF 5
ENDMDL
MODEL 7
REMARK VINA RESULT:      -9.1      1.681      2.199
REMARK  5 active torsions:
REMARK  status: ('A' for Active; 'I' for Inactive)
REMARK    1  A    between atoms: C_3  and  O_4 
REMARK    2  A    between atoms: C_6  and  N_7 
REMARK       I    between atoms: N_7  and  C_8 
REMARK    3  A    between atoms: C_8  and  C_9 
REMARK    4  A    between atoms: C_14  and  C_15 
REMARK    5  A    between atoms: C_23  and  C_24 
ROOT
HETATM    1  C   UNL     1      -9.934   2.545 -33.173  1.00  0.00     0.148 A 
HETATM    2  N   UNL     1      -9.286   2.359 -31.996  1.00  0.00    -0.165 NA
HETATM    3  N   UNL     1      -8.149   1.743 -32.368  1.00  0.00    -0.240 N 
HETATM    4  C   UNL     1      -8.098   1.417 -33.693  1.00  0.00     0.123 A 
HETATM    5  N   UNL     1      -7.100   0.659 -34.188  1.00  0.00    -0.366 N 
HETATM    6  C   UNL     1      -6.115  -0.004 -33.337  1.00  0.00     0.118 C 
HETATM    7  C   UNL     1      -6.552  -0.014 -31.856  1.00  0.00     0.066 C 
HETATM    8  C   UNL     1      -7.135   1.338 -31.415  1.00  0.00     0.221 C 
HETATM    9  C   UNL     1      -9.204   1.988 -34.260  1.00  0.00     0.089 A 
HETATM   10  H   UNL     1      -7.043   0.442 -35.184  1.00  0.00     0.161 HD
ENDROOT
BRANCH   1  11
HETATM   11  C   UNL     1     -11.254   3.199 -33.248  1.00  0.00     0.276 C 
HETATM   12  N   UNL     1     -12.193   2.545 -32.474  1.00  0.00    -0.322 N 
HETATM   13  H   UNL     1     -11.816   1.737 -31.983  1.00  0.00     0.169 HD
HETATM   14  O   UNL     1     -11.438   4.182 -33.956  1.00  0.00    -0.266 OA
BRANCH  12  15
HETATM   15  C   UNL     1     -13.561   2.828 -32.335  1.00  0.00     0.037 A 
HETATM   16  C   UNL     1     -14.061   4.035 -31.845  1.00  0.00     0.066 A 
HETATM   17  C   UNL     1     -15.439   4.230 -31.749  1.00  0.00     0.067 A 
HETATM   18  C   UNL     1     -16.335   3.240 -32.138  1.00  0.00     0.036 A 
HETATM   19  C   UNL     1     -15.842   2.032 -32.628  1.00  0.00     0.005 A 
HETATM   20  C   UNL     1     -14.463   1.827 -32.722  1.00  0.00     0.029 A 
BRANCH  17  21
HETATM   21  O   UNL     1     -15.879   5.425 -31.256  1.00  0.00    -0.361 OA
HETATM   22  H   UNL     1     -16.496   5.255 -30.527  1.00  0.00     0.217 HD
ENDBRANCH  17  21
ENDBRANCH  12  15
ENDBRANCH   1  11
BRANCH   8  23
HETATM   23  C   UNL     1      -6.083   2.416 -31.288  1.00  0.00     0.409 C 
HETATM   24  F   UNL     1      -6.005   3.192 -32.391  1.00  0.00    -0.169 F 
HETATM   25  F   UNL     1      -6.401   3.243 -30.257  1.00  0.00    -0.169 F 
HETATM   26  F   UNL     1      -4.848   1.939 -31.029  1.00  0.00    -0.169 F 
ENDBRANCH   8  23
BRANCH   6  27
HETATM   27  C   UNL     1      -5.899  -1.421 -33.846  1.00  0.00    -0.035 A 
HETATM   28  C   UNL     1      -4.608  -1.971 -33.894  1.00  0.00     0.012 A 
HETATM   29  C   UNL     1      -4.412  -3.273 -34.361  1.00  0.00     0.043 A 
HETATM   30  C   UNL     1      -5.501  -4.028 -34.780  1.00  0.00     0.116 A 
HETATM   31  F   UNL     1      -5.308  -5.275 -35.227  1.00  0.00    -0.206 F 
HETATM   32  C   UNL     1      -6.788  -3.506 -34.743  1.00  0.00     0.043 A 
HETATM   33  C   UNL     1      -6.986  -2.206 -34.279  1.00  0.00     0.012 A 
ENDBRANCH   6  27
TORSDOF 5
ENDMDL
MODEL 8
REMARK VINA RESULT:      -9.0      4.448      9.107
REMARK  5 active torsions:
REMARK  status: ('A' for Active; 'I' for Inactive)
REMARK    1  A    between atoms: C_3  and  O_4 
REMARK    2  A    between atoms: C_6  and  N_7 
REMARK       I    between atoms: N_7  and  C_8 
REMARK    3  A    between atoms: C_8  and  C_9 
REMARK    4  A    between atoms: C_14  and  C_15 
REMARK    5  A    between atoms: C_23  and  C_24 
ROOT
HETATM    1  C   UNL     1      -5.975   3.288 -32.358  1.00  0.00     0.148 A 
HETATM    2  N   UNL     1      -6.068   2.012 -31.908  1.00  0.00    -0.165 NA
HETATM    3  N   UNL     1      -7.027   1.482 -32.690  1.00  0.00    -0.240 N 
HETATM    4  C   UNL     1      -7.631   2.382 -33.520  1.00  0.00     0.123 A 
HETATM    5  N   UNL     1      -8.714   2.044 -34.248  1.00  0.00    -0.366 N 
HETATM    6  C   UNL     1      -9.414   0.773 -34.078  1.00  0.00     0.118 C 
HETATM    7  C   UNL     1      -8.991   0.056 -32.777  1.00  0.00     0.066 C 
HETATM    8  C   UNL     1      -7.472   0.109 -32.554  1.00  0.00     0.221 C 
HETATM    9  C   UNL     1      -6.924   3.545 -33.388  1.00  0.00     0.089 A 
HETATM   10  H   UNL     1      -9.146   2.705 -34.895  1.00  0.00     0.161 HD
ENDROOT
BRANCH   1  11
HETATM   11  C   UNL     1      -5.028   4.258 -31.778  1.00  0.00     0.276 C 
HETATM   12  N   UNL     1      -4.006   4.562 -32.657  1.00  0.00    -0.322 N 
HETATM   13  H   UNL     1      -4.086   4.077 -33.547  1.00  0.00     0.169 HD
HETATM   14  O   UNL     1      -5.168   4.680 -30.636  1.00  0.00    -0.266 OA
BRANCH  12  15
HETATM   15  C   UNL     1      -2.893   5.392 -32.449  1.00  0.00     0.037 A 
HETATM   16  C   UNL     1      -2.922   6.782 -32.571  1.00  0.00     0.066 A 
HETATM   17  C   UNL     1      -1.766   7.526 -32.338  1.00  0.00     0.067 A 
HETATM   18  C   UNL     1      -0.573   6.909 -31.978  1.00  0.00     0.036 A 
HETATM   19  C   UNL     1      -0.536   5.521 -31.854  1.00  0.00     0.005 A 
HETATM   20  C   UNL     1      -1.689   4.768 -32.092  1.00  0.00     0.029 A 
BRANCH  17  21
HETATM   21  O   UNL     1      -1.844   8.882 -32.478  1.00  0.00    -0.361 OA
HETATM   22  H   UNL     1      -1.175   9.295 -31.909  1.00  0.00     0.217 HD
ENDBRANCH  17  21
ENDBRANCH  12  15
ENDBRANCH   1  11
BRANCH   8  23
HETATM   23  C   UNL     1      -6.708  -0.778 -33.510  1.00  0.00     0.409 C 
HETATM   24  F   UNL     1      -5.721  -1.466 -32.898  1.00  0.00    -0.169 F 
HETATM   25  F   UNL     1      -7.549  -1.703 -34.043  1.00  0.00    -0.169 F 
HETATM   26  F   UNL     1      -6.164  -0.111 -34.551  1.00  0.00    -0.169 F 
ENDBRANCH   8  23
BRANCH   6  27
HETATM   27  C   UNL     1     -10.913   1.033 -34.088  1.00  0.00    -0.035 A 
HETATM   28  C   UNL     1     -11.800   0.109 -33.512  1.00  0.00     0.012 A 
HETATM   29  C   UNL     1     -13.175   0.349 -33.522  1.00  0.00     0.043 A 
HETATM   30  C   UNL     1     -13.670   1.510 -34.104  1.00  0.00     0.116 A 
HETATM   31  F   UNL     1     -14.989   1.735 -34.111  1.00  0.00    -0.206 F 
HETATM   32  C   UNL     1     -12.814   2.439 -34.681  1.00  0.00     0.043 A 
HETATM   33  C   UNL     1     -11.440   2.201 -34.674  1.00  0.00     0.012 A 
ENDBRANCH   6  27
TORSDOF 5
ENDMDL
MODEL 9
REMARK VINA RESULT:      -9.0      5.083      7.542
REMARK  5 active torsions:
REMARK  status: ('A' for Active; 'I' for Inactive)
REMARK    1  A    between atoms: C_3  and  O_4 
REMARK    2  A    between atoms: C_6  and  N_7 
REMARK       I    between atoms: N_7  and  C_8 
REMARK    3  A    between atoms: C_8  and  C_9 
REMARK    4  A    between atoms: C_14  and  C_15 
REMARK    5  A    between atoms: C_23  and  C_24 
ROOT
HETATM    1  C   UNL     1      -5.516   4.112 -32.056  1.00  0.00     0.148 A 
HETATM    2  N   UNL     1      -5.080   5.073 -32.908  1.00  0.00    -0.165 NA
HETATM    3  N   UNL     1      -3.765   5.152 -32.632  1.00  0.00    -0.240 N 
HETATM    4  C   UNL     1      -3.371   4.389 -31.570  1.00  0.00     0.123 A 
HETATM    5  N   UNL     1      -2.123   4.481 -31.070  1.00  0.00    -0.366 N 
HETATM    6  C   UNL     1      -1.173   5.504 -31.501  1.00  0.00     0.118 C 
HETATM    7  C   UNL     1      -1.865   6.627 -32.302  1.00  0.00     0.066 C 
HETATM    8  C   UNL     1      -2.881   6.076 -33.314  1.00  0.00     0.221 C 
HETATM    9  C   UNL     1      -4.463   3.644 -31.220  1.00  0.00     0.089 A 
HETATM   10  H   UNL     1      -1.816   3.888 -30.299  1.00  0.00     0.161 HD
ENDROOT
BRANCH   1  11
HETATM   11  C   UNL     1      -6.927   3.686 -32.007  1.00  0.00     0.276 C 
HETATM   12  N   UNL     1      -7.148   2.563 -32.780  1.00  0.00    -0.322 N 
HETATM   13  H   UNL     1      -6.307   2.220 -33.239  1.00  0.00     0.169 HD
HETATM   14  O   UNL     1      -7.760   4.315 -31.366  1.00  0.00    -0.266 OA
BRANCH  12  15
HETATM   15  C   UNL     1      -8.360   1.900 -33.032  1.00  0.00     0.037 A 
HETATM   16  C   UNL     1      -9.271   2.287 -34.015  1.00  0.00     0.066 A 
HETATM   17  C   UNL     1     -10.449   1.561 -34.197  1.00  0.00     0.067 A 
HETATM   18  C   UNL     1     -10.736   0.447 -33.416  1.00  0.00     0.036 A 
HETATM   19  C   UNL     1      -9.831   0.055 -32.432  1.00  0.00     0.005 A 
HETATM   20  C   UNL     1      -8.651   0.781 -32.239  1.00  0.00     0.029 A 
BRANCH  17  21
HETATM   21  O   UNL     1     -11.311   1.984 -35.167  1.00  0.00    -0.361 OA
HETATM   22  H   UNL     1     -11.619   1.213 -35.670  1.00  0.00     0.217 HD
ENDBRANCH  17  21
ENDBRANCH  12  15
ENDBRANCH   1  11
BRANCH   8  23
HETATM   23  C   UNL     1      -2.224   5.390 -34.490  1.00  0.00     0.409 C 
HETATM   24  F   UNL     1      -1.936   4.095 -34.237  1.00  0.00    -0.169 F 
HETATM   25  F   UNL     1      -3.073   5.396 -35.553  1.00  0.00    -0.169 F 
HETATM   26  F   UNL     1      -1.090   5.993 -34.903  1.00  0.00    -0.169 F 
ENDBRANCH   8  23
BRANCH   6  27
HETATM   27  C   UNL     1      -0.470   6.069 -30.277  1.00  0.00    -0.035 A 
HETATM   28  C   UNL     1      -0.574   7.434 -29.962  1.00  0.00     0.012 A 
HETATM   29  C   UNL     1       0.073   7.950 -28.837  1.00  0.00     0.043 A 
HETATM   30  C   UNL     1       0.822   7.109 -28.023  1.00  0.00     0.116 A 
HETATM   31  F   UNL     1       1.439   7.610 -26.946  1.00  0.00    -0.206 F 
HETATM   32  C   UNL     1       0.941   5.756 -28.313  1.00  0.00     0.043 A 
HETATM   33  C   UNL     1       0.298   5.238 -29.436  1.00  0.00     0.012 A 
ENDBRANCH   6  27
TORSDOF 5
ENDMDL
MODEL 10
REMARK VINA RESULT:      -8.7      4.359      7.046
REMARK  5 active torsions:
REMARK  status: ('A' for Active; 'I' for Inactive)
REMARK    1  A    between atoms: C_3  and  O_4 
REMARK    2  A    between atoms: C_6  and  N_7 
REMARK       I    between atoms: N_7  and  C_8 
REMARK    3  A    between atoms: C_8  and  C_9 
REMARK    4  A    between atoms: C_14  and  C_15 
REMARK    5  A    between atoms: C_23  and  C_24 
ROOT
HETATM    1  C   UNL     1      -5.614   3.013 -31.616  1.00  0.00     0.148 A 
HETATM    2  N   UNL     1      -6.204   3.177 -32.827  1.00  0.00    -0.165 NA
HETATM    3  N   UNL     1      -6.702   1.955 -33.091  1.00  0.00    -0.240 N 
HETATM    4  C   UNL     1      -6.354   1.000 -32.179  1.00  0.00     0.123 A 
HETATM    5  N   UNL     1      -6.640  -0.300 -32.385  1.00  0.00    -0.366 N 
HETATM    6  C   UNL     1      -7.175  -0.800 -33.649  1.00  0.00     0.118 C 
HETATM    7  C   UNL     1      -7.042   0.244 -34.780  1.00  0.00     0.066 C 
HETATM    8  C   UNL     1      -7.424   1.656 -34.312  1.00  0.00     0.221 C 
HETATM    9  C   UNL     1      -5.713   1.665 -31.170  1.00  0.00     0.089 A 
HETATM   10  H   UNL     1      -6.411  -1.011 -31.689  1.00  0.00     0.161 HD
ENDROOT
BRANCH   1  11
HETATM   11  C   UNL     1      -4.924   4.116 -30.923  1.00  0.00     0.276 C 
HETATM   12  N   UNL     1      -5.767   4.780 -30.054  1.00  0.00    -0.322 N 
HETATM   13  H   UNL     1      -6.708   4.394 -30.034  1.00  0.00     0.169 HD
HETATM   14  O   UNL     1      -3.751   4.382 -31.159  1.00  0.00    -0.266 OA
BRANCH  12  15
HETATM   15  C   UNL     1      -5.497   5.911 -29.266  1.00  0.00     0.037 A 
HETATM   16  C   UNL     1      -5.309   5.871 -27.884  1.00  0.00     0.066 A 
HETATM   17  C   UNL     1      -5.037   7.047 -27.184  1.00  0.00     0.067 A 
HETATM   18  C   UNL     1      -4.943   8.269 -27.840  1.00  0.00     0.036 A 
HETATM   19  C   UNL     1      -5.129   8.316 -29.220  1.00  0.00     0.005 A 
HETATM   20  C   UNL     1      -5.408   7.143 -29.928  1.00  0.00     0.029 A 
BRANCH  17  21
HETATM   21  O   UNL     1      -4.869   6.956 -25.832  1.00  0.00    -0.361 OA
HETATM   22  H   UNL     1      -5.070   7.818 -25.434  1.00  0.00     0.217 HD
ENDBRANCH  17  21
ENDBRANCH  12  15
ENDBRANCH   1  11
BRANCH   8  23
HETATM   23  C   UNL     1      -8.910   1.817 -34.087  1.00  0.00     0.409 C 
HETATM   24  F   UNL     1      -9.239   1.794 -32.778  1.00  0.00    -0.169 F 
HETATM   25  F   UNL     1      -9.314   3.024 -34.565  1.00  0.00    -0.169 F 
HETATM   26  F   UNL     1      -9.657   0.887 -34.718  1.00  0.00    -0.169 F 
ENDBRANCH   8  23
BRANCH   6  27
HETATM   27  C   UNL     1      -6.451  -2.087 -34.015  1.00  0.00    -0.035 A 
HETATM   28  C   UNL     1      -7.171  -3.207 -34.462  1.00  0.00     0.012 A 
HETATM   29  C   UNL     1      -6.504  -4.387 -34.798  1.00  0.00     0.043 A 
HETATM   30  C   UNL     1      -5.120  -4.454 -34.689  1.00  0.00     0.116 A 
HETATM   31  F   UNL     1      -4.486  -5.588 -35.011  1.00  0.00    -0.206 F 
HETATM   32  C   UNL     1      -4.385  -3.361 -34.248  1.00  0.00     0.043 A 
HETATM   33  C   UNL     1      -5.048  -2.181 -33.911  1.00  0.00     0.012 A 
ENDBRANCH   6  27
TORSDOF 5
ENDMDL
