MODEL 1
REMARK VINA RESULT:      -8.9      0.000      0.000
REMARK  6 active torsions:
REMARK  status: ('A' for Active; 'I' for Inactive)
REMARK    1  A    between atoms: C_2  and  O_3 
REMARK    2  A    between atoms: C_2  and  C_4 
REMARK    3  A    between atoms: C_6  and  N_7 
REMARK       I    between atoms: N_7  and  C_8 
REMARK    4  A    between atoms: C_8  and  C_9 
REMARK    5  A    between atoms: C_12  and  C_13 
REMARK    6  A    between atoms: C_18  and  C_19 
ROOT
HETATM    1  C   UNL     1      -8.732   2.202 -32.762  1.00  0.00     0.096 A 
HETATM    2  C   UNL     1      -9.797   2.348 -33.634  1.00  0.00     0.138 A 
HETATM    3  N   UNL     1     -10.303   3.602 -33.426  1.00  0.00    -0.240 N 
HETATM    4  C   UNL     1     -11.479   4.133 -34.090  1.00  0.00     0.221 C 
HETATM    5  C   UNL     1     -11.777   3.331 -35.371  1.00  0.00     0.068 C 
HETATM    6  C   UNL     1     -11.611   1.808 -35.212  1.00  0.00     0.143 C 
HETATM    7  N   UNL     1     -10.336   1.524 -34.561  1.00  0.00    -0.363 N 
HETATM    8  N   UNL     1      -9.589   4.334 -32.557  1.00  0.00    -0.181 NA
HETATM    9  C   UNL     1      -8.655   3.473 -32.135  1.00  0.00     0.160 A 
HETATM   10  H   UNL     1     -10.024   0.549 -34.595  1.00  0.00     0.162 HD
ENDROOT
BRANCH   1  11
HETATM   11  C   UNL     1      -7.930   0.991 -32.599  1.00  0.00     0.261 C 
HETATM   12  N   UNL     1      -7.140   0.676 -33.693  1.00  0.00    -0.323 N 
HETATM   13  H   UNL     1      -7.190   1.289 -34.492  1.00  0.00     0.169 HD
HETATM   14  O   UNL     1      -7.976   0.349 -31.554  1.00  0.00    -0.267 OA
BRANCH  12  15
HETATM   15  C   UNL     1      -6.242  -0.406 -33.827  1.00  0.00     0.035 A 
HETATM   16  C   UNL     1      -6.595  -1.665 -34.320  1.00  0.00     0.039 A 
HETATM   17  C   UNL     1      -5.647  -2.702 -34.416  1.00  0.00    -0.028 A 
HETATM   18  C   UNL     1      -4.327  -2.450 -34.023  1.00  0.00     0.010 A 
HETATM   19  C   UNL     1      -3.963  -1.198 -33.532  1.00  0.00     0.003 A 
HETATM   20  C   UNL     1      -4.916  -0.182 -33.436  1.00  0.00     0.029 A 
BRANCH  17  21
HETATM   21  C   UNL     1      -6.064  -4.044 -34.977  1.00  0.00     0.147 C 
HETATM   22  C   UNL     1      -5.067  -5.135 -34.607  1.00  0.00     0.044 C 
BRANCH  21  23
HETATM   23  O   UNL     1      -7.353  -4.403 -34.482  1.00  0.00    -0.391 OA
HETATM   24  H   UNL     1      -7.386  -5.374 -34.460  1.00  0.00     0.210 HD
ENDBRANCH  21  23
ENDBRANCH  17  21
ENDBRANCH  12  15
ENDBRANCH   1  11
BRANCH   4  25
HETATM   25  C   UNL     1     -12.635   4.191 -33.116  1.00  0.00     0.409 C 
HETATM   26  F   UNL     1     -12.676   3.156 -32.254  1.00  0.00    -0.169 F 
HETATM   27  F   UNL     1     -12.615   5.326 -32.376  1.00  0.00    -0.169 F 
HETATM   28  F   UNL     1     -13.816   4.204 -33.785  1.00  0.00    -0.169 F 
ENDBRANCH   4  25
BRANCH   6  29
HETATM   29  C   UNL     1     -12.796   1.142 -34.589  1.00  0.00     0.075 A 
HETATM   30  O   UNL     1     -14.024   1.526 -35.045  1.00  0.00    -0.325 OA
HETATM   31  C   UNL     1     -14.947   0.797 -34.366  1.00  0.00     0.142 A 
HETATM   32  C   UNL     1     -14.332  -0.060 -33.486  1.00  0.00     0.027 A 
HETATM   33  C   UNL     1     -12.942   0.155 -33.634  1.00  0.00     0.037 A 
ENDBRANCH   6  29
TORSDOF 6
ENDMDL
MODEL 2
REMARK VINA RESULT:      -8.8      5.330      7.596
REMARK  6 active torsions:
REMARK  status: ('A' for Active; 'I' for Inactive)
REMARK    1  A    between atoms: C_2  and  O_3 
REMARK    2  A    between atoms: C_2  and  C_4 
REMARK    3  A    between atoms: C_6  and  N_7 
REMARK       I    between atoms: N_7  and  C_8 
REMARK    4  A    between atoms: C_8  and  C_9 
REMARK    5  A    between atoms: C_12  and  C_13 
REMARK    6  A    between atoms: C_18  and  C_19 
ROOT
HETATM    1  C   UNL     1      -5.402   3.211 -31.726  1.00  0.00     0.096 A 
HETATM    2  C   UNL     1      -6.138   2.559 -32.699  1.00  0.00     0.138 A 
HETATM    3  N   UNL     1      -7.404   2.416 -32.203  1.00  0.00    -0.240 N 
HETATM    4  C   UNL     1      -8.479   1.717 -32.882  1.00  0.00     0.221 C 
HETATM    5  C   UNL     1      -8.172   1.598 -34.387  1.00  0.00     0.068 C 
HETATM    6  C   UNL     1      -6.707   1.239 -34.702  1.00  0.00     0.143 C 
HETATM    7  N   UNL     1      -5.819   2.107 -33.934  1.00  0.00    -0.363 N 
HETATM    8  N   UNL     1      -7.589   3.017 -31.017  1.00  0.00    -0.181 NA
HETATM    9  C   UNL     1      -6.367   3.472 -30.716  1.00  0.00     0.160 A 
HETATM   10  H   UNL     1      -4.835   2.104 -34.218  1.00  0.00     0.162 HD
ENDROOT
BRANCH   1  11
HETATM   11  C   UNL     1      -3.976   3.520 -31.806  1.00  0.00     0.261 C 
HETATM   12  N   UNL     1      -3.665   4.850 -31.574  1.00  0.00    -0.323 N 
HETATM   13  H   UNL     1      -4.430   5.478 -31.382  1.00  0.00     0.169 HD
HETATM   14  O   UNL     1      -3.159   2.636 -32.047  1.00  0.00    -0.267 OA
BRANCH  12  15
HETATM   15  C   UNL     1      -2.385   5.447 -31.554  1.00  0.00     0.035 A 
HETATM   16  C   UNL     1      -1.385   5.134 -30.629  1.00  0.00     0.039 A 
HETATM   17  C   UNL     1      -0.133   5.778 -30.662  1.00  0.00    -0.028 A 
HETATM   18  C   UNL     1       0.107   6.737 -31.654  1.00  0.00     0.010 A 
HETATM   19  C   UNL     1      -0.881   7.056 -32.582  1.00  0.00     0.003 A 
HETATM   20  C   UNL     1      -2.120   6.413 -32.532  1.00  0.00     0.029 A 
BRANCH  17  21
HETATM   21  C   UNL     1       0.931   5.394 -29.657  1.00  0.00     0.147 C 
HETATM   22  C   UNL     1       0.655   6.010 -28.292  1.00  0.00     0.044 C 
BRANCH  21  23
HETATM   23  O   UNL     1       0.990   3.975 -29.525  1.00  0.00    -0.391 OA
HETATM   24  H   UNL     1       1.846   3.765 -29.117  1.00  0.00     0.210 HD
ENDBRANCH  21  23
ENDBRANCH  17  21
ENDBRANCH  12  15
ENDBRANCH   1  11
BRANCH   4  25
HETATM   25  C   UNL     1      -8.742   0.393 -32.199  1.00  0.00     0.409 C 
HETATM   26  F   UNL     1      -9.348  -0.516 -32.987  1.00  0.00    -0.169 F 
HETATM   27  F   UNL     1      -7.600  -0.172 -31.740  1.00  0.00    -0.169 F 
HETATM   28  F   UNL     1      -9.533   0.573 -31.110  1.00  0.00    -0.169 F 
ENDBRANCH   4  25
BRANCH   6  29
HETATM   29  C   UNL     1      -6.413  -0.222 -34.584  1.00  0.00     0.075 A 
HETATM   30  O   UNL     1      -5.303  -0.568 -33.868  1.00  0.00    -0.325 OA
HETATM   31  C   UNL     1      -5.232  -1.924 -33.874  1.00  0.00     0.142 A 
HETATM   32  C   UNL     1      -6.286  -2.459 -34.574  1.00  0.00     0.027 A 
HETATM   33  C   UNL     1      -7.055  -1.362 -35.027  1.00  0.00     0.037 A 
ENDBRANCH   6  29
TORSDOF 6
ENDMDL
MODEL 3
REMARK VINA RESULT:      -8.5      5.457      7.625
REMARK  6 active torsions:
REMARK  status: ('A' for Active; 'I' for Inactive)
REMARK    1  A    between atoms: C_2  and  O_3 
REMARK    2  A    between atoms: C_2  and  C_4 
REMARK    3  A    between atoms: C_6  and  N_7 
REMARK       I    between atoms: N_7  and  C_8 
REMARK    4  A    between atoms: C_8  and  C_9 
REMARK    5  A    between atoms: C_12  and  C_13 
REMARK    6  A    between atoms: C_18  and  C_19 
ROOT
HETATM    1  C   UNL     1      -4.501   2.117 -32.127  1.00  0.00     0.096 A 
HETATM    2  C   UNL     1      -5.852   1.828 -32.041  1.00  0.00     0.138 A 
HETATM    3  N   UNL     1      -6.035   0.625 -32.666  1.00  0.00    -0.240 N 
HETATM    4  C   UNL     1      -7.325  -0.009 -32.863  1.00  0.00     0.221 C 
HETATM    5  C   UNL     1      -8.361   0.570 -31.881  1.00  0.00     0.068 C 
HETATM    6  C   UNL     1      -8.279   2.099 -31.711  1.00  0.00     0.143 C 
HETATM    7  N   UNL     1      -6.891   2.488 -31.480  1.00  0.00    -0.363 N 
HETATM    8  N   UNL     1      -4.893   0.047 -33.068  1.00  0.00    -0.181 NA
HETATM    9  C   UNL     1      -3.968   0.966 -32.767  1.00  0.00     0.160 A 
HETATM   10  H   UNL     1      -6.744   3.444 -31.144  1.00  0.00     0.162 HD
ENDROOT
BRANCH   1  11
HETATM   11  C   UNL     1      -3.863   3.338 -31.643  1.00  0.00     0.261 C 
HETATM   12  N   UNL     1      -2.642   3.620 -32.234  1.00  0.00    -0.323 N 
HETATM   13  H   UNL     1      -2.302   2.971 -32.927  1.00  0.00     0.169 HD
HETATM   14  O   UNL     1      -4.410   4.032 -30.790  1.00  0.00    -0.267 OA
BRANCH  12  15
HETATM   15  C   UNL     1      -1.805   4.734 -32.000  1.00  0.00     0.035 A 
HETATM   16  C   UNL     1      -1.071   4.934 -30.828  1.00  0.00     0.039 A 
HETATM   17  C   UNL     1      -0.263   6.075 -30.660  1.00  0.00    -0.028 A 
HETATM   18  C   UNL     1      -0.190   7.011 -31.698  1.00  0.00     0.010 A 
HETATM   19  C   UNL     1      -0.916   6.821 -32.872  1.00  0.00     0.003 A 
HETATM   20  C   UNL     1      -1.718   5.688 -33.021  1.00  0.00     0.029 A 
BRANCH  17  21
HETATM   21  C   UNL     1       0.534   6.243 -29.384  1.00  0.00     0.147 C 
HETATM   22  C   UNL     1       0.584   7.701 -28.948  1.00  0.00     0.044 C 
BRANCH  21  23
HETATM   23  O   UNL     1      -0.044   5.463 -28.339  1.00  0.00    -0.391 OA
HETATM   24  H   UNL     1      -0.478   6.083 -27.731  1.00  0.00     0.210 HD
ENDBRANCH  21  23
ENDBRANCH  17  21
ENDBRANCH  12  15
ENDBRANCH   1  11
BRANCH   4  25
HETATM   25  C   UNL     1      -7.730   0.093 -34.317  1.00  0.00     0.409 C 
HETATM   26  F   UNL     1      -9.052   0.275 -34.504  1.00  0.00    -0.169 F 
HETATM   27  F   UNL     1      -7.093   1.108 -34.948  1.00  0.00    -0.169 F 
HETATM   28  F   UNL     1      -7.381  -1.037 -34.985  1.00  0.00    -0.169 F 
ENDBRANCH   4  25
BRANCH   6  29
HETATM   29  C   UNL     1      -8.971   2.857 -32.797  1.00  0.00     0.075 A 
HETATM   30  O   UNL     1     -10.306   2.620 -32.955  1.00  0.00    -0.325 OA
HETATM   31  C   UNL     1     -10.734   3.411 -33.972  1.00  0.00     0.142 A 
HETATM   32  C   UNL     1      -9.697   4.165 -34.466  1.00  0.00     0.027 A 
HETATM   33  C   UNL     1      -8.558   3.814 -33.703  1.00  0.00     0.037 A 
ENDBRANCH   6  29
TORSDOF 6
ENDMDL
MODEL 4
REMARK VINA RESULT:      -8.5      5.176      7.512
REMARK  6 active torsions:
REMARK  status: ('A' for Active; 'I' for Inactive)
REMARK    1  A    between atoms: C_2  and  O_3 
REMARK    2  A    between atoms: C_2  and  C_4 
REMARK    3  A    between atoms: C_6  and  N_7 
REMARK       I    between atoms: N_7  and  C_8 
REMARK    4  A    between atoms: C_8  and  C_9 
REMARK    5  A    between atoms: C_12  and  C_13 
REMARK    6  A    between atoms: C_18  and  C_19 
ROOT
HETATM    1  C   UNL     1      -5.505   2.419 -31.131  1.00  0.00     0.096 A 
HETATM    2  C   UNL     1      -4.511   3.380 -31.076  1.00  0.00     0.138 A 
HETATM    3  N   UNL     1      -5.131   4.569 -30.804  1.00  0.00    -0.240 N 
HETATM    4  C   UNL     1      -4.454   5.850 -30.732  1.00  0.00     0.221 C 
HETATM    5  C   UNL     1      -2.943   5.645 -30.512  1.00  0.00     0.068 C 
HETATM    6  C   UNL     1      -2.335   4.505 -31.350  1.00  0.00     0.143 C 
HETATM    7  N   UNL     1      -3.168   3.312 -31.225  1.00  0.00    -0.363 N 
HETATM    8  N   UNL     1      -6.447   4.449 -30.572  1.00  0.00    -0.181 NA
HETATM    9  C   UNL     1      -6.676   3.151 -30.800  1.00  0.00     0.160 A 
HETATM   10  H   UNL     1      -2.753   2.439 -31.563  1.00  0.00     0.162 HD
ENDROOT
BRANCH   1  11
HETATM   11  C   UNL     1      -5.304   1.009 -31.456  1.00  0.00     0.261 C 
HETATM   12  N   UNL     1      -5.772   0.636 -32.705  1.00  0.00    -0.323 N 
HETATM   13  H   UNL     1      -6.208   1.350 -33.268  1.00  0.00     0.169 HD
HETATM   14  O   UNL     1      -4.747   0.259 -30.658  1.00  0.00    -0.267 OA
BRANCH  12  15
HETATM   15  C   UNL     1      -5.698  -0.638 -33.311  1.00  0.00     0.035 A 
HETATM   16  C   UNL     1      -4.665  -1.554 -33.094  1.00  0.00     0.039 A 
HETATM   17  C   UNL     1      -4.652  -2.805 -33.741  1.00  0.00    -0.028 A 
HETATM   18  C   UNL     1      -5.705  -3.130 -34.605  1.00  0.00     0.010 A 
HETATM   19  C   UNL     1      -6.740  -2.225 -34.828  1.00  0.00     0.003 A 
HETATM   20  C   UNL     1      -6.736  -0.986 -34.184  1.00  0.00     0.029 A 
BRANCH  17  21
HETATM   21  C   UNL     1      -3.528  -3.778 -33.460  1.00  0.00     0.147 C 
HETATM   22  C   UNL     1      -3.048  -3.672 -32.018  1.00  0.00     0.044 C 
BRANCH  21  23
HETATM   23  O   UNL     1      -3.963  -5.114 -33.710  1.00  0.00    -0.391 OA
HETATM   24  H   UNL     1      -4.627  -5.067 -34.418  1.00  0.00     0.210 HD
ENDBRANCH  21  23
ENDBRANCH  17  21
ENDBRANCH  12  15
ENDBRANCH   1  11
BRANCH   4  25
HETATM   25  C   UNL     1      -4.792   6.678 -31.953  1.00  0.00     0.409 C 
HETATM   26  F   UNL     1      -4.999   5.948 -33.067  1.00  0.00    -0.169 F 
HETATM   27  F   UNL     1      -5.900   7.433 -31.759  1.00  0.00    -0.169 F 
HETATM   28  F   UNL     1      -3.788   7.551 -32.224  1.00  0.00    -0.169 F 
ENDBRANCH   4  25
BRANCH   6  29
HETATM   29  C   UNL     1      -2.017   4.904 -32.755  1.00  0.00     0.075 A 
HETATM   30  O   UNL     1      -1.248   6.020 -32.916  1.00  0.00    -0.325 OA
HETATM   31  C   UNL     1      -1.068   6.192 -34.251  1.00  0.00     0.142 A 
HETATM   32  C   UNL     1      -1.702   5.196 -34.955  1.00  0.00     0.027 A 
HETATM   33  C   UNL     1      -2.309   4.358 -33.990  1.00  0.00     0.037 A 
ENDBRANCH   6  29
TORSDOF 6
ENDMDL
MODEL 5
REMARK VINA RESULT:      -8.4      1.295      1.970
REMARK  6 active torsions:
REMARK  status: ('A' for Active; 'I' for Inactive)
REMARK    1  A    between atoms: C_2  and  O_3 
REMARK    2  A    between atoms: C_2  and  C_4 
REMARK    3  A    between atoms: C_6  and  N_7 
REMARK       I    between atoms: N_7  and  C_8 
REMARK    4  A    between atoms: C_8  and  C_9 
REMARK    5  A    between atoms: C_12  and  C_13 
REMARK    6  A    between atoms: C_18  and  C_19 
ROOT
HETATM    1  C   UNL     1      -8.736   2.349 -32.610  1.00  0.00     0.096 A 
HETATM    2  C   UNL     1      -9.768   2.466 -33.524  1.00  0.00     0.138 A 
HETATM    3  N   UNL     1     -10.295   3.717 -33.361  1.00  0.00    -0.240 N 
HETATM    4  C   UNL     1     -11.451   4.222 -34.079  1.00  0.00     0.221 C 
HETATM    5  C   UNL     1     -11.691   3.393 -35.355  1.00  0.00     0.068 C 
HETATM    6  C   UNL     1     -11.515   1.875 -35.159  1.00  0.00     0.143 C 
HETATM    7  N   UNL     1     -10.262   1.618 -34.455  1.00  0.00    -0.363 N 
HETATM    8  N   UNL     1      -9.622   4.474 -32.480  1.00  0.00    -0.181 NA
HETATM    9  C   UNL     1      -8.697   3.633 -32.005  1.00  0.00     0.160 A 
HETATM   10  H   UNL     1      -9.939   0.646 -34.457  1.00  0.00     0.162 HD
ENDROOT
BRANCH   1  11
HETATM   11  C   UNL     1      -7.928   1.151 -32.393  1.00  0.00     0.261 C 
HETATM   12  N   UNL     1      -7.200   0.743 -33.499  1.00  0.00    -0.323 N 
HETATM   13  H   UNL     1      -7.292   1.289 -34.341  1.00  0.00     0.169 HD
HETATM   14  O   UNL     1      -7.918   0.595 -31.298  1.00  0.00    -0.267 OA
BRANCH  12  15
HETATM   15  C   UNL     1      -6.312  -0.351 -33.593  1.00  0.00     0.035 A 
HETATM   16  C   UNL     1      -5.284  -0.613 -32.682  1.00  0.00     0.039 A 
HETATM   17  C   UNL     1      -4.429  -1.719 -32.846  1.00  0.00    -0.028 A 
HETATM   18  C   UNL     1      -4.631  -2.575 -33.935  1.00  0.00     0.010 A 
HETATM   19  C   UNL     1      -5.652  -2.325 -34.849  1.00  0.00     0.003 A 
HETATM   20  C   UNL     1      -6.488  -1.220 -34.677  1.00  0.00     0.029 A 
BRANCH  17  21
HETATM   21  C   UNL     1      -3.343  -1.980 -31.824  1.00  0.00     0.147 C 
HETATM   22  C   UNL     1      -2.874  -3.429 -31.869  1.00  0.00     0.044 C 
BRANCH  21  23
HETATM   23  O   UNL     1      -2.230  -1.121 -32.062  1.00  0.00    -0.391 OA
HETATM   24  H   UNL     1      -1.647  -1.194 -31.288  1.00  0.00     0.210 HD
ENDBRANCH  21  23
ENDBRANCH  17  21
ENDBRANCH  12  15
ENDBRANCH   1  11
BRANCH   4  25
HETATM   25  C   UNL     1     -12.644   4.286 -33.151  1.00  0.00     0.409 C 
HETATM   26  F   UNL     1     -12.708   5.418 -32.422  1.00  0.00    -0.169 F 
HETATM   27  F   UNL     1     -13.813   4.178 -33.825  1.00  0.00    -0.169 F 
HETATM   28  F   UNL     1     -12.619   3.246 -32.278  1.00  0.00    -0.169 F 
ENDBRANCH   4  25
BRANCH   6  29
HETATM   29  C   UNL     1     -12.716   1.208 -34.569  1.00  0.00     0.075 A 
HETATM   30  O   UNL     1     -13.929   1.567 -35.080  1.00  0.00    -0.325 OA
HETATM   31  C   UNL     1     -14.870   0.841 -34.422  1.00  0.00     0.142 A 
HETATM   32  C   UNL     1     -14.279   0.010 -33.500  1.00  0.00     0.027 A 
HETATM   33  C   UNL     1     -12.887   0.239 -33.599  1.00  0.00     0.037 A 
ENDBRANCH   6  29
TORSDOF 6
ENDMDL
MODEL 6
REMARK VINA RESULT:      -8.4      3.688      7.629
REMARK  6 active torsions:
REMARK  status: ('A' for Active; 'I' for Inactive)
REMARK    1  A    between atoms: C_2  and  O_3 
REMARK    2  A    between atoms: C_2  and  C_4 
REMARK    3  A    between atoms: C_6  and  N_7 
REMARK       I    between atoms: N_7  and  C_8 
REMARK    4  A    between atoms: C_8  and  C_9 
REMARK    5  A    between atoms: C_12  and  C_13 
REMARK    6  A    between atoms: C_18  and  C_19 
ROOT
HETATM    1  C   UNL     1      -8.044   3.396 -31.298  1.00  0.00     0.096 A 
HETATM    2  C   UNL     1      -7.248   2.310 -30.979  1.00  0.00     0.138 A 
HETATM    3  N   UNL     1      -6.017   2.808 -30.654  1.00  0.00    -0.240 N 
HETATM    4  C   UNL     1      -4.861   1.994 -30.326  1.00  0.00     0.221 C 
HETATM    5  C   UNL     1      -5.306   0.577 -29.915  1.00  0.00     0.068 C 
HETATM    6  C   UNL     1      -6.430  -0.008 -30.792  1.00  0.00     0.143 C 
HETATM    7  N   UNL     1      -7.495   0.980 -30.938  1.00  0.00    -0.363 N 
HETATM    8  N   UNL     1      -5.967   4.149 -30.633  1.00  0.00    -0.181 NA
HETATM    9  C   UNL     1      -7.188   4.502 -31.052  1.00  0.00     0.160 A 
HETATM   10  H   UNL     1      -8.379   0.631 -31.319  1.00  0.00     0.162 HD
ENDROOT
BRANCH   1  11
HETATM   11  C   UNL     1      -9.427   3.326 -31.762  1.00  0.00     0.261 C 
HETATM   12  N   UNL     1      -9.584   2.744 -33.009  1.00  0.00    -0.323 N 
HETATM   13  H   UNL     1      -8.750   2.432 -33.483  1.00  0.00     0.169 HD
HETATM   14  O   UNL     1     -10.342   3.750 -31.062  1.00  0.00    -0.267 OA
BRANCH  12  15
HETATM   15  C   UNL     1     -10.788   2.510 -33.709  1.00  0.00     0.035 A 
HETATM   16  C   UNL     1     -11.770   1.601 -33.304  1.00  0.00     0.039 A 
HETATM   17  C   UNL     1     -12.944   1.412 -34.058  1.00  0.00    -0.028 A 
HETATM   18  C   UNL     1     -13.127   2.164 -35.225  1.00  0.00     0.010 A 
HETATM   19  C   UNL     1     -12.156   3.073 -35.637  1.00  0.00     0.003 A 
HETATM   20  C   UNL     1     -10.994   3.245 -34.883  1.00  0.00     0.029 A 
BRANCH  17  21
HETATM   21  C   UNL     1     -13.993   0.435 -33.573  1.00  0.00     0.147 C 
HETATM   22  C   UNL     1     -15.259   0.514 -34.417  1.00  0.00     0.044 C 
BRANCH  21  23
HETATM   23  O   UNL     1     -13.483  -0.896 -33.620  1.00  0.00    -0.391 OA
HETATM   24  H   UNL     1     -13.800  -1.349 -32.821  1.00  0.00     0.210 HD
ENDBRANCH  21  23
ENDBRANCH  17  21
ENDBRANCH  12  15
ENDBRANCH   1  11
BRANCH   4  25
HETATM   25  C   UNL     1      -3.872   2.022 -31.470  1.00  0.00     0.409 C 
HETATM   26  F   UNL     1      -4.447   2.066 -32.688  1.00  0.00    -0.169 F 
HETATM   27  F   UNL     1      -3.034   3.083 -31.385  1.00  0.00    -0.169 F 
HETATM   28  F   UNL     1      -3.081   0.919 -31.438  1.00  0.00    -0.169 F 
ENDBRANCH   4  25
BRANCH   6  29
HETATM   29  C   UNL     1      -5.938  -0.596 -32.075  1.00  0.00     0.075 A 
HETATM   30  O   UNL     1      -4.793  -1.336 -32.010  1.00  0.00    -0.325 OA
HETATM   31  C   UNL     1      -4.536  -1.784 -33.266  1.00  0.00     0.142 A 
HETATM   32  C   UNL     1      -5.505  -1.352 -34.140  1.00  0.00     0.027 A 
HETATM   33  C   UNL     1      -6.417  -0.592 -33.371  1.00  0.00     0.037 A 
ENDBRANCH   6  29
TORSDOF 6
ENDMDL
MODEL 7
REMARK VINA RESULT:      -8.2      2.170      3.987
REMARK  6 active torsions:
REMARK  status: ('A' for Active; 'I' for Inactive)
REMARK    1  A    between atoms: C_2  and  O_3 
REMARK    2  A    between atoms: C_2  and  C_4 
REMARK    3  A    between atoms: C_6  and  N_7 
REMARK       I    between atoms: N_7  and  C_8 
REMARK    4  A    between atoms: C_8  and  C_9 
REMARK    5  A    between atoms: C_12  and  C_13 
REMARK    6  A    between atoms: C_18  and  C_19 
ROOT
HETATM    1  C   UNL     1      -9.787   1.359 -33.177  1.00  0.00     0.096 A 
HETATM    2  C   UNL     1     -10.266   2.337 -32.323  1.00  0.00     0.138 A 
HETATM    3  N   UNL     1     -11.261   2.991 -32.995  1.00  0.00    -0.240 N 
HETATM    4  C   UNL     1     -11.981   4.141 -32.481  1.00  0.00     0.221 C 
HETATM    5  C   UNL     1     -11.840   4.218 -30.949  1.00  0.00     0.068 C 
HETATM    6  C   UNL     1     -10.421   3.911 -30.432  1.00  0.00     0.143 C 
HETATM    7  N   UNL     1      -9.931   2.687 -31.060  1.00  0.00    -0.363 N 
HETATM    8  N   UNL     1     -11.548   2.452 -34.191  1.00  0.00    -0.181 NA
HETATM    9  C   UNL     1     -10.634   1.482 -34.311  1.00  0.00     0.160 A 
HETATM   10  H   UNL     1      -9.095   2.272 -30.638  1.00  0.00     0.162 HD
ENDROOT
BRANCH   1  11
HETATM   11  C   UNL     1      -8.675   0.455 -32.893  1.00  0.00     0.261 C 
HETATM   12  N   UNL     1      -7.947   0.075 -34.009  1.00  0.00    -0.323 N 
HETATM   13  H   UNL     1      -8.243   0.439 -34.902  1.00  0.00     0.169 HD
HETATM   14  O   UNL     1      -8.437   0.102 -31.742  1.00  0.00    -0.267 OA
BRANCH  12  15
HETATM   15  C   UNL     1      -6.808  -0.759 -34.055  1.00  0.00     0.035 A 
HETATM   16  C   UNL     1      -6.817  -2.079 -34.513  1.00  0.00     0.039 A 
HETATM   17  C   UNL     1      -5.643  -2.857 -34.521  1.00  0.00    -0.028 A 
HETATM   18  C   UNL     1      -4.448  -2.280 -34.073  1.00  0.00     0.010 A 
HETATM   19  C   UNL     1      -4.427  -0.965 -33.616  1.00  0.00     0.003 A 
HETATM   20  C   UNL     1      -5.601  -0.209 -33.608  1.00  0.00     0.029 A 
BRANCH  17  21
HETATM   21  C   UNL     1      -5.691  -4.275 -35.047  1.00  0.00     0.147 C 
HETATM   22  C   UNL     1      -4.731  -5.182 -34.288  1.00  0.00     0.044 C 
BRANCH  21  23
HETATM   23  O   UNL     1      -7.014  -4.796 -34.933  1.00  0.00    -0.391 OA
HETATM   24  H   UNL     1      -7.542  -4.381 -35.635  1.00  0.00     0.210 HD
ENDBRANCH  21  23
ENDBRANCH  17  21
ENDBRANCH  12  15
ENDBRANCH   1  11
BRANCH   4  25
HETATM   25  C   UNL     1     -11.534   5.392 -33.205  1.00  0.00     0.409 C 
HETATM   26  F   UNL     1     -11.615   6.512 -32.460  1.00  0.00    -0.169 F 
HETATM   27  F   UNL     1     -10.255   5.293 -33.640  1.00  0.00    -0.169 F 
HETATM   28  F   UNL     1     -12.291   5.591 -34.315  1.00  0.00    -0.169 F 
ENDBRANCH   4  25
BRANCH   6  29
HETATM   29  C   UNL     1      -9.490   5.077 -30.519  1.00  0.00     0.075 A 
HETATM   30  O   UNL     1      -9.898   6.232 -29.915  1.00  0.00    -0.325 OA
HETATM   31  C   UNL     1      -8.911   7.146 -30.098  1.00  0.00     0.142 A 
HETATM   32  C   UNL     1      -7.867   6.595 -30.802  1.00  0.00     0.027 A 
HETATM   33  C   UNL     1      -8.235   5.256 -31.068  1.00  0.00     0.037 A 
ENDBRANCH   6  29
TORSDOF 6
ENDMDL
MODEL 8
REMARK VINA RESULT:      -7.9      2.513      4.459
REMARK  6 active torsions:
REMARK  status: ('A' for Active; 'I' for Inactive)
REMARK    1  A    between atoms: C_2  and  O_3 
REMARK    2  A    between atoms: C_2  and  C_4 
REMARK    3  A    between atoms: C_6  and  N_7 
REMARK       I    between atoms: N_7  and  C_8 
REMARK    4  A    between atoms: C_8  and  C_9 
REMARK    5  A    between atoms: C_12  and  C_13 
REMARK    6  A    between atoms: C_18  and  C_19 
ROOT
HETATM    1  C   UNL     1      -9.538   1.327 -33.100  1.00  0.00     0.096 A 
HETATM    2  C   UNL     1     -10.084   2.299 -32.281  1.00  0.00     0.138 A 
HETATM    3  N   UNL     1     -11.047   2.934 -33.016  1.00  0.00    -0.240 N 
HETATM    4  C   UNL     1     -11.817   4.073 -32.552  1.00  0.00     0.221 C 
HETATM    5  C   UNL     1     -11.772   4.158 -31.014  1.00  0.00     0.068 C 
HETATM    6  C   UNL     1     -10.383   3.876 -30.410  1.00  0.00     0.143 C 
HETATM    7  N   UNL     1      -9.835   2.659 -31.001  1.00  0.00    -0.363 N 
HETATM    8  N   UNL     1     -11.251   2.386 -34.225  1.00  0.00    -0.181 NA
HETATM    9  C   UNL     1     -10.315   1.432 -34.284  1.00  0.00     0.160 A 
HETATM   10  H   UNL     1      -9.019   2.260 -30.527  1.00  0.00     0.162 HD
ENDROOT
BRANCH   1  11
HETATM   11  C   UNL     1      -8.430   0.444 -32.744  1.00  0.00     0.261 C 
HETATM   12  N   UNL     1      -7.720  -0.049 -33.827  1.00  0.00    -0.323 N 
HETATM   13  H   UNL     1      -8.025   0.230 -34.747  1.00  0.00     0.169 HD
HETATM   14  O   UNL     1      -8.180   0.200 -31.567  1.00  0.00    -0.267 OA
BRANCH  12  15
HETATM   15  C   UNL     1      -6.589  -0.895 -33.807  1.00  0.00     0.035 A 
HETATM   16  C   UNL     1      -5.444  -0.660 -33.041  1.00  0.00     0.039 A 
HETATM   17  C   UNL     1      -4.348  -1.544 -33.078  1.00  0.00    -0.028 A 
HETATM   18  C   UNL     1      -4.425  -2.682 -33.889  1.00  0.00     0.010 A 
HETATM   19  C   UNL     1      -5.561  -2.928 -34.655  1.00  0.00     0.003 A 
HETATM   20  C   UNL     1      -6.638  -2.039 -34.613  1.00  0.00     0.029 A 
BRANCH  17  21
HETATM   21  C   UNL     1      -3.136  -1.265 -32.215  1.00  0.00     0.147 C 
HETATM   22  C   UNL     1      -3.434  -0.207 -31.161  1.00  0.00     0.044 C 
BRANCH  21  23
HETATM   23  O   UNL     1      -2.711  -2.463 -31.566  1.00  0.00    -0.391 OA
HETATM   24  H   UNL     1      -1.853  -2.704 -31.953  1.00  0.00     0.210 HD
ENDBRANCH  21  23
ENDBRANCH  17  21
ENDBRANCH  12  15
ENDBRANCH   1  11
BRANCH   4  25
HETATM   25  C   UNL     1     -11.348   5.329 -33.253  1.00  0.00     0.409 C 
HETATM   26  F   UNL     1     -11.553   6.458 -32.545  1.00  0.00    -0.169 F 
HETATM   27  F   UNL     1     -10.027   5.278 -33.549  1.00  0.00    -0.169 F 
HETATM   28  F   UNL     1     -11.991   5.476 -34.440  1.00  0.00    -0.169 F 
ENDBRANCH   4  25
BRANCH   6  29
HETATM   29  C   UNL     1      -9.468   5.058 -30.444  1.00  0.00     0.075 A 
HETATM   30  O   UNL     1      -8.263   4.881 -31.060  1.00  0.00    -0.325 OA
HETATM   31  C   UNL     1      -7.603   6.066 -30.993  1.00  0.00     0.142 A 
HETATM   32  C   UNL     1      -8.371   7.009 -30.352  1.00  0.00     0.027 A 
HETATM   33  C   UNL     1      -9.579   6.362 -30.004  1.00  0.00     0.037 A 
ENDBRANCH   6  29
TORSDOF 6
ENDMDL
MODEL 9
REMARK VINA RESULT:      -7.9      4.784      7.320
REMARK  6 active torsions:
REMARK  status: ('A' for Active; 'I' for Inactive)
REMARK    1  A    between atoms: C_2  and  O_3 
REMARK    2  A    between atoms: C_2  and  C_4 
REMARK    3  A    between atoms: C_6  and  N_7 
REMARK       I    between atoms: N_7  and  C_8 
REMARK    4  A    between atoms: C_8  and  C_9 
REMARK    5  A    between atoms: C_12  and  C_13 
REMARK    6  A    between atoms: C_18  and  C_19 
ROOT
HETATM    1  C   UNL     1      -7.089   3.897 -32.805  1.00  0.00     0.096 A 
HETATM    2  C   UNL     1      -7.254   2.757 -33.571  1.00  0.00     0.138 A 
HETATM    3  N   UNL     1      -8.465   2.225 -33.227  1.00  0.00    -0.240 N 
HETATM    4  C   UNL     1      -8.993   0.978 -33.749  1.00  0.00     0.221 C 
HETATM    5  C   UNL     1      -8.276   0.601 -35.059  1.00  0.00     0.068 C 
HETATM    6  C   UNL     1      -6.753   0.836 -35.032  1.00  0.00     0.143 C 
HETATM    7  N   UNL     1      -6.477   2.172 -34.512  1.00  0.00    -0.363 N 
HETATM    8  N   UNL     1      -9.162   2.984 -32.366  1.00  0.00    -0.181 NA
HETATM    9  C   UNL     1      -8.314   3.981 -32.089  1.00  0.00     0.160 A 
HETATM   10  H   UNL     1      -5.521   2.515 -34.646  1.00  0.00     0.162 HD
ENDROOT
BRANCH   1  11
HETATM   11  C   UNL     1      -5.906   4.754 -32.801  1.00  0.00     0.261 C 
HETATM   12  N   UNL     1      -4.737   4.114 -32.422  1.00  0.00    -0.323 N 
HETATM   13  H   UNL     1      -4.801   3.138 -32.179  1.00  0.00     0.169 HD
HETATM   14  O   UNL     1      -5.989   5.934 -33.130  1.00  0.00    -0.267 OA
BRANCH  12  15
HETATM   15  C   UNL     1      -3.437   4.661 -32.349  1.00  0.00     0.035 A 
HETATM   16  C   UNL     1      -2.870   5.193 -31.187  1.00  0.00     0.039 A 
HETATM   17  C   UNL     1      -1.569   5.732 -31.191  1.00  0.00    -0.028 A 
HETATM   18  C   UNL     1      -0.834   5.716 -32.382  1.00  0.00     0.010 A 
HETATM   19  C   UNL     1      -1.388   5.188 -33.546  1.00  0.00     0.003 A 
HETATM   20  C   UNL     1      -2.682   4.663 -33.529  1.00  0.00     0.029 A 
BRANCH  17  21
HETATM   21  C   UNL     1      -0.984   6.276 -29.905  1.00  0.00     0.147 C 
HETATM   22  C   UNL     1       0.341   5.603 -29.569  1.00  0.00     0.044 C 
BRANCH  21  23
HETATM   23  O   UNL     1      -0.777   7.683 -30.018  1.00  0.00    -0.391 OA
HETATM   24  H   UNL     1      -0.716   7.884 -30.967  1.00  0.00     0.210 HD
ENDBRANCH  21  23
ENDBRANCH  17  21
ENDBRANCH  12  15
ENDBRANCH   1  11
BRANCH   4  25
HETATM   25  C   UNL     1      -8.930  -0.092 -32.682  1.00  0.00     0.409 C 
HETATM   26  F   UNL     1      -8.021   0.152 -31.718  1.00  0.00    -0.169 F 
HETATM   27  F   UNL     1     -10.126  -0.264 -32.069  1.00  0.00    -0.169 F 
HETATM   28  F   UNL     1      -8.619  -1.292 -33.235  1.00  0.00    -0.169 F 
ENDBRANCH   4  25
BRANCH   6  29
HETATM   29  C   UNL     1      -5.993  -0.266 -34.366  1.00  0.00     0.075 A 
HETATM   30  O   UNL     1      -6.123  -1.513 -34.908  1.00  0.00    -0.325 OA
HETATM   31  C   UNL     1      -5.348  -2.350 -34.170  1.00  0.00     0.142 A 
HETATM   32  C   UNL     1      -4.712  -1.659 -33.167  1.00  0.00     0.027 A 
HETATM   33  C   UNL     1      -5.121  -0.311 -33.296  1.00  0.00     0.037 A 
ENDBRANCH   6  29
TORSDOF 6
ENDMDL
MODEL 10
REMARK VINA RESULT:      -7.8      4.558      7.326
REMARK  6 active torsions:
REMARK  status: ('A' for Active; 'I' for Inactive)
REMARK    1  A    between atoms: C_2  and  O_3 
REMARK    2  A    between atoms: C_2  and  C_4 
REMARK    3  A    between atoms: C_6  and  N_7 
REMARK       I    between atoms: N_7  and  C_8 
REMARK    4  A    between atoms: C_8  and  C_9 
REMARK    5  A    between atoms: C_12  and  C_13 
REMARK    6  A    between atoms: C_18  and  C_19 
ROOT
HETATM    1  C   UNL     1      -7.880   4.061 -32.791  1.00  0.00     0.096 A 
HETATM    2  C   UNL     1      -7.703   2.898 -33.519  1.00  0.00     0.138 A 
HETATM    3  N   UNL     1      -8.862   2.183 -33.403  1.00  0.00    -0.240 N 
HETATM    4  C   UNL     1      -9.070   0.859 -33.961  1.00  0.00     0.221 C 
HETATM    5  C   UNL     1      -8.046   0.583 -35.078  1.00  0.00     0.068 C 
HETATM    6  C   UNL     1      -6.618   1.060 -34.752  1.00  0.00     0.143 C 
HETATM    7  N   UNL     1      -6.666   2.431 -34.252  1.00  0.00    -0.363 N 
HETATM    8  N   UNL     1      -9.832   2.832 -32.740  1.00  0.00    -0.181 NA
HETATM    9  C   UNL     1      -9.224   3.957 -32.345  1.00  0.00     0.160 A 
HETATM   10  H   UNL     1      -5.768   2.921 -34.205  1.00  0.00     0.162 HD
ENDROOT
BRANCH   1  11
HETATM   11  C   UNL     1      -6.870   5.097 -32.588  1.00  0.00     0.261 C 
HETATM   12  N   UNL     1      -5.686   4.642 -32.032  1.00  0.00    -0.323 N 
HETATM   13  H   UNL     1      -5.625   3.659 -31.812  1.00  0.00     0.169 HD
HETATM   14  O   UNL     1      -7.095   6.260 -32.914  1.00  0.00    -0.267 OA
BRANCH  12  15
HETATM   15  C   UNL     1      -4.522   5.389 -31.745  1.00  0.00     0.035 A 
HETATM   16  C   UNL     1      -3.532   5.696 -32.682  1.00  0.00     0.039 A 
HETATM   17  C   UNL     1      -2.391   6.438 -32.321  1.00  0.00    -0.028 A 
HETATM   18  C   UNL     1      -2.265   6.884 -31.000  1.00  0.00     0.010 A 
HETATM   19  C   UNL     1      -3.246   6.585 -30.057  1.00  0.00     0.003 A 
HETATM   20  C   UNL     1      -4.368   5.842 -30.429  1.00  0.00     0.029 A 
BRANCH  17  21
HETATM   21  C   UNL     1      -1.354   6.770 -33.372  1.00  0.00     0.147 C 
HETATM   22  C   UNL     1      -1.315   5.712 -34.468  1.00  0.00     0.044 C 
BRANCH  21  23
HETATM   23  O   UNL     1      -1.639   8.039 -33.958  1.00  0.00    -0.391 OA
HETATM   24  H   UNL     1      -0.917   8.637 -33.701  1.00  0.00     0.210 HD
ENDBRANCH  21  23
ENDBRANCH  17  21
ENDBRANCH  12  15
ENDBRANCH   1  11
BRANCH   4  25
HETATM   25  C   UNL     1      -9.067  -0.170 -32.852  1.00  0.00     0.409 C 
HETATM   26  F   UNL     1     -10.294  -0.472 -32.384  1.00  0.00    -0.169 F 
HETATM   27  F   UNL     1      -8.492  -1.332 -33.245  1.00  0.00    -0.169 F 
HETATM   28  F   UNL     1      -8.332   0.272 -31.800  1.00  0.00    -0.169 F 
ENDBRANCH   4  25
BRANCH   6  29
HETATM   29  C   UNL     1      -5.852   0.105 -33.893  1.00  0.00     0.075 A 
HETATM   30  O   UNL     1      -5.468   0.560 -32.664  1.00  0.00    -0.325 OA
HETATM   31  C   UNL     1      -4.809  -0.457 -32.051  1.00  0.00     0.142 A 
HETATM   32  C   UNL     1      -4.772  -1.566 -32.863  1.00  0.00     0.027 A 
HETATM   33  C   UNL     1      -5.452  -1.207 -34.050  1.00  0.00     0.037 A 
ENDBRANCH   6  29
TORSDOF 6
ENDMDL
