MODEL 1
REMARK VINA RESULT:      -8.2      0.000      0.000
REMARK  8 active torsions:
REMARK  status: ('A' for Active; 'I' for Inactive)
REMARK    1  A    between atoms: C_2  and  C_3 
REMARK    2  A    between atoms: C_3  and  O_4 
REMARK    3  A    between atoms: O_4  and  C_5 
REMARK    4  A    between atoms: C_6  and  C_7 
REMARK    5  A    between atoms: C_11  and  C_12 
REMARK       I    between atoms: C_12  and  N_13 
REMARK    6  A    between atoms: N_13  and  N_14 
REMARK    7  A    between atoms: C_15  and  C_16 
REMARK    8  A    between atoms: C_18  and  O_19 
ROOT
HETATM    1  C   UNL     1      -7.127  -1.118 -34.472  1.00  0.00     0.092 A 
HETATM    2  N   UNL     1      -7.074  -0.222 -35.467  1.00  0.00    -0.174 NA
HETATM    3  N   UNL     1      -7.960   0.721 -35.114  1.00  0.00    -0.272 N 
HETATM    4  H   UNL     1      -8.111   1.512 -35.735  1.00  0.00     0.189 HD
HETATM    5  C   UNL     1      -8.542   0.521 -33.892  1.00  0.00     0.121 A 
HETATM    6  C   UNL     1      -8.035  -0.690 -33.463  1.00  0.00     0.071 A 
ENDROOT
BRANCH   5   7
HETATM    7  C   UNL     1      -9.456   1.484 -33.329  1.00  0.00     0.289 C 
HETATM    8  N   UNL     1     -10.644   1.630 -34.033  1.00  0.00    -0.242 N 
HETATM    9  H   UNL     1     -10.814   1.081 -34.864  1.00  0.00     0.192 HD
HETATM   10  O   UNL     1      -9.186   2.088 -32.294  1.00  0.00    -0.264 OA
BRANCH   8  11
HETATM   11  N   UNL     1     -11.637   2.432 -33.547  1.00  0.00    -0.184 NA
HETATM   12  C   UNL     1     -12.793   1.866 -33.405  1.00  0.00     0.150 C 
BRANCH  12  13
HETATM   13  C   UNL     1     -13.953   2.602 -32.864  1.00  0.00    -0.014 A 
HETATM   14  C   UNL     1     -15.197   1.977 -32.742  1.00  0.00     0.049 A 
HETATM   15  C   UNL     1     -16.272   2.705 -32.243  1.00  0.00     0.066 A 
HETATM   16  C   UNL     1     -16.124   4.036 -31.867  1.00  0.00     0.036 A 
HETATM   17  C   UNL     1     -14.879   4.656 -31.989  1.00  0.00     0.004 A 
HETATM   18  C   UNL     1     -13.789   3.940 -32.488  1.00  0.00     0.013 A 
BRANCH  15  19
HETATM   19  O   UNL     1     -17.507   2.142 -32.107  1.00  0.00    -0.361 OA
HETATM   20  H   UNL     1     -17.800   2.257 -31.187  1.00  0.00     0.217 HD
ENDBRANCH  15  19
ENDBRANCH  12  13
ENDBRANCH   8  11
ENDBRANCH   5   7
BRANCH   1  21
HETATM   21  C   UNL     1      -6.282  -2.312 -34.439  1.00  0.00     0.028 A 
HETATM   22  C   UNL     1      -4.946  -2.285 -33.994  1.00  0.00     0.081 A 
HETATM   23  C   UNL     1      -4.196  -3.470 -34.003  1.00  0.00     0.038 A 
HETATM   24  C   UNL     1      -4.765  -4.673 -34.431  1.00  0.00     0.003 A 
HETATM   25  C   UNL     1      -6.087  -4.704 -34.864  1.00  0.00     0.001 A 
HETATM   26  C   UNL     1      -6.840  -3.530 -34.869  1.00  0.00     0.017 A 
BRANCH  22  27
HETATM   27  O   UNL     1      -4.415  -1.071 -33.634  1.00  0.00    -0.350 OA
BRANCH  27  28
HETATM   28  C   UNL     1      -3.970  -0.948 -32.283  1.00  0.00     0.175 C 
BRANCH  28  29
HETATM   29  C   UNL     1      -4.891   0.036 -31.566  1.00  0.00     0.022 C 
HETATM   30  C   UNL     1      -5.122   1.291 -32.390  1.00  0.00     0.007 C 
ENDBRANCH  28  29
ENDBRANCH  27  28
ENDBRANCH  22  27
ENDBRANCH   1  21
TORSDOF 8
ENDMDL
MODEL 2
REMARK VINA RESULT:      -7.8      5.846      9.815
REMARK  8 active torsions:
REMARK  status: ('A' for Active; 'I' for Inactive)
REMARK    1  A    between atoms: C_2  and  C_3 
REMARK    2  A    between atoms: C_3  and  O_4 
REMARK    3  A    between atoms: O_4  and  C_5 
REMARK    4  A    between atoms: C_6  and  C_7 
REMARK    5  A    between atoms: C_11  and  C_12 
REMARK       I    between atoms: C_12  and  N_13 
REMARK    6  A    between atoms: N_13  and  N_14 
REMARK    7  A    between atoms: C_15  and  C_16 
REMARK    8  A    between atoms: C_18  and  O_19 
ROOT
HETATM    1  C   UNL     1      -4.359   5.350 -31.424  1.00  0.00     0.092 A 
HETATM    2  N   UNL     1      -5.683   5.490 -31.571  1.00  0.00    -0.174 NA
HETATM    3  N   UNL     1      -6.125   4.249 -31.824  1.00  0.00    -0.272 N 
HETATM    4  H   UNL     1      -7.116   4.103 -31.993  1.00  0.00     0.189 HD
HETATM    5  C   UNL     1      -5.155   3.284 -31.778  1.00  0.00     0.121 A 
HETATM    6  C   UNL     1      -3.986   3.981 -31.545  1.00  0.00     0.071 A 
ENDROOT
BRANCH   5   7
HETATM    7  C   UNL     1      -5.476   1.888 -31.948  1.00  0.00     0.289 C 
HETATM    8  N   UNL     1      -4.504   1.150 -32.611  1.00  0.00    -0.242 N 
HETATM    9  H   UNL     1      -3.654   1.596 -32.927  1.00  0.00     0.192 HD
HETATM   10  O   UNL     1      -6.519   1.417 -31.504  1.00  0.00    -0.264 OA
BRANCH   8  11
HETATM   11  N   UNL     1      -4.638  -0.202 -32.742  1.00  0.00    -0.184 NA
HETATM   12  C   UNL     1      -5.174  -0.606 -33.849  1.00  0.00     0.150 C 
BRANCH  12  13
HETATM   13  C   UNL     1      -5.357  -2.041 -34.143  1.00  0.00    -0.014 A 
HETATM   14  C   UNL     1      -4.298  -2.940 -33.985  1.00  0.00     0.049 A 
HETATM   15  C   UNL     1      -4.501  -4.282 -34.285  1.00  0.00     0.066 A 
HETATM   16  C   UNL     1      -5.737  -4.737 -34.735  1.00  0.00     0.036 A 
HETATM   17  C   UNL     1      -6.793  -3.836 -34.890  1.00  0.00     0.004 A 
HETATM   18  C   UNL     1      -6.606  -2.485 -34.593  1.00  0.00     0.013 A 
BRANCH  15  19
HETATM   19  O   UNL     1      -3.500  -5.199 -34.151  1.00  0.00    -0.361 OA
HETATM   20  H   UNL     1      -2.725  -4.757 -33.764  1.00  0.00     0.217 HD
ENDBRANCH  15  19
ENDBRANCH  12  13
ENDBRANCH   8  11
ENDBRANCH   5   7
BRANCH   1  21
HETATM   21  C   UNL     1      -3.478   6.471 -31.099  1.00  0.00     0.028 A 
HETATM   22  C   UNL     1      -2.915   7.306 -32.083  1.00  0.00     0.081 A 
HETATM   23  C   UNL     1      -2.070   8.355 -31.690  1.00  0.00     0.038 A 
HETATM   24  C   UNL     1      -1.798   8.586 -30.339  1.00  0.00     0.003 A 
HETATM   25  C   UNL     1      -2.358   7.767 -29.365  1.00  0.00     0.001 A 
HETATM   26  C   UNL     1      -3.192   6.715 -29.742  1.00  0.00     0.017 A 
BRANCH  22  27
HETATM   27  O   UNL     1      -3.169   7.007 -33.398  1.00  0.00    -0.350 OA
BRANCH  27  28
HETATM   28  C   UNL     1      -2.050   6.589 -34.181  1.00  0.00     0.175 C 
BRANCH  28  29
HETATM   29  C   UNL     1      -2.360   5.210 -34.755  1.00  0.00     0.022 C 
HETATM   30  C   UNL     1      -3.807   5.100 -35.204  1.00  0.00     0.007 C 
ENDBRANCH  28  29
ENDBRANCH  27  28
ENDBRANCH  22  27
ENDBRANCH   1  21
TORSDOF 8
ENDMDL
MODEL 3
REMARK VINA RESULT:      -7.8      6.796     10.525
REMARK  8 active torsions:
REMARK  status: ('A' for Active; 'I' for Inactive)
REMARK    1  A    between atoms: C_2  and  C_3 
REMARK    2  A    between atoms: C_3  and  O_4 
REMARK    3  A    between atoms: O_4  and  C_5 
REMARK    4  A    between atoms: C_6  and  C_7 
REMARK    5  A    between atoms: C_11  and  C_12 
REMARK       I    between atoms: C_12  and  N_13 
REMARK    6  A    between atoms: N_13  and  N_14 
REMARK    7  A    between atoms: C_15  and  C_16 
REMARK    8  A    between atoms: C_18  and  O_19 
ROOT
HETATM    1  C   UNL     1      -4.694   2.115 -32.238  1.00  0.00     0.092 A 
HETATM    2  N   UNL     1      -5.153   2.579 -31.068  1.00  0.00    -0.174 NA
HETATM    3  N   UNL     1      -4.221   3.456 -30.666  1.00  0.00    -0.272 N 
HETATM    4  H   UNL     1      -4.342   3.932 -29.777  1.00  0.00     0.189 HD
HETATM    5  C   UNL     1      -3.200   3.642 -31.559  1.00  0.00     0.121 A 
HETATM    6  C   UNL     1      -3.471   2.758 -32.584  1.00  0.00     0.071 A 
ENDROOT
BRANCH   5   7
HETATM    7  C   UNL     1      -2.158   4.610 -31.316  1.00  0.00     0.289 C 
HETATM    8  N   UNL     1      -2.499   5.608 -30.413  1.00  0.00    -0.242 N 
HETATM    9  H   UNL     1      -3.413   5.614 -29.981  1.00  0.00     0.192 HD
HETATM   10  O   UNL     1      -1.061   4.513 -31.859  1.00  0.00    -0.264 OA
BRANCH   8  11
HETATM   11  N   UNL     1      -1.567   6.524 -30.017  1.00  0.00    -0.184 NA
HETATM   12  C   UNL     1      -1.644   6.902 -28.781  1.00  0.00     0.150 C 
BRANCH  12  13
HETATM   13  C   UNL     1      -0.686   7.867 -28.205  1.00  0.00    -0.014 A 
HETATM   14  C   UNL     1      -1.140   8.986 -27.502  1.00  0.00     0.049 A 
HETATM   15  C   UNL     1      -0.211   9.882 -26.986  1.00  0.00     0.066 A 
HETATM   16  C   UNL     1       1.154   9.678 -27.160  1.00  0.00     0.036 A 
HETATM   17  C   UNL     1       1.604   8.558 -27.861  1.00  0.00     0.004 A 
HETATM   18  C   UNL     1       0.684   7.648 -28.386  1.00  0.00     0.013 A 
BRANCH  15  19
HETATM   19  O   UNL     1      -0.602  10.991 -26.294  1.00  0.00    -0.361 OA
HETATM   20  H   UNL     1       0.129  11.270 -25.717  1.00  0.00     0.217 HD
ENDBRANCH  15  19
ENDBRANCH  12  13
ENDBRANCH   8  11
ENDBRANCH   5   7
BRANCH   1  21
HETATM   21  C   UNL     1      -5.433   1.147 -33.048  1.00  0.00     0.028 A 
HETATM   22  C   UNL     1      -5.294  -0.244 -32.884  1.00  0.00     0.081 A 
HETATM   23  C   UNL     1      -6.030  -1.109 -33.708  1.00  0.00     0.038 A 
HETATM   24  C   UNL     1      -6.905  -0.604 -34.673  1.00  0.00     0.003 A 
HETATM   25  C   UNL     1      -7.050   0.770 -34.833  1.00  0.00     0.001 A 
HETATM   26  C   UNL     1      -6.317   1.640 -34.026  1.00  0.00     0.017 A 
BRANCH  22  27
HETATM   27  O   UNL     1      -4.383  -0.693 -31.960  1.00  0.00    -0.350 OA
BRANCH  27  28
HETATM   28  C   UNL     1      -3.225  -1.350 -32.478  1.00  0.00     0.175 C 
BRANCH  28  29
HETATM   29  C   UNL     1      -3.157  -2.746 -31.866  1.00  0.00     0.022 C 
HETATM   30  C   UNL     1      -3.425  -3.826 -32.900  1.00  0.00     0.007 C 
ENDBRANCH  28  29
ENDBRANCH  27  28
ENDBRANCH  22  27
ENDBRANCH   1  21
TORSDOF 8
ENDMDL
MODEL 4
REMARK VINA RESULT:      -7.7      6.323     10.106
REMARK  8 active torsions:
REMARK  status: ('A' for Active; 'I' for Inactive)
REMARK    1  A    between atoms: C_2  and  C_3 
REMARK    2  A    between atoms: C_3  and  O_4 
REMARK    3  A    between atoms: O_4  and  C_5 
REMARK    4  A    between atoms: C_6  and  C_7 
REMARK    5  A    between atoms: C_11  and  C_12 
REMARK       I    between atoms: C_12  and  N_13 
REMARK    6  A    between atoms: N_13  and  N_14 
REMARK    7  A    between atoms: C_15  and  C_16 
REMARK    8  A    between atoms: C_18  and  O_19 
ROOT
HETATM    1  C   UNL     1      -1.945   4.807 -31.587  1.00  0.00     0.092 A 
HETATM    2  N   UNL     1      -1.775   4.802 -32.916  1.00  0.00    -0.174 NA
HETATM    3  N   UNL     1      -2.515   3.768 -33.344  1.00  0.00    -0.272 N 
HETATM    4  H   UNL     1      -2.529   3.550 -34.337  1.00  0.00     0.189 HD
HETATM    5  C   UNL     1      -3.223   3.136 -32.359  1.00  0.00     0.121 A 
HETATM    6  C   UNL     1      -2.848   3.778 -31.196  1.00  0.00     0.071 A 
ENDROOT
BRANCH   5   7
HETATM    7  C   UNL     1      -4.131   2.056 -32.662  1.00  0.00     0.289 C 
HETATM    8  N   UNL     1      -3.572   0.789 -32.559  1.00  0.00    -0.242 N 
HETATM    9  H   UNL     1      -2.605   0.679 -32.286  1.00  0.00     0.192 HD
HETATM   10  O   UNL     1      -5.303   2.273 -32.956  1.00  0.00    -0.264 OA
BRANCH   8  11
HETATM   11  N   UNL     1      -4.351  -0.321 -32.718  1.00  0.00    -0.184 NA
HETATM   12  C   UNL     1      -4.191  -0.963 -33.830  1.00  0.00     0.150 C 
BRANCH  12  13
HETATM   13  C   UNL     1      -4.946  -2.197 -34.128  1.00  0.00    -0.014 A 
HETATM   14  C   UNL     1      -4.304  -3.439 -34.134  1.00  0.00     0.049 A 
HETATM   15  C   UNL     1      -5.042  -4.578 -34.434  1.00  0.00     0.066 A 
HETATM   16  C   UNL     1      -6.401  -4.496 -34.724  1.00  0.00     0.036 A 
HETATM   17  C   UNL     1      -7.038  -3.254 -34.716  1.00  0.00     0.004 A 
HETATM   18  C   UNL     1      -6.312  -2.100 -34.417  1.00  0.00     0.013 A 
BRANCH  15  19
HETATM   19  O   UNL     1      -4.463  -5.813 -34.455  1.00  0.00    -0.361 OA
HETATM   20  H   UNL     1      -4.804  -6.328 -33.704  1.00  0.00     0.217 HD
ENDBRANCH  15  19
ENDBRANCH  12  13
ENDBRANCH   8  11
ENDBRANCH   5   7
BRANCH   1  21
HETATM   21  C   UNL     1      -1.331   5.810 -30.716  1.00  0.00     0.028 A 
HETATM   22  C   UNL     1      -1.887   7.088 -30.519  1.00  0.00     0.081 A 
HETATM   23  C   UNL     1      -1.232   7.998 -29.677  1.00  0.00     0.038 A 
HETATM   24  C   UNL     1      -0.048   7.643 -29.024  1.00  0.00     0.003 A 
HETATM   25  C   UNL     1       0.500   6.379 -29.211  1.00  0.00     0.001 A 
HETATM   26  C   UNL     1      -0.137   5.468 -30.054  1.00  0.00     0.017 A 
BRANCH  22  27
HETATM   27  O   UNL     1      -3.021   7.408 -31.223  1.00  0.00    -0.350 OA
BRANCH  27  28
HETATM   28  C   UNL     1      -4.139   7.859 -30.457  1.00  0.00     0.175 C 
BRANCH  28  29
HETATM   29  C   UNL     1      -4.858   6.634 -29.898  1.00  0.00     0.022 C 
HETATM   30  C   UNL     1      -4.669   6.509 -28.396  1.00  0.00     0.007 C 
ENDBRANCH  28  29
ENDBRANCH  27  28
ENDBRANCH  22  27
ENDBRANCH   1  21
TORSDOF 8
ENDMDL
MODEL 5
REMARK VINA RESULT:      -7.6      1.674      2.174
REMARK  8 active torsions:
REMARK  status: ('A' for Active; 'I' for Inactive)
REMARK    1  A    between atoms: C_2  and  C_3 
REMARK    2  A    between atoms: C_3  and  O_4 
REMARK    3  A    between atoms: O_4  and  C_5 
REMARK    4  A    between atoms: C_6  and  C_7 
REMARK    5  A    between atoms: C_11  and  C_12 
REMARK       I    between atoms: C_12  and  N_13 
REMARK    6  A    between atoms: N_13  and  N_14 
REMARK    7  A    between atoms: C_15  and  C_16 
REMARK    8  A    between atoms: C_18  and  O_19 
ROOT
HETATM    1  C   UNL     1      -8.178  -0.036 -33.260  1.00  0.00     0.092 A 
HETATM    2  N   UNL     1      -8.668   0.019 -32.014  1.00  0.00    -0.174 NA
HETATM    3  N   UNL     1      -9.768   0.779 -32.121  1.00  0.00    -0.272 N 
HETATM    4  H   UNL     1     -10.310   0.982 -31.285  1.00  0.00     0.189 HD
HETATM    5  C   UNL     1     -10.063   1.168 -33.399  1.00  0.00     0.121 A 
HETATM    6  C   UNL     1      -9.024   0.671 -34.161  1.00  0.00     0.071 A 
ENDROOT
BRANCH   5   7
HETATM    7  C   UNL     1     -11.256   1.922 -33.698  1.00  0.00     0.289 C 
HETATM    8  N   UNL     1     -12.427   1.368 -33.197  1.00  0.00    -0.242 N 
HETATM    9  H   UNL     1     -12.398   0.508 -32.668  1.00  0.00     0.192 HD
HETATM   10  O   UNL     1     -11.201   2.978 -34.321  1.00  0.00    -0.264 OA
BRANCH   8  11
HETATM   11  N   UNL     1     -13.611   2.038 -33.319  1.00  0.00    -0.184 NA
HETATM   12  C   UNL     1     -14.199   2.341 -32.207  1.00  0.00     0.150 C 
BRANCH  12  13
HETATM   13  C   UNL     1     -15.472   3.089 -32.183  1.00  0.00    -0.014 A 
HETATM   14  C   UNL     1     -16.683   2.441 -32.444  1.00  0.00     0.049 A 
HETATM   15  C   UNL     1     -17.861   3.178 -32.429  1.00  0.00     0.066 A 
HETATM   16  C   UNL     1     -17.848   4.543 -32.157  1.00  0.00     0.036 A 
HETATM   17  C   UNL     1     -16.637   5.186 -31.895  1.00  0.00     0.004 A 
HETATM   18  C   UNL     1     -15.445   4.461 -31.907  1.00  0.00     0.013 A 
BRANCH  15  19
HETATM   19  O   UNL     1     -19.068   2.594 -32.679  1.00  0.00    -0.361 OA
HETATM   20  H   UNL     1     -19.722   3.293 -32.848  1.00  0.00     0.217 HD
ENDBRANCH  15  19
ENDBRANCH  12  13
ENDBRANCH   8  11
ENDBRANCH   5   7
BRANCH   1  21
HETATM   21  C   UNL     1      -6.981  -0.805 -33.605  1.00  0.00     0.028 A 
HETATM   22  C   UNL     1      -5.678  -0.334 -33.357  1.00  0.00     0.081 A 
HETATM   23  C   UNL     1      -4.581  -1.126 -33.727  1.00  0.00     0.038 A 
HETATM   24  C   UNL     1      -4.770  -2.377 -34.320  1.00  0.00     0.003 A 
HETATM   25  C   UNL     1      -6.057  -2.848 -34.559  1.00  0.00     0.001 A 
HETATM   26  C   UNL     1      -7.156  -2.066 -34.205  1.00  0.00     0.017 A 
BRANCH  22  27
HETATM   27  O   UNL     1      -5.542   0.923 -32.821  1.00  0.00    -0.350 OA
BRANCH  27  28
HETATM   28  C   UNL     1      -4.617   1.056 -31.741  1.00  0.00     0.175 C 
BRANCH  28  29
HETATM   29  C   UNL     1      -5.323   0.635 -30.456  1.00  0.00     0.022 C 
HETATM   30  C   UNL     1      -6.282   1.706 -29.965  1.00  0.00     0.007 C 
ENDBRANCH  28  29
ENDBRANCH  27  28
ENDBRANCH  22  27
ENDBRANCH   1  21
TORSDOF 8
ENDMDL
MODEL 6
REMARK VINA RESULT:      -7.6      6.423      9.940
REMARK  8 active torsions:
REMARK  status: ('A' for Active; 'I' for Inactive)
REMARK    1  A    between atoms: C_2  and  C_3 
REMARK    2  A    between atoms: C_3  and  O_4 
REMARK    3  A    between atoms: O_4  and  C_5 
REMARK    4  A    between atoms: C_6  and  C_7 
REMARK    5  A    between atoms: C_11  and  C_12 
REMARK       I    between atoms: C_12  and  N_13 
REMARK    6  A    between atoms: N_13  and  N_14 
REMARK    7  A    between atoms: C_15  and  C_16 
REMARK    8  A    between atoms: C_18  and  O_19 
ROOT
HETATM    1  C   UNL     1      -3.974   4.849 -31.007  1.00  0.00     0.092 A 
HETATM    2  N   UNL     1      -5.061   4.648 -30.250  1.00  0.00    -0.174 NA
HETATM    3  N   UNL     1      -5.321   3.339 -30.378  1.00  0.00    -0.272 N 
HETATM    4  H   UNL     1      -6.127   2.946 -29.900  1.00  0.00     0.189 HD
HETATM    5  C   UNL     1      -4.406   2.653 -31.131  1.00  0.00     0.121 A 
HETATM    6  C   UNL     1      -3.530   3.622 -31.577  1.00  0.00     0.071 A 
ENDROOT
BRANCH   5   7
HETATM    7  C   UNL     1      -4.494   1.223 -31.301  1.00  0.00     0.289 C 
HETATM    8  N   UNL     1      -5.605   0.796 -32.015  1.00  0.00    -0.242 N 
HETATM    9  H   UNL     1      -6.269   1.467 -32.373  1.00  0.00     0.192 HD
HETATM   10  O   UNL     1      -3.624   0.476 -30.861  1.00  0.00    -0.264 OA
BRANCH   8  11
HETATM   11  N   UNL     1      -5.750  -0.524 -32.336  1.00  0.00    -0.184 NA
HETATM   12  C   UNL     1      -5.340  -0.861 -33.516  1.00  0.00     0.150 C 
BRANCH  12  13
HETATM   13  C   UNL     1      -5.408  -2.258 -33.990  1.00  0.00    -0.014 A 
HETATM   14  C   UNL     1      -4.309  -3.110 -33.852  1.00  0.00     0.049 A 
HETATM   15  C   UNL     1      -4.403  -4.415 -34.323  1.00  0.00     0.066 A 
HETATM   16  C   UNL     1      -5.570  -4.877 -34.925  1.00  0.00     0.036 A 
HETATM   17  C   UNL     1      -6.666  -4.023 -35.059  1.00  0.00     0.004 A 
HETATM   18  C   UNL     1      -6.589  -2.710 -34.592  1.00  0.00     0.013 A 
BRANCH  15  19
HETATM   19  O   UNL     1      -3.359  -5.285 -34.215  1.00  0.00    -0.361 OA
HETATM   20  H   UNL     1      -2.593  -4.807 -33.854  1.00  0.00     0.217 HD
ENDBRANCH  15  19
ENDBRANCH  12  13
ENDBRANCH   8  11
ENDBRANCH   5   7
BRANCH   1  21
HETATM   21  C   UNL     1      -3.325   6.155 -31.125  1.00  0.00     0.028 A 
HETATM   22  C   UNL     1      -1.925   6.310 -31.127  1.00  0.00     0.081 A 
HETATM   23  C   UNL     1      -1.378   7.598 -31.232  1.00  0.00     0.038 A 
HETATM   24  C   UNL     1      -2.206   8.718 -31.351  1.00  0.00     0.003 A 
HETATM   25  C   UNL     1      -3.588   8.567 -31.357  1.00  0.00     0.001 A 
HETATM   26  C   UNL     1      -4.144   7.293 -31.243  1.00  0.00     0.017 A 
BRANCH  22  27
HETATM   27  O   UNL     1      -1.156   5.186 -30.954  1.00  0.00    -0.350 OA
BRANCH  27  28
HETATM   28  C   UNL     1       0.259   5.374 -30.994  1.00  0.00     0.175 C 
BRANCH  28  29
HETATM   29  C   UNL     1       0.850   4.822 -29.699  1.00  0.00     0.022 C 
HETATM   30  C   UNL     1       0.647   5.780 -28.537  1.00  0.00     0.007 C 
ENDBRANCH  28  29
ENDBRANCH  27  28
ENDBRANCH  22  27
ENDBRANCH   1  21
TORSDOF 8
ENDMDL
MODEL 7
REMARK VINA RESULT:      -7.4      1.542      1.806
REMARK  8 active torsions:
REMARK  status: ('A' for Active; 'I' for Inactive)
REMARK    1  A    between atoms: C_2  and  C_3 
REMARK    2  A    between atoms: C_3  and  O_4 
REMARK    3  A    between atoms: O_4  and  C_5 
REMARK    4  A    between atoms: C_6  and  C_7 
REMARK    5  A    between atoms: C_11  and  C_12 
REMARK       I    between atoms: C_12  and  N_13 
REMARK    6  A    between atoms: N_13  and  N_14 
REMARK    7  A    between atoms: C_15  and  C_16 
REMARK    8  A    between atoms: C_18  and  O_19 
ROOT
HETATM    1  C   UNL     1      -6.874  -0.981 -34.201  1.00  0.00     0.092 A 
HETATM    2  N   UNL     1      -6.819  -0.031 -35.144  1.00  0.00    -0.174 NA
HETATM    3  N   UNL     1      -7.564   0.971 -34.654  1.00  0.00    -0.272 N 
HETATM    4  H   UNL     1      -7.689   1.811 -35.212  1.00  0.00     0.189 HD
HETATM    5  C   UNL     1      -8.050   0.748 -33.394  1.00  0.00     0.121 A 
HETATM    6  C   UNL     1      -7.636  -0.532 -33.085  1.00  0.00     0.071 A 
ENDROOT
BRANCH   5   7
HETATM    7  C   UNL     1      -8.802   1.758 -32.691  1.00  0.00     0.289 C 
HETATM    8  N   UNL     1      -9.776   2.387 -33.455  1.00  0.00    -0.242 N 
HETATM    9  H   UNL     1      -9.915   2.123 -34.421  1.00  0.00     0.192 HD
HETATM   10  O   UNL     1      -8.593   1.997 -31.504  1.00  0.00    -0.264 OA
BRANCH   8  11
HETATM   11  N   UNL     1     -10.627   3.286 -32.880  1.00  0.00    -0.184 NA
HETATM   12  C   UNL     1     -11.856   2.897 -32.763  1.00  0.00     0.150 C 
BRANCH  12  13
HETATM   13  C   UNL     1     -12.883   3.753 -32.135  1.00  0.00    -0.014 A 
HETATM   14  C   UNL     1     -12.670   4.308 -30.870  1.00  0.00     0.049 A 
HETATM   15  C   UNL     1     -13.664   5.097 -30.302  1.00  0.00     0.066 A 
HETATM   16  C   UNL     1     -14.859   5.337 -30.974  1.00  0.00     0.036 A 
HETATM   17  C   UNL     1     -15.067   4.782 -32.237  1.00  0.00     0.004 A 
HETATM   18  C   UNL     1     -14.079   3.988 -32.823  1.00  0.00     0.013 A 
BRANCH  15  19
HETATM   19  O   UNL     1     -13.506   5.660 -29.070  1.00  0.00    -0.361 OA
HETATM   20  H   UNL     1     -13.812   5.027 -28.398  1.00  0.00     0.217 HD
ENDBRANCH  15  19
ENDBRANCH  12  13
ENDBRANCH   8  11
ENDBRANCH   5   7
BRANCH   1  21
HETATM   21  C   UNL     1      -6.159  -2.252 -34.318  1.00  0.00     0.028 A 
HETATM   22  C   UNL     1      -4.798  -2.391 -33.987  1.00  0.00     0.081 A 
HETATM   23  C   UNL     1      -4.179  -3.641 -34.138  1.00  0.00     0.038 A 
HETATM   24  C   UNL     1      -4.903  -4.746 -34.594  1.00  0.00     0.003 A 
HETATM   25  C   UNL     1      -6.250  -4.613 -34.915  1.00  0.00     0.001 A 
HETATM   26  C   UNL     1      -6.874  -3.373 -34.779  1.00  0.00     0.017 A 
BRANCH  22  27
HETATM   27  O   UNL     1      -4.116  -1.266 -33.594  1.00  0.00    -0.350 OA
BRANCH  27  28
HETATM   28  C   UNL     1      -3.609  -1.265 -32.259  1.00  0.00     0.175 C 
BRANCH  28  29
HETATM   29  C   UNL     1      -4.177  -0.047 -31.535  1.00  0.00     0.022 C 
HETATM   30  C   UNL     1      -4.378   1.125 -32.480  1.00  0.00     0.007 C 
ENDBRANCH  28  29
ENDBRANCH  27  28
ENDBRANCH  22  27
ENDBRANCH   1  21
TORSDOF 8
ENDMDL
MODEL 8
REMARK VINA RESULT:      -7.4      7.305     11.247
REMARK  8 active torsions:
REMARK  status: ('A' for Active; 'I' for Inactive)
REMARK    1  A    between atoms: C_2  and  C_3 
REMARK    2  A    between atoms: C_3  and  O_4 
REMARK    3  A    between atoms: O_4  and  C_5 
REMARK    4  A    between atoms: C_6  and  C_7 
REMARK    5  A    between atoms: C_11  and  C_12 
REMARK       I    between atoms: C_12  and  N_13 
REMARK    6  A    between atoms: N_13  and  N_14 
REMARK    7  A    between atoms: C_15  and  C_16 
REMARK    8  A    between atoms: C_18  and  O_19 
ROOT
HETATM    1  C   UNL     1      -0.811   6.739 -29.363  1.00  0.00     0.092 A 
HETATM    2  N   UNL     1      -2.012   7.255 -29.656  1.00  0.00    -0.174 NA
HETATM    3  N   UNL     1      -2.475   6.482 -30.649  1.00  0.00    -0.272 N 
HETATM    4  H   UNL     1      -3.381   6.694 -31.058  1.00  0.00     0.189 HD
HETATM    5  C   UNL     1      -1.658   5.432 -30.974  1.00  0.00     0.121 A 
HETATM    6  C   UNL     1      -0.551   5.593 -30.166  1.00  0.00     0.071 A 
ENDROOT
BRANCH   5   7
HETATM    7  C   UNL     1      -2.046   4.459 -31.966  1.00  0.00     0.289 C 
HETATM    8  N   UNL     1      -2.816   3.412 -31.475  1.00  0.00    -0.242 N 
HETATM    9  H   UNL     1      -3.064   3.378 -30.497  1.00  0.00     0.192 HD
HETATM   10  O   UNL     1      -1.729   4.591 -33.145  1.00  0.00    -0.264 OA
BRANCH   8  11
HETATM   11  N   UNL     1      -3.336   2.482 -32.329  1.00  0.00    -0.184 NA
HETATM   12  C   UNL     1      -4.231   1.697 -31.823  1.00  0.00     0.150 C 
BRANCH  12  13
HETATM   13  C   UNL     1      -4.901   0.661 -32.635  1.00  0.00    -0.014 A 
HETATM   14  C   UNL     1      -4.227  -0.512 -32.986  1.00  0.00     0.049 A 
HETATM   15  C   UNL     1      -4.883  -1.460 -33.764  1.00  0.00     0.066 A 
HETATM   16  C   UNL     1      -6.191  -1.255 -34.192  1.00  0.00     0.036 A 
HETATM   17  C   UNL     1      -6.861  -0.083 -33.837  1.00  0.00     0.004 A 
HETATM   18  C   UNL     1      -6.217   0.879 -33.057  1.00  0.00     0.013 A 
BRANCH  15  19
HETATM   19  O   UNL     1      -4.269  -2.620 -34.136  1.00  0.00    -0.361 OA
HETATM   20  H   UNL     1      -3.494  -2.757 -33.566  1.00  0.00     0.217 HD
ENDBRANCH  15  19
ENDBRANCH  12  13
ENDBRANCH   8  11
ENDBRANCH   5   7
BRANCH   1  21
HETATM   21  C   UNL     1       0.037   7.269 -28.294  1.00  0.00     0.028 A 
HETATM   22  C   UNL     1      -0.076   6.848 -26.956  1.00  0.00     0.081 A 
HETATM   23  C   UNL     1       0.766   7.413 -25.986  1.00  0.00     0.038 A 
HETATM   24  C   UNL     1       1.720   8.371 -26.339  1.00  0.00     0.003 A 
HETATM   25  C   UNL     1       1.839   8.783 -27.662  1.00  0.00     0.001 A 
HETATM   26  C   UNL     1       1.001   8.237 -28.633  1.00  0.00     0.017 A 
BRANCH  22  27
HETATM   27  O   UNL     1      -1.063   5.945 -26.649  1.00  0.00    -0.350 OA
BRANCH  27  28
HETATM   28  C   UNL     1      -1.975   6.326 -25.618  1.00  0.00     0.175 C 
BRANCH  28  29
HETATM   29  C   UNL     1      -2.951   7.345 -26.198  1.00  0.00     0.022 C 
HETATM   30  C   UNL     1      -4.161   6.671 -26.822  1.00  0.00     0.007 C 
ENDBRANCH  28  29
ENDBRANCH  27  28
ENDBRANCH  22  27
ENDBRANCH   1  21
TORSDOF 8
ENDMDL
MODEL 9
REMARK VINA RESULT:      -7.4      6.790     10.572
REMARK  8 active torsions:
REMARK  status: ('A' for Active; 'I' for Inactive)
REMARK    1  A    between atoms: C_2  and  C_3 
REMARK    2  A    between atoms: C_3  and  O_4 
REMARK    3  A    between atoms: O_4  and  C_5 
REMARK    4  A    between atoms: C_6  and  C_7 
REMARK    5  A    between atoms: C_11  and  C_12 
REMARK       I    between atoms: C_12  and  N_13 
REMARK    6  A    between atoms: N_13  and  N_14 
REMARK    7  A    between atoms: C_15  and  C_16 
REMARK    8  A    between atoms: C_18  and  O_19 
ROOT
HETATM    1  C   UNL     1      -4.626   2.116 -32.333  1.00  0.00     0.092 A 
HETATM    2  N   UNL     1      -5.003   2.397 -31.078  1.00  0.00    -0.174 NA
HETATM    3  N   UNL     1      -4.094   3.284 -30.647  1.00  0.00    -0.272 N 
HETATM    4  H   UNL     1      -4.162   3.637 -29.696  1.00  0.00     0.189 HD
HETATM    5  C   UNL     1      -3.175   3.655 -31.591  1.00  0.00     0.121 A 
HETATM    6  C   UNL     1      -3.484   2.886 -32.695  1.00  0.00     0.071 A 
ENDROOT
BRANCH   5   7
HETATM    7  C   UNL     1      -2.179   4.661 -31.314  1.00  0.00     0.289 C 
HETATM    8  N   UNL     1      -2.641   5.740 -30.573  1.00  0.00    -0.242 N 
HETATM    9  H   UNL     1      -3.604   5.774 -30.269  1.00  0.00     0.192 HD
HETATM   10  O   UNL     1      -1.019   4.528 -31.694  1.00  0.00    -0.264 OA
BRANCH   8  11
HETATM   11  N   UNL     1      -1.774   6.708 -30.154  1.00  0.00    -0.184 NA
HETATM   12  C   UNL     1      -1.634   6.817 -28.872  1.00  0.00     0.150 C 
BRANCH  12  13
HETATM   13  C   UNL     1      -0.709   7.802 -28.275  1.00  0.00    -0.014 A 
HETATM   14  C   UNL     1      -1.201   8.957 -27.660  1.00  0.00     0.049 A 
HETATM   15  C   UNL     1      -0.301   9.870 -27.122  1.00  0.00     0.066 A 
HETATM   16  C   UNL     1       1.071   9.647 -27.186  1.00  0.00     0.036 A 
HETATM   17  C   UNL     1       1.557   8.491 -27.799  1.00  0.00     0.004 A 
HETATM   18  C   UNL     1       0.668   7.564 -28.345  1.00  0.00     0.013 A 
BRANCH  15  19
HETATM   19  O   UNL     1      -0.729  11.014 -26.514  1.00  0.00    -0.361 OA
HETATM   20  H   UNL     1      -0.118  11.226 -25.788  1.00  0.00     0.217 HD
ENDBRANCH  15  19
ENDBRANCH  12  13
ENDBRANCH   8  11
ENDBRANCH   5   7
BRANCH   1  21
HETATM   21  C   UNL     1      -5.375   1.202 -33.196  1.00  0.00     0.028 A 
HETATM   22  C   UNL     1      -6.436   1.630 -34.017  1.00  0.00     0.081 A 
HETATM   23  C   UNL     1      -7.113   0.690 -34.808  1.00  0.00     0.038 A 
HETATM   24  C   UNL     1      -6.734  -0.656 -34.800  1.00  0.00     0.003 A 
HETATM   25  C   UNL     1      -5.681  -1.079 -33.996  1.00  0.00     0.001 A 
HETATM   26  C   UNL     1      -5.007  -0.156 -33.198  1.00  0.00     0.017 A 
BRANCH  22  27
HETATM   27  O   UNL     1      -6.806   2.950 -33.949  1.00  0.00    -0.350 OA
BRANCH  27  28
HETATM   28  C   UNL     1      -8.172   3.211 -33.626  1.00  0.00     0.175 C 
BRANCH  28  29
HETATM   29  C   UNL     1      -8.294   3.297 -32.107  1.00  0.00     0.022 C 
HETATM   30  C   UNL     1      -8.972   2.067 -31.528  1.00  0.00     0.007 C 
ENDBRANCH  28  29
ENDBRANCH  27  28
ENDBRANCH  22  27
ENDBRANCH   1  21
TORSDOF 8
ENDMDL
MODEL 10
REMARK VINA RESULT:      -7.3      1.424      3.108
REMARK  8 active torsions:
REMARK  status: ('A' for Active; 'I' for Inactive)
REMARK    1  A    between atoms: C_2  and  C_3 
REMARK    2  A    between atoms: C_3  and  O_4 
REMARK    3  A    between atoms: O_4  and  C_5 
REMARK    4  A    between atoms: C_6  and  C_7 
REMARK    5  A    between atoms: C_11  and  C_12 
REMARK       I    between atoms: C_12  and  N_13 
REMARK    6  A    between atoms: N_13  and  N_14 
REMARK    7  A    between atoms: C_15  and  C_16 
REMARK    8  A    between atoms: C_18  and  O_19 
ROOT
HETATM    1  C   UNL     1      -7.709   0.335 -33.222  1.00  0.00     0.092 A 
HETATM    2  N   UNL     1      -7.884   1.171 -34.254  1.00  0.00    -0.174 NA
HETATM    3  N   UNL     1      -9.214   1.307 -34.353  1.00  0.00    -0.272 N 
HETATM    4  H   UNL     1      -9.597   1.892 -35.091  1.00  0.00     0.189 HD
HETATM    5  C   UNL     1      -9.922   0.653 -33.381  1.00  0.00     0.121 A 
HETATM    6  C   UNL     1      -8.963  -0.013 -32.644  1.00  0.00     0.071 A 
ENDROOT
BRANCH   5   7
HETATM    7  C   UNL     1     -11.358   0.762 -33.295  1.00  0.00     0.289 C 
HETATM    8  N   UNL     1     -11.822   2.043 -33.025  1.00  0.00    -0.242 N 
HETATM    9  H   UNL     1     -11.171   2.807 -32.910  1.00  0.00     0.192 HD
HETATM   10  O   UNL     1     -12.082  -0.212 -33.481  1.00  0.00    -0.264 OA
BRANCH   8  11
HETATM   11  N   UNL     1     -13.163   2.302 -33.023  1.00  0.00    -0.184 NA
HETATM   12  C   UNL     1     -13.541   3.285 -32.271  1.00  0.00     0.150 C 
BRANCH  12  13
HETATM   13  C   UNL     1     -14.957   3.698 -32.190  1.00  0.00    -0.014 A 
HETATM   14  C   UNL     1     -15.976   2.741 -32.167  1.00  0.00     0.049 A 
HETATM   15  C   UNL     1     -17.299   3.165 -32.105  1.00  0.00     0.066 A 
HETATM   16  C   UNL     1     -17.616   4.520 -32.067  1.00  0.00     0.036 A 
HETATM   17  C   UNL     1     -16.595   5.471 -32.089  1.00  0.00     0.004 A 
HETATM   18  C   UNL     1     -15.261   5.063 -32.150  1.00  0.00     0.013 A 
BRANCH  15  19
HETATM   19  O   UNL     1     -18.330   2.273 -32.082  1.00  0.00    -0.361 OA
HETATM   20  H   UNL     1     -17.961   1.373 -32.073  1.00  0.00     0.217 HD
ENDBRANCH  15  19
ENDBRANCH  12  13
ENDBRANCH   8  11
ENDBRANCH   5   7
BRANCH   1  21
HETATM   21  C   UNL     1      -6.384  -0.061 -32.743  1.00  0.00     0.028 A 
HETATM   22  C   UNL     1      -5.622  -1.068 -33.364  1.00  0.00     0.081 A 
HETATM   23  C   UNL     1      -4.365  -1.400 -32.837  1.00  0.00     0.038 A 
HETATM   24  C   UNL     1      -3.859  -0.730 -31.719  1.00  0.00     0.003 A 
HETATM   25  C   UNL     1      -4.607   0.270 -31.108  1.00  0.00     0.001 A 
HETATM   26  C   UNL     1      -5.863   0.602 -31.616  1.00  0.00     0.017 A 
BRANCH  22  27
HETATM   27  O   UNL     1      -6.183  -1.734 -34.426  1.00  0.00    -0.350 OA
BRANCH  27  28
HETATM   28  C   UNL     1      -5.348  -2.680 -35.095  1.00  0.00     0.175 C 
BRANCH  28  29
HETATM   29  C   UNL     1      -5.772  -4.080 -34.659  1.00  0.00     0.022 C 
HETATM   30  C   UNL     1      -6.837  -4.655 -35.575  1.00  0.00     0.007 C 
ENDBRANCH  28  29
ENDBRANCH  27  28
ENDBRANCH  22  27
ENDBRANCH   1  21
TORSDOF 8
ENDMDL
