MODEL 1
REMARK VINA RESULT:      -8.3      0.000      0.000
REMARK  7 active torsions:
REMARK  status: ('A' for Active; 'I' for Inactive)
REMARK    1  A    between atoms: C_5  and  N_6 
REMARK    2  A    between atoms: N_6  and  C_9 
REMARK    3  A    between atoms: C_9  and  C_10 
REMARK    4  A    between atoms: C_10  and  C_11 
REMARK    5  A    between atoms: C_10  and  C_13 
REMARK    6  A    between atoms: C_11  and  O_12 
REMARK    7  A    between atoms: C_13  and  C_14 
ROOT
HETATM    1  N   UNL     1      -3.454   0.113 -32.554  1.00  0.00    -0.066 N 
HETATM    2  H   UNL     1      -2.640  -0.502 -32.750  1.00  0.00     0.278 HD
HETATM    3  H   UNL     1      -3.421   0.862 -33.272  1.00  0.00     0.278 HD
ENDROOT
BRANCH   1   4
HETATM    4  C   UNL     1      -4.678  -0.692 -32.730  1.00  0.00     0.220 C 
HETATM    5  C   UNL     1      -4.392  -2.125 -33.073  1.00  0.00    -0.021 A 
HETATM    6  C   UNL     1      -5.250  -2.574 -34.094  1.00  0.00    -0.040 A 
HETATM    7  C   UNL     1      -3.456  -2.976 -32.503  1.00  0.00     0.010 A 
HETATM    8  C   UNL     1      -5.160  -3.870 -34.596  1.00  0.00    -0.055 A 
HETATM    9  C   UNL     1      -6.212  -1.486 -34.495  1.00  0.00     0.018 C 
HETATM   10  C   UNL     1      -6.070  -4.382 -35.672  1.00  0.00     0.049 C 
HETATM   11  C   UNL     1      -4.207  -4.722 -34.018  1.00  0.00     0.007 A 
HETATM   12  C   UNL     1      -3.366  -4.281 -32.986  1.00  0.00     0.001 A 
HETATM   13  C   UNL     1      -5.467  -0.242 -33.974  1.00  0.00     0.047 C 
HETATM   14  C   UNL     1      -7.580  -1.660 -33.846  1.00  0.00     0.015 C 
ENDBRANCH   1   4
BRANCH   1  15
HETATM   15  C   UNL     1      -3.194   0.736 -31.229  1.00  0.00     0.240 C 
BRANCH  15  16
HETATM   16  C   UNL     1      -3.395   2.264 -31.304  1.00  0.00     0.040 C 
BRANCH  16  17
HETATM   17  C   UNL     1      -4.776   2.641 -30.742  1.00  0.00     0.170 C 
BRANCH  17  18
HETATM   18  O   UNL     1      -4.691   3.912 -30.096  1.00  0.00    -0.400 OA
HETATM   19  H   UNL     1      -5.296   3.871 -29.326  1.00  0.00     0.209 HD
ENDBRANCH  17  18
ENDBRANCH  16  17
BRANCH  16  20
HETATM   20  C   UNL     1      -3.245   2.864 -32.721  1.00  0.00     0.067 C 
BRANCH  20  21
HETATM   21  C   UNL     1      -2.370   4.087 -32.763  1.00  0.00     0.034 A 
HETATM   22  N   UNL     1      -1.751   4.417 -31.594  1.00  0.00    -0.266 NA
HETATM   23  C   UNL     1      -0.954   5.515 -31.623  1.00  0.00     0.117 A 
HETATM   24  C   UNL     1      -0.775   6.312 -32.740  1.00  0.00     0.019 A 
HETATM   25  C   UNL     1      -1.439   5.966 -33.912  1.00  0.00     0.003 A 
HETATM   26  C   UNL     1      -2.250   4.836 -33.929  1.00  0.00     0.027 A 
ENDBRANCH  20  21
ENDBRANCH  16  20
ENDBRANCH  15  16
ENDBRANCH   1  15
TORSDOF 7
ENDMDL
MODEL 2
REMARK VINA RESULT:      -8.2      1.797      2.515
REMARK  7 active torsions:
REMARK  status: ('A' for Active; 'I' for Inactive)
REMARK    1  A    between atoms: C_5  and  N_6 
REMARK    2  A    between atoms: N_6  and  C_9 
REMARK    3  A    between atoms: C_9  and  C_10 
REMARK    4  A    between atoms: C_10  and  C_11 
REMARK    5  A    between atoms: C_10  and  C_13 
REMARK    6  A    between atoms: C_11  and  O_12 
REMARK    7  A    between atoms: C_13  and  C_14 
ROOT
HETATM    1  N   UNL     1      -4.382   2.353 -32.579  1.00  0.00    -0.066 N 
HETATM    2  H   UNL     1      -3.761   2.148 -31.772  1.00  0.00     0.278 HD
HETATM    3  H   UNL     1      -3.772   2.322 -33.419  1.00  0.00     0.278 HD
ENDROOT
BRANCH   1   4
HETATM    4  C   UNL     1      -5.389   1.278 -32.656  1.00  0.00     0.220 C 
HETATM    5  C   UNL     1      -4.779  -0.092 -32.729  1.00  0.00    -0.021 A 
HETATM    6  C   UNL     1      -5.441  -0.882 -33.686  1.00  0.00    -0.040 A 
HETATM    7  C   UNL     1      -3.729  -0.606 -31.982  1.00  0.00     0.010 A 
HETATM    8  C   UNL     1      -5.039  -2.190 -33.947  1.00  0.00    -0.055 A 
HETATM    9  C   UNL     1      -6.579  -0.118 -34.309  1.00  0.00     0.018 C 
HETATM   10  C   UNL     1      -5.735  -3.062 -34.950  1.00  0.00     0.049 C 
HETATM   11  C   UNL     1      -3.973  -2.701 -33.192  1.00  0.00     0.007 A 
HETATM   12  C   UNL     1      -3.326  -1.920 -32.223  1.00  0.00     0.001 A 
HETATM   13  C   UNL     1      -6.160   1.330 -33.989  1.00  0.00     0.047 C 
HETATM   14  C   UNL     1      -7.924  -0.484 -33.692  1.00  0.00     0.015 C 
ENDBRANCH   1   4
BRANCH   1  15
HETATM   15  C   UNL     1      -4.846   3.754 -32.400  1.00  0.00     0.240 C 
BRANCH  15  16
HETATM   16  C   UNL     1      -3.939   4.727 -33.183  1.00  0.00     0.040 C 
BRANCH  16  17
HETATM   17  C   UNL     1      -4.517   4.969 -34.587  1.00  0.00     0.170 C 
BRANCH  17  18
HETATM   18  O   UNL     1      -3.577   5.718 -35.360  1.00  0.00    -0.400 OA
HETATM   19  H   UNL     1      -2.815   5.121 -35.522  1.00  0.00     0.209 HD
ENDBRANCH  17  18
ENDBRANCH  16  17
BRANCH  16  20
HETATM   20  C   UNL     1      -2.468   4.269 -33.314  1.00  0.00     0.067 C 
BRANCH  20  21
HETATM   21  C   UNL     1      -1.522   5.040 -32.434  1.00  0.00     0.034 A 
HETATM   22  N   UNL     1      -1.172   4.435 -31.263  1.00  0.00    -0.266 NA
HETATM   23  C   UNL     1      -0.313   5.119 -30.465  1.00  0.00     0.117 A 
HETATM   24  C   UNL     1       0.179   6.379 -30.758  1.00  0.00     0.019 A 
HETATM   25  C   UNL     1      -0.215   6.982 -31.947  1.00  0.00     0.003 A 
HETATM   26  C   UNL     1      -1.078   6.305 -32.802  1.00  0.00     0.027 A 
ENDBRANCH  20  21
ENDBRANCH  16  20
ENDBRANCH  15  16
ENDBRANCH   1  15
TORSDOF 7
ENDMDL
MODEL 3
REMARK VINA RESULT:      -8.1      3.105      5.796
REMARK  7 active torsions:
REMARK  status: ('A' for Active; 'I' for Inactive)
REMARK    1  A    between atoms: C_5  and  N_6 
REMARK    2  A    between atoms: N_6  and  C_9 
REMARK    3  A    between atoms: C_9  and  C_10 
REMARK    4  A    between atoms: C_10  and  C_11 
REMARK    5  A    between atoms: C_10  and  C_13 
REMARK    6  A    between atoms: C_11  and  O_12 
REMARK    7  A    between atoms: C_13  and  C_14 
ROOT
HETATM    1  N   UNL     1      -4.830   2.055 -31.403  1.00  0.00    -0.066 N 
HETATM    2  H   UNL     1      -4.012   2.236 -30.788  1.00  0.00     0.278 HD
HETATM    3  H   UNL     1      -4.945   2.910 -31.979  1.00  0.00     0.278 HD
ENDROOT
BRANCH   1   4
HETATM    4  C   UNL     1      -4.493   0.910 -32.273  1.00  0.00     0.220 C 
HETATM    5  C   UNL     1      -5.540   0.639 -33.313  1.00  0.00    -0.021 A 
HETATM    6  C   UNL     1      -5.787  -0.742 -33.423  1.00  0.00    -0.040 A 
HETATM    7  C   UNL     1      -6.206   1.550 -34.122  1.00  0.00     0.010 A 
HETATM    8  C   UNL     1      -6.736  -1.238 -34.314  1.00  0.00    -0.055 A 
HETATM    9  C   UNL     1      -4.895  -1.516 -32.488  1.00  0.00     0.018 C 
HETATM   10  C   UNL     1      -7.011  -2.704 -34.464  1.00  0.00     0.049 C 
HETATM   11  C   UNL     1      -7.410  -0.310 -35.123  1.00  0.00     0.007 A 
HETATM   12  C   UNL     1      -7.149   1.064 -35.028  1.00  0.00     0.001 A 
HETATM   13  C   UNL     1      -4.509  -0.413 -31.485  1.00  0.00     0.047 C 
HETATM   14  C   UNL     1      -3.684  -2.103 -33.203  1.00  0.00     0.015 C 
ENDBRANCH   1   4
BRANCH   1  15
HETATM   15  C   UNL     1      -6.009   1.944 -30.505  1.00  0.00     0.240 C 
BRANCH  15  16
HETATM   16  C   UNL     1      -6.990   3.109 -30.757  1.00  0.00     0.040 C 
BRANCH  16  17
HETATM   17  C   UNL     1      -6.541   4.353 -29.970  1.00  0.00     0.170 C 
BRANCH  17  18
HETATM   18  O   UNL     1      -5.460   3.998 -29.106  1.00  0.00    -0.400 OA
HETATM   19  H   UNL     1      -5.777   3.246 -28.563  1.00  0.00     0.209 HD
ENDBRANCH  17  18
ENDBRANCH  16  17
BRANCH  16  20
HETATM   20  C   UNL     1      -8.463   2.796 -30.408  1.00  0.00     0.067 C 
BRANCH  20  21
HETATM   21  C   UNL     1      -9.192   2.061 -31.500  1.00  0.00     0.034 A 
HETATM   22  N   UNL     1      -9.969   2.828 -32.317  1.00  0.00    -0.266 NA
HETATM   23  C   UNL     1     -10.626   2.176 -33.310  1.00  0.00     0.117 A 
HETATM   24  C   UNL     1     -10.574   0.806 -33.503  1.00  0.00     0.019 A 
HETATM   25  C   UNL     1      -9.793   0.047 -32.640  1.00  0.00     0.003 A 
HETATM   26  C   UNL     1      -9.088   0.680 -31.621  1.00  0.00     0.027 A 
ENDBRANCH  20  21
ENDBRANCH  16  20
ENDBRANCH  15  16
ENDBRANCH   1  15
TORSDOF 7
ENDMDL
MODEL 4
REMARK VINA RESULT:      -7.9      1.951      3.817
REMARK  7 active torsions:
REMARK  status: ('A' for Active; 'I' for Inactive)
REMARK    1  A    between atoms: C_5  and  N_6 
REMARK    2  A    between atoms: N_6  and  C_9 
REMARK    3  A    between atoms: C_9  and  C_10 
REMARK    4  A    between atoms: C_10  and  C_11 
REMARK    5  A    between atoms: C_10  and  C_13 
REMARK    6  A    between atoms: C_11  and  O_12 
REMARK    7  A    between atoms: C_13  and  C_14 
ROOT
HETATM    1  N   UNL     1      -3.416   0.075 -32.731  1.00  0.00    -0.066 N 
HETATM    2  H   UNL     1      -2.633  -0.581 -32.543  1.00  0.00     0.278 HD
HETATM    3  H   UNL     1      -3.199   0.518 -33.645  1.00  0.00     0.278 HD
ENDROOT
BRANCH   1   4
HETATM    4  C   UNL     1      -4.653  -0.722 -32.846  1.00  0.00     0.220 C 
HETATM    5  C   UNL     1      -4.391  -2.169 -33.149  1.00  0.00    -0.021 A 
HETATM    6  C   UNL     1      -5.281  -2.642 -34.130  1.00  0.00    -0.040 A 
HETATM    7  C   UNL     1      -3.446  -3.010 -32.578  1.00  0.00     0.010 A 
HETATM    8  C   UNL     1      -5.219  -3.955 -34.591  1.00  0.00    -0.055 A 
HETATM    9  C   UNL     1      -6.244  -1.558 -34.539  1.00  0.00     0.018 C 
HETATM   10  C   UNL     1      -6.164  -4.492 -35.624  1.00  0.00     0.049 C 
HETATM   11  C   UNL     1      -4.257  -4.797 -34.013  1.00  0.00     0.007 A 
HETATM   12  C   UNL     1      -3.383  -4.332 -33.021  1.00  0.00     0.001 A 
HETATM   13  C   UNL     1      -5.473  -0.305 -34.080  1.00  0.00     0.047 C 
HETATM   14  C   UNL     1      -7.594  -1.696 -33.846  1.00  0.00     0.015 C 
ENDBRANCH   1   4
BRANCH   1  15
HETATM   15  C   UNL     1      -3.340   1.126 -31.682  1.00  0.00     0.240 C 
BRANCH  15  16
HETATM   16  C   UNL     1      -4.072   2.403 -32.144  1.00  0.00     0.040 C 
BRANCH  16  17
HETATM   17  C   UNL     1      -3.089   3.584 -32.193  1.00  0.00     0.170 C 
BRANCH  17  18
HETATM   18  O   UNL     1      -2.167   3.475 -31.107  1.00  0.00    -0.400 OA
HETATM   19  H   UNL     1      -2.296   2.581 -30.725  1.00  0.00     0.209 HD
ENDBRANCH  17  18
ENDBRANCH  16  17
BRANCH  16  20
HETATM   20  C   UNL     1      -5.289   2.796 -31.274  1.00  0.00     0.067 C 
BRANCH  20  21
HETATM   21  C   UNL     1      -6.608   2.398 -31.879  1.00  0.00     0.034 A 
HETATM   22  N   UNL     1      -7.365   1.536 -31.142  1.00  0.00    -0.266 NA
HETATM   23  C   UNL     1      -8.560   1.176 -31.674  1.00  0.00     0.117 A 
HETATM   24  C   UNL     1      -9.016   1.601 -32.911  1.00  0.00     0.019 A 
HETATM   25  C   UNL     1      -8.212   2.460 -33.651  1.00  0.00     0.003 A 
HETATM   26  C   UNL     1      -6.988   2.868 -33.131  1.00  0.00     0.027 A 
ENDBRANCH  20  21
ENDBRANCH  16  20
ENDBRANCH  15  16
ENDBRANCH   1  15
TORSDOF 7
ENDMDL
MODEL 5
REMARK VINA RESULT:      -7.8      3.317      4.638
REMARK  7 active torsions:
REMARK  status: ('A' for Active; 'I' for Inactive)
REMARK    1  A    between atoms: C_5  and  N_6 
REMARK    2  A    between atoms: N_6  and  C_9 
REMARK    3  A    between atoms: C_9  and  C_10 
REMARK    4  A    between atoms: C_10  and  C_11 
REMARK    5  A    between atoms: C_10  and  C_13 
REMARK    6  A    between atoms: C_11  and  O_12 
REMARK    7  A    between atoms: C_13  and  C_14 
ROOT
HETATM    1  N   UNL     1      -9.449   0.967 -33.403  1.00  0.00    -0.066 N 
HETATM    2  H   UNL     1     -10.372   0.640 -33.749  1.00  0.00     0.278 HD
HETATM    3  H   UNL     1      -9.592   1.210 -32.404  1.00  0.00     0.278 HD
ENDROOT
BRANCH   1   4
HETATM    4  C   UNL     1      -8.503  -0.161 -33.511  1.00  0.00     0.220 C 
HETATM    5  C   UNL     1      -7.354  -0.054 -32.550  1.00  0.00    -0.021 A 
HETATM    6  C   UNL     1      -6.143  -0.389 -33.182  1.00  0.00    -0.040 A 
HETATM    7  C   UNL     1      -7.386   0.290 -31.206  1.00  0.00     0.010 A 
HETATM    8  C   UNL     1      -4.932  -0.345 -32.495  1.00  0.00    -0.055 A 
HETATM    9  C   UNL     1      -6.384  -0.786 -34.615  1.00  0.00     0.018 C 
HETATM   10  C   UNL     1      -3.627  -0.710 -33.137  1.00  0.00     0.049 C 
HETATM   11  C   UNL     1      -4.972   0.011 -31.138  1.00  0.00     0.007 A 
HETATM   12  C   UNL     1      -6.182   0.324 -30.502  1.00  0.00     0.001 A 
HETATM   13  C   UNL     1      -7.762  -0.141 -34.861  1.00  0.00     0.047 C 
HETATM   14  C   UNL     1      -6.411  -2.299 -34.795  1.00  0.00     0.015 C 
ENDBRANCH   1   4
BRANCH   1  15
HETATM   15  C   UNL     1      -9.149   2.222 -34.142  1.00  0.00     0.240 C 
BRANCH  15  16
HETATM   16  C   UNL     1      -8.682   3.323 -33.166  1.00  0.00     0.040 C 
BRANCH  16  17
HETATM   17  C   UNL     1      -9.890   3.902 -32.410  1.00  0.00     0.170 C 
BRANCH  17  18
HETATM   18  O   UNL     1     -10.435   2.896 -31.553  1.00  0.00    -0.400 OA
HETATM   19  H   UNL     1     -10.372   2.050 -32.046  1.00  0.00     0.209 HD
ENDBRANCH  17  18
ENDBRANCH  16  17
BRANCH  16  20
HETATM   20  C   UNL     1      -7.901   4.481 -33.830  1.00  0.00     0.067 C 
BRANCH  20  21
HETATM   21  C   UNL     1      -6.413   4.390 -33.629  1.00  0.00     0.034 A 
HETATM   22  N   UNL     1      -5.668   5.349 -34.248  1.00  0.00    -0.266 NA
HETATM   23  C   UNL     1      -4.325   5.280 -34.067  1.00  0.00     0.117 A 
HETATM   24  C   UNL     1      -3.692   4.289 -33.336  1.00  0.00     0.019 A 
HETATM   25  C   UNL     1      -4.475   3.310 -32.736  1.00  0.00     0.003 A 
HETATM   26  C   UNL     1      -5.858   3.357 -32.881  1.00  0.00     0.027 A 
ENDBRANCH  20  21
ENDBRANCH  16  20
ENDBRANCH  15  16
ENDBRANCH   1  15
TORSDOF 7
ENDMDL
MODEL 6
REMARK VINA RESULT:      -7.8      1.908      2.684
REMARK  7 active torsions:
REMARK  status: ('A' for Active; 'I' for Inactive)
REMARK    1  A    between atoms: C_5  and  N_6 
REMARK    2  A    between atoms: N_6  and  C_9 
REMARK    3  A    between atoms: C_9  and  C_10 
REMARK    4  A    between atoms: C_10  and  C_11 
REMARK    5  A    between atoms: C_10  and  C_13 
REMARK    6  A    between atoms: C_11  and  O_12 
REMARK    7  A    between atoms: C_13  and  C_14 
ROOT
HETATM    1  N   UNL     1      -6.159   0.986 -33.928  1.00  0.00    -0.066 N 
HETATM    2  H   UNL     1      -5.143   1.165 -33.803  1.00  0.00     0.278 HD
HETATM    3  H   UNL     1      -6.374   1.260 -34.907  1.00  0.00     0.278 HD
ENDROOT
BRANCH   1   4
HETATM    4  C   UNL     1      -6.385  -0.462 -33.755  1.00  0.00     0.220 C 
HETATM    5  C   UNL     1      -5.226  -1.162 -33.107  1.00  0.00    -0.021 A 
HETATM    6  C   UNL     1      -4.953  -2.381 -33.754  1.00  0.00    -0.040 A 
HETATM    7  C   UNL     1      -4.485  -0.757 -32.005  1.00  0.00     0.010 A 
HETATM    8  C   UNL     1      -3.906  -3.201 -33.341  1.00  0.00    -0.055 A 
HETATM    9  C   UNL     1      -5.935  -2.619 -34.872  1.00  0.00     0.018 C 
HETATM   10  C   UNL     1      -3.600  -4.512 -34.001  1.00  0.00     0.049 C 
HETATM   11  C   UNL     1      -3.157  -2.782 -32.231  1.00  0.00     0.007 A 
HETATM   12  C   UNL     1      -3.442  -1.577 -31.572  1.00  0.00     0.001 A 
HETATM   13  C   UNL     1      -6.442  -1.184 -35.115  1.00  0.00     0.047 C 
HETATM   14  C   UNL     1      -7.053  -3.569 -34.462  1.00  0.00     0.015 C 
ENDBRANCH   1   4
BRANCH   1  15
HETATM   15  C   UNL     1      -6.863   1.931 -33.022  1.00  0.00     0.240 C 
BRANCH  15  16
HETATM   16  C   UNL     1      -5.861   2.603 -32.059  1.00  0.00     0.040 C 
BRANCH  16  17
HETATM   17  C   UNL     1      -6.291   2.363 -30.602  1.00  0.00     0.170 C 
BRANCH  17  18
HETATM   18  O   UNL     1      -7.201   1.263 -30.555  1.00  0.00    -0.400 OA
HETATM   19  H   UNL     1      -8.088   1.629 -30.760  1.00  0.00     0.209 HD
ENDBRANCH  17  18
ENDBRANCH  16  17
BRANCH  16  20
HETATM   20  C   UNL     1      -5.672   4.121 -32.286  1.00  0.00     0.067 C 
BRANCH  20  21
HETATM   21  C   UNL     1      -4.490   4.451 -33.156  1.00  0.00     0.034 A 
HETATM   22  N   UNL     1      -4.779   4.963 -34.386  1.00  0.00    -0.266 NA
HETATM   23  C   UNL     1      -3.720   5.272 -35.176  1.00  0.00     0.117 A 
HETATM   24  C   UNL     1      -2.399   5.062 -34.816  1.00  0.00     0.019 A 
HETATM   25  C   UNL     1      -2.135   4.516 -33.566  1.00  0.00     0.003 A 
HETATM   26  C   UNL     1      -3.193   4.204 -32.719  1.00  0.00     0.027 A 
ENDBRANCH  20  21
ENDBRANCH  16  20
ENDBRANCH  15  16
ENDBRANCH   1  15
TORSDOF 7
ENDMDL
MODEL 7
REMARK VINA RESULT:      -7.6      3.470      6.499
REMARK  7 active torsions:
REMARK  status: ('A' for Active; 'I' for Inactive)
REMARK    1  A    between atoms: C_5  and  N_6 
REMARK    2  A    between atoms: N_6  and  C_9 
REMARK    3  A    between atoms: C_9  and  C_10 
REMARK    4  A    between atoms: C_10  and  C_11 
REMARK    5  A    between atoms: C_10  and  C_13 
REMARK    6  A    between atoms: C_11  and  O_12 
REMARK    7  A    between atoms: C_13  and  C_14 
ROOT
HETATM    1  N   UNL     1      -7.005   2.000 -30.017  1.00  0.00    -0.066 N 
HETATM    2  H   UNL     1      -7.040   1.883 -28.986  1.00  0.00     0.278 HD
HETATM    3  H   UNL     1      -6.956   1.039 -30.409  1.00  0.00     0.278 HD
ENDROOT
BRANCH   1   4
HETATM    4  C   UNL     1      -8.263   2.646 -30.439  1.00  0.00     0.220 C 
HETATM    5  C   UNL     1      -8.964   1.900 -31.537  1.00  0.00    -0.021 A 
HETATM    6  C   UNL     1      -9.444   2.788 -32.516  1.00  0.00    -0.040 A 
HETATM    7  C   UNL     1      -9.182   0.533 -31.645  1.00  0.00     0.010 A 
HETATM    8  C   UNL     1     -10.115   2.325 -33.646  1.00  0.00    -0.055 A 
HETATM    9  C   UNL     1      -9.137   4.213 -32.136  1.00  0.00     0.018 C 
HETATM   10  C   UNL     1     -10.651   3.249 -34.699  1.00  0.00     0.049 C 
HETATM   11  C   UNL     1     -10.326   0.943 -33.751  1.00  0.00     0.007 A 
HETATM   12  C   UNL     1      -9.866   0.058 -32.765  1.00  0.00     0.001 A 
HETATM   13  C   UNL     1      -7.993   3.998 -31.127  1.00  0.00     0.047 C 
HETATM   14  C   UNL     1     -10.338   4.914 -31.513  1.00  0.00     0.015 C 
ENDBRANCH   1   4
BRANCH   1  15
HETATM   15  C   UNL     1      -5.718   2.682 -30.315  1.00  0.00     0.240 C 
BRANCH  15  16
HETATM   16  C   UNL     1      -4.947   1.924 -31.416  1.00  0.00     0.040 C 
BRANCH  16  17
HETATM   17  C   UNL     1      -3.444   2.232 -31.312  1.00  0.00     0.170 C 
BRANCH  17  18
HETATM   18  O   UNL     1      -3.070   3.114 -32.371  1.00  0.00    -0.400 OA
HETATM   19  H   UNL     1      -2.143   2.892 -32.600  1.00  0.00     0.209 HD
ENDBRANCH  17  18
ENDBRANCH  16  17
BRANCH  16  20
HETATM   20  C   UNL     1      -5.425   2.223 -32.856  1.00  0.00     0.067 C 
BRANCH  20  21
HETATM   21  C   UNL     1      -6.018   1.026 -33.549  1.00  0.00     0.034 A 
HETATM   22  N   UNL     1      -5.805  -0.178 -32.945  1.00  0.00    -0.266 NA
HETATM   23  C   UNL     1      -6.342  -1.263 -33.558  1.00  0.00     0.117 A 
HETATM   24  C   UNL     1      -7.043  -1.210 -34.751  1.00  0.00     0.019 A 
HETATM   25  C   UNL     1      -7.223   0.028 -35.357  1.00  0.00     0.003 A 
HETATM   26  C   UNL     1      -6.705   1.167 -34.750  1.00  0.00     0.027 A 
ENDBRANCH  20  21
ENDBRANCH  16  20
ENDBRANCH  15  16
ENDBRANCH   1  15
TORSDOF 7
ENDMDL
MODEL 8
REMARK VINA RESULT:      -7.5      1.903      3.302
REMARK  7 active torsions:
REMARK  status: ('A' for Active; 'I' for Inactive)
REMARK    1  A    between atoms: C_5  and  N_6 
REMARK    2  A    between atoms: N_6  and  C_9 
REMARK    3  A    between atoms: C_9  and  C_10 
REMARK    4  A    between atoms: C_10  and  C_11 
REMARK    5  A    between atoms: C_10  and  C_13 
REMARK    6  A    between atoms: C_11  and  O_12 
REMARK    7  A    between atoms: C_13  and  C_14 
ROOT
HETATM    1  N   UNL     1      -6.827   1.563 -31.086  1.00  0.00    -0.066 N 
HETATM    2  H   UNL     1      -7.671   1.075 -31.442  1.00  0.00     0.278 HD
HETATM    3  H   UNL     1      -6.763   1.318 -30.079  1.00  0.00     0.278 HD
ENDROOT
BRANCH   1   4
HETATM    4  C   UNL     1      -5.657   1.021 -31.805  1.00  0.00     0.220 C 
HETATM    5  C   UNL     1      -6.037   0.178 -32.988  1.00  0.00    -0.021 A 
HETATM    6  C   UNL     1      -5.250  -0.987 -33.043  1.00  0.00    -0.040 A 
HETATM    7  C   UNL     1      -6.994   0.439 -33.959  1.00  0.00     0.010 A 
HETATM    8  C   UNL     1      -5.433  -1.936 -34.046  1.00  0.00    -0.055 A 
HETATM    9  C   UNL     1      -4.248  -1.004 -31.919  1.00  0.00     0.018 C 
HETATM   10  C   UNL     1      -4.600  -3.180 -34.139  1.00  0.00     0.049 C 
HETATM   11  C   UNL     1      -6.406  -1.668 -35.020  1.00  0.00     0.007 A 
HETATM   12  C   UNL     1      -7.177  -0.497 -34.977  1.00  0.00     0.001 A 
HETATM   13  C   UNL     1      -4.899  -0.005 -30.943  1.00  0.00     0.047 C 
HETATM   14  C   UNL     1      -2.865  -0.553 -32.375  1.00  0.00     0.015 C 
ENDBRANCH   1   4
BRANCH   1  15
HETATM   15  C   UNL     1      -7.113   3.018 -31.187  1.00  0.00     0.240 C 
BRANCH  15  16
HETATM   16  C   UNL     1      -5.800   3.820 -31.303  1.00  0.00     0.040 C 
BRANCH  16  17
HETATM   17  C   UNL     1      -5.555   4.616 -30.010  1.00  0.00     0.170 C 
BRANCH  17  18
HETATM   18  O   UNL     1      -5.472   3.710 -28.908  1.00  0.00    -0.400 OA
HETATM   19  H   UNL     1      -5.348   4.261 -28.107  1.00  0.00     0.209 HD
ENDBRANCH  17  18
ENDBRANCH  16  17
BRANCH  16  20
HETATM   20  C   UNL     1      -5.741   4.786 -32.509  1.00  0.00     0.067 C 
BRANCH  20  21
HETATM   21  C   UNL     1      -4.365   4.915 -33.104  1.00  0.00     0.034 A 
HETATM   22  N   UNL     1      -4.159   6.005 -33.897  1.00  0.00    -0.266 NA
HETATM   23  C   UNL     1      -2.919   6.135 -34.433  1.00  0.00     0.117 A 
HETATM   24  C   UNL     1      -1.896   5.220 -34.248  1.00  0.00     0.019 A 
HETATM   25  C   UNL     1      -2.143   4.105 -33.455  1.00  0.00     0.003 A 
HETATM   26  C   UNL     1      -3.395   3.946 -32.871  1.00  0.00     0.027 A 
ENDBRANCH  20  21
ENDBRANCH  16  20
ENDBRANCH  15  16
ENDBRANCH   1  15
TORSDOF 7
ENDMDL
MODEL 9
REMARK VINA RESULT:      -7.4     14.536     16.495
REMARK  7 active torsions:
REMARK  status: ('A' for Active; 'I' for Inactive)
REMARK    1  A    between atoms: C_5  and  N_6 
REMARK    2  A    between atoms: N_6  and  C_9 
REMARK    3  A    between atoms: C_9  and  C_10 
REMARK    4  A    between atoms: C_10  and  C_11 
REMARK    5  A    between atoms: C_10  and  C_13 
REMARK    6  A    between atoms: C_11  and  O_12 
REMARK    7  A    between atoms: C_13  and  C_14 
ROOT
HETATM    1  N   UNL     1      -4.386 -12.607 -36.426  1.00  0.00    -0.066 N 
HETATM    2  H   UNL     1      -3.806 -12.310 -35.618  1.00  0.00     0.278 HD
HETATM    3  H   UNL     1      -5.117 -11.878 -36.532  1.00  0.00     0.278 HD
ENDROOT
BRANCH   1   4
HETATM    4  C   UNL     1      -3.520 -12.621 -37.622  1.00  0.00     0.220 C 
HETATM    5  C   UNL     1      -4.295 -12.703 -38.905  1.00  0.00    -0.021 A 
HETATM    6  C   UNL     1      -3.695 -13.615 -39.792  1.00  0.00    -0.040 A 
HETATM    7  C   UNL     1      -5.435 -11.999 -39.267  1.00  0.00     0.010 A 
HETATM    8  C   UNL     1      -4.247 -13.876 -41.044  1.00  0.00    -0.055 A 
HETATM    9  C   UNL     1      -2.442 -14.195 -39.189  1.00  0.00     0.018 C 
HETATM   10  C   UNL     1      -3.623 -14.832 -42.016  1.00  0.00     0.049 C 
HETATM   11  C   UNL     1      -5.403 -13.165 -41.401  1.00  0.00     0.007 A 
HETATM   12  C   UNL     1      -5.989 -12.240 -40.525  1.00  0.00     0.001 A 
HETATM   13  C   UNL     1      -2.690 -13.916 -37.694  1.00  0.00     0.047 C 
HETATM   14  C   UNL     1      -1.184 -13.509 -39.708  1.00  0.00     0.015 C 
ENDBRANCH   1   4
BRANCH   1  15
HETATM   15  C   UNL     1      -5.054 -13.870 -36.016  1.00  0.00     0.240 C 
BRANCH  15  16
HETATM   16  C   UNL     1      -6.587 -13.733 -36.135  1.00  0.00     0.040 C 
BRANCH  16  17
HETATM   17  C   UNL     1      -7.201 -13.479 -34.748  1.00  0.00     0.170 C 
BRANCH  17  18
HETATM   18  O   UNL     1      -6.503 -12.405 -34.114  1.00  0.00    -0.400 OA
HETATM   19  H   UNL     1      -5.770 -12.159 -34.716  1.00  0.00     0.209 HD
ENDBRANCH  17  18
ENDBRANCH  16  17
BRANCH  16  20
HETATM   20  C   UNL     1      -7.292 -14.947 -36.784  1.00  0.00     0.067 C 
BRANCH  20  21
HETATM   21  C   UNL     1      -7.993 -14.611 -38.072  1.00  0.00     0.034 A 
HETATM   22  N   UNL     1      -7.727 -15.432 -39.127  1.00  0.00    -0.266 NA
HETATM   23  C   UNL     1      -8.360 -15.142 -40.292  1.00  0.00     0.117 A 
HETATM   24  C   UNL     1      -9.209 -14.062 -40.463  1.00  0.00     0.019 A 
HETATM   25  C   UNL     1      -9.443 -13.227 -39.377  1.00  0.00     0.003 A 
HETATM   26  C   UNL     1      -8.828 -13.502 -38.159  1.00  0.00     0.027 A 
ENDBRANCH  20  21
ENDBRANCH  16  20
ENDBRANCH  15  16
ENDBRANCH   1  15
TORSDOF 7
ENDMDL
MODEL 10
REMARK VINA RESULT:      -7.3      3.516      5.026
REMARK  7 active torsions:
REMARK  status: ('A' for Active; 'I' for Inactive)
REMARK    1  A    between atoms: C_5  and  N_6 
REMARK    2  A    between atoms: N_6  and  C_9 
REMARK    3  A    between atoms: C_9  and  C_10 
REMARK    4  A    between atoms: C_10  and  C_11 
REMARK    5  A    between atoms: C_10  and  C_13 
REMARK    6  A    between atoms: C_11  and  O_12 
REMARK    7  A    between atoms: C_13  and  C_14 
ROOT
HETATM    1  N   UNL     1      -8.114  -0.040 -33.236  1.00  0.00    -0.066 N 
HETATM    2  H   UNL     1      -8.402   0.522 -34.060  1.00  0.00     0.278 HD
HETATM    3  H   UNL     1      -8.371  -1.021 -33.460  1.00  0.00     0.278 HD
ENDROOT
BRANCH   1   4
HETATM    4  C   UNL     1      -6.648   0.072 -33.104  1.00  0.00     0.220 C 
HETATM    5  C   UNL     1      -5.922  -1.148 -33.592  1.00  0.00    -0.021 A 
HETATM    6  C   UNL     1      -4.889  -1.502 -32.705  1.00  0.00    -0.040 A 
HETATM    7  C   UNL     1      -6.147  -1.876 -34.752  1.00  0.00     0.010 A 
HETATM    8  C   UNL     1      -4.086  -2.616 -32.937  1.00  0.00    -0.055 A 
HETATM    9  C   UNL     1      -4.811  -0.522 -31.564  1.00  0.00     0.018 C 
HETATM   10  C   UNL     1      -2.968  -3.009 -32.018  1.00  0.00     0.049 C 
HETATM   11  C   UNL     1      -4.323  -3.350 -34.108  1.00  0.00     0.007 A 
HETATM   12  C   UNL     1      -5.339  -2.986 -35.004  1.00  0.00     0.001 A 
HETATM   13  C   UNL     1      -6.221   0.098 -31.625  1.00  0.00     0.047 C 
HETATM   14  C   UNL     1      -3.712   0.514 -31.769  1.00  0.00     0.015 C 
ENDBRANCH   1   4
BRANCH   1  15
HETATM   15  C   UNL     1      -8.967   0.411 -32.105  1.00  0.00     0.240 C 
BRANCH  15  16
HETATM   16  C   UNL     1      -9.872   1.581 -32.546  1.00  0.00     0.040 C 
BRANCH  16  17
HETATM   17  C   UNL     1     -10.705   1.169 -33.772  1.00  0.00     0.170 C 
BRANCH  17  18
HETATM   18  O   UNL     1      -9.992   1.510 -34.962  1.00  0.00    -0.400 OA
HETATM   19  H   UNL     1     -10.364   2.363 -35.271  1.00  0.00     0.209 HD
ENDBRANCH  17  18
ENDBRANCH  16  17
BRANCH  16  20
HETATM   20  C   UNL     1      -9.117   2.891 -32.867  1.00  0.00     0.067 C 
BRANCH  20  21
HETATM   21  C   UNL     1      -8.079   3.249 -31.839  1.00  0.00     0.034 A 
HETATM   22  N   UNL     1      -8.500   3.251 -30.542  1.00  0.00    -0.266 NA
HETATM   23  C   UNL     1      -7.570   3.565 -29.606  1.00  0.00     0.117 A 
HETATM   24  C   UNL     1      -6.261   3.911 -29.900  1.00  0.00     0.019 A 
HETATM   25  C   UNL     1      -5.867   3.925 -31.233  1.00  0.00     0.003 A 
HETATM   26  C   UNL     1      -6.786   3.589 -32.221  1.00  0.00     0.027 A 
ENDBRANCH  20  21
ENDBRANCH  16  20
ENDBRANCH  15  16
ENDBRANCH   1  15
TORSDOF 7
ENDMDL
