MODEL 1
REMARK VINA RESULT:      -8.6      0.000      0.000
REMARK  8 active torsions:
REMARK  status: ('A' for Active; 'I' for Inactive)
REMARK    1  A    between atoms: C_2  and  C_3 
REMARK    2  A    between atoms: C_4  and  N_5 
REMARK    3  A    between atoms: N_5  and  S_6 
REMARK    4  A    between atoms: S_6  and  C_7 
REMARK    5  A    between atoms: C_13  and  C_14 
REMARK       I    between atoms: C_14  and  N_15 
REMARK    6  A    between atoms: N_15  and  C_16 
REMARK    7  A    between atoms: C_16  and  C_17 
REMARK    8  A    between atoms: C_17  and  O_18 
ROOT
HETATM    1  C   UNL     1      -4.346   1.266 -32.395  1.00  0.00     0.081 A 
HETATM    2  C   UNL     1      -3.360   2.117 -31.891  1.00  0.00     0.043 A 
HETATM    3  C   UNL     1      -3.541   3.500 -31.993  1.00  0.00     0.043 A 
HETATM    4  C   UNL     1      -4.718   4.038 -32.546  1.00  0.00     0.046 A 
HETATM    5  N   UNL     1      -4.868   5.424 -32.652  1.00  0.00    -0.364 N 
HETATM    6  C   UNL     1      -3.913   6.273 -32.155  1.00  0.00     0.109 A 
HETATM    7  C   UNL     1      -2.743   5.897 -31.608  1.00  0.00     0.098 A 
HETATM    8  C   UNL     1      -2.482   4.432 -31.518  1.00  0.00     0.201 A 
HETATM    9  O   UNL     1      -1.425   3.990 -31.076  1.00  0.00    -0.286 OA
HETATM   10  C   UNL     1      -5.696   3.169 -33.040  1.00  0.00     0.032 A 
HETATM   11  C   UNL     1      -5.516   1.785 -32.961  1.00  0.00     0.027 A 
HETATM   12  H   UNL     1      -5.768   5.810 -32.917  1.00  0.00     0.165 HD
ENDROOT
BRANCH   1  13
HETATM   13  S   UNL     1      -4.151  -0.493 -32.235  1.00  0.00     0.263 S 
HETATM   14  O   UNL     1      -5.395  -1.011 -31.698  1.00  0.00    -0.200 OA
HETATM   15  O   UNL     1      -2.893  -0.756 -31.575  1.00  0.00    -0.200 OA
BRANCH  13  16
HETATM   16  N   UNL     1      -4.102  -1.016 -33.844  1.00  0.00    -0.280 N 
HETATM   17  H   UNL     1      -4.248  -0.229 -34.474  1.00  0.00     0.179 HD
BRANCH  16  18
HETATM   18  C   UNL     1      -4.774  -2.232 -34.171  1.00  0.00     0.049 A 
HETATM   19  C   UNL     1      -6.092  -2.233 -34.657  1.00  0.00    -0.031 A 
HETATM   20  C   UNL     1      -6.709  -3.469 -34.917  1.00  0.00     0.009 A 
HETATM   21  C   UNL     1      -6.036  -4.669 -34.684  1.00  0.00     0.001 A 
HETATM   22  C   UNL     1      -4.732  -4.653 -34.199  1.00  0.00     0.002 A 
HETATM   23  C   UNL     1      -4.102  -3.436 -33.945  1.00  0.00     0.030 A 
BRANCH  19  24
HETATM   24  C   UNL     1      -6.866  -0.967 -34.940  1.00  0.00     0.036 C 
HETATM   25  C   UNL     1      -7.952  -0.726 -33.901  1.00  0.00     0.010 C 
ENDBRANCH  19  24
ENDBRANCH  16  18
ENDBRANCH  13  16
ENDBRANCH   1  13
BRANCH   7  26
HETATM   26  C   UNL     1      -1.802   6.959 -31.156  1.00  0.00     0.257 C 
HETATM   27  N   UNL     1      -1.495   6.948 -29.821  1.00  0.00    -0.355 N 
HETATM   28  H   UNL     1      -2.018   6.326 -29.204  1.00  0.00     0.162 HD
HETATM   29  O   UNL     1      -1.332   7.781 -31.940  1.00  0.00    -0.267 OA
BRANCH  27  30
HETATM   30  C   UNL     1      -0.637   7.946 -29.209  1.00  0.00     0.149 C 
BRANCH  30  31
HETATM   31  C   UNL     1       0.620   7.333 -28.593  1.00  0.00     0.186 C 
BRANCH  31  32
HETATM   32  O   UNL     1       0.256   6.161 -27.856  1.00  0.00    -0.394 OA
HETATM   33  C   UNL     1      -0.246   6.489 -26.567  1.00  0.00     0.201 C 
ENDBRANCH  31  32
ENDBRANCH  30  31
ENDBRANCH  27  30
ENDBRANCH   7  26
TORSDOF 8
ENDMDL
MODEL 2
REMARK VINA RESULT:      -8.6      1.620      2.342
REMARK  8 active torsions:
REMARK  status: ('A' for Active; 'I' for Inactive)
REMARK    1  A    between atoms: C_2  and  C_3 
REMARK    2  A    between atoms: C_4  and  N_5 
REMARK    3  A    between atoms: N_5  and  S_6 
REMARK    4  A    between atoms: S_6  and  C_7 
REMARK    5  A    between atoms: C_13  and  C_14 
REMARK       I    between atoms: C_14  and  N_15 
REMARK    6  A    between atoms: N_15  and  C_16 
REMARK    7  A    between atoms: C_16  and  C_17 
REMARK    8  A    between atoms: C_17  and  O_18 
ROOT
HETATM    1  C   UNL     1      -6.424   1.707 -33.297  1.00  0.00     0.081 A 
HETATM    2  C   UNL     1      -5.168   1.961 -32.742  1.00  0.00     0.043 A 
HETATM    3  C   UNL     1      -4.668   3.268 -32.765  1.00  0.00     0.043 A 
HETATM    4  C   UNL     1      -5.433   4.327 -33.290  1.00  0.00     0.046 A 
HETATM    5  N   UNL     1      -4.904   5.621 -33.315  1.00  0.00    -0.364 N 
HETATM    6  C   UNL     1      -3.676   5.889 -32.768  1.00  0.00     0.109 A 
HETATM    7  C   UNL     1      -2.842   4.976 -32.240  1.00  0.00     0.098 A 
HETATM    8  C   UNL     1      -3.308   3.560 -32.235  1.00  0.00     0.201 A 
HETATM    9  O   UNL     1      -2.601   2.647 -31.816  1.00  0.00    -0.286 OA
HETATM   10  C   UNL     1      -6.691   4.052 -33.835  1.00  0.00     0.032 A 
HETATM   11  C   UNL     1      -7.191   2.747 -33.835  1.00  0.00     0.027 A 
HETATM   12  H   UNL     1      -5.505   6.401 -33.561  1.00  0.00     0.165 HD
ENDROOT
BRANCH   1  13
HETATM   13  S   UNL     1      -7.091   0.061 -33.238  1.00  0.00     0.263 S 
HETATM   14  O   UNL     1      -8.509   0.167 -33.523  1.00  0.00    -0.200 OA
HETATM   15  O   UNL     1      -6.624  -0.579 -32.030  1.00  0.00    -0.200 OA
BRANCH  13  16
HETATM   16  N   UNL     1      -6.411  -0.672 -34.605  1.00  0.00    -0.280 N 
HETATM   17  H   UNL     1      -6.959  -0.448 -35.434  1.00  0.00     0.179 HD
BRANCH  16  18
HETATM   18  C   UNL     1      -5.957  -2.019 -34.482  1.00  0.00     0.049 A 
HETATM   19  C   UNL     1      -4.653  -2.316 -34.049  1.00  0.00    -0.031 A 
HETATM   20  C   UNL     1      -4.257  -3.663 -33.993  1.00  0.00     0.009 A 
HETATM   21  C   UNL     1      -5.131  -4.684 -34.372  1.00  0.00     0.001 A 
HETATM   22  C   UNL     1      -6.418  -4.374 -34.802  1.00  0.00     0.002 A 
HETATM   23  C   UNL     1      -6.830  -3.044 -34.855  1.00  0.00     0.030 A 
BRANCH  19  24
HETATM   24  C   UNL     1      -3.669  -1.256 -33.614  1.00  0.00     0.036 C 
HETATM   25  C   UNL     1      -3.228  -1.455 -32.171  1.00  0.00     0.010 C 
ENDBRANCH  19  24
ENDBRANCH  16  18
ENDBRANCH  13  16
ENDBRANCH   1  13
BRANCH   7  26
HETATM   26  C   UNL     1      -1.523   5.439 -31.725  1.00  0.00     0.257 C 
HETATM   27  N   UNL     1      -1.120   4.878 -30.542  1.00  0.00    -0.355 N 
HETATM   28  H   UNL     1      -1.783   4.301 -30.024  1.00  0.00     0.162 HD
HETATM   29  O   UNL     1      -0.847   6.266 -32.334  1.00  0.00    -0.267 OA
BRANCH  27  30
HETATM   30  C   UNL     1       0.112   5.260 -29.877  1.00  0.00     0.149 C 
BRANCH  30  31
HETATM   31  C   UNL     1      -0.130   6.213 -28.706  1.00  0.00     0.186 C 
BRANCH  31  32
HETATM   32  O   UNL     1       0.194   7.546 -29.115  1.00  0.00    -0.394 OA
HETATM   33  C   UNL     1       1.094   8.167 -28.205  1.00  0.00     0.201 C 
ENDBRANCH  31  32
ENDBRANCH  30  31
ENDBRANCH  27  30
ENDBRANCH   7  26
TORSDOF 8
ENDMDL
MODEL 3
REMARK VINA RESULT:      -8.1      2.453      9.540
REMARK  8 active torsions:
REMARK  status: ('A' for Active; 'I' for Inactive)
REMARK    1  A    between atoms: C_2  and  C_3 
REMARK    2  A    between atoms: C_4  and  N_5 
REMARK    3  A    between atoms: N_5  and  S_6 
REMARK    4  A    between atoms: S_6  and  C_7 
REMARK    5  A    between atoms: C_13  and  C_14 
REMARK       I    between atoms: C_14  and  N_15 
REMARK    6  A    between atoms: N_15  and  C_16 
REMARK    7  A    between atoms: C_16  and  C_17 
REMARK    8  A    between atoms: C_17  and  O_18 
ROOT
HETATM    1  C   UNL     1      -1.138   5.523 -32.036  1.00  0.00     0.081 A 
HETATM    2  C   UNL     1      -2.136   4.589 -31.750  1.00  0.00     0.043 A 
HETATM    3  C   UNL     1      -3.222   4.468 -32.624  1.00  0.00     0.043 A 
HETATM    4  C   UNL     1      -3.293   5.234 -33.802  1.00  0.00     0.046 A 
HETATM    5  N   UNL     1      -4.397   5.105 -34.650  1.00  0.00    -0.364 N 
HETATM    6  C   UNL     1      -5.381   4.187 -34.388  1.00  0.00     0.109 A 
HETATM    7  C   UNL     1      -5.441   3.398 -33.301  1.00  0.00     0.098 A 
HETATM    8  C   UNL     1      -4.331   3.523 -32.316  1.00  0.00     0.201 A 
HETATM    9  O   UNL     1      -4.318   2.879 -31.270  1.00  0.00    -0.286 OA
HETATM   10  C   UNL     1      -2.281   6.160 -34.073  1.00  0.00     0.032 A 
HETATM   11  C   UNL     1      -1.201   6.303 -33.196  1.00  0.00     0.027 A 
HETATM   12  H   UNL     1      -4.379   5.549 -35.563  1.00  0.00     0.165 HD
ENDROOT
BRANCH   1  13
HETATM   13  S   UNL     1       0.269   5.660 -30.959  1.00  0.00     0.263 S 
HETATM   14  O   UNL     1       0.871   6.955 -31.210  1.00  0.00    -0.200 OA
HETATM   15  O   UNL     1       1.047   4.448 -31.068  1.00  0.00    -0.200 OA
BRANCH  13  16
HETATM   16  N   UNL     1      -0.438   5.781 -29.426  1.00  0.00    -0.280 N 
HETATM   17  H   UNL     1      -1.401   5.448 -29.455  1.00  0.00     0.179 HD
BRANCH  16  18
HETATM   18  C   UNL     1      -0.194   6.967 -28.671  1.00  0.00     0.049 A 
HETATM   19  C   UNL     1      -1.066   8.067 -28.731  1.00  0.00    -0.031 A 
HETATM   20  C   UNL     1      -0.741   9.220 -27.996  1.00  0.00     0.009 A 
HETATM   21  C   UNL     1       0.427   9.278 -27.233  1.00  0.00     0.001 A 
HETATM   22  C   UNL     1       1.282   8.182 -27.185  1.00  0.00     0.002 A 
HETATM   23  C   UNL     1       0.971   7.028 -27.901  1.00  0.00     0.030 A 
BRANCH  19  24
HETATM   24  C   UNL     1      -2.349   8.057 -29.528  1.00  0.00     0.036 C 
HETATM   25  C   UNL     1      -2.241   8.914 -30.781  1.00  0.00     0.010 C 
ENDBRANCH  19  24
ENDBRANCH  16  18
ENDBRANCH  13  16
ENDBRANCH   1  13
BRANCH   7  26
HETATM   26  C   UNL     1      -6.609   2.484 -33.157  1.00  0.00     0.257 C 
HETATM   27  N   UNL     1      -6.307   1.182 -32.856  1.00  0.00    -0.355 N 
HETATM   28  H   UNL     1      -5.330   0.887 -32.886  1.00  0.00     0.162 HD
HETATM   29  O   UNL     1      -7.763   2.885 -33.294  1.00  0.00    -0.267 OA
BRANCH  27  30
HETATM   30  C   UNL     1      -7.323   0.153 -32.736  1.00  0.00     0.149 C 
BRANCH  30  31
HETATM   31  C   UNL     1      -7.550  -0.596 -34.048  1.00  0.00     0.186 C 
BRANCH  31  32
HETATM   32  O   UNL     1      -6.285  -0.834 -34.675  1.00  0.00    -0.394 OA
HETATM   33  C   UNL     1      -5.947  -2.215 -34.660  1.00  0.00     0.201 C 
ENDBRANCH  31  32
ENDBRANCH  30  31
ENDBRANCH  27  30
ENDBRANCH   7  26
TORSDOF 8
ENDMDL
MODEL 4
REMARK VINA RESULT:      -8.1      2.400      3.101
REMARK  8 active torsions:
REMARK  status: ('A' for Active; 'I' for Inactive)
REMARK    1  A    between atoms: C_2  and  C_3 
REMARK    2  A    between atoms: C_4  and  N_5 
REMARK    3  A    between atoms: N_5  and  S_6 
REMARK    4  A    between atoms: S_6  and  C_7 
REMARK    5  A    between atoms: C_13  and  C_14 
REMARK       I    between atoms: C_14  and  N_15 
REMARK    6  A    between atoms: N_15  and  C_16 
REMARK    7  A    between atoms: C_16  and  C_17 
REMARK    8  A    between atoms: C_17  and  O_18 
ROOT
HETATM    1  C   UNL     1      -6.517   2.702 -32.237  1.00  0.00     0.081 A 
HETATM    2  C   UNL     1      -5.432   3.464 -31.797  1.00  0.00     0.043 A 
HETATM    3  C   UNL     1      -4.710   4.217 -32.730  1.00  0.00     0.043 A 
HETATM    4  C   UNL     1      -5.093   4.253 -34.083  1.00  0.00     0.046 A 
HETATM    5  N   UNL     1      -4.344   5.000 -34.998  1.00  0.00    -0.364 N 
HETATM    6  C   UNL     1      -3.281   5.760 -34.581  1.00  0.00     0.109 A 
HETATM    7  C   UNL     1      -2.806   5.814 -33.325  1.00  0.00     0.098 A 
HETATM    8  C   UNL     1      -3.513   4.992 -32.302  1.00  0.00     0.201 A 
HETATM    9  O   UNL     1      -3.129   4.939 -31.136  1.00  0.00    -0.286 OA
HETATM   10  C   UNL     1      -6.185   3.488 -34.502  1.00  0.00     0.032 A 
HETATM   11  C   UNL     1      -6.901   2.717 -33.582  1.00  0.00     0.027 A 
HETATM   12  H   UNL     1      -4.700   5.140 -35.938  1.00  0.00     0.165 HD
ENDROOT
BRANCH   1  13
HETATM   13  S   UNL     1      -7.471   1.774 -31.059  1.00  0.00     0.263 S 
HETATM   14  O   UNL     1      -8.862   1.896 -31.449  1.00  0.00    -0.200 OA
HETATM   15  O   UNL     1      -7.039   2.141 -29.730  1.00  0.00    -0.200 OA
BRANCH  13  16
HETATM   16  N   UNL     1      -7.045   0.172 -31.406  1.00  0.00    -0.280 N 
HETATM   17  H   UNL     1      -7.453  -0.457 -30.716  1.00  0.00     0.179 HD
BRANCH  16  18
HETATM   18  C   UNL     1      -5.698  -0.090 -31.794  1.00  0.00     0.049 A 
HETATM   19  C   UNL     1      -5.388  -0.600 -33.066  1.00  0.00    -0.031 A 
HETATM   20  C   UNL     1      -4.044  -0.877 -33.368  1.00  0.00     0.009 A 
HETATM   21  C   UNL     1      -3.038  -0.665 -32.422  1.00  0.00     0.001 A 
HETATM   22  C   UNL     1      -3.360  -0.162 -31.166  1.00  0.00     0.002 A 
HETATM   23  C   UNL     1      -4.688   0.126 -30.853  1.00  0.00     0.030 A 
BRANCH  19  24
HETATM   24  C   UNL     1      -6.430  -0.838 -34.133  1.00  0.00     0.036 C 
HETATM   25  C   UNL     1      -6.395  -2.271 -34.646  1.00  0.00     0.010 C 
ENDBRANCH  19  24
ENDBRANCH  16  18
ENDBRANCH  13  16
ENDBRANCH   1  13
BRANCH   7  26
HETATM   26  C   UNL     1      -1.613   6.664 -33.057  1.00  0.00     0.257 C 
HETATM   27  N   UNL     1      -0.847   6.287 -31.986  1.00  0.00    -0.355 N 
HETATM   28  H   UNL     1      -1.198   5.557 -31.365  1.00  0.00     0.162 HD
HETATM   29  O   UNL     1      -1.340   7.634 -33.762  1.00  0.00    -0.267 OA
BRANCH  27  30
HETATM   30  C   UNL     1       0.318   7.039 -31.556  1.00  0.00     0.149 C 
BRANCH  30  31
HETATM   31  C   UNL     1       0.556   6.932 -30.050  1.00  0.00     0.186 C 
BRANCH  31  32
HETATM   32  O   UNL     1      -0.020   5.712 -29.572  1.00  0.00    -0.394 OA
HETATM   33  C   UNL     1       0.978   4.740 -29.287  1.00  0.00     0.201 C 
ENDBRANCH  31  32
ENDBRANCH  30  31
ENDBRANCH  27  30
ENDBRANCH   7  26
TORSDOF 8
ENDMDL
MODEL 5
REMARK VINA RESULT:      -8.0      2.579      3.563
REMARK  8 active torsions:
REMARK  status: ('A' for Active; 'I' for Inactive)
REMARK    1  A    between atoms: C_2  and  C_3 
REMARK    2  A    between atoms: C_4  and  N_5 
REMARK    3  A    between atoms: N_5  and  S_6 
REMARK    4  A    between atoms: S_6  and  C_7 
REMARK    5  A    between atoms: C_13  and  C_14 
REMARK       I    between atoms: C_14  and  N_15 
REMARK    6  A    between atoms: N_15  and  C_16 
REMARK    7  A    between atoms: C_16  and  C_17 
REMARK    8  A    between atoms: C_17  and  O_18 
ROOT
HETATM    1  C   UNL     1      -6.857   0.836 -32.821  1.00  0.00     0.081 A 
HETATM    2  C   UNL     1      -5.851   1.792 -32.974  1.00  0.00     0.043 A 
HETATM    3  C   UNL     1      -5.730   2.809 -32.020  1.00  0.00     0.043 A 
HETATM    4  C   UNL     1      -6.572   2.847 -30.893  1.00  0.00     0.046 A 
HETATM    5  N   UNL     1      -6.442   3.883 -29.963  1.00  0.00    -0.364 N 
HETATM    6  C   UNL     1      -5.454   4.825 -30.094  1.00  0.00     0.109 A 
HETATM    7  C   UNL     1      -4.589   4.910 -31.119  1.00  0.00     0.098 A 
HETATM    8  C   UNL     1      -4.706   3.876 -32.187  1.00  0.00     0.201 A 
HETATM    9  O   UNL     1      -3.991   3.894 -33.186  1.00  0.00    -0.286 OA
HETATM   10  C   UNL     1      -7.570   1.878 -30.756  1.00  0.00     0.032 A 
HETATM   11  C   UNL     1      -7.711   0.869 -31.713  1.00  0.00     0.027 A 
HETATM   12  H   UNL     1      -6.949   3.832 -29.085  1.00  0.00     0.165 HD
ENDROOT
BRANCH   1  13
HETATM   13  S   UNL     1      -6.997  -0.486 -34.001  1.00  0.00     0.263 S 
HETATM   14  O   UNL     1      -7.666   0.055 -35.168  1.00  0.00    -0.200 OA
HETATM   15  O   UNL     1      -7.517  -1.651 -33.323  1.00  0.00    -0.200 OA
BRANCH  13  16
HETATM   16  N   UNL     1      -5.392  -0.738 -34.478  1.00  0.00    -0.280 N 
HETATM   17  H   UNL     1      -5.319  -0.711 -35.493  1.00  0.00     0.179 HD
BRANCH  16  18
HETATM   18  C   UNL     1      -4.651  -1.757 -33.809  1.00  0.00     0.049 A 
HETATM   19  C   UNL     1      -4.654  -3.086 -34.266  1.00  0.00    -0.031 A 
HETATM   20  C   UNL     1      -3.937  -4.047 -33.534  1.00  0.00     0.009 A 
HETATM   21  C   UNL     1      -3.248  -3.697 -32.371  1.00  0.00     0.001 A 
HETATM   22  C   UNL     1      -3.256  -2.378 -31.929  1.00  0.00     0.002 A 
HETATM   23  C   UNL     1      -3.955  -1.410 -32.648  1.00  0.00     0.030 A 
BRANCH  19  24
HETATM   24  C   UNL     1      -5.369  -3.522 -35.523  1.00  0.00     0.036 C 
HETATM   25  C   UNL     1      -6.510  -4.482 -35.218  1.00  0.00     0.010 C 
ENDBRANCH  19  24
ENDBRANCH  16  18
ENDBRANCH  13  16
ENDBRANCH   1  13
BRANCH   7  26
HETATM   26  C   UNL     1      -3.603   6.027 -31.121  1.00  0.00     0.257 C 
HETATM   27  N   UNL     1      -3.288   6.536 -32.352  1.00  0.00    -0.355 N 
HETATM   28  H   UNL     1      -3.625   6.049 -33.184  1.00  0.00     0.162 HD
HETATM   29  O   UNL     1      -3.116   6.458 -30.077  1.00  0.00    -0.267 OA
BRANCH  27  30
HETATM   30  C   UNL     1      -2.306   7.588 -32.534  1.00  0.00     0.149 C 
BRANCH  30  31
HETATM   31  C   UNL     1      -1.011   7.073 -33.161  1.00  0.00     0.186 C 
BRANCH  31  32
HETATM   32  O   UNL     1      -1.160   5.681 -33.464  1.00  0.00    -0.394 OA
HETATM   33  C   UNL     1      -1.247   5.458 -34.865  1.00  0.00     0.201 C 
ENDBRANCH  31  32
ENDBRANCH  30  31
ENDBRANCH  27  30
ENDBRANCH   7  26
TORSDOF 8
ENDMDL
MODEL 6
REMARK VINA RESULT:      -7.9      5.097      8.485
REMARK  8 active torsions:
REMARK  status: ('A' for Active; 'I' for Inactive)
REMARK    1  A    between atoms: C_2  and  C_3 
REMARK    2  A    between atoms: C_4  and  N_5 
REMARK    3  A    between atoms: N_5  and  S_6 
REMARK    4  A    between atoms: S_6  and  C_7 
REMARK    5  A    between atoms: C_13  and  C_14 
REMARK       I    between atoms: C_14  and  N_15 
REMARK    6  A    between atoms: N_15  and  C_16 
REMARK    7  A    between atoms: C_16  and  C_17 
REMARK    8  A    between atoms: C_17  and  O_18 
ROOT
HETATM    1  C   UNL     1      -7.057   2.612 -31.252  1.00  0.00     0.081 A 
HETATM    2  C   UNL     1      -8.265   2.372 -31.909  1.00  0.00     0.043 A 
HETATM    3  C   UNL     1      -9.394   3.114 -31.545  1.00  0.00     0.043 A 
HETATM    4  C   UNL     1      -9.313   4.124 -30.569  1.00  0.00     0.046 A 
HETATM    5  N   UNL     1     -10.459   4.840 -30.211  1.00  0.00    -0.364 N 
HETATM    6  C   UNL     1     -11.652   4.623 -30.853  1.00  0.00     0.109 A 
HETATM    7  C   UNL     1     -11.871   3.690 -31.796  1.00  0.00     0.098 A 
HETATM    8  C   UNL     1     -10.710   2.841 -32.187  1.00  0.00     0.201 A 
HETATM    9  O   UNL     1     -10.819   1.933 -33.006  1.00  0.00    -0.286 OA
HETATM   10  C   UNL     1      -8.092   4.352 -29.926  1.00  0.00     0.032 A 
HETATM   11  C   UNL     1      -6.963   3.603 -30.269  1.00  0.00     0.027 A 
HETATM   12  H   UNL     1     -10.372   5.657 -29.616  1.00  0.00     0.165 HD
ENDROOT
BRANCH   1  13
HETATM   13  S   UNL     1      -5.604   1.708 -31.732  1.00  0.00     0.263 S 
HETATM   14  O   UNL     1      -4.611   1.919 -30.696  1.00  0.00    -0.200 OA
HETATM   15  O   UNL     1      -5.310   2.014 -33.113  1.00  0.00    -0.200 OA
BRANCH  13  16
HETATM   16  N   UNL     1      -6.090   0.095 -31.568  1.00  0.00    -0.280 N 
HETATM   17  H   UNL     1      -6.003  -0.202 -30.597  1.00  0.00     0.179 HD
BRANCH  16  18
HETATM   18  C   UNL     1      -5.664  -0.834 -32.563  1.00  0.00     0.049 A 
HETATM   19  C   UNL     1      -6.502  -1.201 -33.630  1.00  0.00    -0.031 A 
HETATM   20  C   UNL     1      -6.036  -2.154 -34.551  1.00  0.00     0.009 A 
HETATM   21  C   UNL     1      -4.776  -2.737 -34.403  1.00  0.00     0.001 A 
HETATM   22  C   UNL     1      -3.958  -2.367 -33.340  1.00  0.00     0.002 A 
HETATM   23  C   UNL     1      -4.402  -1.416 -32.422  1.00  0.00     0.030 A 
BRANCH  19  24
HETATM   24  C   UNL     1      -7.868  -0.595 -33.849  1.00  0.00     0.036 C 
HETATM   25  C   UNL     1      -7.908   0.268 -35.102  1.00  0.00     0.010 C 
ENDBRANCH  19  24
ENDBRANCH  16  18
ENDBRANCH  13  16
ENDBRANCH   1  13
BRANCH   7  26
HETATM   26  C   UNL     1     -13.245   3.565 -32.359  1.00  0.00     0.257 C 
HETATM   27  N   UNL     1     -13.864   2.362 -32.146  1.00  0.00    -0.355 N 
HETATM   28  H   UNL     1     -13.318   1.594 -31.752  1.00  0.00     0.162 HD
HETATM   29  O   UNL     1     -13.779   4.490 -32.968  1.00  0.00    -0.267 OA
BRANCH  27  30
HETATM   30  C   UNL     1     -15.180   2.057 -32.675  1.00  0.00     0.149 C 
BRANCH  30  31
HETATM   31  C   UNL     1     -15.124   1.074 -33.844  1.00  0.00     0.186 C 
BRANCH  31  32
HETATM   32  O   UNL     1     -13.757   0.732 -34.101  1.00  0.00    -0.394 OA
HETATM   33  C   UNL     1     -13.452  -0.579 -33.642  1.00  0.00     0.201 C 
ENDBRANCH  31  32
ENDBRANCH  30  31
ENDBRANCH  27  30
ENDBRANCH   7  26
TORSDOF 8
ENDMDL
MODEL 7
REMARK VINA RESULT:      -7.9      2.620      3.385
REMARK  8 active torsions:
REMARK  status: ('A' for Active; 'I' for Inactive)
REMARK    1  A    between atoms: C_2  and  C_3 
REMARK    2  A    between atoms: C_4  and  N_5 
REMARK    3  A    between atoms: N_5  and  S_6 
REMARK    4  A    between atoms: S_6  and  C_7 
REMARK    5  A    between atoms: C_13  and  C_14 
REMARK       I    between atoms: C_14  and  N_15 
REMARK    6  A    between atoms: N_15  and  C_16 
REMARK    7  A    between atoms: C_16  and  C_17 
REMARK    8  A    between atoms: C_17  and  O_18 
ROOT
HETATM    1  C   UNL     1      -6.783   3.097 -32.123  1.00  0.00     0.081 A 
HETATM    2  C   UNL     1      -5.675   3.816 -31.671  1.00  0.00     0.043 A 
HETATM    3  C   UNL     1      -4.835   4.429 -32.608  1.00  0.00     0.043 A 
HETATM    4  C   UNL     1      -5.122   4.372 -33.984  1.00  0.00     0.046 A 
HETATM    5  N   UNL     1      -4.258   4.978 -34.900  1.00  0.00    -0.364 N 
HETATM    6  C   UNL     1      -3.170   5.695 -34.472  1.00  0.00     0.109 A 
HETATM    7  C   UNL     1      -2.778   5.827 -33.193  1.00  0.00     0.098 A 
HETATM    8  C   UNL     1      -3.614   5.153 -32.159  1.00  0.00     0.201 A 
HETATM    9  O   UNL     1      -3.314   5.176 -30.969  1.00  0.00    -0.286 OA
HETATM   10  C   UNL     1      -6.239   3.651 -34.416  1.00  0.00     0.032 A 
HETATM   11  C   UNL     1      -7.074   3.019 -33.490  1.00  0.00     0.027 A 
HETATM   12  H   UNL     1      -4.538   5.058 -35.873  1.00  0.00     0.165 HD
ENDROOT
BRANCH   1  13
HETATM   13  S   UNL     1      -7.883   2.349 -30.945  1.00  0.00     0.263 S 
HETATM   14  O   UNL     1      -9.133   2.093 -31.634  1.00  0.00    -0.200 OA
HETATM   15  O   UNL     1      -7.853   3.131 -29.731  1.00  0.00    -0.200 OA
BRANCH  13  16
HETATM   16  N   UNL     1      -7.188   0.826 -30.693  1.00  0.00    -0.280 N 
HETATM   17  H   UNL     1      -6.591   0.844 -29.868  1.00  0.00     0.179 HD
BRANCH  16  18
HETATM   18  C   UNL     1      -6.686   0.125 -31.830  1.00  0.00     0.049 A 
HETATM   19  C   UNL     1      -5.307  -0.048 -32.035  1.00  0.00    -0.031 A 
HETATM   20  C   UNL     1      -4.881  -0.710 -33.199  1.00  0.00     0.009 A 
HETATM   21  C   UNL     1      -5.804  -1.172 -34.140  1.00  0.00     0.001 A 
HETATM   22  C   UNL     1      -7.166  -0.991 -33.925  1.00  0.00     0.002 A 
HETATM   23  C   UNL     1      -7.606  -0.344 -32.772  1.00  0.00     0.030 A 
BRANCH  19  24
HETATM   24  C   UNL     1      -4.264   0.419 -31.048  1.00  0.00     0.036 C 
HETATM   25  C   UNL     1      -2.893  -0.166 -31.357  1.00  0.00     0.010 C 
ENDBRANCH  19  24
ENDBRANCH  16  18
ENDBRANCH  13  16
ENDBRANCH   1  13
BRANCH   7  26
HETATM   26  C   UNL     1      -1.543   6.611 -32.910  1.00  0.00     0.257 C 
HETATM   27  N   UNL     1      -0.797   6.176 -31.848  1.00  0.00    -0.355 N 
HETATM   28  H   UNL     1      -1.185   5.452 -31.241  1.00  0.00     0.162 HD
HETATM   29  O   UNL     1      -1.222   7.578 -33.598  1.00  0.00    -0.267 OA
BRANCH  27  30
HETATM   30  C   UNL     1       0.405   6.859 -31.405  1.00  0.00     0.149 C 
BRANCH  30  31
HETATM   31  C   UNL     1       0.400   7.128 -29.900  1.00  0.00     0.186 C 
BRANCH  31  32
HETATM   32  O   UNL     1      -0.602   6.313 -29.284  1.00  0.00    -0.394 OA
HETATM   33  C   UNL     1      -1.285   7.015 -28.253  1.00  0.00     0.201 C 
ENDBRANCH  31  32
ENDBRANCH  30  31
ENDBRANCH  27  30
ENDBRANCH   7  26
TORSDOF 8
ENDMDL
MODEL 8
REMARK VINA RESULT:      -7.8      2.345      3.126
REMARK  8 active torsions:
REMARK  status: ('A' for Active; 'I' for Inactive)
REMARK    1  A    between atoms: C_2  and  C_3 
REMARK    2  A    between atoms: C_4  and  N_5 
REMARK    3  A    between atoms: N_5  and  S_6 
REMARK    4  A    between atoms: S_6  and  C_7 
REMARK    5  A    between atoms: C_13  and  C_14 
REMARK       I    between atoms: C_14  and  N_15 
REMARK    6  A    between atoms: N_15  and  C_16 
REMARK    7  A    between atoms: C_16  and  C_17 
REMARK    8  A    between atoms: C_17  and  O_18 
ROOT
HETATM    1  C   UNL     1      -7.224   2.043 -32.928  1.00  0.00     0.081 A 
HETATM    2  C   UNL     1      -6.173   2.900 -33.262  1.00  0.00     0.043 A 
HETATM    3  C   UNL     1      -5.721   3.822 -32.311  1.00  0.00     0.043 A 
HETATM    4  C   UNL     1      -6.274   3.858 -31.018  1.00  0.00     0.046 A 
HETATM    5  N   UNL     1      -5.816   4.799 -30.092  1.00  0.00    -0.364 N 
HETATM    6  C   UNL     1      -4.780   5.643 -30.401  1.00  0.00     0.109 A 
HETATM    7  C   UNL     1      -4.166   5.718 -31.595  1.00  0.00     0.098 A 
HETATM    8  C   UNL     1      -4.643   4.788 -32.658  1.00  0.00     0.201 A 
HETATM    9  O   UNL     1      -4.177   4.811 -33.794  1.00  0.00    -0.286 OA
HETATM   10  C   UNL     1      -7.321   2.987 -30.702  1.00  0.00     0.032 A 
HETATM   11  C   UNL     1      -7.794   2.076 -31.651  1.00  0.00     0.027 A 
HETATM   12  H   UNL     1      -6.112   4.732 -29.124  1.00  0.00     0.165 HD
ENDROOT
BRANCH   1  13
HETATM   13  S   UNL     1      -7.781   0.838 -34.109  1.00  0.00     0.263 S 
HETATM   14  O   UNL     1      -6.793   0.792 -35.168  1.00  0.00    -0.200 OA
HETATM   15  O   UNL     1      -9.172   1.097 -34.405  1.00  0.00    -0.200 OA
BRANCH  13  16
HETATM   16  N   UNL     1      -7.611  -0.622 -33.270  1.00  0.00    -0.280 N 
HETATM   17  H   UNL     1      -7.730  -0.469 -32.270  1.00  0.00     0.179 HD
BRANCH  16  18
HETATM   18  C   UNL     1      -6.555  -1.497 -33.662  1.00  0.00     0.049 A 
HETATM   19  C   UNL     1      -5.272  -1.397 -33.098  1.00  0.00    -0.031 A 
HETATM   20  C   UNL     1      -4.266  -2.261 -33.563  1.00  0.00     0.009 A 
HETATM   21  C   UNL     1      -4.529  -3.190 -34.571  1.00  0.00     0.001 A 
HETATM   22  C   UNL     1      -5.803  -3.277 -35.123  1.00  0.00     0.002 A 
HETATM   23  C   UNL     1      -6.814  -2.432 -34.668  1.00  0.00     0.030 A 
BRANCH  19  24
HETATM   24  C   UNL     1      -4.932  -0.421 -31.996  1.00  0.00     0.036 C 
HETATM   25  C   UNL     1      -3.668   0.367 -32.311  1.00  0.00     0.010 C 
ENDBRANCH  19  24
ENDBRANCH  16  18
ENDBRANCH  13  16
ENDBRANCH   1  13
BRANCH   7  26
HETATM   26  C   UNL     1      -3.082   6.725 -31.769  1.00  0.00     0.257 C 
HETATM   27  N   UNL     1      -1.854   6.220 -32.107  1.00  0.00    -0.355 N 
HETATM   28  H   UNL     1      -1.718   5.209 -32.083  1.00  0.00     0.162 HD
HETATM   29  O   UNL     1      -3.290   7.928 -31.624  1.00  0.00    -0.267 OA
BRANCH  27  30
HETATM   30  C   UNL     1      -0.681   7.060 -32.260  1.00  0.00     0.149 C 
BRANCH  30  31
HETATM   31  C   UNL     1       0.409   6.728 -31.241  1.00  0.00     0.186 C 
BRANCH  31  32
HETATM   32  O   UNL     1       0.008   5.578 -30.487  1.00  0.00    -0.394 OA
HETATM   33  C   UNL     1       0.403   5.683 -29.125  1.00  0.00     0.201 C 
ENDBRANCH  31  32
ENDBRANCH  30  31
ENDBRANCH  27  30
ENDBRANCH   7  26
TORSDOF 8
ENDMDL
MODEL 9
REMARK VINA RESULT:      -7.8      2.171      9.874
REMARK  8 active torsions:
REMARK  status: ('A' for Active; 'I' for Inactive)
REMARK    1  A    between atoms: C_2  and  C_3 
REMARK    2  A    between atoms: C_4  and  N_5 
REMARK    3  A    between atoms: N_5  and  S_6 
REMARK    4  A    between atoms: S_6  and  C_7 
REMARK    5  A    between atoms: C_13  and  C_14 
REMARK       I    between atoms: C_14  and  N_15 
REMARK    6  A    between atoms: N_15  and  C_16 
REMARK    7  A    between atoms: C_16  and  C_17 
REMARK    8  A    between atoms: C_17  and  O_18 
ROOT
HETATM    1  C   UNL     1      -1.912   5.350 -31.938  1.00  0.00     0.081 A 
HETATM    2  C   UNL     1      -2.440   4.061 -31.842  1.00  0.00     0.043 A 
HETATM    3  C   UNL     1      -3.627   3.761 -32.520  1.00  0.00     0.043 A 
HETATM    4  C   UNL     1      -4.260   4.722 -33.330  1.00  0.00     0.046 A 
HETATM    5  N   UNL     1      -5.453   4.403 -33.985  1.00  0.00    -0.364 N 
HETATM    6  C   UNL     1      -5.980   3.139 -33.908  1.00  0.00     0.109 A 
HETATM    7  C   UNL     1      -5.484   2.131 -33.169  1.00  0.00     0.098 A 
HETATM    8  C   UNL     1      -4.245   2.413 -32.390  1.00  0.00     0.201 A 
HETATM    9  O   UNL     1      -3.740   1.573 -31.651  1.00  0.00    -0.286 OA
HETATM   10  C   UNL     1      -3.712   6.005 -33.417  1.00  0.00     0.032 A 
HETATM   11  C   UNL     1      -2.538   6.321 -32.728  1.00  0.00     0.027 A 
HETATM   12  H   UNL     1      -5.830   5.043 -34.676  1.00  0.00     0.165 HD
ENDROOT
BRANCH   1  13
HETATM   13  S   UNL     1      -0.384   5.735 -31.117  1.00  0.00     0.263 S 
HETATM   14  O   UNL     1       0.017   7.055 -31.562  1.00  0.00    -0.200 OA
HETATM   15  O   UNL     1       0.506   4.605 -31.255  1.00  0.00    -0.200 OA
BRANCH  13  16
HETATM   16  N   UNL     1      -0.859   5.928 -29.504  1.00  0.00    -0.280 N 
HETATM   17  H   UNL     1      -1.422   5.134 -29.205  1.00  0.00     0.179 HD
BRANCH  16  18
HETATM   18  C   UNL     1      -1.302   7.219 -29.089  1.00  0.00     0.049 A 
HETATM   19  C   UNL     1      -0.425   8.137 -28.488  1.00  0.00    -0.031 A 
HETATM   20  C   UNL     1      -0.938   9.375 -28.064  1.00  0.00     0.009 A 
HETATM   21  C   UNL     1      -2.291   9.682 -28.222  1.00  0.00     0.001 A 
HETATM   22  C   UNL     1      -3.148   8.762 -28.817  1.00  0.00     0.002 A 
HETATM   23  C   UNL     1      -2.654   7.534 -29.251  1.00  0.00     0.030 A 
BRANCH  19  24
HETATM   24  C   UNL     1       1.049   7.866 -28.302  1.00  0.00     0.036 C 
HETATM   25  C   UNL     1       1.694   8.874 -27.361  1.00  0.00     0.010 C 
ENDBRANCH  19  24
ENDBRANCH  16  18
ENDBRANCH  13  16
ENDBRANCH   1  13
BRANCH   7  26
HETATM   26  C   UNL     1      -6.211   0.831 -33.170  1.00  0.00     0.257 C 
HETATM   27  N   UNL     1      -5.516  -0.234 -33.679  1.00  0.00    -0.355 N 
HETATM   28  H   UNL     1      -4.624  -0.060 -34.143  1.00  0.00     0.162 HD
HETATM   29  O   UNL     1      -7.356   0.732 -32.735  1.00  0.00    -0.267 OA
BRANCH  27  30
HETATM   30  C   UNL     1      -6.098  -1.558 -33.803  1.00  0.00     0.149 C 
BRANCH  30  31
HETATM   31  C   UNL     1      -5.075  -2.603 -34.249  1.00  0.00     0.186 C 
BRANCH  31  32
HETATM   32  O   UNL     1      -5.578  -3.286 -35.403  1.00  0.00    -0.394 OA
HETATM   33  C   UNL     1      -6.299  -4.458 -35.044  1.00  0.00     0.201 C 
ENDBRANCH  31  32
ENDBRANCH  30  31
ENDBRANCH  27  30
ENDBRANCH   7  26
TORSDOF 8
ENDMDL
MODEL 10
REMARK VINA RESULT:      -7.8      3.536      7.044
REMARK  8 active torsions:
REMARK  status: ('A' for Active; 'I' for Inactive)
REMARK    1  A    between atoms: C_2  and  C_3 
REMARK    2  A    between atoms: C_4  and  N_5 
REMARK    3  A    between atoms: N_5  and  S_6 
REMARK    4  A    between atoms: S_6  and  C_7 
REMARK    5  A    between atoms: C_13  and  C_14 
REMARK       I    between atoms: C_14  and  N_15 
REMARK    6  A    between atoms: N_15  and  C_16 
REMARK    7  A    between atoms: C_16  and  C_17 
REMARK    8  A    between atoms: C_17  and  O_18 
ROOT
HETATM    1  C   UNL     1      -4.285   1.711 -32.399  1.00  0.00     0.081 A 
HETATM    2  C   UNL     1      -5.552   1.625 -32.979  1.00  0.00     0.043 A 
HETATM    3  C   UNL     1      -6.301   2.795 -33.148  1.00  0.00     0.043 A 
HETATM    4  C   UNL     1      -5.776   4.050 -32.789  1.00  0.00     0.046 A 
HETATM    5  N   UNL     1      -6.551   5.201 -32.953  1.00  0.00    -0.364 N 
HETATM    6  C   UNL     1      -7.794   5.136 -33.528  1.00  0.00     0.109 A 
HETATM    7  C   UNL     1      -8.417   4.007 -33.911  1.00  0.00     0.098 A 
HETATM    8  C   UNL     1      -7.679   2.729 -33.709  1.00  0.00     0.201 A 
HETATM    9  O   UNL     1      -8.180   1.642 -33.985  1.00  0.00    -0.286 OA
HETATM   10  C   UNL     1      -4.503   4.114 -32.215  1.00  0.00     0.032 A 
HETATM   11  C   UNL     1      -3.754   2.950 -32.024  1.00  0.00     0.027 A 
HETATM   12  H   UNL     1      -6.123   6.113 -32.828  1.00  0.00     0.165 HD
ENDROOT
BRANCH   1  13
HETATM   13  S   UNL     1      -3.303   0.241 -32.217  1.00  0.00     0.263 S 
HETATM   14  O   UNL     1      -2.651   0.324 -30.924  1.00  0.00    -0.200 OA
HETATM   15  O   UNL     1      -2.533   0.053 -33.424  1.00  0.00    -0.200 OA
BRANCH  13  16
HETATM   16  N   UNL     1      -4.469  -0.975 -32.056  1.00  0.00    -0.280 N 
HETATM   17  H   UNL     1      -4.778  -1.041 -31.087  1.00  0.00     0.179 HD
BRANCH  16  18
HETATM   18  C   UNL     1      -4.248  -2.206 -32.742  1.00  0.00     0.049 A 
HETATM   19  C   UNL     1      -4.928  -2.515 -33.932  1.00  0.00    -0.031 A 
HETATM   20  C   UNL     1      -4.695  -3.764 -34.532  1.00  0.00     0.009 A 
HETATM   21  C   UNL     1      -3.819  -4.685 -33.955  1.00  0.00     0.001 A 
HETATM   22  C   UNL     1      -3.154  -4.367 -32.774  1.00  0.00     0.002 A 
HETATM   23  C   UNL     1      -3.368  -3.129 -32.171  1.00  0.00     0.030 A 
BRANCH  19  24
HETATM   24  C   UNL     1      -5.877  -1.555 -34.610  1.00  0.00     0.036 C 
HETATM   25  C   UNL     1      -7.309  -1.746 -34.132  1.00  0.00     0.010 C 
ENDBRANCH  19  24
ENDBRANCH  16  18
ENDBRANCH  13  16
ENDBRANCH   1  13
BRANCH   7  26
HETATM   26  C   UNL     1      -9.788   4.118 -34.483  1.00  0.00     0.257 C 
HETATM   27  N   UNL     1     -10.606   3.040 -34.270  1.00  0.00    -0.355 N 
HETATM   28  H   UNL     1     -10.204   2.192 -33.869  1.00  0.00     0.162 HD
HETATM   29  O   UNL     1     -10.152   5.118 -35.099  1.00  0.00    -0.267 OA
BRANCH  27  30
HETATM   30  C   UNL     1     -11.952   2.964 -34.806  1.00  0.00     0.149 C 
BRANCH  30  31
HETATM   31  C   UNL     1     -12.417   1.521 -35.008  1.00  0.00     0.186 C 
BRANCH  31  32
HETATM   32  O   UNL     1     -13.187   1.116 -33.871  1.00  0.00    -0.394 OA
HETATM   33  C   UNL     1     -14.509   0.744 -34.241  1.00  0.00     0.201 C 
ENDBRANCH  31  32
ENDBRANCH  30  31
ENDBRANCH  27  30
ENDBRANCH   7  26
TORSDOF 8
ENDMDL
