MODEL 1
REMARK VINA RESULT:      -9.5      0.000      0.000
REMARK  3 active torsions:
REMARK  status: ('A' for Active; 'I' for Inactive)
REMARK    1  A    between atoms: C_2  and  C_3 
REMARK    2  A    between atoms: C_12  and  C_13 
REMARK    3  A    between atoms: C_16  and  O_17 
ROOT
HETATM    1  C   UNL     1      -8.571   4.659 -31.838  1.00  0.00    -0.007 C 
HETATM    2  C   UNL     1      -8.206   3.926 -33.149  1.00  0.00     0.009 C 
HETATM    3  C   UNL     1      -6.905   4.391 -33.832  1.00  0.00     0.056 C 
HETATM    4  C   UNL     1      -5.703   4.592 -32.885  1.00  0.00     0.129 C 
HETATM    5  N   UNL     1      -4.949   3.345 -32.581  1.00  0.00    -0.223 N 
HETATM    6  C   UNL     1      -3.612   3.419 -32.160  1.00  0.00     0.142 C 
HETATM    7  N   UNL     1      -3.091   2.323 -31.529  1.00  0.00    -0.305 N 
HETATM    8  C   UNL     1      -3.752   1.123 -31.540  1.00  0.00     0.278 C 
HETATM    9  O   UNL     1      -3.414   0.177 -30.849  1.00  0.00    -0.265 OA
HETATM   10  C   UNL     1      -4.913   1.049 -32.539  1.00  0.00     0.155 C 
HETATM   11  N   UNL     1      -5.515   2.142 -32.943  1.00  0.00    -0.162 NA
HETATM   12  C   UNL     1      -2.853   4.513 -32.400  1.00  0.00     0.036 C 
HETATM   13  C   UNL     1      -3.498   5.554 -33.281  1.00  0.00     0.044 C 
HETATM   14  N   UNL     1      -4.755   5.535 -33.550  1.00  0.00    -0.361 N 
HETATM   15  H   UNL     1      -5.147   6.235 -34.177  1.00  0.00     0.162 HD
HETATM   16  C   UNL     1      -1.471   4.718 -32.011  1.00  0.00     0.017 C 
HETATM   17  C   UNL     1      -0.767   5.749 -32.497  1.00  0.00     0.001 C 
HETATM   18  C   UNL     1      -1.337   6.678 -33.444  1.00  0.00     0.002 C 
HETATM   19  C   UNL     1      -2.616   6.615 -33.839  1.00  0.00     0.030 C 
HETATM   20  C   UNL     1      -6.117   5.293 -31.568  1.00  0.00     0.056 C 
HETATM   21  C   UNL     1      -7.337   4.662 -30.922  1.00  0.00     0.009 C 
HETATM   22  H   UNL     1      -2.218   2.335 -31.022  1.00  0.00     0.170 HD
ENDROOT
BRANCH   1  23
HETATM   23  C   UNL     1      -9.344   6.034 -32.008  1.00  0.00    -0.048 C 
HETATM   24  C   UNL     1     -10.350   5.883 -33.177  1.00  0.00     0.015 C 
HETATM   25  C   UNL     1      -8.454   7.244 -32.342  1.00  0.00     0.015 C 
HETATM   26  C   UNL     1     -10.170   6.395 -30.755  1.00  0.00     0.015 C 
ENDBRANCH   1  23
BRANCH  10  27
HETATM   27  C   UNL     1      -5.284  -0.267 -33.142  1.00  0.00     0.000 A 
HETATM   28  C   UNL     1      -6.625  -0.547 -33.425  1.00  0.00     0.017 A 
HETATM   29  C   UNL     1      -6.968  -1.715 -34.116  1.00  0.00     0.037 A 
HETATM   30  C   UNL     1      -5.984  -2.609 -34.546  1.00  0.00     0.068 A 
HETATM   31  C   UNL     1      -4.650  -2.342 -34.251  1.00  0.00     0.037 A 
HETATM   32  C   UNL     1      -4.301  -1.175 -33.559  1.00  0.00     0.017 A 
BRANCH  30  33
HETATM   33  O   UNL     1      -6.449  -3.690 -35.241  1.00  0.00    -0.356 OA
HETATM   34  C   UNL     1      -5.823  -4.941 -34.979  1.00  0.00     0.210 C 
ENDBRANCH  30  33
ENDBRANCH  10  27
TORSDOF 3
ENDMDL
MODEL 2
REMARK VINA RESULT:      -9.5      1.883      5.208
REMARK  3 active torsions:
REMARK  status: ('A' for Active; 'I' for Inactive)
REMARK    1  A    between atoms: C_2  and  C_3 
REMARK    2  A    between atoms: C_12  and  C_13 
REMARK    3  A    between atoms: C_16  and  O_17 
ROOT
HETATM    1  C   UNL     1      -2.817   4.578 -33.514  1.00  0.00    -0.007 C 
HETATM    2  C   UNL     1      -2.956   3.346 -32.590  1.00  0.00     0.009 C 
HETATM    3  C   UNL     1      -4.091   3.418 -31.550  1.00  0.00     0.056 C 
HETATM    4  C   UNL     1      -5.442   3.938 -32.090  1.00  0.00     0.129 C 
HETATM    5  N   UNL     1      -6.278   2.896 -32.746  1.00  0.00    -0.223 N 
HETATM    6  C   UNL     1      -7.667   3.074 -32.847  1.00  0.00     0.142 C 
HETATM    7  N   UNL     1      -8.332   2.318 -33.772  1.00  0.00    -0.305 N 
HETATM    8  C   UNL     1      -7.719   1.258 -34.387  1.00  0.00     0.278 C 
HETATM    9  O   UNL     1      -8.211   0.672 -35.337  1.00  0.00    -0.265 OA
HETATM   10  C   UNL     1      -6.396   0.830 -33.740  1.00  0.00     0.155 C 
HETATM   11  N   UNL     1      -5.695   1.682 -33.032  1.00  0.00    -0.162 NA
HETATM   12  C   UNL     1      -8.333   3.929 -32.035  1.00  0.00     0.036 C 
HETATM   13  C   UNL     1      -7.502   4.536 -30.932  1.00  0.00     0.044 C 
HETATM   14  N   UNL     1      -6.218   4.469 -30.930  1.00  0.00    -0.361 N 
HETATM   15  H   UNL     1      -5.695   4.861 -30.149  1.00  0.00     0.162 HD
HETATM   16  C   UNL     1      -9.756   4.210 -32.044  1.00  0.00     0.017 C 
HETATM   17  C   UNL     1     -10.324   4.907 -31.050  1.00  0.00     0.001 C 
HETATM   18  C   UNL     1      -9.558   5.381 -29.923  1.00  0.00     0.002 C 
HETATM   19  C   UNL     1      -8.230   5.222 -29.831  1.00  0.00     0.030 C 
HETATM   20  C   UNL     1      -5.257   5.145 -33.041  1.00  0.00     0.056 C 
HETATM   21  C   UNL     1      -4.199   4.902 -34.103  1.00  0.00     0.009 C 
HETATM   22  H   UNL     1      -9.283   2.499 -34.060  1.00  0.00     0.170 HD
ENDROOT
BRANCH   1  23
HETATM   23  C   UNL     1      -1.982   5.792 -32.927  1.00  0.00    -0.048 C 
HETATM   24  C   UNL     1      -0.791   5.215 -32.120  1.00  0.00     0.015 C 
HETATM   25  C   UNL     1      -2.759   6.714 -31.971  1.00  0.00     0.015 C 
HETATM   26  C   UNL     1      -1.379   6.675 -34.040  1.00  0.00     0.015 C 
ENDBRANCH   1  23
BRANCH  10  27
HETATM   27  C   UNL     1      -5.963  -0.597 -33.825  1.00  0.00     0.000 A 
HETATM   28  C   UNL     1      -6.832  -1.557 -34.353  1.00  0.00     0.017 A 
HETATM   29  C   UNL     1      -6.388  -2.867 -34.566  1.00  0.00     0.037 A 
HETATM   30  C   UNL     1      -5.073  -3.235 -34.273  1.00  0.00     0.068 A 
HETATM   31  C   UNL     1      -4.209  -2.287 -33.731  1.00  0.00     0.037 A 
HETATM   32  C   UNL     1      -4.648  -0.975 -33.514  1.00  0.00     0.017 A 
BRANCH  30  33
HETATM   33  O   UNL     1      -4.757  -4.532 -34.562  1.00  0.00    -0.356 OA
HETATM   34  C   UNL     1      -3.865  -5.192 -33.670  1.00  0.00     0.210 C 
ENDBRANCH  30  33
ENDBRANCH  10  27
TORSDOF 3
ENDMDL
MODEL 3
REMARK VINA RESULT:      -9.4      4.079      7.510
REMARK  3 active torsions:
REMARK  status: ('A' for Active; 'I' for Inactive)
REMARK    1  A    between atoms: C_2  and  C_3 
REMARK    2  A    between atoms: C_12  and  C_13 
REMARK    3  A    between atoms: C_16  and  O_17 
ROOT
HETATM    1  C   UNL     1      -7.259  -1.241 -34.689  1.00  0.00    -0.007 C 
HETATM    2  C   UNL     1      -8.201  -1.034 -33.481  1.00  0.00     0.009 C 
HETATM    3  C   UNL     1      -7.797   0.088 -32.505  1.00  0.00     0.056 C 
HETATM    4  C   UNL     1      -7.353   1.408 -33.172  1.00  0.00     0.129 C 
HETATM    5  N   UNL     1      -8.476   2.311 -33.548  1.00  0.00    -0.223 N 
HETATM    6  C   UNL     1      -8.246   3.687 -33.704  1.00  0.00     0.142 C 
HETATM    7  N   UNL     1      -9.173   4.402 -34.410  1.00  0.00    -0.305 N 
HETATM    8  C   UNL     1     -10.391   3.858 -34.726  1.00  0.00     0.278 C 
HETATM    9  O   UNL     1     -11.170   4.390 -35.499  1.00  0.00    -0.265 OA
HETATM   10  C   UNL     1     -10.717   2.559 -33.980  1.00  0.00     0.155 C 
HETATM   11  N   UNL     1      -9.755   1.803 -33.507  1.00  0.00    -0.162 NA
HETATM   12  C   UNL     1      -7.174   4.294 -33.145  1.00  0.00     0.036 C 
HETATM   13  C   UNL     1      -6.355   3.421 -32.227  1.00  0.00     0.044 C 
HETATM   14  N   UNL     1      -6.496   2.144 -32.195  1.00  0.00    -0.361 N 
HETATM   15  H   UNL     1      -5.950   1.593 -31.536  1.00  0.00     0.162 HD
HETATM   16  C   UNL     1      -6.819   5.698 -33.238  1.00  0.00     0.017 C 
HETATM   17  C   UNL     1      -5.858   6.216 -32.462  1.00  0.00     0.001 C 
HETATM   18  C   UNL     1      -5.157   5.416 -31.487  1.00  0.00     0.002 C 
HETATM   19  C   UNL     1      -5.366   4.100 -31.345  1.00  0.00     0.030 C 
HETATM   20  C   UNL     1      -6.444   1.156 -34.400  1.00  0.00     0.056 C 
HETATM   21  C   UNL     1      -7.014   0.122 -35.354  1.00  0.00     0.009 C 
HETATM   22  H   UNL     1      -9.016   5.342 -34.744  1.00  0.00     0.170 HD
ENDROOT
BRANCH   1  23
HETATM   23  C   UNL     1      -5.988  -2.153 -34.424  1.00  0.00    -0.048 C 
HETATM   24  C   UNL     1      -6.471  -3.611 -34.222  1.00  0.00     0.015 C 
HETATM   25  C   UNL     1      -5.168  -1.779 -33.176  1.00  0.00     0.015 C 
HETATM   26  C   UNL     1      -5.022  -2.167 -35.628  1.00  0.00     0.015 C 
ENDBRANCH   1  23
BRANCH  10  27
HETATM   27  C   UNL     1     -12.142   2.214 -33.691  1.00  0.00     0.000 A 
HETATM   28  C   UNL     1     -12.866   2.971 -32.765  1.00  0.00     0.017 A 
HETATM   29  C   UNL     1     -14.236   2.746 -32.590  1.00  0.00     0.037 A 
HETATM   30  C   UNL     1     -14.905   1.778 -33.343  1.00  0.00     0.068 A 
HETATM   31  C   UNL     1     -14.185   1.010 -34.253  1.00  0.00     0.037 A 
HETATM   32  C   UNL     1     -12.813   1.230 -34.431  1.00  0.00     0.017 A 
BRANCH  30  33
HETATM   33  O   UNL     1     -16.247   1.684 -33.103  1.00  0.00    -0.356 OA
HETATM   34  C   UNL     1     -16.797   2.591 -32.153  1.00  0.00     0.210 C 
ENDBRANCH  30  33
ENDBRANCH  10  27
TORSDOF 3
ENDMDL
MODEL 4
REMARK VINA RESULT:      -8.7      2.606      3.092
REMARK  3 active torsions:
REMARK  status: ('A' for Active; 'I' for Inactive)
REMARK    1  A    between atoms: C_2  and  C_3 
REMARK    2  A    between atoms: C_12  and  C_13 
REMARK    3  A    between atoms: C_16  and  O_17 
ROOT
HETATM    1  C   UNL     1     -11.086   3.314 -33.238  1.00  0.00    -0.007 C 
HETATM    2  C   UNL     1      -9.853   2.995 -34.115  1.00  0.00     0.009 C 
HETATM    3  C   UNL     1      -8.623   3.895 -33.888  1.00  0.00     0.056 C 
HETATM    4  C   UNL     1      -8.272   4.164 -32.408  1.00  0.00     0.129 C 
HETATM    5  N   UNL     1      -7.453   3.097 -31.771  1.00  0.00    -0.223 N 
HETATM    6  C   UNL     1      -6.671   3.394 -30.644  1.00  0.00     0.142 C 
HETATM    7  N   UNL     1      -6.258   2.344 -29.872  1.00  0.00    -0.305 N 
HETATM    8  C   UNL     1      -6.378   1.053 -30.316  1.00  0.00     0.278 C 
HETATM    9  O   UNL     1      -6.188   0.087 -29.596  1.00  0.00    -0.265 OA
HETATM   10  C   UNL     1      -6.710   0.925 -31.808  1.00  0.00     0.155 C 
HETATM   11  N   UNL     1      -7.308   1.904 -32.443  1.00  0.00    -0.162 NA
HETATM   12  C   UNL     1      -6.304   4.663 -30.350  1.00  0.00     0.036 C 
HETATM   13  C   UNL     1      -6.658   5.687 -31.399  1.00  0.00     0.044 C 
HETATM   14  N   UNL     1      -7.480   5.428 -32.354  1.00  0.00    -0.361 N 
HETATM   15  H   UNL     1      -7.667   6.135 -33.063  1.00  0.00     0.162 HD
HETATM   16  C   UNL     1      -5.511   5.102 -29.217  1.00  0.00     0.017 C 
HETATM   17  C   UNL     1      -5.032   6.352 -29.158  1.00  0.00     0.001 C 
HETATM   18  C   UNL     1      -5.257   7.302 -30.220  1.00  0.00     0.002 C 
HETATM   19  C   UNL     1      -6.013   7.024 -31.292  1.00  0.00     0.030 C 
HETATM   20  C   UNL     1      -9.536   4.440 -31.557  1.00  0.00     0.056 C 
HETATM   21  C   UNL     1     -10.630   3.410 -31.774  1.00  0.00     0.009 C 
HETATM   22  H   UNL     1      -5.862   2.452 -28.949  1.00  0.00     0.170 HD
ENDROOT
BRANCH   1  23
HETATM   23  C   UNL     1     -12.035   4.467 -33.774  1.00  0.00    -0.048 C 
HETATM   24  C   UNL     1     -12.748   3.954 -35.050  1.00  0.00     0.015 C 
HETATM   25  C   UNL     1     -11.317   5.772 -34.161  1.00  0.00     0.015 C 
HETATM   26  C   UNL     1     -13.142   4.828 -32.760  1.00  0.00     0.015 C 
ENDBRANCH   1  23
BRANCH  10  27
HETATM   27  C   UNL     1      -6.246  -0.276 -32.565  1.00  0.00     0.000 A 
HETATM   28  C   UNL     1      -7.146  -0.976 -33.375  1.00  0.00     0.017 A 
HETATM   29  C   UNL     1      -6.692  -2.015 -34.196  1.00  0.00     0.037 A 
HETATM   30  C   UNL     1      -5.339  -2.360 -34.233  1.00  0.00     0.068 A 
HETATM   31  C   UNL     1      -4.442  -1.677 -33.416  1.00  0.00     0.037 A 
HETATM   32  C   UNL     1      -4.891  -0.637 -32.591  1.00  0.00     0.017 A 
BRANCH  30  33
HETATM   33  O   UNL     1      -5.022  -3.365 -35.103  1.00  0.00    -0.356 OA
HETATM   34  C   UNL     1      -5.894  -4.489 -35.134  1.00  0.00     0.210 C 
ENDBRANCH  30  33
ENDBRANCH  10  27
TORSDOF 3
ENDMDL
MODEL 5
REMARK VINA RESULT:      -8.7     16.769     19.117
REMARK  3 active torsions:
REMARK  status: ('A' for Active; 'I' for Inactive)
REMARK    1  A    between atoms: C_2  and  C_3 
REMARK    2  A    between atoms: C_12  and  C_13 
REMARK    3  A    between atoms: C_16  and  O_17 
ROOT
HETATM    1  C   UNL     1      -1.978 -14.724 -37.734  1.00  0.00    -0.007 C 
HETATM    2  C   UNL     1      -2.482 -13.960 -36.487  1.00  0.00     0.009 C 
HETATM    3  C   UNL     1      -3.778 -13.151 -36.681  1.00  0.00     0.056 C 
HETATM    4  C   UNL     1      -4.900 -13.884 -37.448  1.00  0.00     0.129 C 
HETATM    5  N   UNL     1      -5.734 -14.780 -36.602  1.00  0.00    -0.223 N 
HETATM    6  C   UNL     1      -7.032 -15.122 -37.012  1.00  0.00     0.142 C 
HETATM    7  N   UNL     1      -7.604 -16.223 -36.434  1.00  0.00    -0.305 N 
HETATM    8  C   UNL     1      -7.046 -16.807 -35.328  1.00  0.00     0.278 C 
HETATM    9  O   UNL     1      -7.419 -17.882 -34.891  1.00  0.00    -0.265 OA
HETATM   10  C   UNL     1      -5.958 -15.966 -34.649  1.00  0.00     0.155 C 
HETATM   11  N   UNL     1      -5.293 -15.062 -35.328  1.00  0.00    -0.162 NA
HETATM   12  C   UNL     1      -7.711 -14.375 -37.913  1.00  0.00     0.036 C 
HETATM   13  C   UNL     1      -7.037 -13.084 -38.305  1.00  0.00     0.044 C 
HETATM   14  N   UNL     1      -5.805 -12.846 -38.027  1.00  0.00    -0.361 N 
HETATM   15  H   UNL     1      -5.395 -11.948 -38.278  1.00  0.00     0.162 HD
HETATM   16  C   UNL     1      -9.046 -14.624 -38.424  1.00  0.00     0.017 C 
HETATM   17  C   UNL     1      -9.690 -13.695 -39.143  1.00  0.00     0.001 C 
HETATM   18  C   UNL     1      -9.104 -12.404 -39.414  1.00  0.00     0.002 C 
HETATM   19  C   UNL     1      -7.861 -12.080 -39.033  1.00  0.00     0.030 C 
HETATM   20  C   UNL     1      -4.350 -14.667 -38.665  1.00  0.00     0.056 C 
HETATM   21  C   UNL     1      -3.149 -15.529 -38.317  1.00  0.00     0.009 C 
HETATM   22  H   UNL     1      -8.439 -16.666 -36.787  1.00  0.00     0.170 HD
ENDROOT
BRANCH   1  23
HETATM   23  C   UNL     1      -1.105 -13.879 -38.755  1.00  0.00    -0.048 C 
HETATM   24  C   UNL     1      -1.301 -12.377 -38.432  1.00  0.00     0.015 C 
HETATM   25  C   UNL     1      -1.475 -14.067 -40.236  1.00  0.00     0.015 C 
HETATM   26  C   UNL     1       0.404 -14.172 -38.611  1.00  0.00     0.015 C 
ENDBRANCH   1  23
BRANCH  10  27
HETATM   27  C   UNL     1      -5.735 -16.099 -33.177  1.00  0.00     0.000 A 
HETATM   28  C   UNL     1      -4.591 -15.543 -32.595  1.00  0.00     0.017 A 
HETATM   29  C   UNL     1      -4.441 -15.540 -31.204  1.00  0.00     0.037 A 
HETATM   30  C   UNL     1      -5.430 -16.074 -30.374  1.00  0.00     0.068 A 
HETATM   31  C   UNL     1      -6.562 -16.644 -30.951  1.00  0.00     0.037 A 
HETATM   32  C   UNL     1      -6.717 -16.651 -32.343  1.00  0.00     0.017 A 
BRANCH  30  33
HETATM   33  O   UNL     1      -5.178 -15.974 -29.036  1.00  0.00    -0.356 OA
HETATM   34  C   UNL     1      -4.522 -17.077 -28.419  1.00  0.00     0.210 C 
ENDBRANCH  30  33
ENDBRANCH  10  27
TORSDOF 3
ENDMDL
MODEL 6
REMARK VINA RESULT:      -8.3      3.821      6.921
REMARK  3 active torsions:
REMARK  status: ('A' for Active; 'I' for Inactive)
REMARK    1  A    between atoms: C_2  and  C_3 
REMARK    2  A    between atoms: C_12  and  C_13 
REMARK    3  A    between atoms: C_16  and  O_17 
ROOT
HETATM    1  C   UNL     1      -5.920  -0.028 -33.211  1.00  0.00    -0.007 C 
HETATM    2  C   UNL     1      -7.071   0.090 -32.185  1.00  0.00     0.009 C 
HETATM    3  C   UNL     1      -7.020   1.325 -31.265  1.00  0.00     0.056 C 
HETATM    4  C   UNL     1      -6.689   2.656 -31.973  1.00  0.00     0.129 C 
HETATM    5  N   UNL     1      -7.863   3.325 -32.596  1.00  0.00    -0.223 N 
HETATM    6  C   UNL     1      -7.835   4.708 -32.838  1.00  0.00     0.142 C 
HETATM    7  N   UNL     1      -8.734   5.206 -33.740  1.00  0.00    -0.305 N 
HETATM    8  C   UNL     1      -9.779   4.441 -34.189  1.00  0.00     0.278 C 
HETATM    9  O   UNL     1     -10.494   4.780 -35.116  1.00  0.00    -0.265 OA
HETATM   10  C   UNL     1     -10.012   3.155 -33.386  1.00  0.00     0.155 C 
HETATM   11  N   UNL     1      -9.034   2.608 -32.706  1.00  0.00    -0.162 NA
HETATM   12  C   UNL     1      -6.981   5.525 -32.179  1.00  0.00     0.036 C 
HETATM   13  C   UNL     1      -6.198   4.867 -31.071  1.00  0.00     0.044 C 
HETATM   14  N   UNL     1      -6.136   3.589 -30.946  1.00  0.00    -0.361 N 
HETATM   15  H   UNL     1      -5.625   3.183 -30.164  1.00  0.00     0.162 HD
HETATM   16  C   UNL     1      -6.846   6.960 -32.344  1.00  0.00     0.017 C 
HETATM   17  C   UNL     1      -6.123   7.685 -31.480  1.00  0.00     0.001 C 
HETATM   18  C   UNL     1      -5.474   7.082 -30.340  1.00  0.00     0.002 C 
HETATM   19  C   UNL     1      -5.491   5.761 -30.113  1.00  0.00     0.030 C 
HETATM   20  C   UNL     1      -5.560   2.488 -33.019  1.00  0.00     0.056 C 
HETATM   21  C   UNL     1      -5.790   1.313 -33.952  1.00  0.00     0.009 C 
HETATM   22  H   UNL     1      -8.676   6.135 -34.129  1.00  0.00     0.170 HD
ENDROOT
BRANCH   1  23
HETATM   23  C   UNL     1      -4.581  -0.687 -32.674  1.00  0.00    -0.048 C 
HETATM   24  C   UNL     1      -4.549  -2.165 -33.138  1.00  0.00     0.015 C 
HETATM   25  C   UNL     1      -4.432  -0.700 -31.142  1.00  0.00     0.015 C 
HETATM   26  C   UNL     1      -3.324  -0.009 -33.259  1.00  0.00     0.015 C 
ENDBRANCH   1  23
BRANCH  10  27
HETATM   27  C   UNL     1     -11.391   2.587 -33.289  1.00  0.00     0.000 A 
HETATM   28  C   UNL     1     -12.384   3.291 -32.601  1.00  0.00     0.017 A 
HETATM   29  C   UNL     1     -13.709   2.840 -32.623  1.00  0.00     0.037 A 
HETATM   30  C   UNL     1     -14.065   1.694 -33.339  1.00  0.00     0.068 A 
HETATM   31  C   UNL     1     -13.075   0.981 -34.011  1.00  0.00     0.037 A 
HETATM   32  C   UNL     1     -11.747   1.428 -33.992  1.00  0.00     0.017 A 
BRANCH  30  33
HETATM   33  O   UNL     1     -15.394   1.383 -33.310  1.00  0.00    -0.356 OA
HETATM   34  C   UNL     1     -16.228   2.193 -32.489  1.00  0.00     0.210 C 
ENDBRANCH  30  33
ENDBRANCH  10  27
TORSDOF 3
ENDMDL
MODEL 7
REMARK VINA RESULT:      -8.3      1.574      2.257
REMARK  3 active torsions:
REMARK  status: ('A' for Active; 'I' for Inactive)
REMARK    1  A    between atoms: C_2  and  C_3 
REMARK    2  A    between atoms: C_12  and  C_13 
REMARK    3  A    between atoms: C_16  and  O_17 
ROOT
HETATM    1  C   UNL     1      -7.852   5.796 -29.508  1.00  0.00    -0.007 C 
HETATM    2  C   UNL     1      -7.949   5.350 -30.985  1.00  0.00     0.009 C 
HETATM    3  C   UNL     1      -6.816   5.843 -31.906  1.00  0.00     0.056 C 
HETATM    4  C   UNL     1      -5.393   5.718 -31.318  1.00  0.00     0.129 C 
HETATM    5  N   UNL     1      -4.778   4.374 -31.489  1.00  0.00    -0.223 N 
HETATM    6  C   UNL     1      -3.381   4.234 -31.458  1.00  0.00     0.142 C 
HETATM    7  N   UNL     1      -2.880   2.983 -31.227  1.00  0.00    -0.305 N 
HETATM    8  C   UNL     1      -3.689   1.879 -31.282  1.00  0.00     0.278 C 
HETATM    9  O   UNL     1      -3.326   0.775 -30.912  1.00  0.00    -0.265 OA
HETATM   10  C   UNL     1      -5.067   2.135 -31.905  1.00  0.00     0.155 C 
HETATM   11  N   UNL     1      -5.587   3.339 -31.901  1.00  0.00    -0.162 NA
HETATM   12  C   UNL     1      -2.559   5.284 -31.687  1.00  0.00     0.036 C 
HETATM   13  C   UNL     1      -3.250   6.549 -32.130  1.00  0.00     0.044 C 
HETATM   14  N   UNL     1      -4.523   6.702 -32.029  1.00  0.00    -0.361 N 
HETATM   15  H   UNL     1      -4.957   7.557 -32.371  1.00  0.00     0.162 HD
HETATM   16  C   UNL     1      -1.108   5.275 -31.674  1.00  0.00     0.017 C 
HETATM   17  C   UNL     1      -0.411   6.324 -32.131  1.00  0.00     0.001 C 
HETATM   18  C   UNL     1      -1.064   7.489 -32.678  1.00  0.00     0.002 C 
HETATM   19  C   UNL     1      -2.397   7.629 -32.698  1.00  0.00     0.030 C 
HETATM   20  C   UNL     1      -5.346   6.136 -29.828  1.00  0.00     0.056 C 
HETATM   21  C   UNL     1      -6.436   5.483 -28.998  1.00  0.00     0.009 C 
HETATM   22  H   UNL     1      -1.914   2.804 -30.995  1.00  0.00     0.170 HD
ENDROOT
BRANCH   1  23
HETATM   23  C   UNL     1      -8.434   7.235 -29.181  1.00  0.00    -0.048 C 
HETATM   24  C   UNL     1      -9.097   7.184 -27.782  1.00  0.00     0.015 C 
HETATM   25  C   UNL     1      -9.507   7.740 -30.162  1.00  0.00     0.015 C 
HETATM   26  C   UNL     1      -7.326   8.308 -29.110  1.00  0.00     0.015 C 
ENDBRANCH   1  23
BRANCH  10  27
HETATM   27  C   UNL     1      -5.769   1.027 -32.620  1.00  0.00     0.000 A 
HETATM   28  C   UNL     1      -5.055   0.204 -33.497  1.00  0.00     0.017 A 
HETATM   29  C   UNL     1      -5.667  -0.919 -34.063  1.00  0.00     0.037 A 
HETATM   30  C   UNL     1      -6.989  -1.248 -33.755  1.00  0.00     0.068 A 
HETATM   31  C   UNL     1      -7.710  -0.422 -32.896  1.00  0.00     0.037 A 
HETATM   32  C   UNL     1      -7.102   0.705 -32.327  1.00  0.00     0.017 A 
BRANCH  30  33
HETATM   33  O   UNL     1      -7.455  -2.388 -34.344  1.00  0.00    -0.356 OA
HETATM   34  C   UNL     1      -6.485  -3.352 -34.739  1.00  0.00     0.210 C 
ENDBRANCH  30  33
ENDBRANCH  10  27
TORSDOF 3
ENDMDL
MODEL 8
REMARK VINA RESULT:      -8.1     16.422     18.658
REMARK  3 active torsions:
REMARK  status: ('A' for Active; 'I' for Inactive)
REMARK    1  A    between atoms: C_2  and  C_3 
REMARK    2  A    between atoms: C_12  and  C_13 
REMARK    3  A    between atoms: C_16  and  O_17 
ROOT
HETATM    1  C   UNL     1      -9.023 -14.947 -38.712  1.00  0.00    -0.007 C 
HETATM    2  C   UNL     1      -8.279 -16.068 -37.950  1.00  0.00     0.009 C 
HETATM    3  C   UNL     1      -6.774 -16.195 -38.256  1.00  0.00     0.056 C 
HETATM    4  C   UNL     1      -5.998 -14.861 -38.297  1.00  0.00     0.129 C 
HETATM    5  N   UNL     1      -5.558 -14.368 -36.964  1.00  0.00    -0.223 N 
HETATM    6  C   UNL     1      -4.476 -13.479 -36.868  1.00  0.00     0.142 C 
HETATM    7  N   UNL     1      -4.354 -12.761 -35.710  1.00  0.00    -0.305 N 
HETATM    8  C   UNL     1      -5.094 -13.081 -34.601  1.00  0.00     0.278 C 
HETATM    9  O   UNL     1      -5.146 -12.367 -33.615  1.00  0.00    -0.265 OA
HETATM   10  C   UNL     1      -5.797 -14.441 -34.681  1.00  0.00     0.155 C 
HETATM   11  N   UNL     1      -6.078 -14.979 -35.844  1.00  0.00    -0.162 NA
HETATM   12  C   UNL     1      -3.565 -13.362 -37.861  1.00  0.00     0.036 C 
HETATM   13  C   UNL     1      -3.713 -14.361 -38.981  1.00  0.00     0.044 C 
HETATM   14  N   UNL     1      -4.772 -15.076 -39.122  1.00  0.00    -0.361 N 
HETATM   15  H   UNL     1      -4.820 -15.764 -39.870  1.00  0.00     0.162 HD
HETATM   16  C   UNL     1      -2.414 -12.478 -37.889  1.00  0.00     0.017 C 
HETATM   17  C   UNL     1      -1.469 -12.613 -38.829  1.00  0.00     0.001 C 
HETATM   18  C   UNL     1      -1.536 -13.651 -39.830  1.00  0.00     0.002 C 
HETATM   19  C   UNL     1      -2.574 -14.494 -39.930  1.00  0.00     0.030 C 
HETATM   20  C   UNL     1      -6.793 -13.755 -39.033  1.00  0.00     0.056 C 
HETATM   21  C   UNL     1      -8.229 -13.641 -38.553  1.00  0.00     0.009 C 
HETATM   22  H   UNL     1      -3.739 -11.967 -35.609  1.00  0.00     0.170 HD
ENDROOT
BRANCH   1  23
HETATM   23  C   UNL     1      -9.518 -15.316 -40.173  1.00  0.00    -0.048 C 
HETATM   24  C   UNL     1     -10.211 -16.700 -40.115  1.00  0.00     0.015 C 
HETATM   25  C   UNL     1      -8.403 -15.422 -41.229  1.00  0.00     0.015 C 
HETATM   26  C   UNL     1     -10.567 -14.314 -40.702  1.00  0.00     0.015 C 
ENDBRANCH   1  23
BRANCH  10  27
HETATM   27  C   UNL     1      -6.061 -15.209 -33.427  1.00  0.00     0.000 A 
HETATM   28  C   UNL     1      -6.908 -16.322 -33.459  1.00  0.00     0.017 A 
HETATM   29  C   UNL     1      -7.052 -17.129 -32.325  1.00  0.00     0.037 A 
HETATM   30  C   UNL     1      -6.346 -16.850 -31.152  1.00  0.00     0.068 A 
HETATM   31  C   UNL     1      -5.515 -15.734 -31.111  1.00  0.00     0.037 A 
HETATM   32  C   UNL     1      -5.368 -14.921 -32.243  1.00  0.00     0.017 A 
BRANCH  30  33
HETATM   33  O   UNL     1      -6.546 -17.736 -30.132  1.00  0.00    -0.356 OA
HETATM   34  C   UNL     1      -6.624 -17.197 -28.816  1.00  0.00     0.210 C 
ENDBRANCH  30  33
ENDBRANCH  10  27
TORSDOF 3
ENDMDL
MODEL 9
REMARK VINA RESULT:      -8.0      4.787      8.688
REMARK  3 active torsions:
REMARK  status: ('A' for Active; 'I' for Inactive)
REMARK    1  A    between atoms: C_2  and  C_3 
REMARK    2  A    between atoms: C_12  and  C_13 
REMARK    3  A    between atoms: C_16  and  O_17 
ROOT
HETATM    1  C   UNL     1      -0.774   7.998 -27.033  1.00  0.00    -0.007 C 
HETATM    2  C   UNL     1      -1.903   8.857 -27.646  1.00  0.00     0.009 C 
HETATM    3  C   UNL     1      -1.981   8.855 -29.185  1.00  0.00     0.056 C 
HETATM    4  C   UNL     1      -1.836   7.467 -29.846  1.00  0.00     0.129 C 
HETATM    5  N   UNL     1      -3.100   6.685 -29.906  1.00  0.00    -0.223 N 
HETATM    6  C   UNL     1      -3.250   5.667 -30.862  1.00  0.00     0.142 C 
HETATM    7  N   UNL     1      -4.227   4.737 -30.642  1.00  0.00    -0.305 N 
HETATM    8  C   UNL     1      -5.180   4.932 -29.677  1.00  0.00     0.278 C 
HETATM    9  O   UNL     1      -5.956   4.057 -29.330  1.00  0.00    -0.265 OA
HETATM   10  C   UNL     1      -5.231   6.358 -29.117  1.00  0.00     0.155 C 
HETATM   11  N   UNL     1      -4.175   7.134 -29.172  1.00  0.00    -0.162 NA
HETATM   12  C   UNL     1      -2.487   5.628 -31.980  1.00  0.00     0.036 C 
HETATM   13  C   UNL     1      -1.599   6.829 -32.187  1.00  0.00     0.044 C 
HETATM   14  N   UNL     1      -1.376   7.681 -31.251  1.00  0.00    -0.361 N 
HETATM   15  H   UNL     1      -0.799   8.499 -31.440  1.00  0.00     0.162 HD
HETATM   16  C   UNL     1      -2.535   4.632 -33.033  1.00  0.00     0.017 C 
HETATM   17  C   UNL     1      -1.885   4.823 -34.189  1.00  0.00     0.001 C 
HETATM   18  C   UNL     1      -1.137   6.030 -34.447  1.00  0.00     0.002 C 
HETATM   19  C   UNL     1      -0.984   6.997 -33.532  1.00  0.00     0.030 C 
HETATM   20  C   UNL     1      -0.723   6.624 -29.179  1.00  0.00     0.056 C 
HETATM   21  C   UNL     1      -0.830   6.598 -27.665  1.00  0.00     0.009 C 
HETATM   22  H   UNL     1      -4.295   3.868 -31.152  1.00  0.00     0.170 HD
ENDROOT
BRANCH   1  23
HETATM   23  C   UNL     1       0.650   8.691 -26.943  1.00  0.00    -0.048 C 
HETATM   24  C   UNL     1       0.437  10.202 -26.675  1.00  0.00     0.015 C 
HETATM   25  C   UNL     1       1.507   8.583 -28.216  1.00  0.00     0.015 C 
HETATM   26  C   UNL     1       1.490   8.145 -25.768  1.00  0.00     0.015 C 
ENDBRANCH   1  23
BRANCH  10  27
HETATM   27  C   UNL     1      -6.526   6.904 -28.609  1.00  0.00     0.000 A 
HETATM   28  C   UNL     1      -6.534   8.077 -27.848  1.00  0.00     0.017 A 
HETATM   29  C   UNL     1      -7.747   8.673 -27.486  1.00  0.00     0.037 A 
HETATM   30  C   UNL     1      -8.966   8.120 -27.888  1.00  0.00     0.068 A 
HETATM   31  C   UNL     1      -8.963   6.942 -28.631  1.00  0.00     0.037 A 
HETATM   32  C   UNL     1      -7.751   6.341 -28.995  1.00  0.00     0.017 A 
BRANCH  30  33
HETATM   33  O   UNL     1     -10.074   8.818 -27.501  1.00  0.00    -0.356 OA
HETATM   34  C   UNL     1     -10.467   8.700 -26.138  1.00  0.00     0.210 C 
ENDBRANCH  30  33
ENDBRANCH  10  27
TORSDOF 3
ENDMDL
MODEL 10
REMARK VINA RESULT:      -7.9      3.490      8.420
REMARK  3 active torsions:
REMARK  status: ('A' for Active; 'I' for Inactive)
REMARK    1  A    between atoms: C_2  and  C_3 
REMARK    2  A    between atoms: C_12  and  C_13 
REMARK    3  A    between atoms: C_16  and  O_17 
ROOT
HETATM    1  C   UNL     1      -6.429   0.750 -32.975  1.00  0.00    -0.007 C 
HETATM    2  C   UNL     1      -6.339   2.153 -33.620  1.00  0.00     0.009 C 
HETATM    3  C   UNL     1      -7.688   2.828 -33.934  1.00  0.00     0.056 C 
HETATM    4  C   UNL     1      -8.746   2.733 -32.813  1.00  0.00     0.129 C 
HETATM    5  N   UNL     1      -8.613   3.774 -31.758  1.00  0.00    -0.223 N 
HETATM    6  C   UNL     1      -9.724   4.121 -30.972  1.00  0.00     0.142 C 
HETATM    7  N   UNL     1      -9.480   4.768 -29.792  1.00  0.00    -0.305 N 
HETATM    8  C   UNL     1      -8.242   5.283 -29.513  1.00  0.00     0.278 C 
HETATM    9  O   UNL     1      -7.936   5.707 -28.411  1.00  0.00    -0.265 OA
HETATM   10  C   UNL     1      -7.294   5.339 -30.717  1.00  0.00     0.155 C 
HETATM   11  N   UNL     1      -7.462   4.531 -31.736  1.00  0.00    -0.162 NA
HETATM   12  C   UNL     1     -10.988   3.864 -31.380  1.00  0.00     0.036 C 
HETATM   13  C   UNL     1     -11.108   3.337 -32.788  1.00  0.00     0.044 C 
HETATM   14  N   UNL     1     -10.089   2.904 -33.443  1.00  0.00    -0.361 N 
HETATM   15  H   UNL     1     -10.205   2.588 -34.404  1.00  0.00     0.162 HD
HETATM   16  C   UNL     1     -12.213   4.161 -30.662  1.00  0.00     0.017 C 
HETATM   17  C   UNL     1     -13.405   4.058 -31.267  1.00  0.00     0.001 C 
HETATM   18  C   UNL     1     -13.521   3.679 -32.654  1.00  0.00     0.002 C 
HETATM   19  C   UNL     1     -12.463   3.336 -33.402  1.00  0.00     0.030 C 
HETATM   20  C   UNL     1      -8.776   1.326 -32.168  1.00  0.00     0.056 C 
HETATM   21  C   UNL     1      -7.396   0.823 -31.784  1.00  0.00     0.009 C 
HETATM   22  H   UNL     1     -10.176   4.890 -29.070  1.00  0.00     0.170 HD
ENDROOT
BRANCH   1  23
HETATM   23  C   UNL     1      -6.615  -0.462 -33.982  1.00  0.00    -0.048 C 
HETATM   24  C   UNL     1      -5.257  -1.194 -34.115  1.00  0.00     0.015 C 
HETATM   25  C   UNL     1      -7.047  -0.065 -35.404  1.00  0.00     0.015 C 
HETATM   26  C   UNL     1      -7.631  -1.500 -33.459  1.00  0.00     0.015 C 
ENDBRANCH   1  23
BRANCH  10  27
HETATM   27  C   UNL     1      -6.243   6.399 -30.778  1.00  0.00     0.000 A 
HETATM   28  C   UNL     1      -4.899   6.037 -30.916  1.00  0.00     0.017 A 
HETATM   29  C   UNL     1      -3.923   7.019 -31.114  1.00  0.00     0.037 A 
HETATM   30  C   UNL     1      -4.270   8.370 -31.194  1.00  0.00     0.068 A 
HETATM   31  C   UNL     1      -5.605   8.737 -31.040  1.00  0.00     0.037 A 
HETATM   32  C   UNL     1      -6.586   7.757 -30.840  1.00  0.00     0.017 A 
BRANCH  30  33
HETATM   33  O   UNL     1      -3.229   9.223 -31.427  1.00  0.00    -0.356 OA
HETATM   34  C   UNL     1      -1.951   8.635 -31.649  1.00  0.00     0.210 C 
ENDBRANCH  30  33
ENDBRANCH  10  27
TORSDOF 3
ENDMDL
