MODEL 1
REMARK VINA RESULT:      -9.1      0.000      0.000
REMARK  6 active torsions:
REMARK  status: ('A' for Active; 'I' for Inactive)
REMARK    1  A    between atoms: C_3  and  N_4 
REMARK       I    between atoms: N_4  and  C_5 
REMARK    2  A    between atoms: C_5  and  C_6 
REMARK       I    between atoms: C_6  and  N_7 
REMARK    3  A    between atoms: N_7  and  C_8 
REMARK    4  A    between atoms: C_9  and  C_10 
REMARK    5  A    between atoms: C_23  and  C_24 
REMARK       I    between atoms: C_24  and  N_25 
REMARK    6  A    between atoms: N_25  and  C_26 
ROOT
HETATM    1  N   UNL     1      -4.863   3.705 -32.049  1.00  0.00    -0.318 N 
HETATM    2  C   UNL     1      -5.868   4.187 -31.234  1.00  0.00     0.314 C 
HETATM    3  O   UNL     1      -5.949   5.261 -30.658  1.00  0.00    -0.262 OA
HETATM    4  H   UNL     1      -5.060   2.781 -32.424  1.00  0.00     0.169 HD
ENDROOT
BRANCH   2   5
HETATM    5  C   UNL     1      -7.018   3.169 -31.086  1.00  0.00     0.314 C 
HETATM    6  N   UNL     1      -7.556   2.805 -32.294  1.00  0.00    -0.316 N 
HETATM    7  H   UNL     1      -7.160   3.226 -33.140  1.00  0.00     0.169 HD
HETATM    8  O   UNL     1      -7.328   2.796 -29.960  1.00  0.00    -0.262 OA
BRANCH   6   9
HETATM    9  C   UNL     1      -8.592   1.915 -32.498  1.00  0.00     0.085 A 
HETATM   10  C   UNL     1      -8.466   0.528 -32.839  1.00  0.00     0.133 A 
HETATM   11  N   UNL     1      -9.684  -0.039 -32.957  1.00  0.00    -0.171 NA
HETATM   12  N   UNL     1     -10.543   0.962 -32.705  1.00  0.00    -0.286 N 
HETATM   13  H   UNL     1     -11.537   0.761 -32.741  1.00  0.00     0.188 HD
HETATM   14  C   UNL     1      -9.941   2.149 -32.421  1.00  0.00     0.141 A 
BRANCH  10  15
HETATM   15  C   UNL     1      -7.214  -0.219 -33.039  1.00  0.00     0.089 A 
HETATM   16  N   UNL     1      -6.304  -0.146 -32.027  1.00  0.00    -0.259 NA
HETATM   17  C   UNL     1      -5.145  -0.821 -32.187  1.00  0.00     0.117 A 
HETATM   18  C   UNL     1      -4.842  -1.576 -33.307  1.00  0.00     0.019 A 
HETATM   19  C   UNL     1      -5.781  -1.643 -34.330  1.00  0.00     0.004 A 
HETATM   20  C   UNL     1      -6.985  -0.954 -34.198  1.00  0.00     0.034 A 
ENDBRANCH  10  15
ENDBRANCH   6   9
ENDBRANCH   2   5
BRANCH   1  21
HETATM   21  C   UNL     1      -3.644   4.321 -32.396  1.00  0.00     0.042 A 
HETATM   22  C   UNL     1      -3.486   4.819 -33.709  1.00  0.00    -0.035 A 
HETATM   23  C   UNL     1      -4.582   4.727 -34.740  1.00  0.00     0.050 C 
HETATM   24  C   UNL     1      -2.268   5.411 -34.082  1.00  0.00     0.010 A 
HETATM   25  C   UNL     1      -1.216   5.520 -33.173  1.00  0.00     0.017 A 
HETATM   26  C   UNL     1      -1.375   5.047 -31.867  1.00  0.00     0.034 A 
HETATM   27  C   UNL     1      -2.583   4.441 -31.491  1.00  0.00     0.047 A 
BRANCH  26  28
HETATM   28  C   UNL     1      -0.277   5.128 -30.863  1.00  0.00     0.252 C 
HETATM   29  N   UNL     1      -0.600   5.707 -29.648  1.00  0.00    -0.352 N 
HETATM   30  H   UNL     1      -1.569   5.890 -29.428  1.00  0.00     0.163 HD
HETATM   31  O   UNL     1       0.832   4.676 -31.127  1.00  0.00    -0.268 OA
BRANCH  29  32
HETATM   32  C   UNL     1       0.350   5.803 -28.585  1.00  0.00     0.084 A 
HETATM   33  C   UNL     1       0.826   7.141 -28.094  1.00  0.00     0.027 A 
HETATM   34  C   UNL     1      -0.072   6.305 -27.232  1.00  0.00     0.027 A 
ENDBRANCH  29  32
ENDBRANCH  26  28
ENDBRANCH   1  21
TORSDOF 6
ENDMDL
MODEL 2
REMARK VINA RESULT:      -8.9      1.920      2.155
REMARK  6 active torsions:
REMARK  status: ('A' for Active; 'I' for Inactive)
REMARK    1  A    between atoms: C_3  and  N_4 
REMARK       I    between atoms: N_4  and  C_5 
REMARK    2  A    between atoms: C_5  and  C_6 
REMARK       I    between atoms: C_6  and  N_7 
REMARK    3  A    between atoms: N_7  and  C_8 
REMARK    4  A    between atoms: C_9  and  C_10 
REMARK    5  A    between atoms: C_23  and  C_24 
REMARK       I    between atoms: C_24  and  N_25 
REMARK    6  A    between atoms: N_25  and  C_26 
ROOT
HETATM    1  N   UNL     1      -3.986   4.668 -32.481  1.00  0.00    -0.318 N 
HETATM    2  C   UNL     1      -4.176   3.322 -32.243  1.00  0.00     0.314 C 
HETATM    3  O   UNL     1      -3.425   2.516 -31.715  1.00  0.00    -0.262 OA
HETATM    4  H   UNL     1      -4.789   5.115 -32.917  1.00  0.00     0.169 HD
ENDROOT
BRANCH   2   5
HETATM    5  C   UNL     1      -5.558   2.846 -32.736  1.00  0.00     0.314 C 
HETATM    6  N   UNL     1      -6.227   2.110 -31.791  1.00  0.00    -0.316 N 
HETATM    7  H   UNL     1      -5.764   1.955 -30.890  1.00  0.00     0.169 HD
HETATM    8  O   UNL     1      -5.914   3.154 -33.868  1.00  0.00    -0.262 OA
BRANCH   6   9
HETATM    9  C   UNL     1      -7.481   1.547 -31.924  1.00  0.00     0.085 A 
HETATM   10  C   UNL     1      -7.787   0.287 -32.539  1.00  0.00     0.133 A 
HETATM   11  N   UNL     1      -9.113   0.050 -32.489  1.00  0.00    -0.171 NA
HETATM   12  N   UNL     1      -9.621   1.128 -31.869  1.00  0.00    -0.286 N 
HETATM   13  H   UNL     1     -10.624   1.167 -31.721  1.00  0.00     0.188 HD
HETATM   14  C   UNL     1      -8.687   2.049 -31.508  1.00  0.00     0.141 A 
BRANCH  10  15
HETATM   15  C   UNL     1      -6.830  -0.650 -33.148  1.00  0.00     0.089 A 
HETATM   16  N   UNL     1      -5.602  -0.720 -32.560  1.00  0.00    -0.259 NA
HETATM   17  C   UNL     1      -4.704  -1.571 -33.102  1.00  0.00     0.117 A 
HETATM   18  C   UNL     1      -4.966  -2.368 -34.203  1.00  0.00     0.019 A 
HETATM   19  C   UNL     1      -6.223  -2.288 -34.790  1.00  0.00     0.004 A 
HETATM   20  C   UNL     1      -7.171  -1.416 -34.259  1.00  0.00     0.034 A 
ENDBRANCH  10  15
ENDBRANCH   6   9
ENDBRANCH   2   5
BRANCH   1  21
HETATM   21  C   UNL     1      -2.851   5.457 -32.208  1.00  0.00     0.042 A 
HETATM   22  C   UNL     1      -1.953   5.741 -33.262  1.00  0.00    -0.035 A 
HETATM   23  C   UNL     1      -2.179   5.243 -34.666  1.00  0.00     0.050 C 
HETATM   24  C   UNL     1      -0.800   6.502 -33.002  1.00  0.00     0.010 A 
HETATM   25  C   UNL     1      -0.536   6.986 -31.721  1.00  0.00     0.017 A 
HETATM   26  C   UNL     1      -1.431   6.724 -30.681  1.00  0.00     0.034 A 
HETATM   27  C   UNL     1      -2.576   5.953 -30.928  1.00  0.00     0.047 A 
BRANCH  26  28
HETATM   28  C   UNL     1      -1.186   7.208 -29.292  1.00  0.00     0.252 C 
HETATM   29  N   UNL     1       0.064   7.746 -29.043  1.00  0.00    -0.352 N 
HETATM   30  H   UNL     1       0.682   7.944 -29.819  1.00  0.00     0.163 HD
HETATM   31  O   UNL     1      -2.075   7.135 -28.451  1.00  0.00    -0.268 OA
BRANCH  29  32
HETATM   32  C   UNL     1       0.409   8.287 -27.766  1.00  0.00     0.084 A 
HETATM   33  C   UNL     1       1.366   7.568 -26.858  1.00  0.00     0.027 A 
HETATM   34  C   UNL     1       1.784   8.845 -27.524  1.00  0.00     0.027 A 
ENDBRANCH  29  32
ENDBRANCH  26  28
ENDBRANCH   1  21
TORSDOF 6
ENDMDL
MODEL 3
REMARK VINA RESULT:      -8.5      2.083      3.526
REMARK  6 active torsions:
REMARK  status: ('A' for Active; 'I' for Inactive)
REMARK    1  A    between atoms: C_3  and  N_4 
REMARK       I    between atoms: N_4  and  C_5 
REMARK    2  A    between atoms: C_5  and  C_6 
REMARK       I    between atoms: C_6  and  N_7 
REMARK    3  A    between atoms: N_7  and  C_8 
REMARK    4  A    between atoms: C_9  and  C_10 
REMARK    5  A    between atoms: C_23  and  C_24 
REMARK       I    between atoms: C_24  and  N_25 
REMARK    6  A    between atoms: N_25  and  C_26 
ROOT
HETATM    1  N   UNL     1      -2.775   3.766 -31.506  1.00  0.00    -0.318 N 
HETATM    2  C   UNL     1      -4.114   3.468 -31.355  1.00  0.00     0.314 C 
HETATM    3  O   UNL     1      -5.079   4.218 -31.347  1.00  0.00    -0.262 OA
HETATM    4  H   UNL     1      -2.178   2.943 -31.499  1.00  0.00     0.169 HD
ENDROOT
BRANCH   2   5
HETATM    5  C   UNL     1      -4.344   1.952 -31.182  1.00  0.00     0.314 C 
HETATM    6  N   UNL     1      -3.765   1.216 -32.185  1.00  0.00    -0.316 N 
HETATM    7  H   UNL     1      -3.258   1.722 -32.918  1.00  0.00     0.169 HD
HETATM    8  O   UNL     1      -4.989   1.564 -30.214  1.00  0.00    -0.262 OA
BRANCH   6   9
HETATM    9  C   UNL     1      -3.789  -0.159 -32.314  1.00  0.00     0.085 A 
HETATM   10  C   UNL     1      -4.844  -0.941 -32.892  1.00  0.00     0.133 A 
HETATM   11  N   UNL     1      -4.530  -2.251 -32.857  1.00  0.00    -0.171 NA
HETATM   12  N   UNL     1      -3.322  -2.289 -32.272  1.00  0.00    -0.286 N 
HETATM   13  H   UNL     1      -2.883  -3.194 -32.137  1.00  0.00     0.188 HD
HETATM   14  C   UNL     1      -2.834  -1.066 -31.931  1.00  0.00     0.141 A 
BRANCH  10  15
HETATM   15  C   UNL     1      -6.104  -0.436 -33.458  1.00  0.00     0.089 A 
HETATM   16  N   UNL     1      -6.979   0.122 -32.573  1.00  0.00    -0.259 NA
HETATM   17  C   UNL     1      -8.145   0.591 -33.067  1.00  0.00     0.117 A 
HETATM   18  C   UNL     1      -8.489   0.541 -34.407  1.00  0.00     0.019 A 
HETATM   19  C   UNL     1      -7.587  -0.028 -35.298  1.00  0.00     0.004 A 
HETATM   20  C   UNL     1      -6.376  -0.526 -34.820  1.00  0.00     0.034 A 
ENDBRANCH  10  15
ENDBRANCH   6   9
ENDBRANCH   2   5
BRANCH   1  21
HETATM   21  C   UNL     1      -2.169   5.030 -31.654  1.00  0.00     0.042 A 
HETATM   22  C   UNL     1      -1.840   5.475 -32.954  1.00  0.00    -0.035 A 
HETATM   23  C   UNL     1      -2.131   4.652 -34.183  1.00  0.00     0.050 C 
HETATM   24  C   UNL     1      -1.209   6.720 -33.120  1.00  0.00     0.010 A 
HETATM   25  C   UNL     1      -0.912   7.524 -32.020  1.00  0.00     0.017 A 
HETATM   26  C   UNL     1      -1.253   7.096 -30.734  1.00  0.00     0.034 A 
HETATM   27  C   UNL     1      -1.869   5.848 -30.558  1.00  0.00     0.047 A 
BRANCH  26  28
HETATM   28  C   UNL     1      -0.944   7.912 -29.526  1.00  0.00     0.252 C 
HETATM   29  N   UNL     1      -0.061   7.352 -28.619  1.00  0.00    -0.352 N 
HETATM   30  H   UNL     1       0.455   6.522 -28.877  1.00  0.00     0.163 HD
HETATM   31  O   UNL     1      -1.446   9.022 -29.389  1.00  0.00    -0.268 OA
BRANCH  29  32
HETATM   32  C   UNL     1       0.353   8.051 -27.443  1.00  0.00     0.084 A 
HETATM   33  C   UNL     1       1.493   7.544 -26.606  1.00  0.00     0.027 A 
HETATM   34  C   UNL     1       1.661   8.792 -27.421  1.00  0.00     0.027 A 
ENDBRANCH  29  32
ENDBRANCH  26  28
ENDBRANCH   1  21
TORSDOF 6
ENDMDL
MODEL 4
REMARK VINA RESULT:      -8.3      1.526      2.986
REMARK  6 active torsions:
REMARK  status: ('A' for Active; 'I' for Inactive)
REMARK    1  A    between atoms: C_3  and  N_4 
REMARK       I    between atoms: N_4  and  C_5 
REMARK    2  A    between atoms: C_5  and  C_6 
REMARK       I    between atoms: C_6  and  N_7 
REMARK    3  A    between atoms: N_7  and  C_8 
REMARK    4  A    between atoms: C_9  and  C_10 
REMARK    5  A    between atoms: C_23  and  C_24 
REMARK       I    between atoms: C_24  and  N_25 
REMARK    6  A    between atoms: N_25  and  C_26 
ROOT
HETATM    1  N   UNL     1      -3.955   2.938 -32.476  1.00  0.00    -0.318 N 
HETATM    2  C   UNL     1      -4.884   2.629 -31.504  1.00  0.00     0.314 C 
HETATM    3  O   UNL     1      -5.215   3.269 -30.517  1.00  0.00    -0.262 OA
HETATM    4  H   UNL     1      -3.893   2.235 -33.209  1.00  0.00     0.169 HD
ENDROOT
BRANCH   2   5
HETATM    5  C   UNL     1      -5.564   1.271 -31.777  1.00  0.00     0.314 C 
HETATM    6  N   UNL     1      -5.242   0.760 -33.008  1.00  0.00    -0.316 N 
HETATM    7  H   UNL     1      -4.608   1.306 -33.601  1.00  0.00     0.169 HD
HETATM    8  O   UNL     1      -6.292   0.797 -30.911  1.00  0.00    -0.262 OA
BRANCH   6   9
HETATM    9  C   UNL     1      -5.683  -0.433 -33.544  1.00  0.00     0.085 A 
HETATM   10  C   UNL     1      -7.031  -0.751 -33.918  1.00  0.00     0.133 A 
HETATM   11  N   UNL     1      -7.100  -2.003 -34.411  1.00  0.00    -0.171 NA
HETATM   12  N   UNL     1      -5.837  -2.457 -34.344  1.00  0.00    -0.286 N 
HETATM   13  H   UNL     1      -5.649  -3.400 -34.667  1.00  0.00     0.188 HD
HETATM   14  C   UNL     1      -4.953  -1.557 -33.836  1.00  0.00     0.141 A 
BRANCH  10  15
HETATM   15  C   UNL     1      -8.206   0.128 -33.802  1.00  0.00     0.089 A 
HETATM   16  N   UNL     1      -8.103   1.349 -34.400  1.00  0.00    -0.259 NA
HETATM   17  C   UNL     1      -9.167   2.176 -34.307  1.00  0.00     0.117 A 
HETATM   18  C   UNL     1     -10.341   1.848 -33.650  1.00  0.00     0.019 A 
HETATM   19  C   UNL     1     -10.432   0.599 -33.048  1.00  0.00     0.004 A 
HETATM   20  C   UNL     1      -9.351  -0.276 -33.122  1.00  0.00     0.034 A 
ENDBRANCH  10  15
ENDBRANCH   6   9
ENDBRANCH   2   5
BRANCH   1  21
HETATM   21  C   UNL     1      -3.113   4.065 -32.560  1.00  0.00     0.042 A 
HETATM   22  C   UNL     1      -3.347   5.011 -33.583  1.00  0.00    -0.035 A 
HETATM   23  C   UNL     1      -4.472   4.862 -34.574  1.00  0.00     0.050 C 
HETATM   24  C   UNL     1      -2.500   6.127 -33.699  1.00  0.00     0.010 A 
HETATM   25  C   UNL     1      -1.440   6.317 -32.814  1.00  0.00     0.017 A 
HETATM   26  C   UNL     1      -1.218   5.394 -31.788  1.00  0.00     0.034 A 
HETATM   27  C   UNL     1      -2.048   4.269 -31.674  1.00  0.00     0.047 A 
BRANCH  26  28
HETATM   28  C   UNL     1      -0.089   5.544 -30.826  1.00  0.00     0.252 C 
HETATM   29  N   UNL     1      -0.283   6.441 -29.790  1.00  0.00    -0.352 N 
HETATM   30  H   UNL     1      -1.207   6.819 -29.628  1.00  0.00     0.163 HD
HETATM   31  O   UNL     1       0.930   4.877 -30.965  1.00  0.00    -0.268 OA
BRANCH  29  32
HETATM   32  C   UNL     1       0.703   6.643 -28.776  1.00  0.00     0.084 A 
HETATM   33  C   UNL     1       1.048   8.026 -28.301  1.00  0.00     0.027 A 
HETATM   34  C   UNL     1       0.296   7.092 -27.399  1.00  0.00     0.027 A 
ENDBRANCH  29  32
ENDBRANCH  26  28
ENDBRANCH   1  21
TORSDOF 6
ENDMDL
MODEL 5
REMARK VINA RESULT:      -8.2      4.822      7.486
REMARK  6 active torsions:
REMARK  status: ('A' for Active; 'I' for Inactive)
REMARK    1  A    between atoms: C_3  and  N_4 
REMARK       I    between atoms: N_4  and  C_5 
REMARK    2  A    between atoms: C_5  and  C_6 
REMARK       I    between atoms: C_6  and  N_7 
REMARK    3  A    between atoms: N_7  and  C_8 
REMARK    4  A    between atoms: C_9  and  C_10 
REMARK    5  A    between atoms: C_23  and  C_24 
REMARK       I    between atoms: C_24  and  N_25 
REMARK    6  A    between atoms: N_25  and  C_26 
ROOT
HETATM    1  N   UNL     1      -7.973   2.582 -32.829  1.00  0.00    -0.318 N 
HETATM    2  C   UNL     1      -7.690   3.683 -33.611  1.00  0.00     0.314 C 
HETATM    3  O   UNL     1      -6.623   4.042 -34.086  1.00  0.00    -0.262 OA
HETATM    4  H   UNL     1      -8.959   2.505 -32.588  1.00  0.00     0.169 HD
ENDROOT
BRANCH   2   5
HETATM    5  C   UNL     1      -8.952   4.527 -33.886  1.00  0.00     0.314 C 
HETATM    6  N   UNL     1      -9.945   4.302 -32.967  1.00  0.00    -0.316 N 
HETATM    7  H   UNL     1      -9.760   3.625 -32.220  1.00  0.00     0.169 HD
HETATM    8  O   UNL     1      -8.951   5.284 -34.851  1.00  0.00    -0.262 OA
BRANCH   6   9
HETATM    9  C   UNL     1     -11.189   4.901 -32.937  1.00  0.00     0.085 A 
HETATM   10  C   UNL     1     -12.454   4.243 -33.095  1.00  0.00     0.133 A 
HETATM   11  N   UNL     1     -13.461   5.135 -33.006  1.00  0.00    -0.171 NA
HETATM   12  N   UNL     1     -12.847   6.312 -32.804  1.00  0.00    -0.286 N 
HETATM   13  H   UNL     1     -13.422   7.142 -32.707  1.00  0.00     0.188 HD
HETATM   14  C   UNL     1     -11.490   6.226 -32.751  1.00  0.00     0.141 A 
BRANCH  10  15
HETATM   15  C   UNL     1     -12.676   2.807 -33.322  1.00  0.00     0.089 A 
HETATM   16  N   UNL     1     -11.557   2.031 -33.397  1.00  0.00    -0.259 NA
HETATM   17  C   UNL     1     -11.733   0.708 -33.607  1.00  0.00     0.117 A 
HETATM   18  C   UNL     1     -12.974   0.110 -33.743  1.00  0.00     0.019 A 
HETATM   19  C   UNL     1     -14.106   0.912 -33.662  1.00  0.00     0.004 A 
HETATM   20  C   UNL     1     -13.958   2.282 -33.450  1.00  0.00     0.034 A 
ENDBRANCH  10  15
ENDBRANCH   6   9
ENDBRANCH   2   5
BRANCH   1  21
HETATM   21  C   UNL     1      -7.088   1.600 -32.342  1.00  0.00     0.042 A 
HETATM   22  C   UNL     1      -6.689   1.659 -30.988  1.00  0.00    -0.035 A 
HETATM   23  C   UNL     1      -7.191   2.725 -30.048  1.00  0.00     0.050 C 
HETATM   24  C   UNL     1      -5.785   0.705 -30.491  1.00  0.00     0.010 A 
HETATM   25  C   UNL     1      -5.283  -0.303 -31.314  1.00  0.00     0.017 A 
HETATM   26  C   UNL     1      -5.690  -0.376 -32.649  1.00  0.00     0.034 A 
HETATM   27  C   UNL     1      -6.581   0.581 -33.157  1.00  0.00     0.047 A 
BRANCH  26  28
HETATM   28  C   UNL     1      -5.172  -1.426 -33.572  1.00  0.00     0.252 C 
HETATM   29  N   UNL     1      -6.119  -2.237 -34.171  1.00  0.00    -0.352 N 
HETATM   30  H   UNL     1      -7.097  -1.991 -34.101  1.00  0.00     0.163 HD
HETATM   31  O   UNL     1      -3.967  -1.519 -33.781  1.00  0.00    -0.268 OA
BRANCH  29  32
HETATM   32  C   UNL     1      -5.756  -3.250 -35.111  1.00  0.00     0.084 A 
HETATM   33  C   UNL     1      -5.364  -4.625 -34.650  1.00  0.00     0.027 A 
HETATM   34  C   UNL     1      -6.669  -4.419 -35.359  1.00  0.00     0.027 A 
ENDBRANCH  29  32
ENDBRANCH  26  28
ENDBRANCH   1  21
TORSDOF 6
ENDMDL
MODEL 6
REMARK VINA RESULT:      -7.9      2.702      8.133
REMARK  6 active torsions:
REMARK  status: ('A' for Active; 'I' for Inactive)
REMARK    1  A    between atoms: C_3  and  N_4 
REMARK       I    between atoms: N_4  and  C_5 
REMARK    2  A    between atoms: C_5  and  C_6 
REMARK       I    between atoms: C_6  and  N_7 
REMARK    3  A    between atoms: N_7  and  C_8 
REMARK    4  A    between atoms: C_9  and  C_10 
REMARK    5  A    between atoms: C_23  and  C_24 
REMARK       I    between atoms: C_24  and  N_25 
REMARK    6  A    between atoms: N_25  and  C_26 
ROOT
HETATM    1  N   UNL     1      -6.403   2.849 -32.021  1.00  0.00    -0.318 N 
HETATM    2  C   UNL     1      -5.994   3.156 -30.739  1.00  0.00     0.314 C 
HETATM    3  O   UNL     1      -5.749   2.407 -29.805  1.00  0.00    -0.262 OA
HETATM    4  H   UNL     1      -6.511   3.669 -32.614  1.00  0.00     0.169 HD
ENDROOT
BRANCH   2   5
HETATM    5  C   UNL     1      -5.838   4.678 -30.539  1.00  0.00     0.314 C 
HETATM    6  N   UNL     1      -4.620   5.016 -30.009  1.00  0.00    -0.316 N 
HETATM    7  H   UNL     1      -3.960   4.258 -29.806  1.00  0.00     0.169 HD
HETATM    8  O   UNL     1      -6.770   5.408 -30.858  1.00  0.00    -0.262 OA
BRANCH   6   9
HETATM    9  C   UNL     1      -4.176   6.290 -29.715  1.00  0.00     0.085 A 
HETATM   10  C   UNL     1      -3.252   7.069 -30.489  1.00  0.00     0.133 A 
HETATM   11  N   UNL     1      -3.048   8.268 -29.909  1.00  0.00    -0.171 NA
HETATM   12  N   UNL     1      -3.813   8.240 -28.806  1.00  0.00    -0.286 N 
HETATM   13  H   UNL     1      -3.814   9.055 -28.202  1.00  0.00     0.188 HD
HETATM   14  C   UNL     1      -4.509   7.082 -28.646  1.00  0.00     0.141 A 
BRANCH  10  15
HETATM   15  C   UNL     1      -2.596   6.665 -31.743  1.00  0.00     0.089 A 
HETATM   16  N   UNL     1      -2.480   5.323 -31.954  1.00  0.00    -0.259 NA
HETATM   17  C   UNL     1      -1.880   4.926 -33.097  1.00  0.00     0.117 A 
HETATM   18  C   UNL     1      -1.389   5.800 -34.052  1.00  0.00     0.019 A 
HETATM   19  C   UNL     1      -1.516   7.165 -33.824  1.00  0.00     0.004 A 
HETATM   20  C   UNL     1      -2.127   7.608 -32.652  1.00  0.00     0.034 A 
ENDBRANCH  10  15
ENDBRANCH   6   9
ENDBRANCH   2   5
BRANCH   1  21
HETATM   21  C   UNL     1      -6.684   1.584 -32.574  1.00  0.00     0.042 A 
HETATM   22  C   UNL     1      -8.033   1.225 -32.793  1.00  0.00    -0.035 A 
HETATM   23  C   UNL     1      -9.175   2.154 -32.470  1.00  0.00     0.050 C 
HETATM   24  C   UNL     1      -8.334  -0.044 -33.317  1.00  0.00     0.010 A 
HETATM   25  C   UNL     1      -7.320  -0.948 -33.631  1.00  0.00     0.017 A 
HETATM   26  C   UNL     1      -5.984  -0.589 -33.435  1.00  0.00     0.034 A 
HETATM   27  C   UNL     1      -5.675   0.669 -32.898  1.00  0.00     0.047 A 
BRANCH  26  28
HETATM   28  C   UNL     1      -4.865  -1.525 -33.742  1.00  0.00     0.252 C 
HETATM   29  N   UNL     1      -5.223  -2.817 -34.082  1.00  0.00    -0.352 N 
HETATM   30  H   UNL     1      -6.194  -3.028 -34.273  1.00  0.00     0.163 HD
HETATM   31  O   UNL     1      -3.705  -1.129 -33.704  1.00  0.00    -0.268 OA
BRANCH  29  32
HETATM   32  C   UNL     1      -4.249  -3.798 -34.443  1.00  0.00     0.084 A 
HETATM   33  C   UNL     1      -3.477  -4.542 -33.390  1.00  0.00     0.027 A 
HETATM   34  C   UNL     1      -4.515  -5.258 -34.203  1.00  0.00     0.027 A 
ENDBRANCH  29  32
ENDBRANCH  26  28
ENDBRANCH   1  21
TORSDOF 6
ENDMDL
MODEL 7
REMARK VINA RESULT:      -7.9      2.909      5.449
REMARK  6 active torsions:
REMARK  status: ('A' for Active; 'I' for Inactive)
REMARK    1  A    between atoms: C_3  and  N_4 
REMARK       I    between atoms: N_4  and  C_5 
REMARK    2  A    between atoms: C_5  and  C_6 
REMARK       I    between atoms: C_6  and  N_7 
REMARK    3  A    between atoms: N_7  and  C_8 
REMARK    4  A    between atoms: C_9  and  C_10 
REMARK    5  A    between atoms: C_23  and  C_24 
REMARK       I    between atoms: C_24  and  N_25 
REMARK    6  A    between atoms: N_25  and  C_26 
ROOT
HETATM    1  N   UNL     1      -7.366   1.399 -33.368  1.00  0.00    -0.318 N 
HETATM    2  C   UNL     1      -8.550   1.266 -32.672  1.00  0.00     0.314 C 
HETATM    3  O   UNL     1      -8.737   1.222 -31.465  1.00  0.00    -0.262 OA
HETATM    4  H   UNL     1      -7.496   1.433 -34.377  1.00  0.00     0.169 HD
ENDROOT
BRANCH   2   5
HETATM    5  C   UNL     1      -9.762   1.173 -33.622  1.00  0.00     0.314 C 
HETATM    6  N   UNL     1     -10.928   0.887 -32.959  1.00  0.00    -0.316 N 
HETATM    7  H   UNL     1     -10.883   0.769 -31.941  1.00  0.00     0.169 HD
HETATM    8  O   UNL     1      -9.581   1.354 -34.821  1.00  0.00    -0.262 OA
BRANCH   6   9
HETATM    9  C   UNL     1     -12.180   0.742 -33.522  1.00  0.00     0.085 A 
HETATM   10  C   UNL     1     -12.975   1.781 -34.110  1.00  0.00     0.133 A 
HETATM   11  N   UNL     1     -14.141   1.281 -34.566  1.00  0.00    -0.171 NA
HETATM   12  N   UNL     1     -14.081  -0.027 -34.268  1.00  0.00    -0.286 N 
HETATM   13  H   UNL     1     -14.869  -0.613 -34.522  1.00  0.00     0.188 HD
HETATM   14  C   UNL     1     -12.929  -0.400 -33.647  1.00  0.00     0.141 A 
BRANCH  10  15
HETATM   15  C   UNL     1     -12.615   3.203 -34.227  1.00  0.00     0.089 A 
HETATM   16  N   UNL     1     -12.216   3.818 -33.077  1.00  0.00    -0.259 NA
HETATM   17  C   UNL     1     -11.882   5.125 -33.157  1.00  0.00     0.117 A 
HETATM   18  C   UNL     1     -11.919   5.858 -34.331  1.00  0.00     0.019 A 
HETATM   19  C   UNL     1     -12.326   5.217 -35.496  1.00  0.00     0.004 A 
HETATM   20  C   UNL     1     -12.681   3.871 -35.447  1.00  0.00     0.034 A 
ENDBRANCH  10  15
ENDBRANCH   6   9
ENDBRANCH   2   5
BRANCH   1  21
HETATM   21  C   UNL     1      -6.053   1.481 -32.861  1.00  0.00     0.042 A 
HETATM   22  C   UNL     1      -5.319   0.286 -32.686  1.00  0.00    -0.035 A 
HETATM   23  C   UNL     1      -5.887  -1.065 -33.037  1.00  0.00     0.050 C 
HETATM   24  C   UNL     1      -4.019   0.346 -32.155  1.00  0.00     0.010 A 
HETATM   25  C   UNL     1      -3.443   1.567 -31.807  1.00  0.00     0.017 A 
HETATM   26  C   UNL     1      -4.158   2.752 -31.998  1.00  0.00     0.034 A 
HETATM   27  C   UNL     1      -5.462   2.701 -32.513  1.00  0.00     0.047 A 
BRANCH  26  28
HETATM   28  C   UNL     1      -3.591   4.080 -31.629  1.00  0.00     0.252 C 
HETATM   29  N   UNL     1      -2.255   4.098 -31.270  1.00  0.00    -0.352 N 
HETATM   30  H   UNL     1      -1.688   3.276 -31.429  1.00  0.00     0.163 HD
HETATM   31  O   UNL     1      -4.296   5.083 -31.675  1.00  0.00    -0.268 OA
BRANCH  29  32
HETATM   32  C   UNL     1      -1.581   5.314 -30.939  1.00  0.00     0.084 A 
HETATM   33  C   UNL     1      -0.234   5.292 -30.273  1.00  0.00     0.027 A 
HETATM   34  C   UNL     1      -0.355   5.734 -31.702  1.00  0.00     0.027 A 
ENDBRANCH  29  32
ENDBRANCH  26  28
ENDBRANCH   1  21
TORSDOF 6
ENDMDL
MODEL 8
REMARK VINA RESULT:      -7.8      2.013      3.381
REMARK  6 active torsions:
REMARK  status: ('A' for Active; 'I' for Inactive)
REMARK    1  A    between atoms: C_3  and  N_4 
REMARK       I    between atoms: N_4  and  C_5 
REMARK    2  A    between atoms: C_5  and  C_6 
REMARK       I    between atoms: C_6  and  N_7 
REMARK    3  A    between atoms: N_7  and  C_8 
REMARK    4  A    between atoms: C_9  and  C_10 
REMARK    5  A    between atoms: C_23  and  C_24 
REMARK       I    between atoms: C_24  and  N_25 
REMARK    6  A    between atoms: N_25  and  C_26 
ROOT
HETATM    1  N   UNL     1      -3.700   3.489 -32.698  1.00  0.00    -0.318 N 
HETATM    2  C   UNL     1      -3.728   2.276 -32.040  1.00  0.00     0.314 C 
HETATM    3  O   UNL     1      -2.943   1.822 -31.221  1.00  0.00    -0.262 OA
HETATM    4  H   UNL     1      -4.498   3.628 -33.314  1.00  0.00     0.169 HD
ENDROOT
BRANCH   2   5
HETATM    5  C   UNL     1      -4.957   1.436 -32.443  1.00  0.00     0.314 C 
HETATM    6  N   UNL     1      -5.684   2.019 -33.450  1.00  0.00    -0.316 N 
HETATM    7  H   UNL     1      -5.354   2.917 -33.820  1.00  0.00     0.169 HD
HETATM    8  O   UNL     1      -5.161   0.378 -31.858  1.00  0.00    -0.262 OA
BRANCH   6   9
HETATM    9  C   UNL     1      -6.832   1.518 -34.031  1.00  0.00     0.085 A 
HETATM   10  C   UNL     1      -8.181   1.858 -33.681  1.00  0.00     0.133 A 
HETATM   11  N   UNL     1      -9.052   1.183 -34.458  1.00  0.00    -0.171 NA
HETATM   12  N   UNL     1      -8.274   0.441 -35.263  1.00  0.00    -0.286 N 
HETATM   13  H   UNL     1      -8.725  -0.161 -35.943  1.00  0.00     0.188 HD
HETATM   14  C   UNL     1      -6.941   0.608 -35.051  1.00  0.00     0.141 A 
BRANCH  10  15
HETATM   15  C   UNL     1      -8.608   2.802 -32.637  1.00  0.00     0.089 A 
HETATM   16  N   UNL     1      -8.864   2.265 -31.410  1.00  0.00    -0.259 NA
HETATM   17  C   UNL     1      -9.260   3.110 -30.434  1.00  0.00     0.117 A 
HETATM   18  C   UNL     1      -9.410   4.475 -30.612  1.00  0.00     0.019 A 
HETATM   19  C   UNL     1      -9.143   5.009 -31.867  1.00  0.00     0.004 A 
HETATM   20  C   UNL     1      -8.736   4.163 -32.897  1.00  0.00     0.034 A 
ENDBRANCH  10  15
ENDBRANCH   6   9
ENDBRANCH   2   5
BRANCH   1  21
HETATM   21  C   UNL     1      -2.729   4.507 -32.622  1.00  0.00     0.042 A 
HETATM   22  C   UNL     1      -2.510   5.321 -33.756  1.00  0.00    -0.035 A 
HETATM   23  C   UNL     1      -3.290   5.145 -35.034  1.00  0.00     0.050 C 
HETATM   24  C   UNL     1      -1.526   6.323 -33.709  1.00  0.00     0.010 A 
HETATM   25  C   UNL     1      -0.770   6.531 -32.555  1.00  0.00     0.017 A 
HETATM   26  C   UNL     1      -0.998   5.741 -31.425  1.00  0.00     0.034 A 
HETATM   27  C   UNL     1      -1.967   4.728 -31.468  1.00  0.00     0.047 A 
BRANCH  26  28
HETATM   28  C   UNL     1      -0.207   5.914 -30.173  1.00  0.00     0.252 C 
HETATM   29  N   UNL     1      -0.452   7.068 -29.449  1.00  0.00    -0.352 N 
HETATM   30  H   UNL     1      -1.246   7.645 -29.689  1.00  0.00     0.163 HD
HETATM   31  O   UNL     1       0.591   5.050 -29.826  1.00  0.00    -0.268 OA
BRANCH  29  32
HETATM   32  C   UNL     1       0.207   7.330 -28.208  1.00  0.00     0.084 A 
HETATM   33  C   UNL     1       1.361   8.289 -28.136  1.00  0.00     0.027 A 
HETATM   34  C   UNL     1       0.042   8.661 -27.527  1.00  0.00     0.027 A 
ENDBRANCH  29  32
ENDBRANCH  26  28
ENDBRANCH   1  21
TORSDOF 6
ENDMDL
MODEL 9
REMARK VINA RESULT:      -7.8      2.668      8.952
REMARK  6 active torsions:
REMARK  status: ('A' for Active; 'I' for Inactive)
REMARK    1  A    between atoms: C_3  and  N_4 
REMARK       I    between atoms: N_4  and  C_5 
REMARK    2  A    between atoms: C_5  and  C_6 
REMARK       I    between atoms: C_6  and  N_7 
REMARK    3  A    between atoms: N_7  and  C_8 
REMARK    4  A    between atoms: C_9  and  C_10 
REMARK    5  A    between atoms: C_23  and  C_24 
REMARK       I    between atoms: C_24  and  N_25 
REMARK    6  A    between atoms: N_25  and  C_26 
ROOT
HETATM    1  N   UNL     1      -4.739   1.980 -32.881  1.00  0.00    -0.318 N 
HETATM    2  C   UNL     1      -4.433   2.650 -31.714  1.00  0.00     0.314 C 
HETATM    3  O   UNL     1      -4.888   2.496 -30.591  1.00  0.00    -0.262 OA
HETATM    4  H   UNL     1      -4.190   2.292 -33.678  1.00  0.00     0.169 HD
ENDROOT
BRANCH   2   5
HETATM    5  C   UNL     1      -3.350   3.725 -31.942  1.00  0.00     0.314 C 
HETATM    6  N   UNL     1      -3.795   4.762 -32.723  1.00  0.00    -0.316 N 
HETATM    7  H   UNL     1      -4.761   4.723 -33.064  1.00  0.00     0.169 HD
HETATM    8  O   UNL     1      -2.248   3.564 -31.430  1.00  0.00    -0.262 OA
BRANCH   6   9
HETATM    9  C   UNL     1      -3.071   5.874 -33.105  1.00  0.00     0.085 A 
HETATM   10  C   UNL     1      -2.690   6.971 -32.263  1.00  0.00     0.133 A 
HETATM   11  N   UNL     1      -1.986   7.880 -32.966  1.00  0.00    -0.171 NA
HETATM   12  N   UNL     1      -1.933   7.372 -34.208  1.00  0.00    -0.286 N 
HETATM   13  H   UNL     1      -1.442   7.901 -34.922  1.00  0.00     0.188 HD
HETATM   14  C   UNL     1      -2.563   6.174 -34.343  1.00  0.00     0.141 A 
BRANCH  10  15
HETATM   15  C   UNL     1      -2.996   7.129 -30.832  1.00  0.00     0.089 A 
HETATM   16  N   UNL     1      -4.292   6.914 -30.468  1.00  0.00    -0.259 NA
HETATM   17  C   UNL     1      -4.599   7.055 -29.160  1.00  0.00     0.117 A 
HETATM   18  C   UNL     1      -3.677   7.397 -28.186  1.00  0.00     0.019 A 
HETATM   19  C   UNL     1      -2.359   7.611 -28.572  1.00  0.00     0.004 A 
HETATM   20  C   UNL     1      -2.010   7.477 -29.914  1.00  0.00     0.034 A 
ENDBRANCH  10  15
ENDBRANCH   6   9
ENDBRANCH   2   5
BRANCH   1  21
HETATM   21  C   UNL     1      -5.692   0.962 -33.084  1.00  0.00     0.042 A 
HETATM   22  C   UNL     1      -5.237  -0.348 -33.355  1.00  0.00    -0.035 A 
HETATM   23  C   UNL     1      -3.771  -0.693 -33.418  1.00  0.00     0.050 C 
HETATM   24  C   UNL     1      -6.172  -1.371 -33.589  1.00  0.00     0.010 A 
HETATM   25  C   UNL     1      -7.542  -1.111 -33.548  1.00  0.00     0.017 A 
HETATM   26  C   UNL     1      -7.996   0.178 -33.261  1.00  0.00     0.034 A 
HETATM   27  C   UNL     1      -7.070   1.209 -33.042  1.00  0.00     0.047 A 
BRANCH  26  28
HETATM   28  C   UNL     1      -9.449   0.509 -33.220  1.00  0.00     0.252 C 
HETATM   29  N   UNL     1      -9.854   1.584 -33.992  1.00  0.00    -0.352 N 
HETATM   30  H   UNL     1      -9.211   1.983 -34.662  1.00  0.00     0.163 HD
HETATM   31  O   UNL     1     -10.215  -0.170 -32.546  1.00  0.00    -0.268 OA
BRANCH  29  32
HETATM   32  C   UNL     1     -11.226   1.975 -34.076  1.00  0.00     0.084 A 
HETATM   33  C   UNL     1     -11.651   3.113 -34.960  1.00  0.00     0.027 A 
HETATM   34  C   UNL     1     -12.018   1.706 -35.326  1.00  0.00     0.027 A 
ENDBRANCH  29  32
ENDBRANCH  26  28
ENDBRANCH   1  21
TORSDOF 6
ENDMDL
MODEL 10
REMARK VINA RESULT:      -7.8      5.129      7.978
REMARK  6 active torsions:
REMARK  status: ('A' for Active; 'I' for Inactive)
REMARK    1  A    between atoms: C_3  and  N_4 
REMARK       I    between atoms: N_4  and  C_5 
REMARK    2  A    between atoms: C_5  and  C_6 
REMARK       I    between atoms: C_6  and  N_7 
REMARK    3  A    between atoms: N_7  and  C_8 
REMARK    4  A    between atoms: C_9  and  C_10 
REMARK    5  A    between atoms: C_23  and  C_24 
REMARK       I    between atoms: C_24  and  N_25 
REMARK    6  A    between atoms: N_25  and  C_26 
ROOT
HETATM    1  N   UNL     1      -8.877   1.433 -32.820  1.00  0.00    -0.318 N 
HETATM    2  C   UNL     1     -10.071   0.751 -32.942  1.00  0.00     0.314 C 
HETATM    3  O   UNL     1     -10.326  -0.415 -32.682  1.00  0.00    -0.262 OA
HETATM    4  H   UNL     1      -8.948   2.413 -33.084  1.00  0.00     0.169 HD
ENDROOT
BRANCH   2   5
HETATM    5  C   UNL     1     -11.195   1.661 -33.480  1.00  0.00     0.314 C 
HETATM    6  N   UNL     1     -11.727   2.469 -32.508  1.00  0.00    -0.316 N 
HETATM    7  H   UNL     1     -11.344   2.393 -31.560  1.00  0.00     0.169 HD
HETATM    8  O   UNL     1     -11.492   1.583 -34.667  1.00  0.00    -0.262 OA
BRANCH   6   9
HETATM    9  C   UNL     1     -12.741   3.392 -32.671  1.00  0.00     0.085 A 
HETATM   10  C   UNL     1     -12.588   4.815 -32.770  1.00  0.00     0.133 A 
HETATM   11  N   UNL     1     -13.789   5.407 -32.928  1.00  0.00    -0.171 NA
HETATM   12  N   UNL     1     -14.665   4.389 -32.921  1.00  0.00    -0.286 N 
HETATM   13  H   UNL     1     -15.651   4.605 -33.026  1.00  0.00     0.188 HD
HETATM   14  C   UNL     1     -14.090   3.165 -32.774  1.00  0.00     0.141 A 
BRANCH  10  15
HETATM   15  C   UNL     1     -11.326   5.570 -32.717  1.00  0.00     0.089 A 
HETATM   16  N   UNL     1     -10.316   5.106 -33.506  1.00  0.00    -0.259 NA
HETATM   17  C   UNL     1      -9.145   5.780 -33.474  1.00  0.00     0.117 A 
HETATM   18  C   UNL     1      -8.926   6.903 -32.696  1.00  0.00     0.019 A 
HETATM   19  C   UNL     1      -9.965   7.366 -31.898  1.00  0.00     0.004 A 
HETATM   20  C   UNL     1     -11.184   6.691 -31.905  1.00  0.00     0.034 A 
ENDBRANCH  10  15
ENDBRANCH   6   9
ENDBRANCH   2   5
BRANCH   1  21
HETATM   21  C   UNL     1      -7.625   0.943 -32.398  1.00  0.00     0.042 A 
HETATM   22  C   UNL     1      -7.007   1.540 -31.276  1.00  0.00    -0.035 A 
HETATM   23  C   UNL     1      -7.649   2.669 -30.511  1.00  0.00     0.050 C 
HETATM   24  C   UNL     1      -5.745   1.084 -30.858  1.00  0.00     0.010 A 
HETATM   25  C   UNL     1      -5.101   0.045 -31.529  1.00  0.00     0.017 A 
HETATM   26  C   UNL     1      -5.718  -0.561 -32.627  1.00  0.00     0.034 A 
HETATM   27  C   UNL     1      -6.970  -0.101 -33.061  1.00  0.00     0.047 A 
BRANCH  26  28
HETATM   28  C   UNL     1      -5.063  -1.664 -33.386  1.00  0.00     0.252 C 
HETATM   29  N   UNL     1      -5.883  -2.403 -34.221  1.00  0.00    -0.352 N 
HETATM   30  H   UNL     1      -6.820  -2.075 -34.412  1.00  0.00     0.163 HD
HETATM   31  O   UNL     1      -3.859  -1.862 -33.267  1.00  0.00    -0.268 OA
BRANCH  29  32
HETATM   32  C   UNL     1      -5.370  -3.457 -35.038  1.00  0.00     0.084 A 
HETATM   33  C   UNL     1      -5.180  -4.841 -34.482  1.00  0.00     0.027 A 
HETATM   34  C   UNL     1      -6.267  -4.579 -35.482  1.00  0.00     0.027 A 
ENDBRANCH  29  32
ENDBRANCH  26  28
ENDBRANCH   1  21
TORSDOF 6
ENDMDL
