MODEL 1
REMARK VINA RESULT:      -9.8      0.000      0.000
REMARK  5 active torsions:
REMARK  status: ('A' for Active; 'I' for Inactive)
REMARK    1  A    between atoms: C_4  and  C_5 
REMARK    2  A    between atoms: N_7  and  C_8 
REMARK    3  A    between atoms: C_15  and  C_16 
REMARK       I    between atoms: C_16  and  N_17 
REMARK    4  A    between atoms: N_17  and  N_18 
REMARK       I    between atoms: N_18  and  C_19 
REMARK    5  A    between atoms: C_19  and  C_20 
ROOT
HETATM    1  C   UNL     1      -7.594   0.299 -33.475  1.00  0.00     0.105 A 
HETATM    2  N   UNL     1      -8.841   0.042 -33.905  1.00  0.00    -0.166 NA
HETATM    3  N   UNL     1      -9.579   1.120 -33.578  1.00  0.00    -0.244 N 
HETATM    4  C   UNL     1      -8.814   2.073 -32.951  1.00  0.00     0.138 A 
HETATM    5  C   UNL     1      -7.514   1.597 -32.880  1.00  0.00     0.082 A 
ENDROOT
BRANCH   5   6
HETATM    6  C   UNL     1      -6.362   2.298 -32.324  1.00  0.00     0.274 C 
HETATM    7  N   UNL     1      -5.608   2.995 -33.248  1.00  0.00    -0.263 N 
HETATM    8  H   UNL     1      -5.765   2.958 -34.251  1.00  0.00     0.190 HD
HETATM    9  O   UNL     1      -6.067   2.288 -31.131  1.00  0.00    -0.266 OA
BRANCH   7  10
HETATM   10  N   UNL     1      -4.479   3.709 -32.835  1.00  0.00    -0.263 N 
HETATM   11  C   UNL     1      -3.946   4.636 -33.700  1.00  0.00     0.275 C 
HETATM   12  O   UNL     1      -4.407   4.807 -34.831  1.00  0.00    -0.266 OA
HETATM   13  H   UNL     1      -4.132   3.558 -31.880  1.00  0.00     0.190 HD
BRANCH  11  14
HETATM   14  C   UNL     1      -2.791   5.422 -33.187  1.00  0.00     0.101 A 
HETATM   15  C   UNL     1      -1.863   4.928 -32.126  1.00  0.00     0.261 A 
HETATM   16  O   UNL     1      -1.993   3.823 -31.607  1.00  0.00    -0.267 OA
HETATM   17  N   UNL     1      -0.848   5.782 -31.753  1.00  0.00    -0.333 N 
HETATM   18  C   UNL     1      -0.655   7.025 -32.295  1.00  0.00     0.091 A 
HETATM   19  H   UNL     1      -0.225   5.439 -31.030  1.00  0.00     0.168 HD
HETATM   20  C   UNL     1      -1.477   7.476 -33.247  1.00  0.00     0.018 A 
HETATM   21  C   UNL     1      -2.573   6.649 -33.700  1.00  0.00     0.024 A 
ENDBRANCH  11  14
ENDBRANCH   7  10
ENDBRANCH   5   6
BRANCH   1  22
HETATM   22  C   UNL     1      -6.553  -0.708 -33.697  1.00  0.00    -0.005 A 
HETATM   23  C   UNL     1      -6.740  -1.692 -34.680  1.00  0.00     0.014 A 
HETATM   24  C   UNL     1      -5.775  -2.679 -34.896  1.00  0.00     0.001 A 
HETATM   25  C   UNL     1      -4.615  -2.695 -34.125  1.00  0.00     0.000 A 
HETATM   26  C   UNL     1      -4.424  -1.732 -33.135  1.00  0.00     0.001 A 
HETATM   27  C   UNL     1      -5.393  -0.748 -32.916  1.00  0.00     0.014 A 
ENDBRANCH   1  22
BRANCH   3  28
HETATM   28  C   UNL     1     -10.967   1.180 -33.896  1.00  0.00     0.058 A 
HETATM   29  C   UNL     1     -11.448   2.243 -34.678  1.00  0.00     0.031 A 
HETATM   30  C   UNL     1     -12.804   2.327 -34.995  1.00  0.00     0.002 A 
HETATM   31  C   UNL     1     -13.691   1.356 -34.536  1.00  0.00     0.000 A 
HETATM   32  C   UNL     1     -13.222   0.296 -33.761  1.00  0.00     0.002 A 
HETATM   33  C   UNL     1     -11.864   0.203 -33.441  1.00  0.00     0.031 A 
ENDBRANCH   3  28
TORSDOF 5
ENDMDL
MODEL 2
REMARK VINA RESULT:      -9.6      2.377      5.194
REMARK  5 active torsions:
REMARK  status: ('A' for Active; 'I' for Inactive)
REMARK    1  A    between atoms: C_4  and  C_5 
REMARK    2  A    between atoms: N_7  and  C_8 
REMARK    3  A    between atoms: C_15  and  C_16 
REMARK       I    between atoms: C_16  and  N_17 
REMARK    4  A    between atoms: N_17  and  N_18 
REMARK       I    between atoms: N_18  and  C_19 
REMARK    5  A    between atoms: C_19  and  C_20 
ROOT
HETATM    1  C   UNL     1      -6.342   1.184 -33.329  1.00  0.00     0.105 A 
HETATM    2  N   UNL     1      -6.576   0.013 -33.945  1.00  0.00    -0.166 NA
HETATM    3  N   UNL     1      -5.602  -0.825 -33.537  1.00  0.00    -0.244 N 
HETATM    4  C   UNL     1      -4.752  -0.204 -32.655  1.00  0.00     0.138 A 
HETATM    5  C   UNL     1      -5.202   1.094 -32.471  1.00  0.00     0.082 A 
ENDROOT
BRANCH   5   6
HETATM    6  C   UNL     1      -4.618   2.099 -31.588  1.00  0.00     0.274 C 
HETATM    7  N   UNL     1      -3.430   2.644 -32.038  1.00  0.00    -0.263 N 
HETATM    8  H   UNL     1      -2.935   2.319 -32.863  1.00  0.00     0.190 HD
HETATM    9  O   UNL     1      -5.124   2.451 -30.526  1.00  0.00    -0.266 OA
BRANCH   7  10
HETATM   10  N   UNL     1      -2.775   3.618 -31.278  1.00  0.00    -0.263 N 
HETATM   11  C   UNL     1      -2.048   4.577 -31.944  1.00  0.00     0.275 C 
HETATM   12  O   UNL     1      -1.924   4.561 -33.171  1.00  0.00    -0.266 OA
HETATM   13  H   UNL     1      -2.916   3.615 -30.261  1.00  0.00     0.190 HD
BRANCH  11  14
HETATM   14  C   UNL     1      -1.431   5.634 -31.097  1.00  0.00     0.101 A 
HETATM   15  C   UNL     1      -2.211   6.517 -30.179  1.00  0.00     0.261 A 
HETATM   16  O   UNL     1      -3.429   6.420 -30.058  1.00  0.00    -0.267 OA
HETATM   17  N   UNL     1      -1.491   7.455 -29.472  1.00  0.00    -0.333 N 
HETATM   18  C   UNL     1      -0.134   7.610 -29.567  1.00  0.00     0.091 A 
HETATM   19  H   UNL     1      -2.031   8.051 -28.853  1.00  0.00     0.168 HD
HETATM   20  C   UNL     1       0.575   6.824 -30.383  1.00  0.00     0.018 A 
HETATM   21  C   UNL     1      -0.097   5.812 -31.167  1.00  0.00     0.024 A 
ENDBRANCH  11  14
ENDBRANCH   7  10
ENDBRANCH   5   6
BRANCH   1  22
HETATM   22  C   UNL     1      -7.253   2.303 -33.582  1.00  0.00    -0.005 A 
HETATM   23  C   UNL     1      -8.608   2.048 -33.844  1.00  0.00     0.014 A 
HETATM   24  C   UNL     1      -9.493   3.095 -34.112  1.00  0.00     0.001 A 
HETATM   25  C   UNL     1      -9.030   4.408 -34.128  1.00  0.00     0.000 A 
HETATM   26  C   UNL     1      -7.684   4.674 -33.884  1.00  0.00     0.001 A 
HETATM   27  C   UNL     1      -6.797   3.626 -33.621  1.00  0.00     0.014 A 
ENDBRANCH   1  22
BRANCH   3  28
HETATM   28  C   UNL     1      -5.553  -2.170 -34.003  1.00  0.00     0.058 A 
HETATM   29  C   UNL     1      -6.697  -2.738 -34.588  1.00  0.00     0.031 A 
HETATM   30  C   UNL     1      -6.675  -4.057 -35.043  1.00  0.00     0.002 A 
HETATM   31  C   UNL     1      -5.516  -4.820 -34.919  1.00  0.00     0.000 A 
HETATM   32  C   UNL     1      -4.375  -4.264 -34.341  1.00  0.00     0.002 A 
HETATM   33  C   UNL     1      -4.389  -2.943 -33.884  1.00  0.00     0.031 A 
ENDBRANCH   3  28
TORSDOF 5
ENDMDL
MODEL 3
REMARK VINA RESULT:      -9.4      2.647      8.500
REMARK  5 active torsions:
REMARK  status: ('A' for Active; 'I' for Inactive)
REMARK    1  A    between atoms: C_4  and  C_5 
REMARK    2  A    between atoms: N_7  and  C_8 
REMARK    3  A    between atoms: C_15  and  C_16 
REMARK       I    between atoms: C_16  and  N_17 
REMARK    4  A    between atoms: N_17  and  N_18 
REMARK       I    between atoms: N_18  and  C_19 
REMARK    5  A    between atoms: C_19  and  C_20 
ROOT
HETATM    1  C   UNL     1      -5.997   0.936 -32.907  1.00  0.00     0.105 A 
HETATM    2  N   UNL     1      -4.849   1.631 -32.831  1.00  0.00    -0.166 NA
HETATM    3  N   UNL     1      -5.161   2.809 -32.257  1.00  0.00    -0.244 N 
HETATM    4  C   UNL     1      -6.499   2.872 -31.951  1.00  0.00     0.138 A 
HETATM    5  C   UNL     1      -7.080   1.673 -32.334  1.00  0.00     0.082 A 
ENDROOT
BRANCH   5   6
HETATM    6  C   UNL     1      -8.479   1.294 -32.163  1.00  0.00     0.274 C 
HETATM    7  N   UNL     1      -9.379   2.069 -32.868  1.00  0.00    -0.263 N 
HETATM    8  H   UNL     1      -9.122   2.900 -33.392  1.00  0.00     0.190 HD
HETATM    9  O   UNL     1      -8.852   0.361 -31.455  1.00  0.00    -0.266 OA
BRANCH   7  10
HETATM   10  N   UNL     1     -10.749   1.801 -32.786  1.00  0.00    -0.263 N 
HETATM   11  C   UNL     1     -11.627   2.788 -33.170  1.00  0.00     0.275 C 
HETATM   12  O   UNL     1     -11.233   3.900 -33.530  1.00  0.00    -0.266 OA
HETATM   13  H   UNL     1     -11.042   0.859 -32.502  1.00  0.00     0.190 HD
BRANCH  11  14
HETATM   14  C   UNL     1     -13.070   2.430 -33.134  1.00  0.00     0.101 A 
HETATM   15  C   UNL     1     -13.743   1.605 -34.183  1.00  0.00     0.261 A 
HETATM   16  O   UNL     1     -13.136   1.158 -35.151  1.00  0.00    -0.267 OA
HETATM   17  N   UNL     1     -15.090   1.372 -34.008  1.00  0.00    -0.333 N 
HETATM   18  C   UNL     1     -15.819   1.845 -32.950  1.00  0.00     0.091 A 
HETATM   19  H   UNL     1     -15.538   0.813 -34.727  1.00  0.00     0.168 HD
HETATM   20  C   UNL     1     -15.227   2.582 -32.005  1.00  0.00     0.018 A 
HETATM   21  C   UNL     1     -13.816   2.879 -32.105  1.00  0.00     0.024 A 
ENDBRANCH  11  14
ENDBRANCH   7  10
ENDBRANCH   5   6
BRANCH   1  22
HETATM   22  C   UNL     1      -5.968  -0.405 -33.494  1.00  0.00    -0.005 A 
HETATM   23  C   UNL     1      -4.810  -1.189 -33.375  1.00  0.00     0.014 A 
HETATM   24  C   UNL     1      -4.747  -2.462 -33.947  1.00  0.00     0.001 A 
HETATM   25  C   UNL     1      -5.841  -2.962 -34.650  1.00  0.00     0.000 A 
HETATM   26  C   UNL     1      -6.992  -2.188 -34.788  1.00  0.00     0.001 A 
HETATM   27  C   UNL     1      -7.052  -0.911 -34.220  1.00  0.00     0.014 A 
ENDBRANCH   1  22
BRANCH   3  28
HETATM   28  C   UNL     1      -4.160   3.795 -32.022  1.00  0.00     0.058 A 
HETATM   29  C   UNL     1      -2.933   3.705 -32.699  1.00  0.00     0.031 A 
HETATM   30  C   UNL     1      -1.935   4.655 -32.478  1.00  0.00     0.002 A 
HETATM   31  C   UNL     1      -2.149   5.698 -31.581  1.00  0.00     0.000 A 
HETATM   32  C   UNL     1      -3.365   5.797 -30.905  1.00  0.00     0.002 A 
HETATM   33  C   UNL     1      -4.371   4.851 -31.123  1.00  0.00     0.031 A 
ENDBRANCH   3  28
TORSDOF 5
ENDMDL
MODEL 4
REMARK VINA RESULT:      -9.4      3.080      8.591
REMARK  5 active torsions:
REMARK  status: ('A' for Active; 'I' for Inactive)
REMARK    1  A    between atoms: C_4  and  C_5 
REMARK    2  A    between atoms: N_7  and  C_8 
REMARK    3  A    between atoms: C_15  and  C_16 
REMARK       I    between atoms: C_16  and  N_17 
REMARK    4  A    between atoms: N_17  and  N_18 
REMARK       I    between atoms: N_18  and  C_19 
REMARK    5  A    between atoms: C_19  and  C_20 
ROOT
HETATM    1  C   UNL     1      -6.608   1.427 -33.522  1.00  0.00     0.105 A 
HETATM    2  N   UNL     1      -5.832   0.351 -33.739  1.00  0.00    -0.166 NA
HETATM    3  N   UNL     1      -6.674  -0.682 -33.941  1.00  0.00    -0.244 N 
HETATM    4  C   UNL     1      -7.984  -0.276 -33.867  1.00  0.00     0.138 A 
HETATM    5  C   UNL     1      -7.994   1.088 -33.619  1.00  0.00     0.082 A 
ENDROOT
BRANCH   5   6
HETATM    6  C   UNL     1      -9.172   1.940 -33.499  1.00  0.00     0.274 C 
HETATM    7  N   UNL     1     -10.176   1.429 -32.698  1.00  0.00    -0.263 N 
HETATM    8  H   UNL     1     -10.160   0.498 -32.294  1.00  0.00     0.190 HD
HETATM    9  O   UNL     1      -9.286   3.030 -34.054  1.00  0.00    -0.266 OA
BRANCH   7  10
HETATM   10  N   UNL     1     -11.356   2.155 -32.506  1.00  0.00    -0.263 N 
HETATM   11  C   UNL     1     -12.488   1.739 -33.166  1.00  0.00     0.275 C 
HETATM   12  O   UNL     1     -12.467   0.787 -33.950  1.00  0.00    -0.266 OA
HETATM   13  H   UNL     1     -11.343   2.929 -31.831  1.00  0.00     0.190 HD
BRANCH  11  14
HETATM   14  C   UNL     1     -13.733   2.499 -32.872  1.00  0.00     0.101 A 
HETATM   15  C   UNL     1     -13.827   3.988 -32.939  1.00  0.00     0.261 A 
HETATM   16  O   UNL     1     -12.869   4.689 -33.251  1.00  0.00    -0.267 OA
HETATM   17  N   UNL     1     -15.050   4.540 -32.626  1.00  0.00    -0.333 N 
HETATM   18  C   UNL     1     -16.152   3.808 -32.269  1.00  0.00     0.091 A 
HETATM   19  H   UNL     1     -15.103   5.552 -32.672  1.00  0.00     0.168 HD
HETATM   20  C   UNL     1     -16.081   2.475 -32.210  1.00  0.00     0.018 A 
HETATM   21  C   UNL     1     -14.836   1.808 -32.519  1.00  0.00     0.024 A 
ENDBRANCH  11  14
ENDBRANCH   7  10
ENDBRANCH   5   6
BRANCH   1  22
HETATM   22  C   UNL     1      -5.962   2.718 -33.270  1.00  0.00    -0.005 A 
HETATM   23  C   UNL     1      -5.407   2.980 -32.009  1.00  0.00     0.014 A 
HETATM   24  C   UNL     1      -4.807   4.212 -31.734  1.00  0.00     0.001 A 
HETATM   25  C   UNL     1      -4.763   5.197 -32.718  1.00  0.00     0.000 A 
HETATM   26  C   UNL     1      -5.325   4.954 -33.970  1.00  0.00     0.001 A 
HETATM   27  C   UNL     1      -5.929   3.724 -34.243  1.00  0.00     0.014 A 
ENDBRANCH   1  22
BRANCH   3  28
HETATM   28  C   UNL     1      -6.175  -1.989 -34.207  1.00  0.00     0.058 A 
HETATM   29  C   UNL     1      -7.070  -3.003 -34.588  1.00  0.00     0.031 A 
HETATM   30  C   UNL     1      -6.605  -4.294 -34.844  1.00  0.00     0.002 A 
HETATM   31  C   UNL     1      -5.249  -4.585 -34.723  1.00  0.00     0.000 A 
HETATM   32  C   UNL     1      -4.352  -3.585 -34.347  1.00  0.00     0.002 A 
HETATM   33  C   UNL     1      -4.810  -2.289 -34.090  1.00  0.00     0.031 A 
ENDBRANCH   3  28
TORSDOF 5
ENDMDL
MODEL 5
REMARK VINA RESULT:      -9.2      1.787      2.504
REMARK  5 active torsions:
REMARK  status: ('A' for Active; 'I' for Inactive)
REMARK    1  A    between atoms: C_4  and  C_5 
REMARK    2  A    between atoms: N_7  and  C_8 
REMARK    3  A    between atoms: C_15  and  C_16 
REMARK       I    between atoms: C_16  and  N_17 
REMARK    4  A    between atoms: N_17  and  N_18 
REMARK       I    between atoms: N_18  and  C_19 
REMARK    5  A    between atoms: C_19  and  C_20 
ROOT
HETATM    1  C   UNL     1      -9.384   1.571 -33.744  1.00  0.00     0.105 A 
HETATM    2  N   UNL     1     -10.613   1.034 -33.665  1.00  0.00    -0.166 NA
HETATM    3  N   UNL     1     -11.474   2.070 -33.631  1.00  0.00    -0.244 N 
HETATM    4  C   UNL     1     -10.808   3.269 -33.699  1.00  0.00     0.138 A 
HETATM    5  C   UNL     1      -9.451   2.999 -33.795  1.00  0.00     0.082 A 
ENDROOT
BRANCH   5   6
HETATM    6  C   UNL     1      -8.378   3.979 -33.925  1.00  0.00     0.274 C 
HETATM    7  N   UNL     1      -7.165   3.582 -33.394  1.00  0.00    -0.263 N 
HETATM    8  H   UNL     1      -7.031   2.725 -32.866  1.00  0.00     0.190 HD
HETATM    9  O   UNL     1      -8.516   5.075 -34.462  1.00  0.00    -0.266 OA
BRANCH   7  10
HETATM   10  N   UNL     1      -6.060   4.436 -33.460  1.00  0.00    -0.263 N 
HETATM   11  C   UNL     1      -4.864   3.987 -32.951  1.00  0.00     0.275 C 
HETATM   12  O   UNL     1      -4.765   2.887 -32.401  1.00  0.00    -0.266 OA
HETATM   13  H   UNL     1      -6.170   5.335 -33.942  1.00  0.00     0.190 HD
BRANCH  11  14
HETATM   14  C   UNL     1      -3.701   4.901 -33.110  1.00  0.00     0.101 A 
HETATM   15  C   UNL     1      -3.720   6.340 -32.708  1.00  0.00     0.261 A 
HETATM   16  O   UNL     1      -4.711   6.865 -32.207  1.00  0.00    -0.267 OA
HETATM   17  N   UNL     1      -2.564   7.055 -32.932  1.00  0.00    -0.333 N 
HETATM   18  C   UNL     1      -1.430   6.524 -33.488  1.00  0.00     0.091 A 
HETATM   19  H   UNL     1      -2.588   8.031 -32.658  1.00  0.00     0.168 HD
HETATM   20  C   UNL     1      -1.400   5.237 -33.849  1.00  0.00     0.018 A 
HETATM   21  C   UNL     1      -2.569   4.410 -33.653  1.00  0.00     0.024 A 
ENDBRANCH  11  14
ENDBRANCH   7  10
ENDBRANCH   5   6
BRANCH   1  22
HETATM   22  C   UNL     1      -8.228   0.674 -33.799  1.00  0.00    -0.005 A 
HETATM   23  C   UNL     1      -7.769   0.212 -35.042  1.00  0.00     0.014 A 
HETATM   24  C   UNL     1      -6.683  -0.664 -35.122  1.00  0.00     0.001 A 
HETATM   25  C   UNL     1      -6.051  -1.093 -33.958  1.00  0.00     0.000 A 
HETATM   26  C   UNL     1      -6.506  -0.654 -32.716  1.00  0.00     0.001 A 
HETATM   27  C   UNL     1      -7.596   0.219 -32.636  1.00  0.00     0.014 A 
ENDBRANCH   1  22
BRANCH   3  28
HETATM   28  C   UNL     1     -12.879   1.851 -33.550  1.00  0.00     0.058 A 
HETATM   29  C   UNL     1     -13.643   2.609 -32.646  1.00  0.00     0.031 A 
HETATM   30  C   UNL     1     -15.020   2.405 -32.543  1.00  0.00     0.002 A 
HETATM   31  C   UNL     1     -15.645   1.447 -33.337  1.00  0.00     0.000 A 
HETATM   32  C   UNL     1     -14.896   0.692 -34.238  1.00  0.00     0.002 A 
HETATM   33  C   UNL     1     -13.516   0.891 -34.349  1.00  0.00     0.031 A 
ENDBRANCH   3  28
TORSDOF 5
ENDMDL
MODEL 6
REMARK VINA RESULT:      -9.2      3.306      7.664
REMARK  5 active torsions:
REMARK  status: ('A' for Active; 'I' for Inactive)
REMARK    1  A    between atoms: C_4  and  C_5 
REMARK    2  A    between atoms: N_7  and  C_8 
REMARK    3  A    between atoms: C_15  and  C_16 
REMARK       I    between atoms: C_16  and  N_17 
REMARK    4  A    between atoms: N_17  and  N_18 
REMARK       I    between atoms: N_18  and  C_19 
REMARK    5  A    between atoms: C_19  and  C_20 
ROOT
HETATM    1  C   UNL     1      -6.502   1.198 -33.574  1.00  0.00     0.105 A 
HETATM    2  N   UNL     1      -5.703   0.130 -33.741  1.00  0.00    -0.166 NA
HETATM    3  N   UNL     1      -6.521  -0.919 -33.958  1.00  0.00    -0.244 N 
HETATM    4  C   UNL     1      -7.838  -0.531 -33.944  1.00  0.00     0.138 A 
HETATM    5  C   UNL     1      -7.878   0.837 -33.720  1.00  0.00     0.082 A 
ENDROOT
BRANCH   5   6
HETATM    6  C   UNL     1      -9.073   1.673 -33.664  1.00  0.00     0.274 C 
HETATM    7  N   UNL     1      -9.381   2.322 -34.844  1.00  0.00    -0.263 N 
HETATM    8  H   UNL     1      -8.787   2.312 -35.668  1.00  0.00     0.190 HD
HETATM    9  O   UNL     1      -9.767   1.803 -32.659  1.00  0.00    -0.266 OA
BRANCH   7  10
HETATM   10  N   UNL     1     -10.504   3.151 -34.914  1.00  0.00    -0.263 N 
HETATM   11  C   UNL     1     -10.307   4.512 -34.898  1.00  0.00     0.275 C 
HETATM   12  O   UNL     1      -9.182   5.002 -34.772  1.00  0.00    -0.266 OA
HETATM   13  H   UNL     1     -11.424   2.712 -35.038  1.00  0.00     0.190 HD
BRANCH  11  14
HETATM   14  C   UNL     1     -11.526   5.352 -35.049  1.00  0.00     0.101 A 
HETATM   15  C   UNL     1     -12.888   4.915 -34.616  1.00  0.00     0.261 A 
HETATM   16  O   UNL     1     -13.089   3.822 -34.096  1.00  0.00    -0.267 OA
HETATM   17  N   UNL     1     -13.916   5.806 -34.836  1.00  0.00    -0.333 N 
HETATM   18  C   UNL     1     -13.753   7.038 -35.414  1.00  0.00     0.091 A 
HETATM   19  H   UNL     1     -14.837   5.500 -34.541  1.00  0.00     0.168 HD
HETATM   20  C   UNL     1     -12.538   7.440 -35.802  1.00  0.00     0.018 A 
HETATM   21  C   UNL     1     -11.399   6.569 -35.613  1.00  0.00     0.024 A 
ENDBRANCH  11  14
ENDBRANCH   7  10
ENDBRANCH   5   6
BRANCH   1  22
HETATM   22  C   UNL     1      -5.886   2.502 -33.320  1.00  0.00    -0.005 A 
HETATM   23  C   UNL     1      -5.223   2.730 -32.105  1.00  0.00     0.014 A 
HETATM   24  C   UNL     1      -4.647   3.972 -31.826  1.00  0.00     0.001 A 
HETATM   25  C   UNL     1      -4.736   5.002 -32.759  1.00  0.00     0.000 A 
HETATM   26  C   UNL     1      -5.405   4.794 -33.964  1.00  0.00     0.001 A 
HETATM   27  C   UNL     1      -5.985   3.552 -34.240  1.00  0.00     0.014 A 
ENDBRANCH   1  22
BRANCH   3  28
HETATM   28  C   UNL     1      -5.993  -2.223 -34.179  1.00  0.00     0.058 A 
HETATM   29  C   UNL     1      -6.839  -3.234 -34.665  1.00  0.00     0.031 A 
HETATM   30  C   UNL     1      -6.346  -4.522 -34.881  1.00  0.00     0.002 A 
HETATM   31  C   UNL     1      -5.011  -4.813 -34.615  1.00  0.00     0.000 A 
HETATM   32  C   UNL     1      -4.163  -3.815 -34.134  1.00  0.00     0.002 A 
HETATM   33  C   UNL     1      -4.649  -2.522 -33.917  1.00  0.00     0.031 A 
ENDBRANCH   3  28
TORSDOF 5
ENDMDL
MODEL 7
REMARK VINA RESULT:      -8.8      2.165      5.097
REMARK  5 active torsions:
REMARK  status: ('A' for Active; 'I' for Inactive)
REMARK    1  A    between atoms: C_4  and  C_5 
REMARK    2  A    between atoms: N_7  and  C_8 
REMARK    3  A    between atoms: C_15  and  C_16 
REMARK       I    between atoms: C_16  and  N_17 
REMARK    4  A    between atoms: N_17  and  N_18 
REMARK       I    between atoms: N_18  and  C_19 
REMARK    5  A    between atoms: C_19  and  C_20 
ROOT
HETATM    1  C   UNL     1      -6.869   0.875 -32.948  1.00  0.00     0.105 A 
HETATM    2  N   UNL     1      -7.071  -0.347 -33.468  1.00  0.00    -0.166 NA
HETATM    3  N   UNL     1      -5.863  -0.943 -33.506  1.00  0.00    -0.244 N 
HETATM    4  C   UNL     1      -4.888  -0.117 -33.004  1.00  0.00     0.138 A 
HETATM    5  C   UNL     1      -5.493   1.066 -32.609  1.00  0.00     0.082 A 
ENDROOT
BRANCH   5   6
HETATM    6  C   UNL     1      -4.836   2.212 -31.987  1.00  0.00     0.274 C 
HETATM    7  N   UNL     1      -4.505   3.232 -32.858  1.00  0.00    -0.263 N 
HETATM    8  H   UNL     1      -4.611   3.173 -33.866  1.00  0.00     0.190 HD
HETATM    9  O   UNL     1      -4.589   2.288 -30.786  1.00  0.00    -0.266 OA
BRANCH   7  10
HETATM   10  N   UNL     1      -3.873   4.384 -32.380  1.00  0.00    -0.263 N 
HETATM   11  C   UNL     1      -3.975   5.536 -33.123  1.00  0.00     0.275 C 
HETATM   12  O   UNL     1      -4.560   5.556 -34.209  1.00  0.00    -0.266 OA
HETATM   13  H   UNL     1      -3.412   4.338 -31.463  1.00  0.00     0.190 HD
BRANCH  11  14
HETATM   14  C   UNL     1      -3.349   6.751 -32.537  1.00  0.00     0.101 A 
HETATM   15  C   UNL     1      -2.127   7.403 -33.098  1.00  0.00     0.261 A 
HETATM   16  O   UNL     1      -1.558   6.973 -34.097  1.00  0.00    -0.267 OA
HETATM   17  N   UNL     1      -1.665   8.516 -32.430  1.00  0.00    -0.333 N 
HETATM   18  C   UNL     1      -2.256   9.039 -31.310  1.00  0.00     0.091 A 
HETATM   19  H   UNL     1      -0.833   8.950 -32.817  1.00  0.00     0.168 HD
HETATM   20  C   UNL     1      -3.351   8.466 -30.802  1.00  0.00     0.018 A 
HETATM   21  C   UNL     1      -3.907   7.291 -31.435  1.00  0.00     0.024 A 
ENDBRANCH  11  14
ENDBRANCH   7  10
ENDBRANCH   5   6
BRANCH   1  22
HETATM   22  C   UNL     1      -8.019   1.766 -32.781  1.00  0.00    -0.005 A 
HETATM   23  C   UNL     1      -8.577   2.396 -33.905  1.00  0.00     0.014 A 
HETATM   24  C   UNL     1      -9.659   3.269 -33.771  1.00  0.00     0.001 A 
HETATM   25  C   UNL     1     -10.190   3.527 -32.509  1.00  0.00     0.000 A 
HETATM   26  C   UNL     1      -9.636   2.920 -31.384  1.00  0.00     0.001 A 
HETATM   27  C   UNL     1      -8.550   2.050 -31.518  1.00  0.00     0.014 A 
ENDBRANCH   1  22
BRANCH   3  28
HETATM   28  C   UNL     1      -5.718  -2.269 -34.005  1.00  0.00     0.058 A 
HETATM   29  C   UNL     1      -6.822  -2.908 -34.594  1.00  0.00     0.031 A 
HETATM   30  C   UNL     1      -6.705  -4.210 -35.082  1.00  0.00     0.002 A 
HETATM   31  C   UNL     1      -5.491  -4.886 -34.987  1.00  0.00     0.000 A 
HETATM   32  C   UNL     1      -4.389  -4.259 -34.406  1.00  0.00     0.002 A 
HETATM   33  C   UNL     1      -4.497  -2.954 -33.916  1.00  0.00     0.031 A 
ENDBRANCH   3  28
TORSDOF 5
ENDMDL
MODEL 8
REMARK VINA RESULT:      -8.7      3.629      9.181
REMARK  5 active torsions:
REMARK  status: ('A' for Active; 'I' for Inactive)
REMARK    1  A    between atoms: C_4  and  C_5 
REMARK    2  A    between atoms: N_7  and  C_8 
REMARK    3  A    between atoms: C_15  and  C_16 
REMARK       I    between atoms: C_16  and  N_17 
REMARK    4  A    between atoms: N_17  and  N_18 
REMARK       I    between atoms: N_18  and  C_19 
REMARK    5  A    between atoms: C_19  and  C_20 
ROOT
HETATM    1  C   UNL     1      -5.266   4.636 -31.462  1.00  0.00     0.105 A 
HETATM    2  N   UNL     1      -4.347   5.506 -31.011  1.00  0.00    -0.166 NA
HETATM    3  N   UNL     1      -3.147   4.969 -31.306  1.00  0.00    -0.244 N 
HETATM    4  C   UNL     1      -3.288   3.765 -31.953  1.00  0.00     0.138 A 
HETATM    5  C   UNL     1      -4.644   3.515 -32.097  1.00  0.00     0.082 A 
ENDROOT
BRANCH   5   6
HETATM    6  C   UNL     1      -5.249   2.364 -32.759  1.00  0.00     0.274 C 
HETATM    7  N   UNL     1      -4.837   1.137 -32.276  1.00  0.00    -0.263 N 
HETATM    8  H   UNL     1      -4.102   1.018 -31.585  1.00  0.00     0.190 HD
HETATM    9  O   UNL     1      -6.064   2.453 -33.673  1.00  0.00    -0.266 OA
BRANCH   7  10
HETATM   10  N   UNL     1      -5.348  -0.041 -32.830  1.00  0.00    -0.263 N 
HETATM   11  C   UNL     1      -4.470  -0.903 -33.444  1.00  0.00     0.275 C 
HETATM   12  O   UNL     1      -3.271  -0.634 -33.557  1.00  0.00    -0.266 OA
HETATM   13  H   UNL     1      -6.346  -0.244 -32.701  1.00  0.00     0.190 HD
BRANCH  11  14
HETATM   14  C   UNL     1      -5.049  -2.175 -33.953  1.00  0.00     0.101 A 
HETATM   15  C   UNL     1      -6.449  -2.300 -34.460  1.00  0.00     0.261 A 
HETATM   16  O   UNL     1      -7.218  -1.345 -34.495  1.00  0.00    -0.267 OA
HETATM   17  N   UNL     1      -6.836  -3.552 -34.886  1.00  0.00    -0.333 N 
HETATM   18  C   UNL     1      -6.023  -4.654 -34.868  1.00  0.00     0.091 A 
HETATM   19  H   UNL     1      -7.789  -3.627 -35.226  1.00  0.00     0.168 HD
HETATM   20  C   UNL     1      -4.768  -4.553 -34.420  1.00  0.00     0.018 A 
HETATM   21  C   UNL     1      -4.274  -3.278 -33.950  1.00  0.00     0.024 A 
ENDBRANCH  11  14
ENDBRANCH   7  10
ENDBRANCH   5   6
BRANCH   1  22
HETATM   22  C   UNL     1      -6.684   4.957 -31.281  1.00  0.00    -0.005 A 
HETATM   23  C   UNL     1      -7.290   5.909 -32.114  1.00  0.00     0.014 A 
HETATM   24  C   UNL     1      -8.634   6.252 -31.948  1.00  0.00     0.001 A 
HETATM   25  C   UNL     1      -9.384   5.649 -30.941  1.00  0.00     0.000 A 
HETATM   26  C   UNL     1      -8.790   4.713 -30.097  1.00  0.00     0.001 A 
HETATM   27  C   UNL     1      -7.444   4.374 -30.260  1.00  0.00     0.014 A 
ENDBRANCH   1  22
BRANCH   3  28
HETATM   28  C   UNL     1      -1.940   5.644 -30.965  1.00  0.00     0.058 A 
HETATM   29  C   UNL     1      -1.995   6.770 -30.126  1.00  0.00     0.031 A 
HETATM   30  C   UNL     1      -0.826   7.453 -29.786  1.00  0.00     0.002 A 
HETATM   31  C   UNL     1       0.403   7.023 -30.278  1.00  0.00     0.000 A 
HETATM   32  C   UNL     1       0.468   5.906 -31.110  1.00  0.00     0.002 A 
HETATM   33  C   UNL     1      -0.698   5.214 -31.454  1.00  0.00     0.031 A 
ENDBRANCH   3  28
TORSDOF 5
ENDMDL
MODEL 9
REMARK VINA RESULT:      -8.6      2.836      5.722
REMARK  5 active torsions:
REMARK  status: ('A' for Active; 'I' for Inactive)
REMARK    1  A    between atoms: C_4  and  C_5 
REMARK    2  A    between atoms: N_7  and  C_8 
REMARK    3  A    between atoms: C_15  and  C_16 
REMARK       I    between atoms: C_16  and  N_17 
REMARK    4  A    between atoms: N_17  and  N_18 
REMARK       I    between atoms: N_18  and  C_19 
REMARK    5  A    between atoms: C_19  and  C_20 
ROOT
HETATM    1  C   UNL     1      -8.223   0.529 -33.302  1.00  0.00     0.105 A 
HETATM    2  N   UNL     1      -7.939  -0.600 -33.974  1.00  0.00    -0.166 NA
HETATM    3  N   UNL     1      -6.781  -1.059 -33.461  1.00  0.00    -0.244 N 
HETATM    4  C   UNL     1      -6.325  -0.241 -32.456  1.00  0.00     0.138 A 
HETATM    5  C   UNL     1      -7.237   0.791 -32.300  1.00  0.00     0.082 A 
ENDROOT
BRANCH   5   6
HETATM    6  C   UNL     1      -7.168   1.870 -31.320  1.00  0.00     0.274 C 
HETATM    7  N   UNL     1      -5.892   2.327 -31.052  1.00  0.00    -0.263 N 
HETATM    8  H   UNL     1      -5.048   1.899 -31.420  1.00  0.00     0.190 HD
HETATM    9  O   UNL     1      -8.152   2.353 -30.766  1.00  0.00    -0.266 OA
BRANCH   7  10
HETATM   10  N   UNL     1      -5.698   3.361 -30.130  1.00  0.00    -0.263 N 
HETATM   11  C   UNL     1      -5.289   4.584 -30.606  1.00  0.00     0.275 C 
HETATM   12  O   UNL     1      -5.046   4.766 -31.801  1.00  0.00    -0.266 OA
HETATM   13  H   UNL     1      -5.929   3.182 -29.146  1.00  0.00     0.190 HD
BRANCH  11  14
HETATM   14  C   UNL     1      -5.168   5.671 -29.597  1.00  0.00     0.101 A 
HETATM   15  C   UNL     1      -6.132   5.866 -28.473  1.00  0.00     0.261 A 
HETATM   16  O   UNL     1      -7.097   5.126 -28.305  1.00  0.00    -0.267 OA
HETATM   17  N   UNL     1      -5.885   6.928 -27.630  1.00  0.00    -0.333 N 
HETATM   18  C   UNL     1      -4.827   7.786 -27.769  1.00  0.00     0.091 A 
HETATM   19  H   UNL     1      -6.547   7.053 -26.872  1.00  0.00     0.168 HD
HETATM   20  C   UNL     1      -3.956   7.620 -28.769  1.00  0.00     0.018 A 
HETATM   21  C   UNL     1      -4.137   6.533 -29.705  1.00  0.00     0.024 A 
ENDBRANCH  11  14
ENDBRANCH   7  10
ENDBRANCH   5   6
BRANCH   1  22
HETATM   22  C   UNL     1      -9.444   1.261 -33.646  1.00  0.00    -0.005 A 
HETATM   23  C   UNL     1     -10.696   0.676 -33.398  1.00  0.00     0.014 A 
HETATM   24  C   UNL     1     -11.876   1.342 -33.738  1.00  0.00     0.001 A 
HETATM   25  C   UNL     1     -11.815   2.598 -34.338  1.00  0.00     0.000 A 
HETATM   26  C   UNL     1     -10.579   3.183 -34.603  1.00  0.00     0.001 A 
HETATM   27  C   UNL     1      -9.398   2.514 -34.267  1.00  0.00     0.014 A 
ENDBRANCH   1  22
BRANCH   3  28
HETATM   28  C   UNL     1      -6.189  -2.259 -33.951  1.00  0.00     0.058 A 
HETATM   29  C   UNL     1      -7.007  -3.244 -34.528  1.00  0.00     0.031 A 
HETATM   30  C   UNL     1      -6.450  -4.431 -35.007  1.00  0.00     0.002 A 
HETATM   31  C   UNL     1      -5.077  -4.646 -34.914  1.00  0.00     0.000 A 
HETATM   32  C   UNL     1      -4.257  -3.673 -34.344  1.00  0.00     0.002 A 
HETATM   33  C   UNL     1      -4.807  -2.480 -33.864  1.00  0.00     0.031 A 
ENDBRANCH   3  28
TORSDOF 5
ENDMDL
MODEL 10
REMARK VINA RESULT:      -8.5      2.681      7.959
REMARK  5 active torsions:
REMARK  status: ('A' for Active; 'I' for Inactive)
REMARK    1  A    between atoms: C_4  and  C_5 
REMARK    2  A    between atoms: N_7  and  C_8 
REMARK    3  A    between atoms: C_15  and  C_16 
REMARK       I    between atoms: C_16  and  N_17 
REMARK    4  A    between atoms: N_17  and  N_18 
REMARK       I    between atoms: N_18  and  C_19 
REMARK    5  A    between atoms: C_19  and  C_20 
ROOT
HETATM    1  C   UNL     1      -4.206   2.376 -32.681  1.00  0.00     0.105 A 
HETATM    2  N   UNL     1      -3.593   1.192 -32.510  1.00  0.00    -0.166 NA
HETATM    3  N   UNL     1      -4.456   0.257 -32.951  1.00  0.00    -0.244 N 
HETATM    4  C   UNL     1      -5.615   0.830 -33.414  1.00  0.00     0.138 A 
HETATM    5  C   UNL     1      -5.493   2.205 -33.280  1.00  0.00     0.082 A 
ENDROOT
BRANCH   5   6
HETATM    6  C   UNL     1      -6.476   3.206 -33.681  1.00  0.00     0.274 C 
HETATM    7  N   UNL     1      -7.762   2.966 -33.234  1.00  0.00    -0.263 N 
HETATM    8  H   UNL     1      -8.044   2.120 -32.749  1.00  0.00     0.190 HD
HETATM    9  O   UNL     1      -6.207   4.194 -34.358  1.00  0.00    -0.266 OA
BRANCH   7  10
HETATM   10  N   UNL     1      -8.792   3.857 -33.553  1.00  0.00    -0.263 N 
HETATM   11  C   UNL     1      -9.925   3.352 -34.146  1.00  0.00     0.275 C 
HETATM   12  O   UNL     1     -10.024   2.158 -34.443  1.00  0.00    -0.266 OA
HETATM   13  H   UNL     1      -8.686   4.839 -33.274  1.00  0.00     0.190 HD
BRANCH  11  14
HETATM   14  C   UNL     1     -11.021   4.326 -34.399  1.00  0.00     0.101 A 
HETATM   15  C   UNL     1     -10.851   5.567 -35.212  1.00  0.00     0.261 A 
HETATM   16  O   UNL     1      -9.781   5.863 -35.735  1.00  0.00    -0.267 OA
HETATM   17  N   UNL     1     -11.962   6.372 -35.341  1.00  0.00    -0.333 N 
HETATM   18  C   UNL     1     -13.179   6.094 -34.779  1.00  0.00     0.091 A 
HETATM   19  H   UNL     1     -11.835   7.214 -35.893  1.00  0.00     0.168 HD
HETATM   20  C   UNL     1     -13.344   4.984 -34.052  1.00  0.00     0.018 A 
HETATM   21  C   UNL     1     -12.232   4.081 -33.859  1.00  0.00     0.024 A 
ENDBRANCH  11  14
ENDBRANCH   7  10
ENDBRANCH   5   6
BRANCH   1  22
HETATM   22  C   UNL     1      -3.498   3.596 -32.287  1.00  0.00    -0.005 A 
HETATM   23  C   UNL     1      -2.328   3.968 -32.967  1.00  0.00     0.014 A 
HETATM   24  C   UNL     1      -1.620   5.114 -32.596  1.00  0.00     0.001 A 
HETATM   25  C   UNL     1      -2.072   5.896 -31.536  1.00  0.00     0.000 A 
HETATM   26  C   UNL     1      -3.225   5.530 -30.843  1.00  0.00     0.001 A 
HETATM   27  C   UNL     1      -3.930   4.380 -31.211  1.00  0.00     0.014 A 
ENDBRANCH   1  22
BRANCH   3  28
HETATM   28  C   UNL     1      -4.116  -1.126 -32.916  1.00  0.00     0.058 A 
HETATM   29  C   UNL     1      -4.572  -1.973 -33.940  1.00  0.00     0.031 A 
HETATM   30  C   UNL     1      -4.258  -3.333 -33.921  1.00  0.00     0.002 A 
HETATM   31  C   UNL     1      -3.491  -3.859 -32.885  1.00  0.00     0.000 A 
HETATM   32  C   UNL     1      -3.033  -3.026 -31.865  1.00  0.00     0.002 A 
HETATM   33  C   UNL     1      -3.341  -1.662 -31.877  1.00  0.00     0.031 A 
ENDBRANCH   3  28
TORSDOF 5
ENDMDL
