MODEL 1
REMARK VINA RESULT:      -8.5      0.000      0.000
REMARK  5 active torsions:
REMARK  status: ('A' for Active; 'I' for Inactive)
REMARK    1  A    between atoms: C_5  and  O_6 
REMARK    2  A    between atoms: O_6  and  C_7 
REMARK    3  A    between atoms: C_7  and  C_8 
REMARK       I    between atoms: C_8  and  N_9 
REMARK    4  A    between atoms: N_9  and  N_10 
REMARK    5  A    between atoms: C_11  and  C_12 
ROOT
HETATM    1  C   UNL     1      -9.287   2.249 -34.251  1.00  0.00     0.261 C 
HETATM    2  N   UNL     1      -9.049   1.102 -34.996  1.00  0.00    -0.246 N 
HETATM    3  O   UNL     1      -8.467   2.804 -33.521  1.00  0.00    -0.269 OA
HETATM    4  H   UNL     1      -9.776   0.737 -35.605  1.00  0.00     0.192 HD
ENDROOT
BRANCH   2   5
HETATM    5  N   UNL     1      -7.822   0.511 -34.943  1.00  0.00    -0.184 NA
HETATM    6  C   UNL     1      -7.680  -0.464 -34.106  1.00  0.00     0.152 C 
BRANCH   6   7
HETATM    7  C   UNL     1      -6.390  -1.117 -34.002  1.00  0.00     0.011 A 
HETATM    8  C   UNL     1      -6.065  -2.480 -34.300  1.00  0.00     0.004 A 
HETATM    9  C   UNL     1      -4.704  -2.652 -34.032  1.00  0.00     0.043 A 
HETATM   10  C   UNL     1      -6.801  -3.593 -34.758  1.00  0.00     0.014 A 
HETATM   11  C   UNL     1      -4.044  -3.876 -34.200  1.00  0.00     0.030 A 
HETATM   12  N   UNL     1      -4.218  -1.442 -33.597  1.00  0.00    -0.364 N 
HETATM   13  C   UNL     1      -4.799  -4.962 -34.652  1.00  0.00     0.002 A 
HETATM   14  C   UNL     1      -6.156  -4.826 -34.927  1.00  0.00     0.001 A 
HETATM   15  H   UNL     1      -3.260  -1.269 -33.327  1.00  0.00     0.165 HD
HETATM   16  C   UNL     1      -5.222  -0.515 -33.568  1.00  0.00     0.102 A 
ENDBRANCH   6   7
ENDBRANCH   2   5
BRANCH   1  17
HETATM   17  C   UNL     1     -10.733   2.723 -34.321  1.00  0.00     0.280 C 
BRANCH  17  18
HETATM   18  O   UNL     1     -11.632   1.641 -34.575  1.00  0.00    -0.342 OA
BRANCH  18  19
HETATM   19  C   UNL     1     -12.830   1.841 -33.940  1.00  0.00     0.069 A 
HETATM   20  C   UNL     1     -13.895   1.018 -34.301  1.00  0.00     0.037 A 
HETATM   21  C   UNL     1     -15.143   1.187 -33.694  1.00  0.00     0.009 A 
HETATM   22  C   UNL     1     -15.328   2.172 -32.714  1.00  0.00    -0.062 A 
HETATM   23  C   UNL     1     -16.660   2.356 -32.048  1.00  0.00     0.048 C 
HETATM   24  C   UNL     1     -14.238   2.961 -32.328  1.00  0.00     0.009 A 
HETATM   25  C   UNL     1     -12.991   2.794 -32.936  1.00  0.00     0.037 A 
ENDBRANCH  18  19
ENDBRANCH  17  18
ENDBRANCH   1  17
TORSDOF 5
ENDMDL
MODEL 2
REMARK VINA RESULT:      -8.3      6.757     10.101
REMARK  5 active torsions:
REMARK  status: ('A' for Active; 'I' for Inactive)
REMARK    1  A    between atoms: C_5  and  O_6 
REMARK    2  A    between atoms: O_6  and  C_7 
REMARK    3  A    between atoms: C_7  and  C_8 
REMARK       I    between atoms: C_8  and  N_9 
REMARK    4  A    between atoms: N_9  and  N_10 
REMARK    5  A    between atoms: C_11  and  C_12 
ROOT
HETATM    1  C   UNL     1      -2.554   4.348 -31.844  1.00  0.00     0.261 C 
HETATM    2  N   UNL     1      -3.127   3.354 -31.064  1.00  0.00    -0.246 N 
HETATM    3  O   UNL     1      -1.954   4.163 -32.902  1.00  0.00    -0.269 OA
HETATM    4  H   UNL     1      -3.641   3.606 -30.224  1.00  0.00     0.192 HD
ENDROOT
BRANCH   2   5
HETATM    5  N   UNL     1      -3.042   2.054 -31.465  1.00  0.00    -0.184 NA
HETATM    6  C   UNL     1      -4.118   1.520 -31.942  1.00  0.00     0.152 C 
BRANCH   6   7
HETATM    7  C   UNL     1      -4.083   0.135 -32.370  1.00  0.00     0.011 A 
HETATM    8  C   UNL     1      -4.963  -0.526 -33.287  1.00  0.00     0.004 A 
HETATM    9  C   UNL     1      -4.549  -1.858 -33.375  1.00  0.00     0.043 A 
HETATM   10  C   UNL     1      -6.086  -0.126 -34.042  1.00  0.00     0.014 A 
HETATM   11  C   UNL     1      -5.197  -2.805 -34.178  1.00  0.00     0.030 A 
HETATM   12  N   UNL     1      -3.458  -2.000 -32.552  1.00  0.00    -0.364 N 
HETATM   13  C   UNL     1      -6.308  -2.381 -34.912  1.00  0.00     0.002 A 
HETATM   14  C   UNL     1      -6.748  -1.063 -34.847  1.00  0.00     0.001 A 
HETATM   15  H   UNL     1      -2.948  -2.862 -32.414  1.00  0.00     0.165 HD
HETATM   16  C   UNL     1      -3.173  -0.812 -31.939  1.00  0.00     0.102 A 
ENDBRANCH   6   7
ENDBRANCH   2   5
BRANCH   1  17
HETATM   17  C   UNL     1      -2.628   5.731 -31.208  1.00  0.00     0.280 C 
BRANCH  17  18
HETATM   18  O   UNL     1      -1.442   6.489 -31.455  1.00  0.00    -0.342 OA
BRANCH  18  19
HETATM   19  C   UNL     1      -0.736   6.684 -30.295  1.00  0.00     0.069 A 
HETATM   20  C   UNL     1      -0.811   7.941 -29.699  1.00  0.00     0.037 A 
HETATM   21  C   UNL     1      -0.101   8.197 -28.523  1.00  0.00     0.009 A 
HETATM   22  C   UNL     1       0.677   7.194 -27.930  1.00  0.00    -0.062 A 
HETATM   23  C   UNL     1       1.436   7.454 -26.662  1.00  0.00     0.048 C 
HETATM   24  C   UNL     1       0.707   5.922 -28.515  1.00  0.00     0.009 A 
HETATM   25  C   UNL     1       0.000   5.665 -29.692  1.00  0.00     0.037 A 
ENDBRANCH  18  19
ENDBRANCH  17  18
ENDBRANCH   1  17
TORSDOF 5
ENDMDL
MODEL 3
REMARK VINA RESULT:      -8.1      5.851      9.357
REMARK  5 active torsions:
REMARK  status: ('A' for Active; 'I' for Inactive)
REMARK    1  A    between atoms: C_5  and  O_6 
REMARK    2  A    between atoms: O_6  and  C_7 
REMARK    3  A    between atoms: C_7  and  C_8 
REMARK       I    between atoms: C_8  and  N_9 
REMARK    4  A    between atoms: N_9  and  N_10 
REMARK    5  A    between atoms: C_11  and  C_12 
ROOT
HETATM    1  C   UNL     1      -5.401   2.464 -32.791  1.00  0.00     0.261 C 
HETATM    2  N   UNL     1      -4.036   2.432 -32.540  1.00  0.00    -0.246 N 
HETATM    3  O   UNL     1      -6.099   3.477 -32.793  1.00  0.00    -0.269 OA
HETATM    4  H   UNL     1      -3.533   1.552 -32.602  1.00  0.00     0.192 HD
ENDROOT
BRANCH   2   5
HETATM    5  N   UNL     1      -3.378   3.595 -32.270  1.00  0.00    -0.184 NA
HETATM    6  C   UNL     1      -2.472   3.962 -33.115  1.00  0.00     0.152 C 
BRANCH   6   7
HETATM    7  C   UNL     1      -1.734   5.184 -32.866  1.00  0.00     0.011 A 
HETATM    8  C   UNL     1      -0.940   5.517 -31.721  1.00  0.00     0.004 A 
HETATM    9  C   UNL     1      -0.438   6.806 -31.921  1.00  0.00     0.043 A 
HETATM   10  C   UNL     1      -0.609   4.852 -30.521  1.00  0.00     0.014 A 
HETATM   11  C   UNL     1       0.375   7.460 -30.987  1.00  0.00     0.030 A 
HETATM   12  N   UNL     1      -0.901   7.238 -33.142  1.00  0.00    -0.364 N 
HETATM   13  C   UNL     1       0.683   6.779 -29.807  1.00  0.00     0.002 A 
HETATM   14  C   UNL     1       0.200   5.495 -29.574  1.00  0.00     0.001 A 
HETATM   15  H   UNL     1      -0.698   8.140 -33.548  1.00  0.00     0.165 HD
HETATM   16  C   UNL     1      -1.684   6.276 -33.715  1.00  0.00     0.102 A 
ENDBRANCH   6   7
ENDBRANCH   2   5
BRANCH   1  17
HETATM   17  C   UNL     1      -6.014   1.079 -32.959  1.00  0.00     0.280 C 
BRANCH  17  18
HETATM   18  O   UNL     1      -5.044   0.046 -32.771  1.00  0.00    -0.342 OA
BRANCH  18  19
HETATM   19  C   UNL     1      -5.403  -1.091 -33.449  1.00  0.00     0.069 A 
HETATM   20  C   UNL     1      -4.393  -1.997 -33.766  1.00  0.00     0.037 A 
HETATM   21  C   UNL     1      -4.701  -3.166 -34.467  1.00  0.00     0.009 A 
HETATM   22  C   UNL     1      -6.023  -3.441 -34.842  1.00  0.00    -0.062 A 
HETATM   23  C   UNL     1      -6.367  -4.698 -35.586  1.00  0.00     0.048 C 
HETATM   24  C   UNL     1      -7.034  -2.544 -34.477  1.00  0.00     0.009 A 
HETATM   25  C   UNL     1      -6.727  -1.374 -33.779  1.00  0.00     0.037 A 
ENDBRANCH  18  19
ENDBRANCH  17  18
ENDBRANCH   1  17
TORSDOF 5
ENDMDL
MODEL 4
REMARK VINA RESULT:      -8.1      5.938      9.318
REMARK  5 active torsions:
REMARK  status: ('A' for Active; 'I' for Inactive)
REMARK    1  A    between atoms: C_5  and  O_6 
REMARK    2  A    between atoms: O_6  and  C_7 
REMARK    3  A    between atoms: C_7  and  C_8 
REMARK       I    between atoms: C_8  and  N_9 
REMARK    4  A    between atoms: N_9  and  N_10 
REMARK    5  A    between atoms: C_11  and  C_12 
ROOT
HETATM    1  C   UNL     1      -3.606   3.313 -32.275  1.00  0.00     0.261 C 
HETATM    2  N   UNL     1      -3.750   2.008 -31.827  1.00  0.00    -0.246 N 
HETATM    3  O   UNL     1      -4.281   3.840 -33.160  1.00  0.00    -0.269 OA
HETATM    4  H   UNL     1      -3.174   1.672 -31.061  1.00  0.00     0.192 HD
ENDROOT
BRANCH   2   5
HETATM    5  N   UNL     1      -4.705   1.210 -32.385  1.00  0.00    -0.184 NA
HETATM    6  C   UNL     1      -4.289   0.197 -33.072  1.00  0.00     0.152 C 
BRANCH   6   7
HETATM    7  C   UNL     1      -5.264  -0.675 -33.697  1.00  0.00     0.011 A 
HETATM    8  C   UNL     1      -5.153  -2.080 -33.956  1.00  0.00     0.004 A 
HETATM    9  C   UNL     1      -6.333  -2.481 -34.588  1.00  0.00     0.043 A 
HETATM   10  C   UNL     1      -4.155  -3.050 -33.728  1.00  0.00     0.014 A 
HETATM   11  C   UNL     1      -6.564  -3.799 -35.001  1.00  0.00     0.030 A 
HETATM   12  N   UNL     1      -7.132  -1.369 -34.703  1.00  0.00    -0.364 N 
HETATM   13  C   UNL     1      -5.557  -4.738 -34.765  1.00  0.00     0.002 A 
HETATM   14  C   UNL     1      -4.370  -4.373 -34.139  1.00  0.00     0.001 A 
HETATM   15  H   UNL     1      -8.051  -1.360 -35.125  1.00  0.00     0.165 HD
HETATM   16  C   UNL     1      -6.499  -0.278 -34.178  1.00  0.00     0.102 A 
ENDBRANCH   6   7
ENDBRANCH   2   5
BRANCH   1  17
HETATM   17  C   UNL     1      -2.426   4.040 -31.642  1.00  0.00     0.280 C 
BRANCH  17  18
HETATM   18  O   UNL     1      -2.553   5.459 -31.765  1.00  0.00    -0.342 OA
BRANCH  18  19
HETATM   19  C   UNL     1      -1.645   6.102 -30.964  1.00  0.00     0.069 A 
HETATM   20  C   UNL     1      -2.132   6.755 -29.834  1.00  0.00     0.037 A 
HETATM   21  C   UNL     1      -1.252   7.437 -28.989  1.00  0.00     0.009 A 
HETATM   22  C   UNL     1       0.122   7.459 -29.265  1.00  0.00    -0.062 A 
HETATM   23  C   UNL     1       1.078   8.180 -28.360  1.00  0.00     0.048 C 
HETATM   24  C   UNL     1       0.604   6.761 -30.379  1.00  0.00     0.009 A 
HETATM   25  C   UNL     1      -0.276   6.081 -31.225  1.00  0.00     0.037 A 
ENDBRANCH  18  19
ENDBRANCH  17  18
ENDBRANCH   1  17
TORSDOF 5
ENDMDL
MODEL 5
REMARK VINA RESULT:      -8.0      4.708      6.959
REMARK  5 active torsions:
REMARK  status: ('A' for Active; 'I' for Inactive)
REMARK    1  A    between atoms: C_5  and  O_6 
REMARK    2  A    between atoms: O_6  and  C_7 
REMARK    3  A    between atoms: C_7  and  C_8 
REMARK       I    between atoms: C_8  and  N_9 
REMARK    4  A    between atoms: N_9  and  N_10 
REMARK    5  A    between atoms: C_11  and  C_12 
ROOT
HETATM    1  C   UNL     1      -6.768   1.997 -33.545  1.00  0.00     0.261 C 
HETATM    2  N   UNL     1      -6.424   1.286 -32.403  1.00  0.00    -0.246 N 
HETATM    3  O   UNL     1      -6.792   1.540 -34.686  1.00  0.00    -0.269 OA
HETATM    4  H   UNL     1      -6.474   1.737 -31.494  1.00  0.00     0.192 HD
ENDROOT
BRANCH   2   5
HETATM    5  N   UNL     1      -6.079  -0.029 -32.512  1.00  0.00    -0.184 NA
HETATM    6  C   UNL     1      -4.862  -0.284 -32.863  1.00  0.00     0.152 C 
BRANCH   6   7
HETATM    7  C   UNL     1      -4.448  -1.666 -33.006  1.00  0.00     0.011 A 
HETATM    8  C   UNL     1      -5.040  -2.684 -33.823  1.00  0.00     0.004 A 
HETATM    9  C   UNL     1      -4.310  -3.858 -33.620  1.00  0.00     0.043 A 
HETATM   10  C   UNL     1      -6.139  -2.726 -34.707  1.00  0.00     0.014 A 
HETATM   11  C   UNL     1      -4.622  -5.067 -34.255  1.00  0.00     0.030 A 
HETATM   12  N   UNL     1      -3.311  -3.566 -32.723  1.00  0.00    -0.364 N 
HETATM   13  C   UNL     1      -5.717  -5.079 -35.123  1.00  0.00     0.002 A 
HETATM   14  C   UNL     1      -6.466  -3.929 -35.347  1.00  0.00     0.001 A 
HETATM   15  H   UNL     1      -2.626  -4.230 -32.387  1.00  0.00     0.165 HD
HETATM   16  C   UNL     1      -3.388  -2.256 -32.342  1.00  0.00     0.102 A 
ENDBRANCH   6   7
ENDBRANCH   2   5
BRANCH   1  17
HETATM   17  C   UNL     1      -7.015   3.478 -33.280  1.00  0.00     0.280 C 
BRANCH  17  18
HETATM   18  O   UNL     1      -6.049   4.019 -32.375  1.00  0.00    -0.342 OA
BRANCH  18  19
HETATM   19  C   UNL     1      -4.895   4.353 -33.034  1.00  0.00     0.069 A 
HETATM   20  C   UNL     1      -3.690   3.935 -32.474  1.00  0.00     0.037 A 
HETATM   21  C   UNL     1      -2.481   4.260 -33.098  1.00  0.00     0.009 A 
HETATM   22  C   UNL     1      -2.474   4.992 -34.293  1.00  0.00    -0.062 A 
HETATM   23  C   UNL     1      -1.184   5.338 -34.977  1.00  0.00     0.048 C 
HETATM   24  C   UNL     1      -3.694   5.367 -34.869  1.00  0.00     0.009 A 
HETATM   25  C   UNL     1      -4.902   5.046 -34.244  1.00  0.00     0.037 A 
ENDBRANCH  18  19
ENDBRANCH  17  18
ENDBRANCH   1  17
TORSDOF 5
ENDMDL
MODEL 6
REMARK VINA RESULT:      -7.8      2.235      8.315
REMARK  5 active torsions:
REMARK  status: ('A' for Active; 'I' for Inactive)
REMARK    1  A    between atoms: C_5  and  O_6 
REMARK    2  A    between atoms: O_6  and  C_7 
REMARK    3  A    between atoms: C_7  and  C_8 
REMARK       I    between atoms: C_8  and  N_9 
REMARK    4  A    between atoms: N_9  and  N_10 
REMARK    5  A    between atoms: C_11  and  C_12 
ROOT
HETATM    1  C   UNL     1      -6.389   1.204 -31.772  1.00  0.00     0.261 C 
HETATM    2  N   UNL     1      -7.584   0.513 -31.636  1.00  0.00    -0.246 N 
HETATM    3  O   UNL     1      -6.286   2.400 -32.042  1.00  0.00    -0.269 OA
HETATM    4  H   UNL     1      -7.572  -0.467 -31.369  1.00  0.00     0.192 HD
ENDROOT
BRANCH   2   5
HETATM    5  N   UNL     1      -8.764   1.176 -31.806  1.00  0.00    -0.184 NA
HETATM    6  C   UNL     1      -9.370   1.005 -32.935  1.00  0.00     0.152 C 
BRANCH   6   7
HETATM    7  C   UNL     1     -10.621   1.698 -33.171  1.00  0.00     0.011 A 
HETATM    8  C   UNL     1     -11.913   1.128 -33.411  1.00  0.00     0.004 A 
HETATM    9  C   UNL     1     -12.808   2.185 -33.599  1.00  0.00     0.043 A 
HETATM   10  C   UNL     1     -12.410  -0.189 -33.505  1.00  0.00     0.014 A 
HETATM   11  C   UNL     1     -14.167   1.993 -33.872  1.00  0.00     0.030 A 
HETATM   12  N   UNL     1     -12.091   3.352 -33.470  1.00  0.00    -0.364 N 
HETATM   13  C   UNL     1     -14.630   0.678 -33.961  1.00  0.00     0.002 A 
HETATM   14  C   UNL     1     -13.768  -0.399 -33.782  1.00  0.00     0.001 A 
HETATM   15  H   UNL     1     -12.481   4.280 -33.558  1.00  0.00     0.165 HD
HETATM   16  C   UNL     1     -10.777   3.072 -33.219  1.00  0.00     0.102 A 
ENDBRANCH   6   7
ENDBRANCH   2   5
BRANCH   1  17
HETATM   17  C   UNL     1      -5.160   0.308 -31.669  1.00  0.00     0.280 C 
BRANCH  17  18
HETATM   18  O   UNL     1      -4.522   0.141 -32.937  1.00  0.00    -0.342 OA
BRANCH  18  19
HETATM   19  C   UNL     1      -4.976  -0.989 -33.568  1.00  0.00     0.069 A 
HETATM   20  C   UNL     1      -4.201  -2.141 -33.460  1.00  0.00     0.037 A 
HETATM   21  C   UNL     1      -4.610  -3.318 -34.094  1.00  0.00     0.009 A 
HETATM   22  C   UNL     1      -5.803  -3.350 -34.829  1.00  0.00    -0.062 A 
HETATM   23  C   UNL     1      -6.258  -4.610 -35.505  1.00  0.00     0.048 C 
HETATM   24  C   UNL     1      -6.595  -2.197 -34.891  1.00  0.00     0.009 A 
HETATM   25  C   UNL     1      -6.185  -1.020 -34.260  1.00  0.00     0.037 A 
ENDBRANCH  18  19
ENDBRANCH  17  18
ENDBRANCH   1  17
TORSDOF 5
ENDMDL
MODEL 7
REMARK VINA RESULT:      -7.7      2.028      9.113
REMARK  5 active torsions:
REMARK  status: ('A' for Active; 'I' for Inactive)
REMARK    1  A    between atoms: C_5  and  O_6 
REMARK    2  A    between atoms: O_6  and  C_7 
REMARK    3  A    between atoms: C_7  and  C_8 
REMARK       I    between atoms: C_8  and  N_9 
REMARK    4  A    between atoms: N_9  and  N_10 
REMARK    5  A    between atoms: C_11  and  C_12 
ROOT
HETATM    1  C   UNL     1      -7.973   1.270 -32.292  1.00  0.00     0.261 C 
HETATM    2  N   UNL     1      -8.917   0.949 -33.257  1.00  0.00    -0.246 N 
HETATM    3  O   UNL     1      -8.223   1.564 -31.124  1.00  0.00    -0.269 OA
HETATM    4  H   UNL     1      -8.614   0.677 -34.188  1.00  0.00     0.192 HD
ENDROOT
BRANCH   2   5
HETATM    5  N   UNL     1     -10.240   0.947 -32.926  1.00  0.00    -0.184 NA
HETATM    6  C   UNL     1     -11.086   0.954 -33.903  1.00  0.00     0.152 C 
BRANCH   6   7
HETATM    7  C   UNL     1     -12.504   0.966 -33.603  1.00  0.00     0.011 A 
HETATM    8  C   UNL     1     -13.277   2.034 -33.042  1.00  0.00     0.004 A 
HETATM    9  C   UNL     1     -14.592   1.577 -32.921  1.00  0.00     0.043 A 
HETATM   10  C   UNL     1     -12.984   3.344 -32.609  1.00  0.00     0.014 A 
HETATM   11  C   UNL     1     -15.625   2.361 -32.391  1.00  0.00     0.030 A 
HETATM   12  N   UNL     1     -14.620   0.287 -33.395  1.00  0.00    -0.364 N 
HETATM   13  C   UNL     1     -15.305   3.653 -31.967  1.00  0.00     0.002 A 
HETATM   14  C   UNL     1     -14.006   4.140 -32.073  1.00  0.00     0.001 A 
HETATM   15  H   UNL     1     -15.444  -0.297 -33.428  1.00  0.00     0.165 HD
HETATM   16  C   UNL     1     -13.372  -0.092 -33.802  1.00  0.00     0.102 A 
ENDBRANCH   6   7
ENDBRANCH   2   5
BRANCH   1  17
HETATM   17  C   UNL     1      -6.553   1.344 -32.841  1.00  0.00     0.280 C 
BRANCH  17  18
HETATM   18  O   UNL     1      -6.470   0.807 -34.163  1.00  0.00    -0.342 OA
BRANCH  18  19
HETATM   19  C   UNL     1      -5.883  -0.433 -34.151  1.00  0.00     0.069 A 
HETATM   20  C   UNL     1      -4.763  -0.607 -33.342  1.00  0.00     0.037 A 
HETATM   21  C   UNL     1      -4.118  -1.847 -33.302  1.00  0.00     0.009 A 
HETATM   22  C   UNL     1      -4.600  -2.922 -34.062  1.00  0.00    -0.062 A 
HETATM   23  C   UNL     1      -3.923  -4.260 -34.020  1.00  0.00     0.048 C 
HETATM   24  C   UNL     1      -5.754  -2.745 -34.835  1.00  0.00     0.009 A 
HETATM   25  C   UNL     1      -6.397  -1.506 -34.878  1.00  0.00     0.037 A 
ENDBRANCH  18  19
ENDBRANCH  17  18
ENDBRANCH   1  17
TORSDOF 5
ENDMDL
MODEL 8
REMARK VINA RESULT:      -7.5      6.291      9.945
REMARK  5 active torsions:
REMARK  status: ('A' for Active; 'I' for Inactive)
REMARK    1  A    between atoms: C_5  and  O_6 
REMARK    2  A    between atoms: O_6  and  C_7 
REMARK    3  A    between atoms: C_7  and  C_8 
REMARK       I    between atoms: C_8  and  N_9 
REMARK    4  A    between atoms: N_9  and  N_10 
REMARK    5  A    between atoms: C_11  and  C_12 
ROOT
HETATM    1  C   UNL     1      -4.655   2.054 -32.006  1.00  0.00     0.261 C 
HETATM    2  N   UNL     1      -3.336   2.445 -32.189  1.00  0.00    -0.246 N 
HETATM    3  O   UNL     1      -5.412   2.491 -31.141  1.00  0.00    -0.269 OA
HETATM    4  H   UNL     1      -2.797   2.059 -32.959  1.00  0.00     0.192 HD
ENDROOT
BRANCH   2   5
HETATM    5  N   UNL     1      -2.797   3.388 -31.364  1.00  0.00    -0.184 NA
HETATM    6  C   UNL     1      -2.051   4.287 -31.917  1.00  0.00     0.152 C 
BRANCH   6   7
HETATM    7  C   UNL     1      -1.443   5.304 -31.082  1.00  0.00     0.011 A 
HETATM    8  C   UNL     1      -1.952   6.606 -30.766  1.00  0.00     0.004 A 
HETATM    9  C   UNL     1      -1.013   7.232 -29.942  1.00  0.00     0.043 A 
HETATM   10  C   UNL     1      -3.117   7.322 -31.113  1.00  0.00     0.014 A 
HETATM   11  C   UNL     1      -1.180   8.532 -29.449  1.00  0.00     0.030 A 
HETATM   12  N   UNL     1       0.022   6.346 -29.757  1.00  0.00    -0.364 N 
HETATM   13  C   UNL     1      -2.341   9.219 -29.813  1.00  0.00     0.002 A 
HETATM   14  C   UNL     1      -3.297   8.626 -30.632  1.00  0.00     0.001 A 
HETATM   15  H   UNL     1       0.847   6.531 -29.204  1.00  0.00     0.165 HD
HETATM   16  C   UNL     1      -0.222   5.189 -30.441  1.00  0.00     0.102 A 
ENDBRANCH   6   7
ENDBRANCH   2   5
BRANCH   1  17
HETATM   17  C   UNL     1      -5.077   0.913 -32.924  1.00  0.00     0.280 C 
BRANCH  17  18
HETATM   18  O   UNL     1      -4.417  -0.309 -32.584  1.00  0.00    -0.342 OA
BRANCH  18  19
HETATM   19  C   UNL     1      -4.923  -1.356 -33.311  1.00  0.00     0.069 A 
HETATM   20  C   UNL     1      -6.244  -1.263 -33.740  1.00  0.00     0.037 A 
HETATM   21  C   UNL     1      -6.815  -2.308 -34.473  1.00  0.00     0.009 A 
HETATM   22  C   UNL     1      -6.061  -3.445 -34.791  1.00  0.00    -0.062 A 
HETATM   23  C   UNL     1      -6.658  -4.569 -35.586  1.00  0.00     0.048 C 
HETATM   24  C   UNL     1      -4.720  -3.506 -34.392  1.00  0.00     0.009 A 
HETATM   25  C   UNL     1      -4.150  -2.464 -33.657  1.00  0.00     0.037 A 
ENDBRANCH  18  19
ENDBRANCH  17  18
ENDBRANCH   1  17
TORSDOF 5
ENDMDL
MODEL 9
REMARK VINA RESULT:      -7.4      5.182      8.227
REMARK  5 active torsions:
REMARK  status: ('A' for Active; 'I' for Inactive)
REMARK    1  A    between atoms: C_5  and  O_6 
REMARK    2  A    between atoms: O_6  and  C_7 
REMARK    3  A    between atoms: C_7  and  C_8 
REMARK       I    between atoms: C_8  and  N_9 
REMARK    4  A    between atoms: N_9  and  N_10 
REMARK    5  A    between atoms: C_11  and  C_12 
ROOT
HETATM    1  C   UNL     1      -5.780   2.992 -31.759  1.00  0.00     0.261 C 
HETATM    2  N   UNL     1      -5.055   2.303 -32.721  1.00  0.00    -0.246 N 
HETATM    3  O   UNL     1      -6.925   2.719 -31.403  1.00  0.00    -0.269 OA
HETATM    4  H   UNL     1      -4.097   2.576 -32.921  1.00  0.00     0.192 HD
ENDROOT
BRANCH   2   5
HETATM    5  N   UNL     1      -5.620   1.230 -33.345  1.00  0.00    -0.184 NA
HETATM    6  C   UNL     1      -5.137   0.066 -33.055  1.00  0.00     0.152 C 
BRANCH   6   7
HETATM    7  C   UNL     1      -5.695  -1.105 -33.702  1.00  0.00     0.011 A 
HETATM    8  C   UNL     1      -5.118  -2.412 -33.809  1.00  0.00     0.004 A 
HETATM    9  C   UNL     1      -6.012  -3.205 -34.532  1.00  0.00     0.043 A 
HETATM   10  C   UNL     1      -3.910  -2.997 -33.372  1.00  0.00     0.014 A 
HETATM   11  C   UNL     1      -5.762  -4.548 -34.839  1.00  0.00     0.030 A 
HETATM   12  N   UNL     1      -7.093  -2.416 -34.847  1.00  0.00    -0.364 N 
HETATM   13  C   UNL     1      -4.557  -5.100 -34.397  1.00  0.00     0.002 A 
HETATM   14  C   UNL     1      -3.643  -4.340 -33.675  1.00  0.00     0.001 A 
HETATM   15  H   UNL     1      -7.899  -2.726 -35.373  1.00  0.00     0.165 HD
HETATM   16  C   UNL     1      -6.910  -1.152 -34.360  1.00  0.00     0.102 A 
ENDBRANCH   6   7
ENDBRANCH   2   5
BRANCH   1  17
HETATM   17  C   UNL     1      -5.063   4.232 -31.239  1.00  0.00     0.280 C 
BRANCH  17  18
HETATM   18  O   UNL     1      -4.578   5.048 -32.307  1.00  0.00    -0.342 OA
BRANCH  18  19
HETATM   19  C   UNL     1      -3.295   5.464 -32.060  1.00  0.00     0.069 A 
HETATM   20  C   UNL     1      -3.100   6.814 -31.775  1.00  0.00     0.037 A 
HETATM   21  C   UNL     1      -1.811   7.295 -31.529  1.00  0.00     0.009 A 
HETATM   22  C   UNL     1      -0.712   6.425 -31.552  1.00  0.00    -0.062 A 
HETATM   23  C   UNL     1       0.675   6.927 -31.279  1.00  0.00     0.048 C 
HETATM   24  C   UNL     1      -0.928   5.063 -31.796  1.00  0.00     0.009 A 
HETATM   25  C   UNL     1      -2.216   4.582 -32.045  1.00  0.00     0.037 A 
ENDBRANCH  18  19
ENDBRANCH  17  18
ENDBRANCH   1  17
TORSDOF 5
ENDMDL
MODEL 10
REMARK VINA RESULT:      -7.4      4.980      9.562
REMARK  5 active torsions:
REMARK  status: ('A' for Active; 'I' for Inactive)
REMARK    1  A    between atoms: C_5  and  O_6 
REMARK    2  A    between atoms: O_6  and  C_7 
REMARK    3  A    between atoms: C_7  and  C_8 
REMARK       I    between atoms: C_8  and  N_9 
REMARK    4  A    between atoms: N_9  and  N_10 
REMARK    5  A    between atoms: C_11  and  C_12 
ROOT
HETATM    1  C   UNL     1      -5.821   4.120 -33.749  1.00  0.00     0.261 C 
HETATM    2  N   UNL     1      -7.202   4.175 -33.875  1.00  0.00    -0.246 N 
HETATM    3  O   UNL     1      -5.163   3.095 -33.575  1.00  0.00    -0.269 OA
HETATM    4  H   UNL     1      -7.656   5.065 -34.059  1.00  0.00     0.192 HD
ENDROOT
BRANCH   2   5
HETATM    5  N   UNL     1      -7.927   3.022 -33.808  1.00  0.00    -0.184 NA
HETATM    6  C   UNL     1      -9.144   3.123 -33.386  1.00  0.00     0.152 C 
BRANCH   6   7
HETATM    7  C   UNL     1      -9.953   1.924 -33.283  1.00  0.00     0.011 A 
HETATM    8  C   UNL     1     -11.297   1.726 -33.736  1.00  0.00     0.004 A 
HETATM    9  C   UNL     1     -11.661   0.419 -33.404  1.00  0.00     0.043 A 
HETATM   10  C   UNL     1     -12.251   2.538 -34.386  1.00  0.00     0.014 A 
HETATM   11  C   UNL     1     -12.924  -0.116 -33.687  1.00  0.00     0.030 A 
HETATM   12  N   UNL     1     -10.580  -0.159 -32.780  1.00  0.00    -0.364 N 
HETATM   13  C   UNL     1     -13.848   0.712 -34.328  1.00  0.00     0.002 A 
HETATM   14  C   UNL     1     -13.521   2.019 -34.673  1.00  0.00     0.001 A 
HETATM   15  H   UNL     1     -10.556  -1.105 -32.427  1.00  0.00     0.165 HD
HETATM   16  C   UNL     1      -9.552   0.738 -32.697  1.00  0.00     0.102 A 
ENDBRANCH   6   7
ENDBRANCH   2   5
BRANCH   1  17
HETATM   17  C   UNL     1      -5.163   5.495 -33.727  1.00  0.00     0.280 C 
BRANCH  17  18
HETATM   18  O   UNL     1      -3.963   5.518 -34.503  1.00  0.00    -0.342 OA
BRANCH  18  19
HETATM   19  C   UNL     1      -2.874   5.780 -33.711  1.00  0.00     0.069 A 
HETATM   20  C   UNL     1      -2.324   7.058 -33.777  1.00  0.00     0.037 A 
HETATM   21  C   UNL     1      -1.205   7.376 -33.002  1.00  0.00     0.009 A 
HETATM   22  C   UNL     1      -0.641   6.421 -32.146  1.00  0.00    -0.062 A 
HETATM   23  C   UNL     1       0.553   6.753 -31.300  1.00  0.00     0.048 C 
HETATM   24  C   UNL     1      -1.232   5.154 -32.055  1.00  0.00     0.009 A 
HETATM   25  C   UNL     1      -2.348   4.835 -32.832  1.00  0.00     0.037 A 
ENDBRANCH  18  19
ENDBRANCH  17  18
ENDBRANCH   1  17
TORSDOF 5
ENDMDL
