MODEL 1
REMARK VINA RESULT:      -8.0      0.000      0.000
REMARK  4 active torsions:
REMARK  status: ('A' for Active; 'I' for Inactive)
REMARK    1  A    between atoms: C_4  and  C_5 
REMARK       I    between atoms: C_5  and  N_6 
REMARK    2  A    between atoms: N_6  and  C_7 
REMARK    3  A    between atoms: C_7  and  N_8 
REMARK    4  A    between atoms: N_8  and  C_9 
ROOT
HETATM    1  C   UNL     1      -7.110   0.365 -34.585  1.00  0.00     0.257 C 
HETATM    2  N   UNL     1      -7.778   0.866 -33.474  1.00  0.00    -0.299 N 
HETATM    3  O   UNL     1      -7.152   0.798 -35.727  1.00  0.00    -0.267 OA
HETATM    4  H   UNL     1      -7.888   0.184 -32.734  1.00  0.00     0.171 HD
ENDROOT
BRANCH   2   5
HETATM    5  C   UNL     1      -8.823   1.733 -33.510  1.00  0.00     0.179 C 
HETATM    6  S   UNL     1      -8.919   2.898 -32.314  1.00  0.00    -0.040 SA
BRANCH   5   7
HETATM    7  N   UNL     1      -9.789   1.688 -34.452  1.00  0.00    -0.332 N 
HETATM    8  H   UNL     1      -9.422   1.645 -35.397  1.00  0.00     0.168 HD
BRANCH   7   9
HETATM    9  C   UNL     1     -11.169   1.404 -34.345  1.00  0.00     0.051 A 
HETATM   10  C   UNL     1     -12.054   2.104 -35.167  1.00  0.00     0.145 A 
HETATM   11  N   UNL     1     -13.389   1.880 -35.241  1.00  0.00    -0.271 NA
HETATM   12  C   UNL     1     -13.875   0.907 -34.445  1.00  0.00     0.116 A 
HETATM   13  C   UNL     1     -13.088   0.151 -33.593  1.00  0.00     0.021 A 
HETATM   14  C   UNL     1     -11.715   0.399 -33.550  1.00  0.00     0.032 A 
ENDBRANCH   7   9
ENDBRANCH   5   7
ENDBRANCH   2   5
BRANCH   1  15
HETATM   15  C   UNL     1      -6.319  -0.861 -34.298  1.00  0.00     0.033 A 
HETATM   16  C   UNL     1      -5.231  -0.766 -33.426  1.00  0.00     0.023 A 
HETATM   17  C   UNL     1      -4.413  -1.880 -33.203  1.00  0.00    -0.061 A 
HETATM   18  C   UNL     1      -3.216  -1.792 -32.302  1.00  0.00     0.048 C 
HETATM   19  C   UNL     1      -4.727  -3.095 -33.832  1.00  0.00     0.013 A 
HETATM   20  C   UNL     1      -5.839  -3.207 -34.678  1.00  0.00    -0.061 A 
HETATM   21  C   UNL     1      -6.628  -2.077 -34.921  1.00  0.00     0.023 A 
HETATM   22  C   UNL     1      -6.143  -4.516 -35.346  1.00  0.00     0.048 C 
ENDBRANCH   1  15
TORSDOF 4
ENDMDL
MODEL 2
REMARK VINA RESULT:      -7.9      0.102      1.929
REMARK  4 active torsions:
REMARK  status: ('A' for Active; 'I' for Inactive)
REMARK    1  A    between atoms: C_4  and  C_5 
REMARK       I    between atoms: C_5  and  N_6 
REMARK    2  A    between atoms: N_6  and  C_7 
REMARK    3  A    between atoms: C_7  and  N_8 
REMARK    4  A    between atoms: N_8  and  C_9 
ROOT
HETATM    1  C   UNL     1      -7.074   0.332 -34.607  1.00  0.00     0.257 C 
HETATM    2  N   UNL     1      -7.743   0.783 -33.475  1.00  0.00    -0.299 N 
HETATM    3  O   UNL     1      -7.167   0.776 -35.742  1.00  0.00    -0.267 OA
HETATM    4  H   UNL     1      -7.799   0.087 -32.742  1.00  0.00     0.171 HD
ENDROOT
BRANCH   2   5
HETATM    5  C   UNL     1      -8.833   1.592 -33.476  1.00  0.00     0.179 C 
HETATM    6  S   UNL     1      -9.006   2.679 -32.215  1.00  0.00    -0.040 SA
BRANCH   5   7
HETATM    7  N   UNL     1      -9.785   1.551 -34.432  1.00  0.00    -0.332 N 
HETATM    8  H   UNL     1      -9.404   1.451 -35.368  1.00  0.00     0.168 HD
BRANCH   7   9
HETATM    9  C   UNL     1     -11.178   1.334 -34.339  1.00  0.00     0.051 A 
HETATM   10  C   UNL     1     -12.022   2.100 -35.145  1.00  0.00     0.145 A 
HETATM   11  N   UNL     1     -13.366   1.945 -35.231  1.00  0.00    -0.271 NA
HETATM   12  C   UNL     1     -13.904   0.978 -34.464  1.00  0.00     0.116 A 
HETATM   13  C   UNL     1     -13.161   0.159 -33.630  1.00  0.00     0.021 A 
HETATM   14  C   UNL     1     -11.778   0.337 -33.574  1.00  0.00     0.032 A 
ENDBRANCH   7   9
ENDBRANCH   5   7
ENDBRANCH   2   5
BRANCH   1  15
HETATM   15  C   UNL     1      -6.213  -0.853 -34.355  1.00  0.00     0.033 A 
HETATM   16  C   UNL     1      -6.532  -2.059 -34.987  1.00  0.00     0.023 A 
HETATM   17  C   UNL     1      -5.795  -3.214 -34.703  1.00  0.00    -0.061 A 
HETATM   18  C   UNL     1      -6.143  -4.528 -35.339  1.00  0.00     0.048 C 
HETATM   19  C   UNL     1      -4.714  -3.134 -33.811  1.00  0.00     0.013 A 
HETATM   20  C   UNL     1      -4.365  -1.920 -33.203  1.00  0.00    -0.061 A 
HETATM   21  C   UNL     1      -5.132  -0.779 -33.468  1.00  0.00     0.023 A 
HETATM   22  C   UNL     1      -3.212  -1.867 -32.245  1.00  0.00     0.048 C 
ENDBRANCH   1  15
TORSDOF 4
ENDMDL
MODEL 3
REMARK VINA RESULT:      -7.8      4.711      7.350
REMARK  4 active torsions:
REMARK  status: ('A' for Active; 'I' for Inactive)
REMARK    1  A    between atoms: C_4  and  C_5 
REMARK       I    between atoms: C_5  and  N_6 
REMARK    2  A    between atoms: N_6  and  C_7 
REMARK    3  A    between atoms: C_7  and  N_8 
REMARK    4  A    between atoms: N_8  and  C_9 
ROOT
HETATM    1  C   UNL     1      -3.934   0.679 -31.845  1.00  0.00     0.257 C 
HETATM    2  N   UNL     1      -4.728   1.791 -31.585  1.00  0.00    -0.299 N 
HETATM    3  O   UNL     1      -2.823   0.446 -31.391  1.00  0.00    -0.267 OA
HETATM    4  H   UNL     1      -5.421   1.961 -32.302  1.00  0.00     0.171 HD
ENDROOT
BRANCH   2   5
HETATM    5  C   UNL     1      -4.297   2.950 -31.025  1.00  0.00     0.179 C 
HETATM    6  S   UNL     1      -5.401   3.861 -30.157  1.00  0.00    -0.040 SA
BRANCH   5   7
HETATM    7  N   UNL     1      -3.032   3.407 -31.147  1.00  0.00    -0.332 N 
HETATM    8  H   UNL     1      -2.357   2.849 -30.635  1.00  0.00     0.168 HD
BRANCH   7   9
HETATM    9  C   UNL     1      -2.465   4.317 -32.067  1.00  0.00     0.051 A 
HETATM   10  C   UNL     1      -1.761   5.413 -31.564  1.00  0.00     0.145 A 
HETATM   11  N   UNL     1      -1.089   6.317 -32.317  1.00  0.00    -0.271 NA
HETATM   12  C   UNL     1      -1.127   6.128 -33.650  1.00  0.00     0.116 A 
HETATM   13  C   UNL     1      -1.794   5.076 -34.256  1.00  0.00     0.021 A 
HETATM   14  C   UNL     1      -2.465   4.155 -33.450  1.00  0.00     0.032 A 
ENDBRANCH   7   9
ENDBRANCH   5   7
ENDBRANCH   2   5
BRANCH   1  15
HETATM   15  C   UNL     1      -4.533  -0.260 -32.830  1.00  0.00     0.033 A 
HETATM   16  C   UNL     1      -5.660   0.153 -33.547  1.00  0.00     0.023 A 
HETATM   17  C   UNL     1      -6.300  -0.738 -34.416  1.00  0.00    -0.061 A 
HETATM   18  C   UNL     1      -7.534  -0.331 -35.167  1.00  0.00     0.048 C 
HETATM   19  C   UNL     1      -5.773  -2.027 -34.585  1.00  0.00     0.013 A 
HETATM   20  C   UNL     1      -4.621  -2.435 -33.897  1.00  0.00    -0.061 A 
HETATM   21  C   UNL     1      -4.010  -1.547 -33.004  1.00  0.00     0.023 A 
HETATM   22  C   UNL     1      -4.086  -3.824 -34.089  1.00  0.00     0.048 C 
ENDBRANCH   1  15
TORSDOF 4
ENDMDL
MODEL 4
REMARK VINA RESULT:      -7.7      4.767      7.340
REMARK  4 active torsions:
REMARK  status: ('A' for Active; 'I' for Inactive)
REMARK    1  A    between atoms: C_4  and  C_5 
REMARK       I    between atoms: C_5  and  N_6 
REMARK    2  A    between atoms: N_6  and  C_7 
REMARK    3  A    between atoms: C_7  and  N_8 
REMARK    4  A    between atoms: N_8  and  C_9 
ROOT
HETATM    1  C   UNL     1      -3.991   0.892 -31.861  1.00  0.00     0.257 C 
HETATM    2  N   UNL     1      -4.695   2.070 -31.644  1.00  0.00    -0.299 N 
HETATM    3  O   UNL     1      -2.890   0.600 -31.417  1.00  0.00    -0.267 OA
HETATM    4  H   UNL     1      -5.391   2.255 -32.356  1.00  0.00     0.171 HD
ENDROOT
BRANCH   2   5
HETATM    5  C   UNL     1      -4.169   3.222 -31.153  1.00  0.00     0.179 C 
HETATM    6  S   UNL     1      -5.195   4.282 -30.365  1.00  0.00    -0.040 SA
BRANCH   5   7
HETATM    7  N   UNL     1      -2.867   3.556 -31.285  1.00  0.00    -0.332 N 
HETATM    8  H   UNL     1      -2.243   2.922 -30.797  1.00  0.00     0.168 HD
BRANCH   7   9
HETATM    9  C   UNL     1      -2.226   4.429 -32.193  1.00  0.00     0.051 A 
HETATM   10  C   UNL     1      -2.426   4.224 -33.560  1.00  0.00     0.145 A 
HETATM   11  N   UNL     1      -1.953   5.029 -34.543  1.00  0.00    -0.271 NA
HETATM   12  C   UNL     1      -1.231   6.095 -34.145  1.00  0.00     0.116 A 
HETATM   13  C   UNL     1      -0.973   6.393 -32.817  1.00  0.00     0.021 A 
HETATM   14  C   UNL     1      -1.486   5.550 -31.829  1.00  0.00     0.032 A 
ENDBRANCH   7   9
ENDBRANCH   5   7
ENDBRANCH   2   5
BRANCH   1  15
HETATM   15  C   UNL     1      -4.679  -0.049 -32.783  1.00  0.00     0.033 A 
HETATM   16  C   UNL     1      -4.159  -1.338 -32.934  1.00  0.00     0.023 A 
HETATM   17  C   UNL     1      -4.730  -2.219 -33.859  1.00  0.00    -0.061 A 
HETATM   18  C   UNL     1      -4.165  -3.594 -34.067  1.00  0.00     0.048 C 
HETATM   19  C   UNL     1      -5.849  -1.805 -34.597  1.00  0.00     0.013 A 
HETATM   20  C   UNL     1      -6.399  -0.527 -34.424  1.00  0.00    -0.061 A 
HETATM   21  C   UNL     1      -5.797   0.358 -33.521  1.00  0.00     0.023 A 
HETATM   22  C   UNL     1      -7.589  -0.107 -35.236  1.00  0.00     0.048 C 
ENDBRANCH   1  15
TORSDOF 4
ENDMDL
MODEL 5
REMARK VINA RESULT:      -7.6      4.005      5.787
REMARK  4 active torsions:
REMARK  status: ('A' for Active; 'I' for Inactive)
REMARK    1  A    between atoms: C_4  and  C_5 
REMARK       I    between atoms: C_5  and  N_6 
REMARK    2  A    between atoms: N_6  and  C_7 
REMARK    3  A    between atoms: C_7  and  N_8 
REMARK    4  A    between atoms: N_8  and  C_9 
ROOT
HETATM    1  C   UNL     1      -5.984   0.338 -33.943  1.00  0.00     0.257 C 
HETATM    2  N   UNL     1      -5.708   1.064 -32.789  1.00  0.00    -0.299 N 
HETATM    3  O   UNL     1      -6.627   0.713 -34.912  1.00  0.00    -0.267 OA
HETATM    4  H   UNL     1      -5.480   0.479 -31.995  1.00  0.00     0.171 HD
ENDROOT
BRANCH   2   5
HETATM    5  C   UNL     1      -6.347   2.198 -32.403  1.00  0.00     0.179 C 
HETATM    6  S   UNL     1      -7.936   2.070 -31.895  1.00  0.00    -0.040 SA
BRANCH   5   7
HETATM    7  N   UNL     1      -5.768   3.418 -32.424  1.00  0.00    -0.332 N 
HETATM    8  H   UNL     1      -5.968   3.967 -31.595  1.00  0.00     0.168 HD
BRANCH   7   9
HETATM    9  C   UNL     1      -4.732   3.933 -33.235  1.00  0.00     0.051 A 
HETATM   10  C   UNL     1      -5.082   4.623 -34.397  1.00  0.00     0.145 A 
HETATM   11  N   UNL     1      -4.209   5.248 -35.224  1.00  0.00    -0.271 NA
HETATM   12  C   UNL     1      -2.908   5.176 -34.880  1.00  0.00     0.116 A 
HETATM   13  C   UNL     1      -2.450   4.519 -33.750  1.00  0.00     0.021 A 
HETATM   14  C   UNL     1      -3.378   3.897 -32.913  1.00  0.00     0.032 A 
ENDBRANCH   7   9
ENDBRANCH   5   7
ENDBRANCH   2   5
BRANCH   1  15
HETATM   15  C   UNL     1      -5.459  -1.053 -33.907  1.00  0.00     0.033 A 
HETATM   16  C   UNL     1      -6.025  -2.002 -34.764  1.00  0.00     0.023 A 
HETATM   17  C   UNL     1      -5.615  -3.338 -34.694  1.00  0.00    -0.061 A 
HETATM   18  C   UNL     1      -6.235  -4.383 -35.575  1.00  0.00     0.048 C 
HETATM   19  C   UNL     1      -4.607  -3.699 -33.786  1.00  0.00     0.013 A 
HETATM   20  C   UNL     1      -4.009  -2.744 -32.951  1.00  0.00    -0.061 A 
HETATM   21  C   UNL     1      -4.452  -1.417 -33.005  1.00  0.00     0.023 A 
HETATM   22  C   UNL     1      -2.941  -3.161 -31.983  1.00  0.00     0.048 C 
ENDBRANCH   1  15
TORSDOF 4
ENDMDL
MODEL 6
REMARK VINA RESULT:      -7.2      1.967      3.157
REMARK  4 active torsions:
REMARK  status: ('A' for Active; 'I' for Inactive)
REMARK    1  A    between atoms: C_4  and  C_5 
REMARK       I    between atoms: C_5  and  N_6 
REMARK    2  A    between atoms: N_6  and  C_7 
REMARK    3  A    between atoms: C_7  and  N_8 
REMARK    4  A    between atoms: N_8  and  C_9 
ROOT
HETATM    1  C   UNL     1      -5.730   0.369 -32.982  1.00  0.00     0.257 C 
HETATM    2  N   UNL     1      -5.800   0.698 -31.633  1.00  0.00    -0.299 N 
HETATM    3  O   UNL     1      -6.088   1.057 -33.927  1.00  0.00    -0.267 OA
HETATM    4  H   UNL     1      -5.787  -0.111 -31.025  1.00  0.00     0.171 HD
ENDROOT
BRANCH   2   5
HETATM    5  C   UNL     1      -6.547   1.702 -31.107  1.00  0.00     0.179 C 
HETATM    6  S   UNL     1      -5.788   3.157 -30.780  1.00  0.00    -0.040 SA
BRANCH   5   7
HETATM    7  N   UNL     1      -7.861   1.577 -30.823  1.00  0.00    -0.332 N 
HETATM    8  H   UNL     1      -8.081   1.794 -29.856  1.00  0.00     0.168 HD
BRANCH   7   9
HETATM    9  C   UNL     1      -8.984   1.486 -31.675  1.00  0.00     0.051 A 
HETATM   10  C   UNL     1      -9.670   2.661 -31.993  1.00  0.00     0.145 A 
HETATM   11  N   UNL     1     -10.705   2.745 -32.864  1.00  0.00    -0.271 NA
HETATM   12  C   UNL     1     -11.089   1.593 -33.446  1.00  0.00     0.116 A 
HETATM   13  C   UNL     1     -10.480   0.372 -33.204  1.00  0.00     0.021 A 
HETATM   14  C   UNL     1      -9.408   0.323 -32.312  1.00  0.00     0.032 A 
ENDBRANCH   7   9
ENDBRANCH   5   7
ENDBRANCH   2   5
BRANCH   1  15
HETATM   15  C   UNL     1      -5.204  -0.999 -33.232  1.00  0.00     0.033 A 
HETATM   16  C   UNL     1      -5.772  -1.756 -34.262  1.00  0.00     0.023 A 
HETATM   17  C   UNL     1      -5.361  -3.077 -34.466  1.00  0.00    -0.061 A 
HETATM   18  C   UNL     1      -5.983  -3.923 -35.539  1.00  0.00     0.048 C 
HETATM   19  C   UNL     1      -4.348  -3.613 -33.655  1.00  0.00     0.013 A 
HETATM   20  C   UNL     1      -3.748  -2.847 -32.646  1.00  0.00    -0.061 A 
HETATM   21  C   UNL     1      -4.193  -1.537 -32.428  1.00  0.00     0.023 A 
HETATM   22  C   UNL     1      -2.676  -3.449 -31.786  1.00  0.00     0.048 C 
ENDBRANCH   1  15
TORSDOF 4
ENDMDL
MODEL 7
REMARK VINA RESULT:      -7.1      5.072      7.520
REMARK  4 active torsions:
REMARK  status: ('A' for Active; 'I' for Inactive)
REMARK    1  A    between atoms: C_4  and  C_5 
REMARK       I    between atoms: C_5  and  N_6 
REMARK    2  A    between atoms: N_6  and  C_7 
REMARK    3  A    between atoms: C_7  and  N_8 
REMARK    4  A    between atoms: N_8  and  C_9 
ROOT
HETATM    1  C   UNL     1      -5.194   2.244 -32.877  1.00  0.00     0.257 C 
HETATM    2  N   UNL     1      -5.780   3.458 -33.218  1.00  0.00    -0.299 N 
HETATM    3  O   UNL     1      -4.091   2.074 -32.380  1.00  0.00    -0.267 OA
HETATM    4  H   UNL     1      -6.510   3.367 -33.913  1.00  0.00     0.171 HD
ENDROOT
BRANCH   2   5
HETATM    5  C   UNL     1      -5.123   4.640 -33.341  1.00  0.00     0.179 C 
HETATM    6  S   UNL     1      -5.863   6.016 -32.740  1.00  0.00    -0.040 SA
BRANCH   5   7
HETATM    7  N   UNL     1      -3.917   4.759 -33.935  1.00  0.00    -0.332 N 
HETATM    8  H   UNL     1      -3.928   4.491 -34.914  1.00  0.00     0.168 HD
BRANCH   7   9
HETATM    9  C   UNL     1      -2.751   5.444 -33.526  1.00  0.00     0.051 A 
HETATM   10  C   UNL     1      -2.417   6.631 -34.182  1.00  0.00     0.145 A 
HETATM   11  N   UNL     1      -1.384   7.441 -33.844  1.00  0.00    -0.271 NA
HETATM   12  C   UNL     1      -0.632   7.045 -32.799  1.00  0.00     0.116 A 
HETATM   13  C   UNL     1      -0.874   5.887 -32.077  1.00  0.00     0.021 A 
HETATM   14  C   UNL     1      -1.954   5.082 -32.443  1.00  0.00     0.032 A 
ENDBRANCH   7   9
ENDBRANCH   5   7
ENDBRANCH   2   5
BRANCH   1  15
HETATM   15  C   UNL     1      -6.027   1.064 -33.229  1.00  0.00     0.033 A 
HETATM   16  C   UNL     1      -7.398   1.109 -32.958  1.00  0.00     0.023 A 
HETATM   17  C   UNL     1      -8.195  -0.017 -33.196  1.00  0.00    -0.061 A 
HETATM   18  C   UNL     1      -9.661  -0.007 -32.877  1.00  0.00     0.048 C 
HETATM   19  C   UNL     1      -7.607  -1.167 -33.745  1.00  0.00     0.013 A 
HETATM   20  C   UNL     1      -6.240  -1.206 -34.054  1.00  0.00    -0.061 A 
HETATM   21  C   UNL     1      -5.447  -0.085 -33.778  1.00  0.00     0.023 A 
HETATM   22  C   UNL     1      -5.637  -2.454 -34.629  1.00  0.00     0.048 C 
ENDBRANCH   1  15
TORSDOF 4
ENDMDL
MODEL 8
REMARK VINA RESULT:      -6.9      2.675      4.334
REMARK  4 active torsions:
REMARK  status: ('A' for Active; 'I' for Inactive)
REMARK    1  A    between atoms: C_4  and  C_5 
REMARK       I    between atoms: C_5  and  N_6 
REMARK    2  A    between atoms: N_6  and  C_7 
REMARK    3  A    between atoms: C_7  and  N_8 
REMARK    4  A    between atoms: N_8  and  C_9 
ROOT
HETATM    1  C   UNL     1      -7.718   0.026 -33.818  1.00  0.00     0.257 C 
HETATM    2  N   UNL     1      -8.191   0.232 -32.527  1.00  0.00    -0.299 N 
HETATM    3  O   UNL     1      -8.117   0.562 -34.842  1.00  0.00    -0.267 OA
HETATM    4  H   UNL     1      -7.983  -0.535 -31.900  1.00  0.00     0.171 HD
ENDROOT
BRANCH   2   5
HETATM    5  C   UNL     1      -9.368   0.830 -32.207  1.00  0.00     0.179 C 
HETATM    6  S   UNL     1     -10.642   0.681 -33.281  1.00  0.00    -0.040 SA
BRANCH   5   7
HETATM    7  N   UNL     1      -9.550   1.547 -31.078  1.00  0.00    -0.332 N 
HETATM    8  H   UNL     1      -9.979   1.010 -30.331  1.00  0.00     0.168 HD
BRANCH   7   9
HETATM    9  C   UNL     1      -9.002   2.784 -30.672  1.00  0.00     0.051 A 
HETATM   10  C   UNL     1      -9.864   3.873 -30.522  1.00  0.00     0.145 A 
HETATM   11  N   UNL     1      -9.502   5.093 -30.056  1.00  0.00    -0.271 NA
HETATM   12  C   UNL     1      -8.204   5.244 -29.727  1.00  0.00     0.116 A 
HETATM   13  C   UNL     1      -7.264   4.232 -29.835  1.00  0.00     0.021 A 
HETATM   14  C   UNL     1      -7.673   2.983 -30.307  1.00  0.00     0.032 A 
ENDBRANCH   7   9
ENDBRANCH   5   7
ENDBRANCH   2   5
BRANCH   1  15
HETATM   15  C   UNL     1      -6.652  -1.006 -33.901  1.00  0.00     0.033 A 
HETATM   16  C   UNL     1      -6.880  -2.141 -34.685  1.00  0.00     0.023 A 
HETATM   17  C   UNL     1      -5.934  -3.172 -34.714  1.00  0.00    -0.061 A 
HETATM   18  C   UNL     1      -6.173  -4.418 -35.516  1.00  0.00     0.048 C 
HETATM   19  C   UNL     1      -4.743  -3.029 -33.984  1.00  0.00     0.013 A 
HETATM   20  C   UNL     1      -4.492  -1.877 -33.227  1.00  0.00    -0.061 A 
HETATM   21  C   UNL     1      -5.462  -0.868 -33.176  1.00  0.00     0.023 A 
HETATM   22  C   UNL     1      -3.216  -1.757 -32.446  1.00  0.00     0.048 C 
ENDBRANCH   1  15
TORSDOF 4
ENDMDL
MODEL 9
REMARK VINA RESULT:      -6.9      2.955      4.089
REMARK  4 active torsions:
REMARK  status: ('A' for Active; 'I' for Inactive)
REMARK    1  A    between atoms: C_4  and  C_5 
REMARK       I    between atoms: C_5  and  N_6 
REMARK    2  A    between atoms: N_6  and  C_7 
REMARK    3  A    between atoms: C_7  and  N_8 
REMARK    4  A    between atoms: N_8  and  C_9 
ROOT
HETATM    1  C   UNL     1      -7.132   0.817 -32.875  1.00  0.00     0.257 C 
HETATM    2  N   UNL     1      -8.214   0.466 -32.076  1.00  0.00    -0.299 N 
HETATM    3  O   UNL     1      -6.946   1.889 -33.432  1.00  0.00    -0.267 OA
HETATM    4  H   UNL     1      -8.351  -0.535 -32.008  1.00  0.00     0.171 HD
ENDROOT
BRANCH   2   5
HETATM    5  C   UNL     1      -9.394   1.134 -32.013  1.00  0.00     0.179 C 
HETATM    6  S   UNL     1     -10.467   0.956 -33.285  1.00  0.00    -0.040 SA
BRANCH   5   7
HETATM    7  N   UNL     1      -9.734   1.943 -30.987  1.00  0.00    -0.332 N 
HETATM    8  H   UNL     1     -10.387   1.512 -30.341  1.00  0.00     0.168 HD
BRANCH   7   9
HETATM    9  C   UNL     1      -9.135   3.132 -30.512  1.00  0.00     0.051 A 
HETATM   10  C   UNL     1      -9.915   4.290 -30.461  1.00  0.00     0.145 A 
HETATM   11  N   UNL     1      -9.510   5.477 -29.949  1.00  0.00    -0.271 NA
HETATM   12  C   UNL     1      -8.252   5.521 -29.467  1.00  0.00     0.116 A 
HETATM   13  C   UNL     1      -7.394   4.433 -29.467  1.00  0.00     0.021 A 
HETATM   14  C   UNL     1      -7.848   3.221 -29.990  1.00  0.00     0.032 A 
ENDBRANCH   7   9
ENDBRANCH   5   7
ENDBRANCH   2   5
BRANCH   1  15
HETATM   15  C   UNL     1      -6.161  -0.290 -33.078  1.00  0.00     0.033 A 
HETATM   16  C   UNL     1      -4.936  -0.237 -32.407  1.00  0.00     0.023 A 
HETATM   17  C   UNL     1      -3.966  -1.217 -32.644  1.00  0.00    -0.061 A 
HETATM   18  C   UNL     1      -2.628  -1.161 -31.966  1.00  0.00     0.048 C 
HETATM   19  C   UNL     1      -4.256  -2.268 -33.528  1.00  0.00     0.013 A 
HETATM   20  C   UNL     1      -5.497  -2.348 -34.176  1.00  0.00    -0.061 A 
HETATM   21  C   UNL     1      -6.447  -1.342 -33.958  1.00  0.00     0.023 A 
HETATM   22  C   UNL     1      -5.776  -3.477 -35.125  1.00  0.00     0.048 C 
ENDBRANCH   1  15
TORSDOF 4
ENDMDL
MODEL 10
REMARK VINA RESULT:      -6.9      5.973      8.534
REMARK  4 active torsions:
REMARK  status: ('A' for Active; 'I' for Inactive)
REMARK    1  A    between atoms: C_4  and  C_5 
REMARK       I    between atoms: C_5  and  N_6 
REMARK    2  A    between atoms: N_6  and  C_7 
REMARK    3  A    between atoms: C_7  and  N_8 
REMARK    4  A    between atoms: N_8  and  C_9 
ROOT
HETATM    1  C   UNL     1      -3.594   2.404 -32.080  1.00  0.00     0.257 C 
HETATM    2  N   UNL     1      -3.706   3.467 -32.969  1.00  0.00    -0.299 N 
HETATM    3  O   UNL     1      -2.797   2.295 -31.160  1.00  0.00    -0.267 OA
HETATM    4  H   UNL     1      -4.165   3.215 -33.835  1.00  0.00     0.171 HD
ENDROOT
BRANCH   2   5
HETATM    5  C   UNL     1      -2.768   4.429 -33.166  1.00  0.00     0.179 C 
HETATM    6  S   UNL     1      -2.991   5.497 -34.434  1.00  0.00    -0.040 SA
BRANCH   5   7
HETATM    7  N   UNL     1      -1.662   4.553 -32.400  1.00  0.00    -0.332 N 
HETATM    8  H   UNL     1      -0.920   3.915 -32.668  1.00  0.00     0.168 HD
BRANCH   7   9
HETATM    9  C   UNL     1      -1.264   5.578 -31.514  1.00  0.00     0.051 A 
HETATM   10  C   UNL     1      -2.234   6.150 -30.687  1.00  0.00     0.145 A 
HETATM   11  N   UNL     1      -1.989   7.076 -29.727  1.00  0.00    -0.271 NA
HETATM   12  C   UNL     1      -0.706   7.463 -29.587  1.00  0.00     0.116 A 
HETATM   13  C   UNL     1       0.334   6.961 -30.351  1.00  0.00     0.021 A 
HETATM   14  C   UNL     1       0.049   5.999 -31.322  1.00  0.00     0.032 A 
ENDBRANCH   7   9
ENDBRANCH   5   7
ENDBRANCH   2   5
BRANCH   1  15
HETATM   15  C   UNL     1      -4.536   1.290 -32.367  1.00  0.00     0.033 A 
HETATM   16  C   UNL     1      -5.881   1.446 -32.018  1.00  0.00     0.023 A 
HETATM   17  C   UNL     1      -6.776   0.384 -32.193  1.00  0.00    -0.061 A 
HETATM   18  C   UNL     1      -8.216   0.513 -31.790  1.00  0.00     0.048 C 
HETATM   19  C   UNL     1      -6.314  -0.815 -32.758  1.00  0.00     0.013 A 
HETATM   20  C   UNL     1      -4.974  -0.964 -33.144  1.00  0.00    -0.061 A 
HETATM   21  C   UNL     1      -4.081   0.093 -32.931  1.00  0.00     0.023 A 
HETATM   22  C   UNL     1      -4.506  -2.261 -33.735  1.00  0.00     0.048 C 
ENDBRANCH   1  15
TORSDOF 4
ENDMDL
