MODEL 1
REMARK VINA RESULT:      -9.1      0.000      0.000
REMARK  4 active torsions:
REMARK  status: ('A' for Active; 'I' for Inactive)
REMARK       I    between atoms: C_2  and  N_3 
REMARK    1  A    between atoms: N_3  and  C_4 
REMARK    2  A    between atoms: C_7  and  C_8 
REMARK    3  A    between atoms: C_12  and  N_13 
REMARK    4  A    between atoms: C_20  and  C_21 
ROOT
HETATM    1  C   UNL     1      -4.765  -0.946 -33.863  1.00  0.00     0.105 C 
HETATM    2  C   UNL     1      -4.551  -2.459 -33.798  1.00  0.00     0.067 C 
HETATM    3  C   UNL     1      -5.419  -3.343 -34.675  1.00  0.00     0.020 C 
HETATM    4  N   UNL     1      -6.141  -4.078 -35.404  1.00  0.00    -0.096 N 
HETATM    5  C   UNL     1      -3.645  -3.044 -32.968  1.00  0.00     0.139 C 
HETATM    6  O   UNL     1      -2.859  -2.289 -32.083  1.00  0.00    -0.279 OA
HETATM    7  C   UNL     1      -3.169  -1.002 -31.977  1.00  0.00     0.175 A 
HETATM    8  C   UNL     1      -4.061  -0.273 -32.725  1.00  0.00     0.040 A 
HETATM    9  N   UNL     1      -2.663  -0.175 -31.033  1.00  0.00    -0.256 N 
HETATM   10  H   UNL     1      -1.986  -0.386 -30.309  1.00  0.00     0.191 HD
HETATM   11  N   UNL     1      -3.192   1.058 -31.085  1.00  0.00    -0.172 NA
HETATM   12  C   UNL     1      -4.061   1.017 -32.116  1.00  0.00     0.099 A 
ENDROOT
BRANCH   1  13
HETATM   13  C   UNL     1      -6.218  -0.508 -33.868  1.00  0.00    -0.044 A 
HETATM   14  C   UNL     1      -7.107  -0.759 -32.811  1.00  0.00     0.010 A 
HETATM   15  C   UNL     1      -8.417  -0.261 -32.838  1.00  0.00     0.030 A 
HETATM   16  C   UNL     1      -8.875   0.474 -33.931  1.00  0.00     0.034 A 
HETATM   17  C   UNL     1      -8.017   0.669 -35.017  1.00  0.00     0.030 A 
HETATM   18  C   UNL     1      -6.708   0.183 -34.988  1.00  0.00     0.010 A 
BRANCH  16  19
HETATM   19  N   UNL     1     -10.155   1.061 -34.021  1.00  0.00    -0.328 N 
HETATM   20  C   UNL     1     -10.677   2.069 -33.233  1.00  0.00     0.218 C 
HETATM   21  C   UNL     1     -12.052   2.498 -33.686  1.00  0.00     0.117 C 
HETATM   22  O   UNL     1     -10.129   2.628 -32.289  1.00  0.00    -0.274 OA
HETATM   23  H   UNL     1     -10.733   0.736 -34.784  1.00  0.00     0.169 HD
ENDBRANCH  16  19
ENDBRANCH   1  13
BRANCH   5  24
HETATM   24  N   UNL     1      -3.395  -4.394 -32.878  1.00  0.00    -0.282 NA
HETATM   25  H   UNL     1      -3.864  -4.889 -32.124  1.00  0.00     0.126 HD
HETATM   26  H   UNL     1      -3.473  -4.863 -33.777  1.00  0.00     0.126 HD
ENDBRANCH   5  24
BRANCH  12  27
HETATM   27  C   UNL     1      -4.885   2.184 -32.416  1.00  0.00    -0.005 A 
HETATM   28  C   UNL     1      -4.607   3.015 -33.506  1.00  0.00     0.014 A 
HETATM   29  C   UNL     1      -5.442   4.100 -33.792  1.00  0.00     0.001 A 
HETATM   30  C   UNL     1      -6.551   4.363 -32.988  1.00  0.00     0.000 A 
HETATM   31  C   UNL     1      -6.825   3.550 -31.890  1.00  0.00     0.001 A 
HETATM   32  C   UNL     1      -5.993   2.468 -31.603  1.00  0.00     0.014 A 
ENDBRANCH  12  27
TORSDOF 4
ENDMDL
MODEL 2
REMARK VINA RESULT:      -8.7      2.195      6.104
REMARK  4 active torsions:
REMARK  status: ('A' for Active; 'I' for Inactive)
REMARK       I    between atoms: C_2  and  N_3 
REMARK    1  A    between atoms: N_3  and  C_4 
REMARK    2  A    between atoms: C_7  and  C_8 
REMARK    3  A    between atoms: C_12  and  N_13 
REMARK    4  A    between atoms: C_20  and  C_21 
ROOT
HETATM    1  C   UNL     1      -7.785   2.845 -33.040  1.00  0.00     0.105 C 
HETATM    2  C   UNL     1      -8.755   3.709 -33.849  1.00  0.00     0.067 C 
HETATM    3  C   UNL     1     -10.058   3.080 -34.311  1.00  0.00     0.020 C 
HETATM    4  N   UNL     1     -11.140   2.557 -34.695  1.00  0.00    -0.096 N 
HETATM    5  C   UNL     1      -8.487   4.995 -34.199  1.00  0.00     0.139 C 
HETATM    6  O   UNL     1      -7.273   5.615 -33.861  1.00  0.00    -0.279 OA
HETATM    7  C   UNL     1      -6.339   4.827 -33.340  1.00  0.00     0.175 A 
HETATM    8  C   UNL     1      -6.449   3.515 -32.947  1.00  0.00     0.040 A 
HETATM    9  N   UNL     1      -5.052   5.200 -33.148  1.00  0.00    -0.256 N 
HETATM   10  H   UNL     1      -4.622   6.097 -33.339  1.00  0.00     0.191 HD
HETATM   11  N   UNL     1      -4.286   4.200 -32.682  1.00  0.00    -0.172 NA
HETATM   12  C   UNL     1      -5.125   3.152 -32.558  1.00  0.00     0.099 A 
ENDROOT
BRANCH   1  13
HETATM   13  C   UNL     1      -7.591   1.437 -33.570  1.00  0.00    -0.044 A 
HETATM   14  C   UNL     1      -7.104   1.152 -34.855  1.00  0.00     0.010 A 
HETATM   15  C   UNL     1      -6.872  -0.169 -35.260  1.00  0.00     0.030 A 
HETATM   16  C   UNL     1      -7.147  -1.235 -34.403  1.00  0.00     0.034 A 
HETATM   17  C   UNL     1      -7.697  -0.962 -33.147  1.00  0.00     0.030 A 
HETATM   18  C   UNL     1      -7.919   0.354 -32.736  1.00  0.00     0.010 A 
BRANCH  16  19
HETATM   19  N   UNL     1      -6.893  -2.589 -34.704  1.00  0.00    -0.328 N 
HETATM   20  C   UNL     1      -5.666  -3.223 -34.765  1.00  0.00     0.218 C 
HETATM   21  C   UNL     1      -5.798  -4.704 -35.030  1.00  0.00     0.117 C 
HETATM   22  O   UNL     1      -4.563  -2.717 -34.592  1.00  0.00    -0.274 OA
HETATM   23  H   UNL     1      -7.711  -3.169 -34.838  1.00  0.00     0.169 HD
ENDBRANCH  16  19
ENDBRANCH   1  13
BRANCH   5  24
HETATM   24  N   UNL     1      -9.325   5.825 -34.907  1.00  0.00    -0.282 NA
HETATM   25  H   UNL     1      -9.843   6.511 -34.365  1.00  0.00     0.126 HD
HETATM   26  H   UNL     1      -8.876   6.218 -35.731  1.00  0.00     0.126 HD
ENDBRANCH   5  24
BRANCH  12  27
HETATM   27  C   UNL     1      -4.605   1.853 -32.142  1.00  0.00    -0.005 A 
HETATM   28  C   UNL     1      -4.919   1.305 -30.894  1.00  0.00     0.014 A 
HETATM   29  C   UNL     1      -4.441   0.038 -30.543  1.00  0.00     0.001 A 
HETATM   30  C   UNL     1      -3.642  -0.681 -31.433  1.00  0.00     0.000 A 
HETATM   31  C   UNL     1      -3.310  -0.135 -32.671  1.00  0.00     0.001 A 
HETATM   32  C   UNL     1      -3.786   1.129 -33.021  1.00  0.00     0.014 A 
ENDBRANCH  12  27
TORSDOF 4
ENDMDL
MODEL 3
REMARK VINA RESULT:      -8.5      1.770      2.545
REMARK  4 active torsions:
REMARK  status: ('A' for Active; 'I' for Inactive)
REMARK       I    between atoms: C_2  and  N_3 
REMARK    1  A    between atoms: N_3  and  C_4 
REMARK    2  A    between atoms: C_7  and  C_8 
REMARK    3  A    between atoms: C_12  and  N_13 
REMARK    4  A    between atoms: C_20  and  C_21 
ROOT
HETATM    1  C   UNL     1      -5.282   1.069 -33.153  1.00  0.00     0.105 C 
HETATM    2  C   UNL     1      -4.367  -0.114 -32.834  1.00  0.00     0.067 C 
HETATM    3  C   UNL     1      -4.696  -1.460 -33.458  1.00  0.00     0.020 C 
HETATM    4  N   UNL     1      -4.969  -2.578 -33.976  1.00  0.00    -0.096 N 
HETATM    5  C   UNL     1      -3.301  -0.023 -31.995  1.00  0.00     0.139 C 
HETATM    6  O   UNL     1      -2.982   1.174 -31.334  1.00  0.00    -0.279 OA
HETATM    7  C   UNL     1      -3.873   2.154 -31.436  1.00  0.00     0.175 A 
HETATM    8  C   UNL     1      -4.999   2.208 -32.222  1.00  0.00     0.040 A 
HETATM    9  N   UNL     1      -3.836   3.292 -30.705  1.00  0.00    -0.256 N 
HETATM   10  H   UNL     1      -3.148   3.576 -30.017  1.00  0.00     0.191 HD
HETATM   11  N   UNL     1      -4.892   4.090 -30.932  1.00  0.00    -0.172 NA
HETATM   12  C   UNL     1      -5.624   3.438 -31.859  1.00  0.00     0.099 A 
ENDROOT
BRANCH   1  13
HETATM   13  C   UNL     1      -6.766   0.759 -33.109  1.00  0.00    -0.044 A 
HETATM   14  C   UNL     1      -7.443   0.370 -31.942  1.00  0.00     0.010 A 
HETATM   15  C   UNL     1      -8.830   0.172 -31.946  1.00  0.00     0.030 A 
HETATM   16  C   UNL     1      -9.567   0.331 -33.120  1.00  0.00     0.034 A 
HETATM   17  C   UNL     1      -8.890   0.651 -34.301  1.00  0.00     0.030 A 
HETATM   18  C   UNL     1      -7.510   0.859 -34.297  1.00  0.00     0.010 A 
BRANCH  16  19
HETATM   19  N   UNL     1     -10.970   0.209 -33.206  1.00  0.00    -0.328 N 
HETATM   20  C   UNL     1     -11.878   1.176 -33.593  1.00  0.00     0.218 C 
HETATM   21  C   UNL     1     -13.292   0.647 -33.646  1.00  0.00     0.117 C 
HETATM   22  O   UNL     1     -11.634   2.334 -33.912  1.00  0.00    -0.274 OA
HETATM   23  H   UNL     1     -11.342  -0.711 -33.010  1.00  0.00     0.169 HD
ENDBRANCH  16  19
ENDBRANCH   1  13
BRANCH   5  24
HETATM   24  N   UNL     1      -2.434  -1.045 -31.686  1.00  0.00    -0.282 NA
HETATM   25  H   UNL     1      -1.880  -0.925 -30.842  1.00  0.00     0.126 HD
HETATM   26  H   UNL     1      -2.874  -1.960 -31.752  1.00  0.00     0.126 HD
ENDBRANCH   5  24
BRANCH  12  27
HETATM   27  C   UNL     1      -6.904   3.990 -32.290  1.00  0.00    -0.005 A 
HETATM   28  C   UNL     1      -7.059   4.579 -33.550  1.00  0.00     0.014 A 
HETATM   29  C   UNL     1      -8.310   5.059 -33.950  1.00  0.00     0.001 A 
HETATM   30  C   UNL     1      -9.407   4.959 -33.095  1.00  0.00     0.000 A 
HETATM   31  C   UNL     1      -9.257   4.389 -31.832  1.00  0.00     0.001 A 
HETATM   32  C   UNL     1      -8.010   3.911 -31.431  1.00  0.00     0.014 A 
ENDBRANCH  12  27
TORSDOF 4
ENDMDL
MODEL 4
REMARK VINA RESULT:      -8.2      2.505      6.171
REMARK  4 active torsions:
REMARK  status: ('A' for Active; 'I' for Inactive)
REMARK       I    between atoms: C_2  and  N_3 
REMARK    1  A    between atoms: N_3  and  C_4 
REMARK    2  A    between atoms: C_7  and  C_8 
REMARK    3  A    between atoms: C_12  and  N_13 
REMARK    4  A    between atoms: C_20  and  C_21 
ROOT
HETATM    1  C   UNL     1      -6.245   3.560 -32.511  1.00  0.00     0.105 C 
HETATM    2  C   UNL     1      -4.917   4.100 -31.977  1.00  0.00     0.067 C 
HETATM    3  C   UNL     1      -3.652   3.786 -32.757  1.00  0.00     0.020 C 
HETATM    4  N   UNL     1      -2.602   3.525 -33.405  1.00  0.00    -0.096 N 
HETATM    5  C   UNL     1      -4.817   4.815 -30.824  1.00  0.00     0.139 C 
HETATM    6  O   UNL     1      -5.937   5.082 -30.021  1.00  0.00    -0.279 OA
HETATM    7  C   UNL     1      -7.060   4.456 -30.355  1.00  0.00     0.175 A 
HETATM    8  C   UNL     1      -7.314   3.693 -31.469  1.00  0.00     0.040 A 
HETATM    9  N   UNL     1      -8.172   4.429 -29.585  1.00  0.00    -0.256 N 
HETATM   10  H   UNL     1      -8.328   4.878 -28.690  1.00  0.00     0.191 HD
HETATM   11  N   UNL     1      -9.145   3.663 -30.104  1.00  0.00    -0.172 NA
HETATM   12  C   UNL     1      -8.635   3.195 -31.262  1.00  0.00     0.099 A 
ENDROOT
BRANCH   1  13
HETATM   13  C   UNL     1      -6.203   2.120 -32.988  1.00  0.00    -0.044 A 
HETATM   14  C   UNL     1      -5.746   1.055 -32.197  1.00  0.00     0.010 A 
HETATM   15  C   UNL     1      -5.804  -0.265 -32.665  1.00  0.00     0.030 A 
HETATM   16  C   UNL     1      -6.292  -0.546 -33.941  1.00  0.00     0.034 A 
HETATM   17  C   UNL     1      -6.684   0.517 -34.760  1.00  0.00     0.030 A 
HETATM   18  C   UNL     1      -6.638   1.832 -34.292  1.00  0.00     0.010 A 
BRANCH  16  19
HETATM   19  N   UNL     1      -6.440  -1.844 -34.473  1.00  0.00    -0.328 N 
HETATM   20  C   UNL     1      -5.449  -2.781 -34.699  1.00  0.00     0.218 C 
HETATM   21  C   UNL     1      -6.004  -4.094 -35.197  1.00  0.00     0.117 C 
HETATM   22  O   UNL     1      -4.247  -2.648 -34.500  1.00  0.00    -0.274 OA
HETATM   23  H   UNL     1      -7.390  -2.135 -34.660  1.00  0.00     0.169 HD
ENDBRANCH  16  19
ENDBRANCH   1  13
BRANCH   5  24
HETATM   24  N   UNL     1      -3.656   5.341 -30.305  1.00  0.00    -0.282 NA
HETATM   25  H   UNL     1      -3.163   4.763 -29.629  1.00  0.00     0.126 HD
HETATM   26  H   UNL     1      -3.050   5.726 -31.024  1.00  0.00     0.126 HD
ENDBRANCH   5  24
BRANCH  12  27
HETATM   27  C   UNL     1      -9.406   2.250 -32.064  1.00  0.00    -0.005 A 
HETATM   28  C   UNL     1      -9.294   0.869 -31.875  1.00  0.00     0.014 A 
HETATM   29  C   UNL     1     -10.080  -0.009 -32.630  1.00  0.00     0.001 A 
HETATM   30  C   UNL     1     -10.973   0.489 -33.579  1.00  0.00     0.000 A 
HETATM   31  C   UNL     1     -11.078   1.863 -33.785  1.00  0.00     0.001 A 
HETATM   32  C   UNL     1     -10.294   2.738 -33.034  1.00  0.00     0.014 A 
ENDBRANCH  12  27
TORSDOF 4
ENDMDL
MODEL 5
REMARK VINA RESULT:      -8.0      3.244      7.259
REMARK  4 active torsions:
REMARK  status: ('A' for Active; 'I' for Inactive)
REMARK       I    between atoms: C_2  and  N_3 
REMARK    1  A    between atoms: N_3  and  C_4 
REMARK    2  A    between atoms: C_7  and  C_8 
REMARK    3  A    between atoms: C_12  and  N_13 
REMARK    4  A    between atoms: C_20  and  C_21 
ROOT
HETATM    1  C   UNL     1      -9.585   2.592 -34.490  1.00  0.00     0.105 C 
HETATM    2  C   UNL     1     -10.744   3.562 -34.725  1.00  0.00     0.067 C 
HETATM    3  C   UNL     1     -10.412   4.987 -35.135  1.00  0.00     0.020 C 
HETATM    4  N   UNL     1     -10.136   6.170 -35.476  1.00  0.00    -0.096 N 
HETATM    5  C   UNL     1     -12.048   3.217 -34.551  1.00  0.00     0.139 C 
HETATM    6  O   UNL     1     -12.419   1.937 -34.108  1.00  0.00    -0.279 OA
HETATM    7  C   UNL     1     -11.431   1.147 -33.705  1.00  0.00     0.175 A 
HETATM    8  C   UNL     1     -10.076   1.357 -33.799  1.00  0.00     0.040 A 
HETATM    9  N   UNL     1     -11.614  -0.028 -33.059  1.00  0.00    -0.256 N 
HETATM   10  H   UNL     1     -12.486  -0.482 -32.814  1.00  0.00     0.191 HD
HETATM   11  N   UNL     1     -10.458  -0.600 -32.685  1.00  0.00    -0.172 NA
HETATM   12  C   UNL     1      -9.498   0.240 -33.125  1.00  0.00     0.099 A 
ENDROOT
BRANCH   1  13
HETATM   13  C   UNL     1      -8.424   3.166 -33.699  1.00  0.00    -0.044 A 
HETATM   14  C   UNL     1      -8.568   3.784 -32.448  1.00  0.00     0.010 A 
HETATM   15  C   UNL     1      -7.448   4.225 -31.729  1.00  0.00     0.030 A 
HETATM   16  C   UNL     1      -6.164   4.084 -32.257  1.00  0.00     0.034 A 
HETATM   17  C   UNL     1      -6.019   3.530 -33.532  1.00  0.00     0.030 A 
HETATM   18  C   UNL     1      -7.132   3.080 -34.245  1.00  0.00     0.010 A 
BRANCH  16  19
HETATM   19  N   UNL     1      -4.979   4.445 -31.583  1.00  0.00    -0.328 N 
HETATM   20  C   UNL     1      -4.176   5.544 -31.819  1.00  0.00     0.218 C 
HETATM   21  C   UNL     1      -3.036   5.645 -30.834  1.00  0.00     0.117 C 
HETATM   22  O   UNL     1      -4.334   6.403 -32.680  1.00  0.00    -0.274 OA
HETATM   23  H   UNL     1      -4.720   3.853 -30.804  1.00  0.00     0.169 HD
ENDBRANCH  16  19
ENDBRANCH   1  13
BRANCH   5  24
HETATM   24  N   UNL     1     -13.131   4.038 -34.764  1.00  0.00    -0.282 NA
HETATM   25  H   UNL     1     -13.007   4.775 -35.453  1.00  0.00     0.126 HD
HETATM   26  H   UNL     1     -13.995   3.516 -34.884  1.00  0.00     0.126 HD
ENDBRANCH   5  24
BRANCH  12  27
HETATM   27  C   UNL     1      -8.098  -0.036 -32.820  1.00  0.00    -0.005 A 
HETATM   28  C   UNL     1      -7.252  -0.643 -33.753  1.00  0.00     0.014 A 
HETATM   29  C   UNL     1      -5.904  -0.853 -33.445  1.00  0.00     0.001 A 
HETATM   30  C   UNL     1      -5.399  -0.465 -32.204  1.00  0.00     0.000 A 
HETATM   31  C   UNL     1      -6.239   0.125 -31.263  1.00  0.00     0.001 A 
HETATM   32  C   UNL     1      -7.584   0.334 -31.568  1.00  0.00     0.014 A 
ENDBRANCH  12  27
TORSDOF 4
ENDMDL
MODEL 6
REMARK VINA RESULT:      -7.9      2.299      7.250
REMARK  4 active torsions:
REMARK  status: ('A' for Active; 'I' for Inactive)
REMARK       I    between atoms: C_2  and  N_3 
REMARK    1  A    between atoms: N_3  and  C_4 
REMARK    2  A    between atoms: C_7  and  C_8 
REMARK    3  A    between atoms: C_12  and  N_13 
REMARK    4  A    between atoms: C_20  and  C_21 
ROOT
HETATM    1  C   UNL     1      -7.458   3.641 -31.743  1.00  0.00     0.105 C 
HETATM    2  C   UNL     1      -7.635   4.613 -30.576  1.00  0.00     0.067 C 
HETATM    3  C   UNL     1      -6.392   5.081 -29.839  1.00  0.00     0.020 C 
HETATM    4  N   UNL     1      -5.359   5.469 -29.227  1.00  0.00    -0.096 N 
HETATM    5  C   UNL     1      -8.852   5.047 -30.150  1.00  0.00     0.139 C 
HETATM    6  O   UNL     1     -10.043   4.602 -30.744  1.00  0.00    -0.279 OA
HETATM    7  C   UNL     1      -9.926   3.610 -31.619  1.00  0.00     0.175 A 
HETATM    8  C   UNL     1      -8.780   3.055 -32.135  1.00  0.00     0.040 A 
HETATM    9  N   UNL     1     -10.973   2.920 -32.129  1.00  0.00    -0.256 N 
HETATM   10  H   UNL     1     -11.962   3.057 -31.955  1.00  0.00     0.191 HD
HETATM   11  N   UNL     1     -10.590   1.913 -32.931  1.00  0.00    -0.172 NA
HETATM   12  C   UNL     1      -9.243   1.974 -32.943  1.00  0.00     0.099 A 
ENDROOT
BRANCH   1  13
HETATM   13  C   UNL     1      -6.477   2.511 -31.489  1.00  0.00    -0.044 A 
HETATM   14  C   UNL     1      -6.588   1.616 -30.413  1.00  0.00     0.010 A 
HETATM   15  C   UNL     1      -5.697   0.544 -30.275  1.00  0.00     0.030 A 
HETATM   16  C   UNL     1      -4.660   0.358 -31.189  1.00  0.00     0.034 A 
HETATM   17  C   UNL     1      -4.503   1.285 -32.224  1.00  0.00     0.030 A 
HETATM   18  C   UNL     1      -5.396   2.349 -32.371  1.00  0.00     0.010 A 
BRANCH  16  19
HETATM   19  N   UNL     1      -3.753  -0.721 -31.162  1.00  0.00    -0.328 N 
HETATM   20  C   UNL     1      -3.696  -1.797 -32.027  1.00  0.00     0.218 C 
HETATM   21  C   UNL     1      -2.529  -2.709 -31.733  1.00  0.00     0.117 C 
HETATM   22  O   UNL     1      -4.445  -2.028 -32.970  1.00  0.00    -0.274 OA
HETATM   23  H   UNL     1      -3.031  -0.669 -30.455  1.00  0.00     0.169 HD
ENDBRANCH  16  19
ENDBRANCH   1  13
BRANCH   5  24
HETATM   24  N   UNL     1      -9.073   5.933 -29.121  1.00  0.00    -0.282 NA
HETATM   25  H   UNL     1      -9.921   5.790 -28.578  1.00  0.00     0.126 HD
HETATM   26  H   UNL     1      -8.246   6.073 -28.546  1.00  0.00     0.126 HD
ENDBRANCH   5  24
BRANCH  12  27
HETATM   27  C   UNL     1      -8.478   0.963 -33.664  1.00  0.00    -0.005 A 
HETATM   28  C   UNL     1      -7.834   1.255 -34.871  1.00  0.00     0.014 A 
HETATM   29  C   UNL     1      -7.072   0.275 -35.516  1.00  0.00     0.001 A 
HETATM   30  C   UNL     1      -6.955  -1.000 -34.962  1.00  0.00     0.000 A 
HETATM   31  C   UNL     1      -7.607  -1.304 -33.769  1.00  0.00     0.001 A 
HETATM   32  C   UNL     1      -8.368  -0.328 -33.126  1.00  0.00     0.014 A 
ENDBRANCH  12  27
TORSDOF 4
ENDMDL
MODEL 7
REMARK VINA RESULT:      -7.8      2.451      6.421
REMARK  4 active torsions:
REMARK  status: ('A' for Active; 'I' for Inactive)
REMARK       I    between atoms: C_2  and  N_3 
REMARK    1  A    between atoms: N_3  and  C_4 
REMARK    2  A    between atoms: C_7  and  C_8 
REMARK    3  A    between atoms: C_12  and  N_13 
REMARK    4  A    between atoms: C_20  and  C_21 
ROOT
HETATM    1  C   UNL     1      -7.141   3.468 -32.101  1.00  0.00     0.105 C 
HETATM    2  C   UNL     1      -6.017   3.575 -31.069  1.00  0.00     0.067 C 
HETATM    3  C   UNL     1      -4.657   3.003 -31.431  1.00  0.00     0.020 C 
HETATM    4  N   UNL     1      -3.527   2.528 -31.731  1.00  0.00    -0.096 N 
HETATM    5  C   UNL     1      -6.191   4.126 -29.837  1.00  0.00     0.139 C 
HETATM    6  O   UNL     1      -7.438   4.611 -29.416  1.00  0.00    -0.279 OA
HETATM    7  C   UNL     1      -8.469   4.347 -30.211  1.00  0.00     0.175 A 
HETATM    8  C   UNL     1      -8.459   3.789 -31.466  1.00  0.00     0.040 A 
HETATM    9  N   UNL     1      -9.762   4.552 -29.870  1.00  0.00    -0.256 N 
HETATM   10  H   UNL     1     -10.133   4.941 -29.011  1.00  0.00     0.191 HD
HETATM   11  N   UNL     1     -10.621   4.131 -30.813  1.00  0.00    -0.172 NA
HETATM   12  C   UNL     1      -9.839   3.651 -31.802  1.00  0.00     0.099 A 
ENDROOT
BRANCH   1  13
HETATM   13  C   UNL     1      -7.245   2.122 -32.793  1.00  0.00    -0.044 A 
HETATM   14  C   UNL     1      -7.204   1.961 -34.186  1.00  0.00     0.010 A 
HETATM   15  C   UNL     1      -7.227   0.685 -34.765  1.00  0.00     0.030 A 
HETATM   16  C   UNL     1      -7.319  -0.456 -33.967  1.00  0.00     0.034 A 
HETATM   17  C   UNL     1      -7.429  -0.300 -32.582  1.00  0.00     0.030 A 
HETATM   18  C   UNL     1      -7.396   0.970 -32.002  1.00  0.00     0.010 A 
BRANCH  16  19
HETATM   19  N   UNL     1      -7.290  -1.779 -34.456  1.00  0.00    -0.328 N 
HETATM   20  C   UNL     1      -6.191  -2.604 -34.591  1.00  0.00     0.218 C 
HETATM   21  C   UNL     1      -6.566  -3.987 -35.068  1.00  0.00     0.117 C 
HETATM   22  O   UNL     1      -5.024  -2.330 -34.331  1.00  0.00    -0.274 OA
HETATM   23  H   UNL     1      -8.190  -2.180 -34.684  1.00  0.00     0.169 HD
ENDBRANCH  16  19
ENDBRANCH   1  13
BRANCH   5  24
HETATM   24  N   UNL     1      -5.216   4.266 -28.877  1.00  0.00    -0.282 NA
HETATM   25  H   UNL     1      -5.389   4.965 -28.159  1.00  0.00     0.126 HD
HETATM   26  H   UNL     1      -4.908   3.372 -28.503  1.00  0.00     0.126 HD
ENDBRANCH   5  24
BRANCH  12  27
HETATM   27  C   UNL     1     -10.451   3.030 -32.972  1.00  0.00    -0.005 A 
HETATM   28  C   UNL     1     -10.814   1.679 -32.977  1.00  0.00     0.014 A 
HETATM   29  C   UNL     1     -11.439   1.125 -34.099  1.00  0.00     0.001 A 
HETATM   30  C   UNL     1     -11.696   1.914 -35.221  1.00  0.00     0.000 A 
HETATM   31  C   UNL     1     -11.322   3.256 -35.230  1.00  0.00     0.001 A 
HETATM   32  C   UNL     1     -10.698   3.810 -34.112  1.00  0.00     0.014 A 
ENDBRANCH  12  27
TORSDOF 4
ENDMDL
MODEL 8
REMARK VINA RESULT:      -7.8      2.650      5.530
REMARK  4 active torsions:
REMARK  status: ('A' for Active; 'I' for Inactive)
REMARK       I    between atoms: C_2  and  N_3 
REMARK    1  A    between atoms: N_3  and  C_4 
REMARK    2  A    between atoms: C_7  and  C_8 
REMARK    3  A    between atoms: C_12  and  N_13 
REMARK    4  A    between atoms: C_20  and  C_21 
ROOT
HETATM    1  C   UNL     1      -6.205   0.096 -32.428  1.00  0.00     0.105 C 
HETATM    2  C   UNL     1      -5.434  -1.067 -33.054  1.00  0.00     0.067 C 
HETATM    3  C   UNL     1      -4.108  -1.464 -32.429  1.00  0.00     0.020 C 
HETATM    4  N   UNL     1      -3.007  -1.795 -31.910  1.00  0.00    -0.096 N 
HETATM    5  C   UNL     1      -5.864  -1.732 -34.160  1.00  0.00     0.139 C 
HETATM    6  O   UNL     1      -7.046  -1.371 -34.825  1.00  0.00    -0.279 OA
HETATM    7  C   UNL     1      -7.624  -0.245 -34.423  1.00  0.00     0.175 A 
HETATM    8  C   UNL     1      -7.303   0.543 -33.344  1.00  0.00     0.040 A 
HETATM    9  N   UNL     1      -8.641   0.362 -35.078  1.00  0.00    -0.256 N 
HETATM   10  H   UNL     1      -9.117   0.059 -35.920  1.00  0.00     0.191 HD
HETATM   11  N   UNL     1      -8.997   1.529 -34.517  1.00  0.00    -0.172 NA
HETATM   12  C   UNL     1      -8.180   1.663 -33.452  1.00  0.00     0.099 A 
ENDROOT
BRANCH   1  13
HETATM   13  C   UNL     1      -5.357   1.299 -32.058  1.00  0.00    -0.044 A 
HETATM   14  C   UNL     1      -4.488   1.940 -32.954  1.00  0.00     0.010 A 
HETATM   15  C   UNL     1      -3.789   3.095 -32.577  1.00  0.00     0.030 A 
HETATM   16  C   UNL     1      -3.920   3.617 -31.290  1.00  0.00     0.034 A 
HETATM   17  C   UNL     1      -4.731   2.944 -30.371  1.00  0.00     0.030 A 
HETATM   18  C   UNL     1      -5.437   1.800 -30.748  1.00  0.00     0.010 A 
BRANCH  16  19
HETATM   19  N   UNL     1      -3.302   4.802 -30.841  1.00  0.00    -0.328 N 
HETATM   20  C   UNL     1      -1.972   5.159 -30.965  1.00  0.00     0.218 C 
HETATM   21  C   UNL     1      -1.700   6.548 -30.439  1.00  0.00     0.117 C 
HETATM   22  O   UNL     1      -1.073   4.496 -31.470  1.00  0.00    -0.274 OA
HETATM   23  H   UNL     1      -3.919   5.488 -30.427  1.00  0.00     0.169 HD
ENDBRANCH  16  19
ENDBRANCH   1  13
BRANCH   5  24
HETATM   24  N   UNL     1      -5.225  -2.795 -34.756  1.00  0.00    -0.282 NA
HETATM   25  H   UNL     1      -4.703  -2.588 -35.603  1.00  0.00     0.126 HD
HETATM   26  H   UNL     1      -4.702  -3.357 -34.088  1.00  0.00     0.126 HD
ENDBRANCH   5  24
BRANCH  12  27
HETATM   27  C   UNL     1      -8.238   2.876 -32.643  1.00  0.00    -0.005 A 
HETATM   28  C   UNL     1      -8.911   2.907 -31.417  1.00  0.00     0.014 A 
HETATM   29  C   UNL     1      -8.910   4.073 -30.645  1.00  0.00     0.001 A 
HETATM   30  C   UNL     1      -8.244   5.213 -31.096  1.00  0.00     0.000 A 
HETATM   31  C   UNL     1      -7.585   5.196 -32.324  1.00  0.00     0.001 A 
HETATM   32  C   UNL     1      -7.586   4.034 -33.095  1.00  0.00     0.014 A 
ENDBRANCH  12  27
TORSDOF 4
ENDMDL
MODEL 9
REMARK VINA RESULT:      -7.5      2.940      5.912
REMARK  4 active torsions:
REMARK  status: ('A' for Active; 'I' for Inactive)
REMARK       I    between atoms: C_2  and  N_3 
REMARK    1  A    between atoms: N_3  and  C_4 
REMARK    2  A    between atoms: C_7  and  C_8 
REMARK    3  A    between atoms: C_12  and  N_13 
REMARK    4  A    between atoms: C_20  and  C_21 
ROOT
HETATM    1  C   UNL     1      -6.332   1.115 -31.822  1.00  0.00     0.105 C 
HETATM    2  C   UNL     1      -6.195  -0.071 -32.778  1.00  0.00     0.067 C 
HETATM    3  C   UNL     1      -4.797  -0.503 -33.185  1.00  0.00     0.020 C 
HETATM    4  N   UNL     1      -3.635  -0.863 -33.523  1.00  0.00    -0.096 N 
HETATM    5  C   UNL     1      -7.264  -0.728 -33.303  1.00  0.00     0.139 C 
HETATM    6  O   UNL     1      -8.582  -0.337 -33.021  1.00  0.00    -0.279 OA
HETATM    7  C   UNL     1      -8.725   0.807 -32.361  1.00  0.00     0.175 A 
HETATM    8  C   UNL     1      -7.753   1.589 -31.786  1.00  0.00     0.040 A 
HETATM    9  N   UNL     1      -9.908   1.439 -32.185  1.00  0.00    -0.256 N 
HETATM   10  H   UNL     1     -10.829   1.147 -32.491  1.00  0.00     0.191 HD
HETATM   11  N   UNL     1      -9.778   2.618 -31.555  1.00  0.00    -0.172 NA
HETATM   12  C   UNL     1      -8.458   2.733 -31.305  1.00  0.00     0.099 A 
ENDROOT
BRANCH   1  13
HETATM   13  C   UNL     1      -5.430   2.295 -32.135  1.00  0.00    -0.044 A 
HETATM   14  C   UNL     1      -5.520   3.046 -33.317  1.00  0.00     0.010 A 
HETATM   15  C   UNL     1      -4.711   4.174 -33.516  1.00  0.00     0.030 A 
HETATM   16  C   UNL     1      -3.778   4.558 -32.553  1.00  0.00     0.034 A 
HETATM   17  C   UNL     1      -3.636   3.774 -31.404  1.00  0.00     0.030 A 
HETATM   18  C   UNL     1      -4.448   2.656 -31.198  1.00  0.00     0.010 A 
BRANCH  16  19
HETATM   19  N   UNL     1      -2.964   5.707 -32.641  1.00  0.00    -0.328 N 
HETATM   20  C   UNL     1      -1.885   5.914 -33.479  1.00  0.00     0.218 C 
HETATM   21  C   UNL     1      -1.316   7.306 -33.348  1.00  0.00     0.117 C 
HETATM   22  O   UNL     1      -1.417   5.123 -34.290  1.00  0.00    -0.274 OA
HETATM   23  H   UNL     1      -3.240   6.485 -32.056  1.00  0.00     0.169 HD
ENDBRANCH  16  19
ENDBRANCH   1  13
BRANCH   5  24
HETATM   24  N   UNL     1      -7.203  -1.810 -34.151  1.00  0.00    -0.282 NA
HETATM   25  H   UNL     1      -7.109  -1.600 -35.141  1.00  0.00     0.126 HD
HETATM   26  H   UNL     1      -6.553  -2.521 -33.826  1.00  0.00     0.126 HD
ENDBRANCH   5  24
BRANCH  12  27
HETATM   27  C   UNL     1      -7.940   3.950 -30.689  1.00  0.00    -0.005 A 
HETATM   28  C   UNL     1      -7.448   3.954 -29.380  1.00  0.00     0.014 A 
HETATM   29  C   UNL     1      -6.918   5.128 -28.833  1.00  0.00     0.001 A 
HETATM   30  C   UNL     1      -6.883   6.300 -29.589  1.00  0.00     0.000 A 
HETATM   31  C   UNL     1      -7.387   6.308 -30.888  1.00  0.00     0.001 A 
HETATM   32  C   UNL     1      -7.917   5.139 -31.433  1.00  0.00     0.014 A 
ENDBRANCH  12  27
TORSDOF 4
ENDMDL
MODEL 10
REMARK VINA RESULT:      -7.5     14.404     16.402
REMARK  4 active torsions:
REMARK  status: ('A' for Active; 'I' for Inactive)
REMARK       I    between atoms: C_2  and  N_3 
REMARK    1  A    between atoms: N_3  and  C_4 
REMARK    2  A    between atoms: C_7  and  C_8 
REMARK    3  A    between atoms: C_12  and  N_13 
REMARK    4  A    between atoms: C_20  and  C_21 
ROOT
HETATM    1  C   UNL     1      -4.596 -13.105 -38.141  1.00  0.00     0.105 C 
HETATM    2  C   UNL     1      -3.193 -13.467 -37.652  1.00  0.00     0.067 C 
HETATM    3  C   UNL     1      -2.053 -13.427 -38.655  1.00  0.00     0.020 C 
HETATM    4  N   UNL     1      -1.107 -13.394 -39.488  1.00  0.00    -0.096 N 
HETATM    5  C   UNL     1      -2.930 -13.854 -36.375  1.00  0.00     0.139 C 
HETATM    6  O   UNL     1      -3.948 -13.977 -35.416  1.00  0.00    -0.279 OA
HETATM    7  C   UNL     1      -5.193 -13.865 -35.866  1.00  0.00     0.175 A 
HETATM    8  C   UNL     1      -5.619 -13.499 -37.120  1.00  0.00     0.040 A 
HETATM    9  N   UNL     1      -6.293 -14.158 -35.135  1.00  0.00    -0.256 N 
HETATM   10  H   UNL     1      -6.344 -14.469 -34.172  1.00  0.00     0.191 HD
HETATM   11  N   UNL     1      -7.430 -14.042 -35.839  1.00  0.00    -0.172 NA
HETATM   12  C   UNL     1      -7.037 -13.643 -37.067  1.00  0.00     0.099 A 
ENDROOT
BRANCH   1  13
HETATM   13  C   UNL     1      -4.981 -13.710 -39.478  1.00  0.00    -0.044 A 
HETATM   14  C   UNL     1      -5.271 -12.946 -40.620  1.00  0.00     0.010 A 
HETATM   15  C   UNL     1      -5.544 -13.564 -41.848  1.00  0.00     0.030 A 
HETATM   16  C   UNL     1      -5.562 -14.954 -41.957  1.00  0.00     0.034 A 
HETATM   17  C   UNL     1      -5.342 -15.720 -40.809  1.00  0.00     0.030 A 
HETATM   18  C   UNL     1      -5.059 -15.108 -39.586  1.00  0.00     0.010 A 
BRANCH  16  19
HETATM   19  N   UNL     1      -5.771 -15.660 -43.160  1.00  0.00    -0.328 N 
HETATM   20  C   UNL     1      -4.925 -15.736 -44.250  1.00  0.00     0.218 C 
HETATM   21  C   UNL     1      -5.451 -16.661 -45.321  1.00  0.00     0.117 C 
HETATM   22  O   UNL     1      -3.840 -15.181 -44.385  1.00  0.00    -0.274 OA
HETATM   23  H   UNL     1      -6.616 -16.213 -43.202  1.00  0.00     0.169 HD
ENDBRANCH  16  19
ENDBRANCH   1  13
BRANCH   5  24
HETATM   24  N   UNL     1      -1.689 -14.174 -35.873  1.00  0.00    -0.282 NA
HETATM   25  H   UNL     1      -0.907 -14.085 -36.517  1.00  0.00     0.126 HD
HETATM   26  H   UNL     1      -1.515 -13.746 -34.967  1.00  0.00     0.126 HD
ENDBRANCH   5  24
BRANCH  12  27
HETATM   27  C   UNL     1      -8.025 -13.490 -38.130  1.00  0.00    -0.005 A 
HETATM   28  C   UNL     1      -8.248 -12.256 -38.749  1.00  0.00     0.014 A 
HETATM   29  C   UNL     1      -9.170 -12.152 -39.795  1.00  0.00     0.001 A 
HETATM   30  C   UNL     1      -9.877 -13.276 -40.221  1.00  0.00     0.000 A 
HETATM   31  C   UNL     1      -9.674 -14.506 -39.599  1.00  0.00     0.001 A 
HETATM   32  C   UNL     1      -8.755 -14.610 -38.555  1.00  0.00     0.014 A 
ENDBRANCH  12  27
TORSDOF 4
ENDMDL
