MODEL 1
REMARK VINA RESULT:      -8.7      0.000      0.000
REMARK  5 active torsions:
REMARK  status: ('A' for Active; 'I' for Inactive)
REMARK    1  A    between atoms: C_2  and  N_3 
REMARK    2  A    between atoms: C_2  and  C_14 
REMARK       I    between atoms: N_3  and  C_4 
REMARK       I    between atoms: C_4  and  N_5 
REMARK    3  A    between atoms: N_5  and  C_6 
REMARK    4  A    between atoms: C_6  and  C_7 
REMARK    5  A    between atoms: C_16  and  C_17 
ROOT
HETATM    1  C   UNL     1      -6.196   3.530 -31.096  1.00  0.00     0.041 C 
HETATM    2  C   UNL     1      -5.346   3.349 -32.353  1.00  0.00     0.153 C 
ENDROOT
BRANCH   2   3
HETATM    3  N   UNL     1      -5.153   1.945 -32.657  1.00  0.00    -0.332 N 
HETATM    4  C   UNL     1      -5.953   1.306 -33.560  1.00  0.00     0.317 C 
HETATM    5  N   UNL     1      -5.718  -0.039 -33.593  1.00  0.00    -0.339 N 
HETATM    6  O   UNL     1      -6.786   1.878 -34.250  1.00  0.00    -0.247 OA
HETATM    7  H   UNL     1      -4.804  -0.345 -33.297  1.00  0.00     0.164 HD
HETATM    8  H   UNL     1      -4.695   1.392 -31.946  1.00  0.00     0.165 HD
BRANCH   5   9
HETATM    9  C   UNL     1      -6.397  -0.868 -34.561  1.00  0.00     0.162 C 
BRANCH   9  10
HETATM   10  C   UNL     1      -5.893  -2.286 -34.511  1.00  0.00    -0.040 A 
HETATM   11  C   UNL     1      -6.735  -3.344 -34.889  1.00  0.00     0.009 A 
HETATM   12  C   UNL     1      -6.276  -4.661 -34.862  1.00  0.00     0.001 A 
HETATM   13  C   UNL     1      -4.972  -4.934 -34.456  1.00  0.00     0.000 A 
HETATM   14  C   UNL     1      -4.127  -3.894 -34.073  1.00  0.00     0.001 A 
HETATM   15  C   UNL     1      -4.586  -2.574 -34.099  1.00  0.00     0.009 A 
ENDBRANCH   9  10
ENDBRANCH   5   9
ENDBRANCH   2   3
BRANCH   2  16
HETATM   16  C   UNL     1      -3.998   3.962 -32.172  1.00  0.00     0.145 A 
HETATM   17  N   UNL     1      -3.558   4.710 -31.179  1.00  0.00    -0.210 NA
HETATM   18  C   UNL     1      -2.255   4.993 -31.534  1.00  0.00     0.181 A 
HETATM   19  N   UNL     1      -1.886   4.453 -32.707  1.00  0.00    -0.152 NA
HETATM   20  N   UNL     1      -2.995   3.803 -33.080  1.00  0.00    -0.261 N 
HETATM   21  H   UNL     1      -2.996   3.281 -33.950  1.00  0.00     0.190 HD
BRANCH  18  22
HETATM   22  C   UNL     1      -1.373   5.804 -30.697  1.00  0.00     0.014 A 
HETATM   23  C   UNL     1      -1.701   7.137 -30.404  1.00  0.00     0.017 A 
HETATM   24  C   UNL     1      -0.865   7.914 -29.596  1.00  0.00     0.025 A 
HETATM   25  C   UNL     1       0.305   7.365 -29.078  1.00  0.00     0.034 A 
HETATM   26 CL   UNL     1       1.332   8.321 -28.083  1.00  0.00    -0.084 Cl
HETATM   27  C   UNL     1       0.648   6.045 -29.360  1.00  0.00     0.025 A 
HETATM   28  C   UNL     1      -0.189   5.267 -30.167  1.00  0.00     0.017 A 
ENDBRANCH  18  22
ENDBRANCH   2  16
TORSDOF 5
ENDMDL
MODEL 2
REMARK VINA RESULT:      -8.6      1.893      3.131
REMARK  5 active torsions:
REMARK  status: ('A' for Active; 'I' for Inactive)
REMARK    1  A    between atoms: C_2  and  N_3 
REMARK    2  A    between atoms: C_2  and  C_14 
REMARK       I    between atoms: N_3  and  C_4 
REMARK       I    between atoms: C_4  and  N_5 
REMARK    3  A    between atoms: N_5  and  C_6 
REMARK    4  A    between atoms: C_6  and  C_7 
REMARK    5  A    between atoms: C_16  and  C_17 
ROOT
HETATM    1  C   UNL     1      -1.971   4.868 -34.000  1.00  0.00     0.041 C 
HETATM    2  C   UNL     1      -2.198   4.172 -32.659  1.00  0.00     0.153 C 
ENDROOT
BRANCH   2   3
HETATM    3  N   UNL     1      -3.546   3.649 -32.561  1.00  0.00    -0.332 N 
HETATM    4  C   UNL     1      -3.779   2.395 -32.073  1.00  0.00     0.317 C 
HETATM    5  N   UNL     1      -5.087   2.027 -32.207  1.00  0.00    -0.339 N 
HETATM    6  O   UNL     1      -2.910   1.688 -31.581  1.00  0.00    -0.247 OA
HETATM    7  H   UNL     1      -5.764   2.772 -32.259  1.00  0.00     0.164 HD
HETATM    8  H   UNL     1      -4.230   4.055 -33.184  1.00  0.00     0.165 HD
BRANCH   5   9
HETATM    9  C   UNL     1      -5.545   0.773 -31.654  1.00  0.00     0.162 C 
BRANCH   9  10
HETATM   10  C   UNL     1      -5.714  -0.266 -32.730  1.00  0.00    -0.040 A 
HETATM   11  C   UNL     1      -4.664  -1.152 -33.022  1.00  0.00     0.009 A 
HETATM   12  C   UNL     1      -4.813  -2.130 -34.006  1.00  0.00     0.001 A 
HETATM   13  C   UNL     1      -6.010  -2.231 -34.710  1.00  0.00     0.000 A 
HETATM   14  C   UNL     1      -7.058  -1.355 -34.434  1.00  0.00     0.001 A 
HETATM   15  C   UNL     1      -6.911  -0.374 -33.450  1.00  0.00     0.009 A 
ENDBRANCH   9  10
ENDBRANCH   5   9
ENDBRANCH   2   3
BRANCH   2  16
HETATM   16  C   UNL     1      -2.001   5.126 -31.529  1.00  0.00     0.145 A 
HETATM   17  N   UNL     1      -0.946   5.281 -30.754  1.00  0.00    -0.210 NA
HETATM   18  C   UNL     1      -1.317   6.292 -29.891  1.00  0.00     0.181 A 
HETATM   19  N   UNL     1      -2.560   6.754 -30.106  1.00  0.00    -0.152 NA
HETATM   20  N   UNL     1      -2.962   6.013 -31.146  1.00  0.00    -0.261 N 
HETATM   21  H   UNL     1      -3.886   6.163 -31.535  1.00  0.00     0.190 HD
BRANCH  18  22
HETATM   22  C   UNL     1      -0.427   6.800 -28.850  1.00  0.00     0.014 A 
HETATM   23  C   UNL     1       0.511   7.801 -29.144  1.00  0.00     0.017 A 
HETATM   24  C   UNL     1       1.359   8.297 -28.149  1.00  0.00     0.025 A 
HETATM   25  C   UNL     1       1.276   7.794 -26.853  1.00  0.00     0.034 A 
HETATM   26 CL   UNL     1       2.318   8.406 -25.628  1.00  0.00    -0.084 Cl
HETATM   27  C   UNL     1       0.352   6.798 -26.543  1.00  0.00     0.025 A 
HETATM   28  C   UNL     1      -0.497   6.304 -27.538  1.00  0.00     0.017 A 
ENDBRANCH  18  22
ENDBRANCH   2  16
TORSDOF 5
ENDMDL
MODEL 3
REMARK VINA RESULT:      -8.6      4.057      8.941
REMARK  5 active torsions:
REMARK  status: ('A' for Active; 'I' for Inactive)
REMARK    1  A    between atoms: C_2  and  N_3 
REMARK    2  A    between atoms: C_2  and  C_14 
REMARK       I    between atoms: N_3  and  C_4 
REMARK       I    between atoms: C_4  and  N_5 
REMARK    3  A    between atoms: N_5  and  C_6 
REMARK    4  A    between atoms: C_6  and  C_7 
REMARK    5  A    between atoms: C_16  and  C_17 
ROOT
HETATM    1  C   UNL     1      -9.901   3.288 -33.724  1.00  0.00     0.041 C 
HETATM    2  C   UNL     1      -8.478   2.965 -33.272  1.00  0.00     0.153 C 
ENDROOT
BRANCH   2   3
HETATM    3  N   UNL     1      -7.545   3.982 -33.711  1.00  0.00    -0.332 N 
HETATM    4  C   UNL     1      -6.683   4.571 -32.831  1.00  0.00     0.317 C 
HETATM    5  N   UNL     1      -5.999   5.608 -33.398  1.00  0.00    -0.339 N 
HETATM    6  O   UNL     1      -6.551   4.211 -31.669  1.00  0.00    -0.247 OA
HETATM    7  H   UNL     1      -5.890   5.584 -34.400  1.00  0.00     0.164 HD
HETATM    8  H   UNL     1      -7.797   4.490 -34.548  1.00  0.00     0.165 HD
BRANCH   5   9
HETATM    9  C   UNL     1      -4.967   6.288 -32.650  1.00  0.00     0.162 C 
BRANCH   9  10
HETATM   10  C   UNL     1      -3.626   6.143 -33.320  1.00  0.00    -0.040 A 
HETATM   11  C   UNL     1      -2.559   6.974 -32.943  1.00  0.00     0.009 A 
HETATM   12  C   UNL     1      -1.308   6.840 -33.544  1.00  0.00     0.001 A 
HETATM   13  C   UNL     1      -1.110   5.875 -34.530  1.00  0.00     0.000 A 
HETATM   14  C   UNL     1      -2.162   5.047 -34.917  1.00  0.00     0.001 A 
HETATM   15  C   UNL     1      -3.416   5.181 -34.316  1.00  0.00     0.009 A 
ENDBRANCH   9  10
ENDBRANCH   5   9
ENDBRANCH   2   3
BRANCH   2  16
HETATM   16  C   UNL     1      -8.027   1.662 -33.841  1.00  0.00     0.145 A 
HETATM   17  N   UNL     1      -7.052   0.875 -33.430  1.00  0.00    -0.210 NA
HETATM   18  C   UNL     1      -7.084  -0.181 -34.318  1.00  0.00     0.181 A 
HETATM   19  N   UNL     1      -8.036  -0.064 -35.259  1.00  0.00    -0.152 NA
HETATM   20  N   UNL     1      -8.619   1.095 -34.929  1.00  0.00    -0.261 N 
HETATM   21  H   UNL     1      -9.401   1.433 -35.481  1.00  0.00     0.190 HD
BRANCH  18  22
HETATM   22  C   UNL     1      -6.163  -1.311 -34.227  1.00  0.00     0.014 A 
HETATM   23  C   UNL     1      -4.978  -1.203 -33.484  1.00  0.00     0.017 A 
HETATM   24  C   UNL     1      -4.097  -2.284 -33.386  1.00  0.00     0.025 A 
HETATM   25  C   UNL     1      -4.395  -3.482 -34.032  1.00  0.00     0.034 A 
HETATM   26 CL   UNL     1      -3.313  -4.814 -33.910  1.00  0.00    -0.084 Cl
HETATM   27  C   UNL     1      -5.567  -3.607 -34.776  1.00  0.00     0.025 A 
HETATM   28  C   UNL     1      -6.447  -2.525 -34.873  1.00  0.00     0.017 A 
ENDBRANCH  18  22
ENDBRANCH   2  16
TORSDOF 5
ENDMDL
MODEL 4
REMARK VINA RESULT:      -8.6      3.652      9.470
REMARK  5 active torsions:
REMARK  status: ('A' for Active; 'I' for Inactive)
REMARK    1  A    between atoms: C_2  and  N_3 
REMARK    2  A    between atoms: C_2  and  C_14 
REMARK       I    between atoms: N_3  and  C_4 
REMARK       I    between atoms: C_4  and  N_5 
REMARK    3  A    between atoms: N_5  and  C_6 
REMARK    4  A    between atoms: C_6  and  C_7 
REMARK    5  A    between atoms: C_16  and  C_17 
ROOT
HETATM    1  C   UNL     1      -6.621   4.220 -30.887  1.00  0.00     0.041 C 
HETATM    2  C   UNL     1      -5.344   3.494 -31.305  1.00  0.00     0.153 C 
ENDROOT
BRANCH   2   3
HETATM    3  N   UNL     1      -4.383   4.414 -31.880  1.00  0.00    -0.332 N 
HETATM    4  C   UNL     1      -3.041   4.225 -31.711  1.00  0.00     0.317 C 
HETATM    5  N   UNL     1      -2.310   5.274 -32.189  1.00  0.00    -0.339 N 
HETATM    6  O   UNL     1      -2.560   3.231 -31.183  1.00  0.00    -0.247 OA
HETATM    7  H   UNL     1      -2.738   5.830 -32.912  1.00  0.00     0.164 HD
HETATM    8  H   UNL     1      -4.715   5.350 -32.067  1.00  0.00     0.165 HD
BRANCH   5   9
HETATM    9  C   UNL     1      -0.867   5.208 -32.190  1.00  0.00     0.162 C 
BRANCH   9  10
HETATM   10  C   UNL     1      -0.297   5.759 -30.910  1.00  0.00    -0.040 A 
HETATM   11  C   UNL     1      -0.373   7.136 -30.643  1.00  0.00     0.009 A 
HETATM   12  C   UNL     1       0.137   7.658 -29.454  1.00  0.00     0.001 A 
HETATM   13  C   UNL     1       0.730   6.810 -28.520  1.00  0.00     0.000 A 
HETATM   14  C   UNL     1       0.817   5.443 -28.775  1.00  0.00     0.001 A 
HETATM   15  C   UNL     1       0.307   4.918 -29.966  1.00  0.00     0.009 A 
ENDBRANCH   9  10
ENDBRANCH   5   9
ENDBRANCH   2   3
BRANCH   2  16
HETATM   16  C   UNL     1      -5.641   2.451 -32.329  1.00  0.00     0.145 A 
HETATM   17  N   UNL     1      -5.373   1.161 -32.295  1.00  0.00    -0.210 NA
HETATM   18  C   UNL     1      -5.866   0.690 -33.495  1.00  0.00     0.181 A 
HETATM   19  N   UNL     1      -6.417   1.645 -34.262  1.00  0.00    -0.152 NA
HETATM   20  N   UNL     1      -6.272   2.738 -33.502  1.00  0.00    -0.261 N 
HETATM   21  H   UNL     1      -6.620   3.628 -33.841  1.00  0.00     0.190 HD
BRANCH  18  22
HETATM   22  C   UNL     1      -5.789  -0.718 -33.876  1.00  0.00     0.014 A 
HETATM   23  C   UNL     1      -6.932  -1.394 -34.329  1.00  0.00     0.017 A 
HETATM   24  C   UNL     1      -6.862  -2.740 -34.703  1.00  0.00     0.025 A 
HETATM   25  C   UNL     1      -5.648  -3.419 -34.626  1.00  0.00     0.034 A 
HETATM   26 CL   UNL     1      -5.561  -5.073 -35.089  1.00  0.00    -0.084 Cl
HETATM   27  C   UNL     1      -4.503  -2.764 -34.176  1.00  0.00     0.025 A 
HETATM   28  C   UNL     1      -4.574  -1.418 -33.803  1.00  0.00     0.017 A 
ENDBRANCH  18  22
ENDBRANCH   2  16
TORSDOF 5
ENDMDL
MODEL 5
REMARK VINA RESULT:      -8.5      6.424      9.330
REMARK  5 active torsions:
REMARK  status: ('A' for Active; 'I' for Inactive)
REMARK    1  A    between atoms: C_2  and  N_3 
REMARK    2  A    between atoms: C_2  and  C_14 
REMARK       I    between atoms: N_3  and  C_4 
REMARK       I    between atoms: C_4  and  N_5 
REMARK    3  A    between atoms: N_5  and  C_6 
REMARK    4  A    between atoms: C_6  and  C_7 
REMARK    5  A    between atoms: C_16  and  C_17 
ROOT
HETATM    1  C   UNL     1      -7.794   4.018 -33.570  1.00  0.00     0.041 C 
HETATM    2  C   UNL     1      -8.290   2.624 -33.191  1.00  0.00     0.153 C 
ENDROOT
BRANCH   2   3
HETATM    3  N   UNL     1      -7.555   1.596 -33.900  1.00  0.00    -0.332 N 
HETATM    4  C   UNL     1      -6.576   0.876 -33.278  1.00  0.00     0.317 C 
HETATM    5  N   UNL     1      -5.898   0.071 -34.147  1.00  0.00    -0.339 N 
HETATM    6  O   UNL     1      -6.337   0.954 -32.080  1.00  0.00    -0.247 OA
HETATM    7  H   UNL     1      -6.388  -0.205 -34.984  1.00  0.00     0.164 HD
HETATM    8  H   UNL     1      -7.517   1.685 -34.906  1.00  0.00     0.165 HD
BRANCH   5   9
HETATM    9  C   UNL     1      -4.893  -0.842 -33.654  1.00  0.00     0.162 C 
BRANCH   9  10
HETATM   10  C   UNL     1      -5.189  -2.256 -34.078  1.00  0.00    -0.040 A 
HETATM   11  C   UNL     1      -4.217  -3.256 -33.916  1.00  0.00     0.009 A 
HETATM   12  C   UNL     1      -4.484  -4.573 -34.291  1.00  0.00     0.001 A 
HETATM   13  C   UNL     1      -5.723  -4.904 -34.834  1.00  0.00     0.000 A 
HETATM   14  C   UNL     1      -6.695  -3.920 -35.005  1.00  0.00     0.001 A 
HETATM   15  C   UNL     1      -6.430  -2.600 -34.631  1.00  0.00     0.009 A 
ENDBRANCH   9  10
ENDBRANCH   5   9
ENDBRANCH   2   3
BRANCH   2  16
HETATM   16  C   UNL     1      -9.733   2.466 -33.533  1.00  0.00     0.145 A 
HETATM   17  N   UNL     1     -10.787   2.620 -32.757  1.00  0.00    -0.210 NA
HETATM   18  C   UNL     1     -11.853   2.349 -33.591  1.00  0.00     0.181 A 
HETATM   19  N   UNL     1     -11.488   2.029 -34.844  1.00  0.00    -0.152 NA
HETATM   20  N   UNL     1     -10.154   2.121 -34.783  1.00  0.00    -0.261 N 
HETATM   21  H   UNL     1      -9.605   1.937 -35.615  1.00  0.00     0.190 HD
BRANCH  18  22
HETATM   22  C   UNL     1     -13.240   2.412 -33.137  1.00  0.00     0.014 A 
HETATM   23  C   UNL     1     -13.667   3.458 -32.305  1.00  0.00     0.017 A 
HETATM   24  C   UNL     1     -14.996   3.528 -31.874  1.00  0.00     0.025 A 
HETATM   25  C   UNL     1     -15.906   2.552 -32.272  1.00  0.00     0.034 A 
HETATM   26 CL   UNL     1     -17.541   2.639 -31.745  1.00  0.00    -0.084 Cl
HETATM   27  C   UNL     1     -15.499   1.505 -33.097  1.00  0.00     0.025 A 
HETATM   28  C   UNL     1     -14.171   1.436 -33.527  1.00  0.00     0.017 A 
ENDBRANCH  18  22
ENDBRANCH   2  16
TORSDOF 5
ENDMDL
MODEL 6
REMARK VINA RESULT:      -8.2      4.834      8.214
REMARK  5 active torsions:
REMARK  status: ('A' for Active; 'I' for Inactive)
REMARK    1  A    between atoms: C_2  and  N_3 
REMARK    2  A    between atoms: C_2  and  C_14 
REMARK       I    between atoms: N_3  and  C_4 
REMARK       I    between atoms: C_4  and  N_5 
REMARK    3  A    between atoms: N_5  and  C_6 
REMARK    4  A    between atoms: C_6  and  C_7 
REMARK    5  A    between atoms: C_16  and  C_17 
ROOT
HETATM    1  C   UNL     1      -4.932   4.207 -30.573  1.00  0.00     0.041 C 
HETATM    2  C   UNL     1      -5.413   3.848 -31.978  1.00  0.00     0.153 C 
ENDROOT
BRANCH   2   3
HETATM    3  N   UNL     1      -6.858   3.918 -32.070  1.00  0.00    -0.332 N 
HETATM    4  C   UNL     1      -7.467   4.409 -33.189  1.00  0.00     0.317 C 
HETATM    5  N   UNL     1      -8.816   4.540 -33.024  1.00  0.00    -0.339 N 
HETATM    6  O   UNL     1      -6.865   4.703 -34.213  1.00  0.00    -0.247 OA
HETATM    7  H   UNL     1      -9.247   3.944 -32.334  1.00  0.00     0.164 HD
HETATM    8  H   UNL     1      -7.361   3.956 -31.195  1.00  0.00     0.165 HD
BRANCH   5   9
HETATM    9  C   UNL     1      -9.644   4.948 -34.135  1.00  0.00     0.162 C 
BRANCH   9  10
HETATM   10  C   UNL     1     -10.567   3.838 -34.562  1.00  0.00    -0.040 A 
HETATM   11  C   UNL     1     -10.461   2.570 -33.968  1.00  0.00     0.009 A 
HETATM   12  C   UNL     1     -11.320   1.537 -34.343  1.00  0.00     0.001 A 
HETATM   13  C   UNL     1     -12.292   1.759 -35.316  1.00  0.00     0.000 A 
HETATM   14  C   UNL     1     -12.404   3.011 -35.917  1.00  0.00     0.001 A 
HETATM   15  C   UNL     1     -11.544   4.047 -35.544  1.00  0.00     0.009 A 
ENDBRANCH   9  10
ENDBRANCH   5   9
ENDBRANCH   2   3
BRANCH   2  16
HETATM   16  C   UNL     1      -5.004   2.460 -32.337  1.00  0.00     0.145 A 
HETATM   17  N   UNL     1      -5.713   1.516 -32.924  1.00  0.00    -0.210 NA
HETATM   18  C   UNL     1      -4.839   0.450 -33.005  1.00  0.00     0.181 A 
HETATM   19  N   UNL     1      -3.628   0.706 -32.483  1.00  0.00    -0.152 NA
HETATM   20  N   UNL     1      -3.755   1.977 -32.082  1.00  0.00    -0.261 N 
HETATM   21  H   UNL     1      -2.965   2.443 -31.649  1.00  0.00     0.190 HD
BRANCH  18  22
HETATM   22  C   UNL     1      -5.213  -0.827 -33.608  1.00  0.00     0.014 A 
HETATM   23  C   UNL     1      -6.532  -1.052 -34.033  1.00  0.00     0.017 A 
HETATM   24  C   UNL     1      -6.893  -2.269 -34.618  1.00  0.00     0.025 A 
HETATM   25  C   UNL     1      -5.940  -3.271 -34.780  1.00  0.00     0.034 A 
HETATM   26 CL   UNL     1      -6.384  -4.768 -35.502  1.00  0.00    -0.084 Cl
HETATM   27  C   UNL     1      -4.626  -3.066 -34.362  1.00  0.00     0.025 A 
HETATM   28  C   UNL     1      -4.265  -1.848 -33.778  1.00  0.00     0.017 A 
ENDBRANCH  18  22
ENDBRANCH   2  16
TORSDOF 5
ENDMDL
MODEL 7
REMARK VINA RESULT:      -8.2      5.567      8.626
REMARK  5 active torsions:
REMARK  status: ('A' for Active; 'I' for Inactive)
REMARK    1  A    between atoms: C_2  and  N_3 
REMARK    2  A    between atoms: C_2  and  C_14 
REMARK       I    between atoms: N_3  and  C_4 
REMARK       I    between atoms: C_4  and  N_5 
REMARK    3  A    between atoms: N_5  and  C_6 
REMARK    4  A    between atoms: C_6  and  C_7 
REMARK    5  A    between atoms: C_16  and  C_17 
ROOT
HETATM    1  C   UNL     1      -6.934   3.051 -30.064  1.00  0.00     0.041 C 
HETATM    2  C   UNL     1      -7.664   3.145 -31.403  1.00  0.00     0.153 C 
ENDROOT
BRANCH   2   3
HETATM    3  N   UNL     1      -9.083   2.897 -31.245  1.00  0.00    -0.332 N 
HETATM    4  C   UNL     1     -10.002   3.570 -31.998  1.00  0.00     0.317 C 
HETATM    5  N   UNL     1     -11.281   3.315 -31.596  1.00  0.00    -0.339 N 
HETATM    6  O   UNL     1      -9.703   4.319 -32.919  1.00  0.00    -0.247 OA
HETATM    7  H   UNL     1     -11.439   2.441 -31.119  1.00  0.00     0.164 HD
HETATM    8  H   UNL     1      -9.376   2.523 -30.352  1.00  0.00     0.165 HD
BRANCH   5   9
HETATM    9  C   UNL     1     -12.394   3.858 -32.339  1.00  0.00     0.162 C 
BRANCH   9  10
HETATM   10  C   UNL     1     -13.222   2.762 -32.956  1.00  0.00    -0.040 A 
HETATM   11  C   UNL     1     -12.679   1.958 -33.971  1.00  0.00     0.009 A 
HETATM   12  C   UNL     1     -13.430   0.929 -34.540  1.00  0.00     0.001 A 
HETATM   13  C   UNL     1     -14.732   0.694 -34.103  1.00  0.00     0.000 A 
HETATM   14  C   UNL     1     -15.285   1.488 -33.099  1.00  0.00     0.001 A 
HETATM   15  C   UNL     1     -14.534   2.520 -32.529  1.00  0.00     0.009 A 
ENDBRANCH   9  10
ENDBRANCH   5   9
ENDBRANCH   2   3
BRANCH   2  16
HETATM   16  C   UNL     1      -7.133   2.137 -32.365  1.00  0.00     0.145 A 
HETATM   17  N   UNL     1      -6.521   0.997 -32.113  1.00  0.00    -0.210 NA
HETATM   18  C   UNL     1      -6.255   0.482 -33.366  1.00  0.00     0.181 A 
HETATM   19  N   UNL     1      -6.674   1.268 -34.371  1.00  0.00    -0.152 NA
HETATM   20  N   UNL     1      -7.231   2.294 -33.715  1.00  0.00    -0.261 N 
HETATM   21  H   UNL     1      -7.651   3.052 -34.243  1.00  0.00     0.190 HD
BRANCH  18  22
HETATM   22  C   UNL     1      -5.581  -0.800 -33.560  1.00  0.00     0.014 A 
HETATM   23  C   UNL     1      -4.498  -1.163 -32.745  1.00  0.00     0.017 A 
HETATM   24  C   UNL     1      -3.856  -2.393 -32.922  1.00  0.00     0.025 A 
HETATM   25  C   UNL     1      -4.291  -3.266 -33.914  1.00  0.00     0.034 A 
HETATM   26 CL   UNL     1      -3.503  -4.780 -34.130  1.00  0.00    -0.084 Cl
HETATM   27  C   UNL     1      -5.364  -2.922 -34.734  1.00  0.00     0.025 A 
HETATM   28  C   UNL     1      -6.006  -1.692 -34.557  1.00  0.00     0.017 A 
ENDBRANCH  18  22
ENDBRANCH   2  16
TORSDOF 5
ENDMDL
MODEL 8
REMARK VINA RESULT:      -8.2      5.581      8.540
REMARK  5 active torsions:
REMARK  status: ('A' for Active; 'I' for Inactive)
REMARK    1  A    between atoms: C_2  and  N_3 
REMARK    2  A    between atoms: C_2  and  C_14 
REMARK       I    between atoms: N_3  and  C_4 
REMARK       I    between atoms: C_4  and  N_5 
REMARK    3  A    between atoms: N_5  and  C_6 
REMARK    4  A    between atoms: C_6  and  C_7 
REMARK    5  A    between atoms: C_16  and  C_17 
ROOT
HETATM    1  C   UNL     1      -6.123   3.140 -30.706  1.00  0.00     0.041 C 
HETATM    2  C   UNL     1      -6.846   1.924 -31.281  1.00  0.00     0.153 C 
ENDROOT
BRANCH   2   3
HETATM    3  N   UNL     1      -6.095   1.334 -32.370  1.00  0.00    -0.332 N 
HETATM    4  C   UNL     1      -5.380   0.184 -32.190  1.00  0.00     0.317 C 
HETATM    5  N   UNL     1      -4.620  -0.124 -33.281  1.00  0.00    -0.339 N 
HETATM    6  O   UNL     1      -5.417  -0.481 -31.163  1.00  0.00    -0.247 OA
HETATM    7  H   UNL     1      -4.933   0.240 -34.168  1.00  0.00     0.164 HD
HETATM    8  H   UNL     1      -5.815   1.960 -33.112  1.00  0.00     0.165 HD
BRANCH   5   9
HETATM    9  C   UNL     1      -3.873  -1.361 -33.315  1.00  0.00     0.162 C 
BRANCH   9  10
HETATM   10  C   UNL     1      -4.702  -2.480 -33.886  1.00  0.00    -0.040 A 
HETATM   11  C   UNL     1      -4.176  -3.780 -33.951  1.00  0.00     0.009 A 
HETATM   12  C   UNL     1      -4.940  -4.830 -34.464  1.00  0.00     0.001 A 
HETATM   13  C   UNL     1      -6.235  -4.591 -34.918  1.00  0.00     0.000 A 
HETATM   14  C   UNL     1      -6.766  -3.304 -34.864  1.00  0.00     0.001 A 
HETATM   15  C   UNL     1      -6.003  -2.251 -34.352  1.00  0.00     0.009 A 
ENDBRANCH   9  10
ENDBRANCH   5   9
ENDBRANCH   2   3
BRANCH   2  16
HETATM   16  C   UNL     1      -8.186   2.308 -31.811  1.00  0.00     0.145 A 
HETATM   17  N   UNL     1      -9.188   1.529 -32.166  1.00  0.00    -0.210 NA
HETATM   18  C   UNL     1     -10.164   2.414 -32.576  1.00  0.00     0.181 A 
HETATM   19  N   UNL     1      -9.793   3.702 -32.493  1.00  0.00    -0.152 NA
HETATM   20  N   UNL     1      -8.552   3.607 -31.999  1.00  0.00    -0.261 N 
HETATM   21  H   UNL     1      -8.022   4.454 -31.820  1.00  0.00     0.190 HD
BRANCH  18  22
HETATM   22  C   UNL     1     -11.473   1.973 -33.052  1.00  0.00     0.014 A 
HETATM   23  C   UNL     1     -12.559   2.862 -33.071  1.00  0.00     0.017 A 
HETATM   24  C   UNL     1     -13.811   2.447 -33.533  1.00  0.00     0.025 A 
HETATM   25  C   UNL     1     -13.988   1.139 -33.979  1.00  0.00     0.034 A 
HETATM   26 CL   UNL     1     -15.528   0.629 -34.550  1.00  0.00    -0.084 Cl
HETATM   27  C   UNL     1     -12.922   0.242 -33.966  1.00  0.00     0.025 A 
HETATM   28  C   UNL     1     -11.669   0.658 -33.504  1.00  0.00     0.017 A 
ENDBRANCH  18  22
ENDBRANCH   2  16
TORSDOF 5
ENDMDL
MODEL 9
REMARK VINA RESULT:      -8.1      3.919      9.974
REMARK  5 active torsions:
REMARK  status: ('A' for Active; 'I' for Inactive)
REMARK    1  A    between atoms: C_2  and  N_3 
REMARK    2  A    between atoms: C_2  and  C_14 
REMARK       I    between atoms: N_3  and  C_4 
REMARK       I    between atoms: C_4  and  N_5 
REMARK    3  A    between atoms: N_5  and  C_6 
REMARK    4  A    between atoms: C_6  and  C_7 
REMARK    5  A    between atoms: C_16  and  C_17 
ROOT
HETATM    1  C   UNL     1      -5.877   4.646 -32.699  1.00  0.00     0.041 C 
HETATM    2  C   UNL     1      -5.300   3.907 -31.494  1.00  0.00     0.153 C 
ENDROOT
BRANCH   2   3
HETATM    3  N   UNL     1      -4.097   4.554 -31.009  1.00  0.00    -0.332 N 
HETATM    4  C   UNL     1      -4.167   5.653 -30.202  1.00  0.00     0.317 C 
HETATM    5  N   UNL     1      -2.939   6.207 -29.982  1.00  0.00    -0.339 N 
HETATM    6  O   UNL     1      -5.213   6.088 -29.741  1.00  0.00    -0.247 OA
HETATM    7  H   UNL     1      -2.143   5.594 -30.073  1.00  0.00     0.164 HD
HETATM    8  H   UNL     1      -3.262   4.417 -31.561  1.00  0.00     0.165 HD
BRANCH   5   9
HETATM    9  C   UNL     1      -2.800   7.318 -29.069  1.00  0.00     0.162 C 
BRANCH   9  10
HETATM   10  C   UNL     1      -1.430   7.341 -28.445  1.00  0.00    -0.040 A 
HETATM   11  C   UNL     1      -1.243   6.852 -27.142  1.00  0.00     0.009 A 
HETATM   12  C   UNL     1       0.024   6.854 -26.558  1.00  0.00     0.001 A 
HETATM   13  C   UNL     1       1.117   7.344 -27.269  1.00  0.00     0.000 A 
HETATM   14  C   UNL     1       0.944   7.837 -28.562  1.00  0.00     0.001 A 
HETATM   15  C   UNL     1      -0.324   7.837 -29.148  1.00  0.00     0.009 A 
ENDBRANCH   9  10
ENDBRANCH   5   9
ENDBRANCH   2   3
BRANCH   2  16
HETATM   16  C   UNL     1      -4.945   2.504 -31.855  1.00  0.00     0.145 A 
HETATM   17  N   UNL     1      -5.626   1.643 -32.585  1.00  0.00    -0.210 NA
HETATM   18  C   UNL     1      -4.831   0.514 -32.587  1.00  0.00     0.181 A 
HETATM   19  N   UNL     1      -3.697   0.652 -31.880  1.00  0.00    -0.152 NA
HETATM   20  N   UNL     1      -3.789   1.913 -31.441  1.00  0.00    -0.261 N 
HETATM   21  H   UNL     1      -3.041   2.298 -30.874  1.00  0.00     0.190 HD
BRANCH  18  22
HETATM   22  C   UNL     1      -5.205  -0.706 -33.299  1.00  0.00     0.014 A 
HETATM   23  C   UNL     1      -6.533  -0.917 -33.699  1.00  0.00     0.017 A 
HETATM   24  C   UNL     1      -6.894  -2.079 -34.388  1.00  0.00     0.025 A 
HETATM   25  C   UNL     1      -5.929  -3.039 -34.680  1.00  0.00     0.034 A 
HETATM   26 CL   UNL     1      -6.372  -4.468 -35.530  1.00  0.00    -0.084 Cl
HETATM   27  C   UNL     1      -4.605  -2.849 -34.289  1.00  0.00     0.025 A 
HETATM   28  C   UNL     1      -4.245  -1.686 -33.601  1.00  0.00     0.017 A 
ENDBRANCH  18  22
ENDBRANCH   2  16
TORSDOF 5
ENDMDL
MODEL 10
REMARK VINA RESULT:      -8.1      7.111     10.261
REMARK  5 active torsions:
REMARK  status: ('A' for Active; 'I' for Inactive)
REMARK    1  A    between atoms: C_2  and  N_3 
REMARK    2  A    between atoms: C_2  and  C_14 
REMARK       I    between atoms: N_3  and  C_4 
REMARK       I    between atoms: C_4  and  N_5 
REMARK    3  A    between atoms: N_5  and  C_6 
REMARK    4  A    between atoms: C_6  and  C_7 
REMARK    5  A    between atoms: C_16  and  C_17 
ROOT
HETATM    1  C   UNL     1     -10.448   3.800 -34.860  1.00  0.00     0.041 C 
HETATM    2  C   UNL     1     -10.589   2.299 -34.612  1.00  0.00     0.153 C 
ENDROOT
BRANCH   2   3
HETATM    3  N   UNL     1     -11.547   2.029 -33.558  1.00  0.00    -0.332 N 
HETATM    4  C   UNL     1     -12.876   1.887 -33.836  1.00  0.00     0.317 C 
HETATM    5  N   UNL     1     -13.631   1.796 -32.702  1.00  0.00    -0.339 N 
HETATM    6  O   UNL     1     -13.329   1.854 -34.972  1.00  0.00    -0.247 OA
HETATM    7  H   UNL     1     -13.164   1.459 -31.874  1.00  0.00     0.164 HD
HETATM    8  H   UNL     1     -11.280   2.318 -32.627  1.00  0.00     0.165 HD
BRANCH   5   9
HETATM    9  C   UNL     1     -15.049   1.538 -32.797  1.00  0.00     0.162 C 
BRANCH   9  10
HETATM   10  C   UNL     1     -15.849   2.720 -32.318  1.00  0.00    -0.040 A 
HETATM   11  C   UNL     1     -17.236   2.601 -32.136  1.00  0.00     0.009 A 
HETATM   12  C   UNL     1     -17.987   3.684 -31.677  1.00  0.00     0.001 A 
HETATM   13  C   UNL     1     -17.361   4.896 -31.398  1.00  0.00     0.000 A 
HETATM   14  C   UNL     1     -15.985   5.029 -31.579  1.00  0.00     0.001 A 
HETATM   15  C   UNL     1     -15.232   3.946 -32.039  1.00  0.00     0.009 A 
ENDBRANCH   9  10
ENDBRANCH   5   9
ENDBRANCH   2   3
BRANCH   2  16
HETATM   16  C   UNL     1      -9.284   1.707 -34.199  1.00  0.00     0.145 A 
HETATM   17  N   UNL     1      -8.769   0.537 -34.521  1.00  0.00    -0.210 NA
HETATM   18  C   UNL     1      -7.556   0.518 -33.862  1.00  0.00     0.181 A 
HETATM   19  N   UNL     1      -7.316   1.629 -33.146  1.00  0.00    -0.152 NA
HETATM   20  N   UNL     1      -8.410   2.362 -33.384  1.00  0.00    -0.261 N 
HETATM   21  H   UNL     1      -8.493   3.282 -32.965  1.00  0.00     0.190 HD
BRANCH  18  22
HETATM   22  C   UNL     1      -6.634  -0.611 -33.950  1.00  0.00     0.014 A 
HETATM   23  C   UNL     1      -5.378  -0.552 -33.326  1.00  0.00     0.017 A 
HETATM   24  C   UNL     1      -4.495  -1.634 -33.400  1.00  0.00     0.025 A 
HETATM   25  C   UNL     1      -4.861  -2.781 -34.099  1.00  0.00     0.034 A 
HETATM   26 CL   UNL     1      -3.775  -4.113 -34.188  1.00  0.00    -0.084 Cl
HETATM   27  C   UNL     1      -6.102  -2.857 -34.727  1.00  0.00     0.025 A 
HETATM   28  C   UNL     1      -6.986  -1.775 -34.652  1.00  0.00     0.017 A 
ENDBRANCH  18  22
ENDBRANCH   2  16
TORSDOF 5
ENDMDL
