MODEL 1
REMARK VINA RESULT:      -8.5      0.000      0.000
REMARK  10 active torsions:
REMARK  status: ('A' for Active; 'I' for Inactive)
REMARK    1  A    between atoms: C_2  and  N_3 
REMARK    2  A    between atoms: N_3  and  C_4 
REMARK    3  A    between atoms: N_3  and  C_37 
REMARK    4  A    between atoms: C_7  and  C_8 
REMARK    5  A    between atoms: N_9  and  C_11 
REMARK    6  A    between atoms: C_11  and  C_12 
REMARK       I    between atoms: C_12  and  N_13 
REMARK    7  A    between atoms: N_13  and  C_14 
REMARK    8  A    between atoms: C_20  and  C_21 
REMARK    9  A    between atoms: C_21  and  O_22 
REMARK   10  A    between atoms: C_28  and  O_29 
ROOT
HETATM    1  C   UNL     1     -10.107   2.008 -34.574  1.00  0.00     0.228 C 
HETATM    2  N   UNL     1      -9.713   3.468 -34.381  1.00  0.00    -0.054 N 
HETATM    3  H   UNL     1      -8.915   3.618 -35.022  1.00  0.00     0.281 HD
HETATM    4  C   UNL     1     -10.759   4.426 -34.895  1.00  0.00     0.239 C 
HETATM    5  C   UNL     1     -12.092   4.183 -34.203  1.00  0.00     0.066 C 
HETATM    6  C   UNL     1     -12.551   2.741 -34.413  1.00  0.00     0.065 C 
HETATM    7  C   UNL     1     -11.484   1.739 -33.904  1.00  0.00     0.055 C 
HETATM    8  C   UNL     1     -13.902   2.491 -33.720  1.00  0.00     0.038 C 
HETATM    9  C   UNL     1     -14.391   1.057 -33.920  1.00  0.00     0.003 C 
HETATM   10  C   UNL     1     -13.337   0.042 -33.497  1.00  0.00     0.001 C 
HETATM   11  C   UNL     1     -11.988   0.298 -34.167  1.00  0.00     0.010 C 
ENDROOT
BRANCH   2  12
HETATM   12  C   UNL     1      -9.101   3.883 -33.034  1.00  0.00     0.338 C 
BRANCH  12  13
HETATM   13  C   UNL     1      -7.748   4.564 -33.288  1.00  0.00     0.248 C 
HETATM   14  N   UNL     1      -6.707   3.701 -33.536  1.00  0.00    -0.319 N 
HETATM   15  H   UNL     1      -6.895   2.791 -33.962  1.00  0.00     0.169 HD
HETATM   16  O   UNL     1      -7.705   5.792 -33.197  1.00  0.00    -0.271 OA
BRANCH  14  17
HETATM   17  C   UNL     1      -5.355   4.018 -33.442  1.00  0.00     0.094 A 
HETATM   18  S   UNL     1      -4.557   4.758 -34.740  1.00  0.00    -0.076 SA
HETATM   19  C   UNL     1      -3.102   4.908 -33.871  1.00  0.00    -0.012 A 
HETATM   20  C   UNL     1      -1.920   5.546 -34.529  1.00  0.00     0.057 C 
HETATM   21  C   UNL     1      -3.203   4.389 -32.586  1.00  0.00    -0.030 A 
HETATM   22  C   UNL     1      -2.069   4.381 -31.602  1.00  0.00     0.050 C 
HETATM   23  C   UNL     1      -4.544   3.878 -32.323  1.00  0.00     0.080 A 
BRANCH  23  24
HETATM   24  C   UNL     1      -5.062   3.274 -31.089  1.00  0.00     0.296 C 
HETATM   25  O   UNL     1      -5.147   3.913 -30.040  1.00  0.00    -0.259 OA
BRANCH  24  26
HETATM   26  O   UNL     1      -5.434   1.975 -31.227  1.00  0.00    -0.322 OA
HETATM   27  C   UNL     1      -5.840   1.333 -30.017  1.00  0.00     0.213 C 
ENDBRANCH  24  26
ENDBRANCH  23  24
ENDBRANCH  14  17
ENDBRANCH  12  13
ENDBRANCH   2  12
BRANCH   1  28
HETATM   28  C   UNL     1      -8.961   1.072 -34.220  1.00  0.00    -0.027 A 
HETATM   29  C   UNL     1      -8.755   0.559 -32.931  1.00  0.00     0.011 A 
HETATM   30  C   UNL     1      -7.734  -0.369 -32.680  1.00  0.00     0.030 A 
HETATM   31  C   UNL     1      -6.861  -0.782 -33.689  1.00  0.00     0.030 A 
HETATM   32  C   UNL     1      -7.020  -0.206 -34.955  1.00  0.00     0.030 A 
HETATM   33  C   UNL     1      -8.054   0.698 -35.224  1.00  0.00     0.011 A 
BRANCH  31  34
HETATM   34  N   UNL     1      -5.882  -1.754 -33.503  1.00  0.00    -0.382 N 
BRANCH  34  35
HETATM   35  C   UNL     1      -4.756  -1.488 -32.595  1.00  0.00     0.118 C 
HETATM   36  C   UNL     1      -3.826  -0.427 -33.171  1.00  0.00     0.026 C 
ENDBRANCH  34  35
BRANCH  34  37
HETATM   37  C   UNL     1      -5.604  -2.609 -34.668  1.00  0.00     0.118 C 
HETATM   38  C   UNL     1      -6.582  -3.772 -34.775  1.00  0.00     0.026 C 
ENDBRANCH  34  37
ENDBRANCH  31  34
ENDBRANCH   1  28
BRANCH   6  39
HETATM   39  O   UNL     1     -12.701   2.560 -35.826  1.00  0.00    -0.389 OA
HETATM   40  H   UNL     1     -13.565   2.141 -36.010  1.00  0.00     0.210 HD
ENDBRANCH   6  39
TORSDOF 10
ENDMDL
MODEL 2
REMARK VINA RESULT:      -8.1      1.894      2.527
REMARK  10 active torsions:
REMARK  status: ('A' for Active; 'I' for Inactive)
REMARK    1  A    between atoms: C_2  and  N_3 
REMARK    2  A    between atoms: N_3  and  C_4 
REMARK    3  A    between atoms: N_3  and  C_37 
REMARK    4  A    between atoms: C_7  and  C_8 
REMARK    5  A    between atoms: N_9  and  C_11 
REMARK    6  A    between atoms: C_11  and  C_12 
REMARK       I    between atoms: C_12  and  N_13 
REMARK    7  A    between atoms: N_13  and  C_14 
REMARK    8  A    between atoms: C_20  and  C_21 
REMARK    9  A    between atoms: C_21  and  O_22 
REMARK   10  A    between atoms: C_28  and  O_29 
ROOT
HETATM    1  C   UNL     1      -8.946   2.214 -34.347  1.00  0.00     0.228 C 
HETATM    2  N   UNL     1      -8.325   3.541 -33.928  1.00  0.00    -0.054 N 
HETATM    3  H   UNL     1      -7.500   3.658 -34.542  1.00  0.00     0.281 HD
HETATM    4  C   UNL     1      -9.191   4.726 -34.277  1.00  0.00     0.239 C 
HETATM    5  C   UNL     1     -10.559   4.598 -33.625  1.00  0.00     0.066 C 
HETATM    6  C   UNL     1     -11.242   3.302 -34.057  1.00  0.00     0.065 C 
HETATM    7  C   UNL     1     -10.361   2.072 -33.719  1.00  0.00     0.055 C 
HETATM    8  C   UNL     1     -12.629   3.170 -33.404  1.00  0.00     0.038 C 
HETATM    9  C   UNL     1     -13.339   1.884 -33.825  1.00  0.00     0.003 C 
HETATM   10  C   UNL     1     -12.473   0.657 -33.574  1.00  0.00     0.001 C 
HETATM   11  C   UNL     1     -11.087   0.791 -34.204  1.00  0.00     0.010 C 
ENDROOT
BRANCH   2  12
HETATM   12  C   UNL     1      -7.681   3.634 -32.536  1.00  0.00     0.338 C 
BRANCH  12  13
HETATM   13  C   UNL     1      -6.355   4.402 -32.648  1.00  0.00     0.248 C 
HETATM   14  N   UNL     1      -5.475   4.185 -31.614  1.00  0.00    -0.319 N 
HETATM   15  H   UNL     1      -5.496   3.295 -31.112  1.00  0.00     0.169 HD
HETATM   16  O   UNL     1      -6.221   5.167 -33.604  1.00  0.00    -0.271 OA
BRANCH  14  17
HETATM   17  C   UNL     1      -4.394   4.999 -31.288  1.00  0.00     0.094 A 
HETATM   18  S   UNL     1      -4.553   6.197 -30.101  1.00  0.00    -0.076 SA
HETATM   19  C   UNL     1      -2.911   6.630 -30.198  1.00  0.00    -0.012 A 
HETATM   20  C   UNL     1      -2.389   7.719 -29.314  1.00  0.00     0.057 C 
HETATM   21  C   UNL     1      -2.224   5.876 -31.140  1.00  0.00    -0.030 A 
HETATM   22  C   UNL     1      -0.764   6.052 -31.441  1.00  0.00     0.050 C 
HETATM   23  C   UNL     1      -3.097   4.894 -31.774  1.00  0.00     0.080 A 
BRANCH  23  24
HETATM   24  C   UNL     1      -2.756   3.898 -32.798  1.00  0.00     0.296 C 
HETATM   25  O   UNL     1      -3.055   2.711 -32.674  1.00  0.00    -0.259 OA
BRANCH  24  26
HETATM   26  O   UNL     1      -2.099   4.415 -33.869  1.00  0.00    -0.322 OA
HETATM   27  C   UNL     1      -2.892   5.248 -34.717  1.00  0.00     0.213 C 
ENDBRANCH  24  26
ENDBRANCH  23  24
ENDBRANCH  14  17
ENDBRANCH  12  13
ENDBRANCH   2  12
BRANCH   1  28
HETATM   28  C   UNL     1      -7.974   1.060 -34.152  1.00  0.00    -0.027 A 
HETATM   29  C   UNL     1      -7.716   0.471 -32.905  1.00  0.00     0.011 A 
HETATM   30  C   UNL     1      -6.877  -0.647 -32.796  1.00  0.00     0.030 A 
HETATM   31  C   UNL     1      -6.236  -1.187 -33.913  1.00  0.00     0.030 A 
HETATM   32  C   UNL     1      -6.432  -0.547 -35.142  1.00  0.00     0.030 A 
HETATM   33  C   UNL     1      -7.291   0.551 -35.268  1.00  0.00     0.011 A 
BRANCH  31  34
HETATM   34  N   UNL     1      -5.454  -2.338 -33.865  1.00  0.00    -0.382 N 
BRANCH  34  35
HETATM   35  C   UNL     1      -4.132  -2.292 -33.221  1.00  0.00     0.118 C 
HETATM   36  C   UNL     1      -3.557  -3.692 -33.049  1.00  0.00     0.026 C 
ENDBRANCH  34  35
BRANCH  34  37
HETATM   37  C   UNL     1      -5.604  -3.260 -35.002  1.00  0.00     0.118 C 
HETATM   38  C   UNL     1      -6.799  -4.189 -34.836  1.00  0.00     0.026 C 
ENDBRANCH  34  37
ENDBRANCH  31  34
ENDBRANCH   1  28
BRANCH   6  39
HETATM   39  O   UNL     1     -11.391   3.371 -35.479  1.00  0.00    -0.389 OA
HETATM   40  H   UNL     1     -11.058   2.545 -35.883  1.00  0.00     0.210 HD
ENDBRANCH   6  39
TORSDOF 10
ENDMDL
MODEL 3
REMARK VINA RESULT:      -8.0      2.286      7.410
REMARK  10 active torsions:
REMARK  status: ('A' for Active; 'I' for Inactive)
REMARK    1  A    between atoms: C_2  and  N_3 
REMARK    2  A    between atoms: N_3  and  C_4 
REMARK    3  A    between atoms: N_3  and  C_37 
REMARK    4  A    between atoms: C_7  and  C_8 
REMARK    5  A    between atoms: N_9  and  C_11 
REMARK    6  A    between atoms: C_11  and  C_12 
REMARK       I    between atoms: C_12  and  N_13 
REMARK    7  A    between atoms: N_13  and  C_14 
REMARK    8  A    between atoms: C_20  and  C_21 
REMARK    9  A    between atoms: C_21  and  O_22 
REMARK   10  A    between atoms: C_28  and  O_29 
ROOT
HETATM    1  C   UNL     1      -5.396   2.582 -31.819  1.00  0.00     0.228 C 
HETATM    2  N   UNL     1      -6.844   3.037 -31.686  1.00  0.00    -0.054 N 
HETATM    3  H   UNL     1      -7.280   2.360 -31.035  1.00  0.00     0.281 HD
HETATM    4  C   UNL     1      -6.978   4.354 -30.964  1.00  0.00     0.239 C 
HETATM    5  C   UNL     1      -6.188   5.439 -31.680  1.00  0.00     0.066 C 
HETATM    6  C   UNL     1      -4.716   5.047 -31.791  1.00  0.00     0.065 C 
HETATM    7  C   UNL     1      -4.557   3.688 -32.519  1.00  0.00     0.055 C 
HETATM    8  C   UNL     1      -3.911   6.144 -32.510  1.00  0.00     0.038 C 
HETATM    9  C   UNL     1      -2.431   5.782 -32.629  1.00  0.00     0.003 C 
HETATM   10  C   UNL     1      -2.238   4.417 -33.276  1.00  0.00     0.001 C 
HETATM   11  C   UNL     1      -3.051   3.327 -32.578  1.00  0.00     0.010 C 
ENDROOT
BRANCH   2  12
HETATM   12  C   UNL     1      -7.760   2.907 -32.913  1.00  0.00     0.338 C 
BRANCH  12  13
HETATM   13  C   UNL     1      -9.180   2.558 -32.443  1.00  0.00     0.248 C 
HETATM   14  N   UNL     1     -10.180   3.290 -33.038  1.00  0.00    -0.319 N 
HETATM   15  H   UNL     1     -10.043   3.659 -33.982  1.00  0.00     0.169 HD
HETATM   16  O   UNL     1      -9.292   1.709 -31.557  1.00  0.00    -0.271 OA
BRANCH  14  17
HETATM   17  C   UNL     1     -11.478   3.430 -32.554  1.00  0.00     0.094 A 
HETATM   18  S   UNL     1     -11.851   4.656 -31.447  1.00  0.00    -0.076 SA
HETATM   19  C   UNL     1     -13.507   4.265 -31.442  1.00  0.00    -0.012 A 
HETATM   20  C   UNL     1     -14.444   5.063 -30.592  1.00  0.00     0.057 C 
HETATM   21  C   UNL     1     -13.794   3.191 -32.276  1.00  0.00    -0.030 A 
HETATM   22  C   UNL     1     -15.173   2.627 -32.457  1.00  0.00     0.050 C 
HETATM   23  C   UNL     1     -12.596   2.707 -32.952  1.00  0.00     0.080 A 
BRANCH  23  24
HETATM   24  C   UNL     1     -12.478   1.612 -33.923  1.00  0.00     0.296 C 
HETATM   25  O   UNL     1     -11.889   0.566 -33.653  1.00  0.00    -0.259 OA
BRANCH  24  26
HETATM   26  O   UNL     1     -13.079   1.868 -35.115  1.00  0.00    -0.322 OA
HETATM   27  C   UNL     1     -12.477   2.914 -35.880  1.00  0.00     0.213 C 
ENDBRANCH  24  26
ENDBRANCH  23  24
ENDBRANCH  14  17
ENDBRANCH  12  13
ENDBRANCH   2  12
BRANCH   1  28
HETATM   28  C   UNL     1      -5.305   1.172 -32.382  1.00  0.00    -0.027 A 
HETATM   29  C   UNL     1      -4.717   0.102 -31.691  1.00  0.00     0.011 A 
HETATM   30  C   UNL     1      -4.738  -1.196 -32.221  1.00  0.00     0.030 A 
HETATM   31  C   UNL     1      -5.304  -1.464 -33.469  1.00  0.00     0.030 A 
HETATM   32  C   UNL     1      -5.817  -0.379 -34.190  1.00  0.00     0.030 A 
HETATM   33  C   UNL     1      -5.829   0.915 -33.659  1.00  0.00     0.011 A 
BRANCH  31  34
HETATM   34  N   UNL     1      -5.413  -2.746 -34.001  1.00  0.00    -0.382 N 
BRANCH  34  35
HETATM   35  C   UNL     1      -4.216  -3.417 -34.531  1.00  0.00     0.118 C 
HETATM   36  C   UNL     1      -3.655  -4.413 -33.523  1.00  0.00     0.026 C 
ENDBRANCH  34  35
BRANCH  34  37
HETATM   37  C   UNL     1      -6.691  -3.057 -34.659  1.00  0.00     0.118 C 
HETATM   38  C   UNL     1      -6.657  -4.398 -35.381  1.00  0.00     0.026 C 
ENDBRANCH  34  37
ENDBRANCH  31  34
ENDBRANCH   1  28
BRANCH   6  39
HETATM   39  O   UNL     1      -4.228   4.900 -30.453  1.00  0.00    -0.389 OA
HETATM   40  H   UNL     1      -3.714   4.072 -30.383  1.00  0.00     0.210 HD
ENDBRANCH   6  39
TORSDOF 10
ENDMDL
MODEL 4
REMARK VINA RESULT:      -7.9      2.297      6.226
REMARK  10 active torsions:
REMARK  status: ('A' for Active; 'I' for Inactive)
REMARK    1  A    between atoms: C_2  and  N_3 
REMARK    2  A    between atoms: N_3  and  C_4 
REMARK    3  A    between atoms: N_3  and  C_37 
REMARK    4  A    between atoms: C_7  and  C_8 
REMARK    5  A    between atoms: N_9  and  C_11 
REMARK    6  A    between atoms: C_11  and  C_12 
REMARK       I    between atoms: C_12  and  N_13 
REMARK    7  A    between atoms: N_13  and  C_14 
REMARK    8  A    between atoms: C_20  and  C_21 
REMARK    9  A    between atoms: C_21  and  O_22 
REMARK   10  A    between atoms: C_28  and  O_29 
ROOT
HETATM    1  C   UNL     1      -6.650   0.029 -32.648  1.00  0.00     0.228 C 
HETATM    2  N   UNL     1      -5.718   1.195 -32.338  1.00  0.00    -0.054 N 
HETATM    3  H   UNL     1      -6.109   1.633 -31.486  1.00  0.00     0.281 HD
HETATM    4  C   UNL     1      -4.346   0.745 -31.902  1.00  0.00     0.239 C 
HETATM    5  C   UNL     1      -3.704  -0.124 -32.972  1.00  0.00     0.066 C 
HETATM    6  C   UNL     1      -4.582  -1.335 -33.280  1.00  0.00     0.065 C 
HETATM    7  C   UNL     1      -6.002  -0.895 -33.717  1.00  0.00     0.055 C 
HETATM    8  C   UNL     1      -3.934  -2.221 -34.358  1.00  0.00     0.038 C 
HETATM    9  C   UNL     1      -4.787  -3.447 -34.681  1.00  0.00     0.003 C 
HETATM   10  C   UNL     1      -6.214  -3.056 -35.046  1.00  0.00     0.001 C 
HETATM   11  C   UNL     1      -6.855  -2.160 -33.988  1.00  0.00     0.010 C 
ENDROOT
BRANCH   2  12
HETATM   12  C   UNL     1      -5.700   2.387 -33.308  1.00  0.00     0.338 C 
BRANCH  12  13
HETATM   13  C   UNL     1      -5.538   3.685 -32.504  1.00  0.00     0.248 C 
HETATM   14  N   UNL     1      -4.835   4.676 -33.146  1.00  0.00    -0.319 N 
HETATM   15  H   UNL     1      -4.840   4.719 -34.167  1.00  0.00     0.169 HD
HETATM   16  O   UNL     1      -5.996   3.705 -31.360  1.00  0.00    -0.271 OA
BRANCH  14  17
HETATM   17  C   UNL     1      -4.248   5.779 -32.532  1.00  0.00     0.094 A 
HETATM   18  S   UNL     1      -5.203   7.082 -32.022  1.00  0.00    -0.076 SA
HETATM   19  C   UNL     1      -3.877   7.892 -31.329  1.00  0.00    -0.012 A 
HETATM   20  C   UNL     1      -4.096   9.211 -30.657  1.00  0.00     0.057 C 
HETATM   21  C   UNL     1      -2.691   7.187 -31.486  1.00  0.00    -0.030 A 
HETATM   22  C   UNL     1      -1.363   7.671 -30.981  1.00  0.00     0.050 C 
HETATM   23  C   UNL     1      -2.912   5.924 -32.182  1.00  0.00     0.080 A 
BRANCH  23  24
HETATM   24  C   UNL     1      -1.929   4.888 -32.522  1.00  0.00     0.296 C 
HETATM   25  O   UNL     1      -1.178   4.403 -31.676  1.00  0.00    -0.259 OA
BRANCH  24  26
HETATM   26  O   UNL     1      -1.941   4.527 -33.832  1.00  0.00    -0.322 OA
HETATM   27  C   UNL     1      -1.318   5.458 -34.719  1.00  0.00     0.213 C 
ENDBRANCH  24  26
ENDBRANCH  23  24
ENDBRANCH  14  17
ENDBRANCH  12  13
ENDBRANCH   2  12
BRANCH   1  28
HETATM   28  C   UNL     1      -8.072   0.507 -32.903  1.00  0.00    -0.027 A 
HETATM   29  C   UNL     1      -8.927   0.960 -31.888  1.00  0.00     0.011 A 
HETATM   30  C   UNL     1     -10.197   1.470 -32.191  1.00  0.00     0.030 A 
HETATM   31  C   UNL     1     -10.673   1.506 -33.503  1.00  0.00     0.030 A 
HETATM   32  C   UNL     1      -9.848   0.978 -34.503  1.00  0.00     0.030 A 
HETATM   33  C   UNL     1      -8.567   0.495 -34.217  1.00  0.00     0.011 A 
BRANCH  31  34
HETATM   34  N   UNL     1     -11.896   2.070 -33.859  1.00  0.00    -0.382 N 
BRANCH  34  35
HETATM   35  C   UNL     1     -12.855   1.285 -34.650  1.00  0.00     0.118 C 
HETATM   36  C   UNL     1     -13.437   0.141 -33.829  1.00  0.00     0.026 C 
ENDBRANCH  34  35
BRANCH  34  37
HETATM   37  C   UNL     1     -11.886   3.524 -34.084  1.00  0.00     0.118 C 
HETATM   38  C   UNL     1     -12.492   3.903 -35.429  1.00  0.00     0.026 C 
ENDBRANCH  34  37
ENDBRANCH  31  34
ENDBRANCH   1  28
BRANCH   6  39
HETATM   39  O   UNL     1      -4.697  -2.079 -32.061  1.00  0.00    -0.389 OA
HETATM   40  H   UNL     1      -3.924  -2.671 -31.967  1.00  0.00     0.210 HD
ENDBRANCH   6  39
TORSDOF 10
ENDMDL
MODEL 5
REMARK VINA RESULT:      -7.8      1.342      1.838
REMARK  10 active torsions:
REMARK  status: ('A' for Active; 'I' for Inactive)
REMARK    1  A    between atoms: C_2  and  N_3 
REMARK    2  A    between atoms: N_3  and  C_4 
REMARK    3  A    between atoms: N_3  and  C_37 
REMARK    4  A    between atoms: C_7  and  C_8 
REMARK    5  A    between atoms: N_9  and  C_11 
REMARK    6  A    between atoms: C_11  and  C_12 
REMARK       I    between atoms: C_12  and  N_13 
REMARK    7  A    between atoms: N_13  and  C_14 
REMARK    8  A    between atoms: C_20  and  C_21 
REMARK    9  A    between atoms: C_21  and  O_22 
REMARK   10  A    between atoms: C_28  and  O_29 
ROOT
HETATM    1  C   UNL     1     -10.179   1.909 -34.491  1.00  0.00     0.228 C 
HETATM    2  N   UNL     1      -9.813   3.367 -34.239  1.00  0.00    -0.054 N 
HETATM    3  H   UNL     1      -9.033   3.565 -34.891  1.00  0.00     0.281 HD
HETATM    4  C   UNL     1     -10.891   4.324 -34.684  1.00  0.00     0.239 C 
HETATM    5  C   UNL     1     -12.201   4.019 -33.974  1.00  0.00     0.066 C 
HETATM    6  C   UNL     1     -12.634   2.578 -34.240  1.00  0.00     0.065 C 
HETATM    7  C   UNL     1     -11.534   1.578 -33.802  1.00  0.00     0.055 C 
HETATM    8  C   UNL     1     -13.962   2.266 -33.529  1.00  0.00     0.038 C 
HETATM    9  C   UNL     1     -14.424   0.832 -33.783  1.00  0.00     0.003 C 
HETATM   10  C   UNL     1     -13.339  -0.177 -33.432  1.00  0.00     0.001 C 
HETATM   11  C   UNL     1     -12.012   0.139 -34.120  1.00  0.00     0.010 C 
ENDROOT
BRANCH   2  12
HETATM   12  C   UNL     1      -9.178   3.734 -32.889  1.00  0.00     0.338 C 
BRANCH  12  13
HETATM   13  C   UNL     1      -7.712   4.130 -33.117  1.00  0.00     0.248 C 
HETATM   14  N   UNL     1      -6.838   3.684 -32.153  1.00  0.00    -0.319 N 
HETATM   15  H   UNL     1      -7.049   2.826 -31.638  1.00  0.00     0.169 HD
HETATM   16  O   UNL     1      -7.460   4.841 -34.091  1.00  0.00    -0.271 OA
BRANCH  14  17
HETATM   17  C   UNL     1      -5.560   4.186 -31.924  1.00  0.00     0.094 A 
HETATM   18  S   UNL     1      -4.244   3.618 -32.827  1.00  0.00    -0.076 SA
HETATM   19  C   UNL     1      -3.163   4.711 -32.097  1.00  0.00    -0.012 A 
HETATM   20  C   UNL     1      -1.726   4.706 -32.514  1.00  0.00     0.057 C 
HETATM   21  C   UNL     1      -3.789   5.515 -31.152  1.00  0.00    -0.030 A 
HETATM   22  C   UNL     1      -3.073   6.561 -30.348  1.00  0.00     0.050 C 
HETATM   23  C   UNL     1      -5.214   5.218 -31.062  1.00  0.00     0.080 A 
BRANCH  23  24
HETATM   24  C   UNL     1      -6.224   5.856 -30.208  1.00  0.00     0.296 C 
HETATM   25  O   UNL     1      -6.824   5.229 -29.335  1.00  0.00    -0.259 OA
BRANCH  24  26
HETATM   26  O   UNL     1      -6.414   7.175 -30.471  1.00  0.00    -0.322 OA
HETATM   27  C   UNL     1      -7.341   7.452 -31.523  1.00  0.00     0.213 C 
ENDBRANCH  24  26
ENDBRANCH  23  24
ENDBRANCH  14  17
ENDBRANCH  12  13
ENDBRANCH   2  12
BRANCH   1  28
HETATM   28  C   UNL     1      -9.005   0.984 -34.206  1.00  0.00    -0.027 A 
HETATM   29  C   UNL     1      -8.847   0.287 -33.000  1.00  0.00     0.011 A 
HETATM   30  C   UNL     1      -7.792  -0.619 -32.824  1.00  0.00     0.030 A 
HETATM   31  C   UNL     1      -6.839  -0.829 -33.824  1.00  0.00     0.030 A 
HETATM   32  C   UNL     1      -6.954  -0.071 -34.995  1.00  0.00     0.030 A 
HETATM   33  C   UNL     1      -8.020   0.814 -35.192  1.00  0.00     0.011 A 
BRANCH  31  34
HETATM   34  N   UNL     1      -5.818  -1.771 -33.722  1.00  0.00    -0.382 N 
BRANCH  34  35
HETATM   35  C   UNL     1      -4.556  -1.407 -33.062  1.00  0.00     0.118 C 
HETATM   36  C   UNL     1      -3.729  -2.645 -32.738  1.00  0.00     0.026 C 
ENDBRANCH  34  35
BRANCH  34  37
HETATM   37  C   UNL     1      -5.731  -2.738 -34.828  1.00  0.00     0.118 C 
HETATM   38  C   UNL     1      -6.801  -3.818 -34.734  1.00  0.00     0.026 C 
ENDBRANCH  34  37
ENDBRANCH  31  34
ENDBRANCH   1  28
BRANCH   6  39
HETATM   39  O   UNL     1     -12.814   2.458 -35.655  1.00  0.00    -0.389 OA
HETATM   40  H   UNL     1     -12.477   1.590 -35.954  1.00  0.00     0.210 HD
ENDBRANCH   6  39
TORSDOF 10
ENDMDL
MODEL 6
REMARK VINA RESULT:      -7.7      1.774      2.542
REMARK  10 active torsions:
REMARK  status: ('A' for Active; 'I' for Inactive)
REMARK    1  A    between atoms: C_2  and  N_3 
REMARK    2  A    between atoms: N_3  and  C_4 
REMARK    3  A    between atoms: N_3  and  C_37 
REMARK    4  A    between atoms: C_7  and  C_8 
REMARK    5  A    between atoms: N_9  and  C_11 
REMARK    6  A    between atoms: C_11  and  C_12 
REMARK       I    between atoms: C_12  and  N_13 
REMARK    7  A    between atoms: N_13  and  C_14 
REMARK    8  A    between atoms: C_20  and  C_21 
REMARK    9  A    between atoms: C_21  and  O_22 
REMARK   10  A    between atoms: C_28  and  O_29 
ROOT
HETATM    1  C   UNL     1     -10.967   2.457 -33.423  1.00  0.00     0.228 C 
HETATM    2  N   UNL     1     -10.719   3.624 -32.475  1.00  0.00    -0.054 N 
HETATM    3  H   UNL     1      -9.896   4.116 -32.864  1.00  0.00     0.281 HD
HETATM    4  C   UNL     1     -11.810   4.664 -32.535  1.00  0.00     0.239 C 
HETATM    5  C   UNL     1     -13.159   4.044 -32.206  1.00  0.00     0.066 C 
HETATM    6  C   UNL     1     -13.472   2.898 -33.165  1.00  0.00     0.065 C 
HETATM    7  C   UNL     1     -12.356   1.823 -33.130  1.00  0.00     0.055 C 
HETATM    8  C   UNL     1     -14.839   2.270 -32.840  1.00  0.00     0.038 C 
HETATM    9  C   UNL     1     -15.182   1.124 -33.791  1.00  0.00     0.003 C 
HETATM   10  C   UNL     1     -14.073   0.081 -33.837  1.00  0.00     0.001 C 
HETATM   11  C   UNL     1     -12.710   0.702 -34.140  1.00  0.00     0.010 C 
ENDROOT
BRANCH   2  12
HETATM   12  C   UNL     1     -10.238   3.312 -31.050  1.00  0.00     0.338 C 
BRANCH  12  13
HETATM   13  C   UNL     1      -8.766   3.728 -30.916  1.00  0.00     0.248 C 
HETATM   14  N   UNL     1      -7.961   3.340 -31.961  1.00  0.00    -0.319 N 
HETATM   15  H   UNL     1      -8.365   3.223 -32.893  1.00  0.00     0.169 HD
HETATM   16  O   UNL     1      -8.432   4.313 -29.884  1.00  0.00    -0.271 OA
BRANCH  14  17
HETATM   17  C   UNL     1      -6.572   3.269 -31.928  1.00  0.00     0.094 A 
HETATM   18  S   UNL     1      -5.799   1.998 -31.118  1.00  0.00    -0.076 SA
HETATM   19  C   UNL     1      -4.252   2.519 -31.600  1.00  0.00    -0.012 A 
HETATM   20  C   UNL     1      -3.051   1.737 -31.171  1.00  0.00     0.057 C 
HETATM   21  C   UNL     1      -4.304   3.670 -32.376  1.00  0.00    -0.030 A 
HETATM   22  C   UNL     1      -3.089   4.353 -32.931  1.00  0.00     0.050 C 
HETATM   23  C   UNL     1      -5.680   4.105 -32.589  1.00  0.00     0.080 A 
BRANCH  23  24
HETATM   24  C   UNL     1      -6.161   5.256 -33.364  1.00  0.00     0.296 C 
HETATM   25  O   UNL     1      -6.930   5.121 -34.316  1.00  0.00    -0.259 OA
BRANCH  24  26
HETATM   26  O   UNL     1      -5.687   6.451 -32.926  1.00  0.00    -0.322 OA
HETATM   27  C   UNL     1      -6.442   7.049 -31.870  1.00  0.00     0.213 C 
ENDBRANCH  24  26
ENDBRANCH  23  24
ENDBRANCH  14  17
ENDBRANCH  12  13
ENDBRANCH   2  12
BRANCH   1  28
HETATM   28  C   UNL     1      -9.768   1.521 -33.478  1.00  0.00    -0.027 A 
HETATM   29  C   UNL     1      -9.572   0.465 -32.576  1.00  0.00     0.011 A 
HETATM   30  C   UNL     1      -8.494  -0.419 -32.726  1.00  0.00     0.030 A 
HETATM   31  C   UNL     1      -7.557  -0.258 -33.748  1.00  0.00     0.030 A 
HETATM   32  C   UNL     1      -7.711   0.845 -34.596  1.00  0.00     0.030 A 
HETATM   33  C   UNL     1      -8.799   1.716 -34.475  1.00  0.00     0.011 A 
BRANCH  31  34
HETATM   34  N   UNL     1      -6.515  -1.152 -33.979  1.00  0.00    -0.382 N 
BRANCH  34  35
HETATM   35  C   UNL     1      -5.126  -0.726 -33.748  1.00  0.00     0.118 C 
HETATM   36  C   UNL     1      -4.538  -1.414 -32.522  1.00  0.00     0.026 C 
ENDBRANCH  34  35
BRANCH  34  37
HETATM   37  C   UNL     1      -6.736  -2.123 -35.061  1.00  0.00     0.118 C 
HETATM   38  C   UNL     1      -6.861  -3.549 -34.539  1.00  0.00     0.026 C 
ENDBRANCH  34  37
ENDBRANCH  31  34
ENDBRANCH   1  28
BRANCH   6  39
HETATM   39  O   UNL     1     -13.511   3.463 -34.481  1.00  0.00    -0.389 OA
HETATM   40  H   UNL     1     -14.201   3.014 -35.008  1.00  0.00     0.210 HD
ENDBRANCH   6  39
TORSDOF 10
ENDMDL
MODEL 7
REMARK VINA RESULT:      -7.7      1.955      2.655
REMARK  10 active torsions:
REMARK  status: ('A' for Active; 'I' for Inactive)
REMARK    1  A    between atoms: C_2  and  N_3 
REMARK    2  A    between atoms: N_3  and  C_4 
REMARK    3  A    between atoms: N_3  and  C_37 
REMARK    4  A    between atoms: C_7  and  C_8 
REMARK    5  A    between atoms: N_9  and  C_11 
REMARK    6  A    between atoms: C_11  and  C_12 
REMARK       I    between atoms: C_12  and  N_13 
REMARK    7  A    between atoms: N_13  and  C_14 
REMARK    8  A    between atoms: C_20  and  C_21 
REMARK    9  A    between atoms: C_21  and  O_22 
REMARK   10  A    between atoms: C_28  and  O_29 
ROOT
HETATM    1  C   UNL     1     -10.839   2.326 -33.376  1.00  0.00     0.228 C 
HETATM    2  N   UNL     1     -10.435   3.367 -32.339  1.00  0.00    -0.054 N 
HETATM    3  H   UNL     1      -9.587   3.817 -32.726  1.00  0.00     0.281 HD
HETATM    4  C   UNL     1     -11.421   4.504 -32.239  1.00  0.00     0.239 C 
HETATM    5  C   UNL     1     -12.806   3.981 -31.893  1.00  0.00     0.066 C 
HETATM    6  C   UNL     1     -13.275   2.968 -32.937  1.00  0.00     0.065 C 
HETATM    7  C   UNL     1     -12.268   1.797 -33.065  1.00  0.00     0.055 C 
HETATM    8  C   UNL     1     -14.679   2.440 -32.595  1.00  0.00     0.038 C 
HETATM    9  C   UNL     1     -15.177   1.430 -33.627  1.00  0.00     0.003 C 
HETATM   10  C   UNL     1     -14.177   0.299 -33.833  1.00  0.00     0.001 C 
HETATM   11  C   UNL     1     -12.776   0.819 -34.154  1.00  0.00     0.010 C 
ENDROOT
BRANCH   2  12
HETATM   12  C   UNL     1      -9.919   2.873 -30.978  1.00  0.00     0.338 C 
BRANCH  12  13
HETATM   13  C   UNL     1      -8.535   3.484 -30.716  1.00  0.00     0.248 C 
HETATM   14  N   UNL     1      -8.353   4.743 -31.240  1.00  0.00    -0.319 N 
HETATM   15  H   UNL     1      -9.158   5.362 -31.359  1.00  0.00     0.169 HD
HETATM   16  O   UNL     1      -7.711   2.790 -30.119  1.00  0.00    -0.271 OA
BRANCH  14  17
HETATM   17  C   UNL     1      -7.124   5.358 -31.457  1.00  0.00     0.094 A 
HETATM   18  S   UNL     1      -6.392   6.267 -30.229  1.00  0.00    -0.076 SA
HETATM   19  C   UNL     1      -4.996   6.557 -31.158  1.00  0.00    -0.012 A 
HETATM   20  C   UNL     1      -3.882   7.364 -30.570  1.00  0.00     0.057 C 
HETATM   21  C   UNL     1      -5.073   5.973 -32.416  1.00  0.00    -0.030 A 
HETATM   22  C   UNL     1      -3.987   6.076 -33.447  1.00  0.00     0.050 C 
HETATM   23  C   UNL     1      -6.326   5.245 -32.589  1.00  0.00     0.080 A 
BRANCH  23  24
HETATM   24  C   UNL     1      -6.780   4.479 -33.756  1.00  0.00     0.296 C 
HETATM   25  O   UNL     1      -7.837   4.737 -34.331  1.00  0.00    -0.259 OA
BRANCH  24  26
HETATM   26  O   UNL     1      -5.928   3.487 -34.128  1.00  0.00    -0.322 OA
HETATM   27  C   UNL     1      -5.580   2.571 -33.088  1.00  0.00     0.213 C 
ENDBRANCH  24  26
ENDBRANCH  23  24
ENDBRANCH  14  17
ENDBRANCH  12  13
ENDBRANCH   2  12
BRANCH   1  28
HETATM   28  C   UNL     1      -9.740   1.295 -33.586  1.00  0.00    -0.027 A 
HETATM   29  C   UNL     1      -8.820   1.353 -34.643  1.00  0.00     0.011 A 
HETATM   30  C   UNL     1      -7.774   0.424 -34.739  1.00  0.00     0.030 A 
HETATM   31  C   UNL     1      -7.635  -0.614 -33.815  1.00  0.00     0.030 A 
HETATM   32  C   UNL     1      -8.603  -0.716 -32.809  1.00  0.00     0.030 A 
HETATM   33  C   UNL     1      -9.633   0.223 -32.685  1.00  0.00     0.011 A 
BRANCH  31  34
HETATM   34  N   UNL     1      -6.572  -1.514 -33.828  1.00  0.00    -0.382 N 
BRANCH  34  35
HETATM   35  C   UNL     1      -5.192  -1.008 -33.775  1.00  0.00     0.118 C 
HETATM   36  C   UNL     1      -4.691  -0.933 -32.338  1.00  0.00     0.026 C 
ENDBRANCH  34  35
BRANCH  34  37
HETATM   37  C   UNL     1      -6.795  -2.752 -34.591  1.00  0.00     0.118 C 
HETATM   38  C   UNL     1      -5.488  -3.414 -35.008  1.00  0.00     0.026 C 
ENDBRANCH  34  37
ENDBRANCH  31  34
ENDBRANCH   1  28
BRANCH   6  39
HETATM   39  O   UNL     1     -13.321   3.662 -34.189  1.00  0.00    -0.389 OA
HETATM   40  H   UNL     1     -13.923   4.428 -34.115  1.00  0.00     0.210 HD
ENDBRANCH   6  39
TORSDOF 10
ENDMDL
MODEL 8
REMARK VINA RESULT:      -7.6      2.391      5.623
REMARK  10 active torsions:
REMARK  status: ('A' for Active; 'I' for Inactive)
REMARK    1  A    between atoms: C_2  and  N_3 
REMARK    2  A    between atoms: N_3  and  C_4 
REMARK    3  A    between atoms: N_3  and  C_37 
REMARK    4  A    between atoms: C_7  and  C_8 
REMARK    5  A    between atoms: N_9  and  C_11 
REMARK    6  A    between atoms: C_11  and  C_12 
REMARK       I    between atoms: C_12  and  N_13 
REMARK    7  A    between atoms: N_13  and  C_14 
REMARK    8  A    between atoms: C_20  and  C_21 
REMARK    9  A    between atoms: C_21  and  O_22 
REMARK   10  A    between atoms: C_28  and  O_29 
ROOT
HETATM    1  C   UNL     1      -9.432   3.184 -33.111  1.00  0.00     0.228 C 
HETATM    2  N   UNL     1      -9.269   1.673 -33.218  1.00  0.00    -0.054 N 
HETATM    3  H   UNL     1      -8.901   1.377 -32.297  1.00  0.00     0.281 HD
HETATM    4  C   UNL     1     -10.590   0.950 -33.316  1.00  0.00     0.239 C 
HETATM    5  C   UNL     1     -11.380   1.442 -34.518  1.00  0.00     0.066 C 
HETATM    6  C   UNL     1     -11.612   2.950 -34.428  1.00  0.00     0.065 C 
HETATM    7  C   UNL     1     -10.267   3.712 -34.313  1.00  0.00     0.055 C 
HETATM    8  C   UNL     1     -12.417   3.453 -35.639  1.00  0.00     0.038 C 
HETATM    9  C   UNL     1     -12.670   4.958 -35.572  1.00  0.00     0.003 C 
HETATM   10  C   UNL     1     -11.375   5.737 -35.386  1.00  0.00     0.001 C 
HETATM   11  C   UNL     1     -10.562   5.228 -34.196  1.00  0.00     0.010 C 
ENDROOT
BRANCH   2  12
HETATM   12  C   UNL     1      -8.191   1.124 -34.165  1.00  0.00     0.338 C 
BRANCH  12  13
HETATM   13  C   UNL     1      -7.226   0.237 -33.364  1.00  0.00     0.248 C 
HETATM   14  N   UNL     1      -6.149  -0.232 -34.078  1.00  0.00    -0.319 N 
HETATM   15  H   UNL     1      -5.790   0.311 -34.866  1.00  0.00     0.169 HD
HETATM   16  O   UNL     1      -7.523  -0.015 -32.195  1.00  0.00    -0.271 OA
BRANCH  14  17
HETATM   17  C   UNL     1      -5.346  -1.310 -33.716  1.00  0.00     0.094 A 
HETATM   18  S   UNL     1      -5.403  -2.754 -34.598  1.00  0.00    -0.076 SA
HETATM   19  C   UNL     1      -4.158  -3.463 -33.681  1.00  0.00    -0.012 A 
HETATM   20  C   UNL     1      -3.709  -4.853 -34.008  1.00  0.00     0.057 C 
HETATM   21  C   UNL     1      -3.689  -2.614 -32.687  1.00  0.00    -0.030 A 
HETATM   22  C   UNL     1      -2.599  -2.983 -31.724  1.00  0.00     0.050 C 
HETATM   23  C   UNL     1      -4.379  -1.328 -32.718  1.00  0.00     0.080 A 
BRANCH  23  24
HETATM   24  C   UNL     1      -4.164  -0.159 -31.857  1.00  0.00     0.296 C 
HETATM   25  O   UNL     1      -4.408  -0.188 -30.651  1.00  0.00    -0.259 OA
BRANCH  24  26
HETATM   26  O   UNL     1      -3.674   0.925 -32.513  1.00  0.00    -0.322 OA
HETATM   27  C   UNL     1      -3.402   2.058 -31.685  1.00  0.00     0.213 C 
ENDBRANCH  24  26
ENDBRANCH  23  24
ENDBRANCH  14  17
ENDBRANCH  12  13
ENDBRANCH   2  12
BRANCH   1  28
HETATM   28  C   UNL     1      -8.103   3.868 -32.828  1.00  0.00    -0.027 A 
HETATM   29  C   UNL     1      -7.543   3.963 -31.545  1.00  0.00     0.011 A 
HETATM   30  C   UNL     1      -6.274   4.528 -31.354  1.00  0.00     0.030 A 
HETATM   31  C   UNL     1      -5.542   5.053 -32.421  1.00  0.00     0.030 A 
HETATM   32  C   UNL     1      -6.140   5.029 -33.687  1.00  0.00     0.030 A 
HETATM   33  C   UNL     1      -7.393   4.441 -33.894  1.00  0.00     0.011 A 
BRANCH  31  34
HETATM   34  N   UNL     1      -4.250   5.556 -32.290  1.00  0.00    -0.382 N 
BRANCH  34  35
HETATM   35  C   UNL     1      -3.894   6.341 -31.098  1.00  0.00     0.118 C 
HETATM   36  C   UNL     1      -3.614   7.793 -31.463  1.00  0.00     0.026 C 
ENDBRANCH  34  35
BRANCH  34  37
HETATM   37  C   UNL     1      -3.576   5.917 -33.546  1.00  0.00     0.118 C 
HETATM   38  C   UNL     1      -2.295   5.122 -33.762  1.00  0.00     0.026 C 
ENDBRANCH  34  37
ENDBRANCH  31  34
ENDBRANCH   1  28
BRANCH   6  39
HETATM   39  O   UNL     1     -12.363   3.179 -33.231  1.00  0.00    -0.389 OA
HETATM   40  H   UNL     1     -12.428   4.140 -33.066  1.00  0.00     0.210 HD
ENDBRANCH   6  39
TORSDOF 10
ENDMDL
MODEL 9
REMARK VINA RESULT:      -7.6      2.937      6.649
REMARK  10 active torsions:
REMARK  status: ('A' for Active; 'I' for Inactive)
REMARK    1  A    between atoms: C_2  and  N_3 
REMARK    2  A    between atoms: N_3  and  C_4 
REMARK    3  A    between atoms: N_3  and  C_37 
REMARK    4  A    between atoms: C_7  and  C_8 
REMARK    5  A    between atoms: N_9  and  C_11 
REMARK    6  A    between atoms: C_11  and  C_12 
REMARK       I    between atoms: C_12  and  N_13 
REMARK    7  A    between atoms: N_13  and  C_14 
REMARK    8  A    between atoms: C_20  and  C_21 
REMARK    9  A    between atoms: C_21  and  O_22 
REMARK   10  A    between atoms: C_28  and  O_29 
ROOT
HETATM    1  C   UNL     1      -7.195   3.404 -31.582  1.00  0.00     0.228 C 
HETATM    2  N   UNL     1      -7.124   2.077 -32.327  1.00  0.00    -0.054 N 
HETATM    3  H   UNL     1      -6.306   1.586 -31.926  1.00  0.00     0.281 HD
HETATM    4  C   UNL     1      -8.278   1.162 -31.999  1.00  0.00     0.239 C 
HETATM    5  C   UNL     1      -9.602   1.835 -32.322  1.00  0.00     0.066 C 
HETATM    6  C   UNL     1      -9.739   3.149 -31.557  1.00  0.00     0.065 C 
HETATM    7  C   UNL     1      -8.556   4.100 -31.870  1.00  0.00     0.055 C 
HETATM    8  C   UNL     1     -11.081   3.832 -31.876  1.00  0.00     0.038 C 
HETATM    9  C   UNL     1     -11.248   5.147 -31.117  1.00  0.00     0.003 C 
HETATM   10  C   UNL     1     -10.067   6.080 -31.343  1.00  0.00     0.001 C 
HETATM   11  C   UNL     1      -8.730   5.401 -31.047  1.00  0.00     0.010 C 
ENDROOT
BRANCH   2  12
HETATM   12  C   UNL     1      -6.758   2.101 -33.820  1.00  0.00     0.338 C 
BRANCH  12  13
HETATM   13  C   UNL     1      -6.766   0.663 -34.360  1.00  0.00     0.248 C 
HETATM   14  N   UNL     1      -6.351  -0.291 -33.461  1.00  0.00    -0.319 N 
HETATM   15  H   UNL     1      -6.482  -0.133 -32.460  1.00  0.00     0.169 HD
HETATM   16  O   UNL     1      -7.086   0.501 -35.539  1.00  0.00    -0.271 OA
BRANCH  14  17
HETATM   17  C   UNL     1      -5.929  -1.577 -33.785  1.00  0.00     0.094 A 
HETATM   18  S   UNL     1      -6.911  -2.589 -34.725  1.00  0.00    -0.076 SA
HETATM   19  C   UNL     1      -5.741  -3.823 -34.771  1.00  0.00    -0.012 A 
HETATM   20  C   UNL     1      -6.037  -5.083 -35.522  1.00  0.00     0.057 C 
HETATM   21  C   UNL     1      -4.593  -3.485 -34.066  1.00  0.00    -0.030 A 
HETATM   22  C   UNL     1      -3.403  -4.390 -33.932  1.00  0.00     0.050 C 
HETATM   23  C   UNL     1      -4.694  -2.145 -33.497  1.00  0.00     0.080 A 
BRANCH  23  24
HETATM   24  C   UNL     1      -3.696  -1.414 -32.707  1.00  0.00     0.296 C 
HETATM   25  O   UNL     1      -3.150  -1.917 -31.726  1.00  0.00    -0.259 OA
BRANCH  24  26
HETATM   26  O   UNL     1      -3.441  -0.160 -33.167  1.00  0.00    -0.322 OA
HETATM   27  C   UNL     1      -3.420   0.857 -32.164  1.00  0.00     0.213 C 
ENDBRANCH  24  26
ENDBRANCH  23  24
ENDBRANCH  14  17
ENDBRANCH  12  13
ENDBRANCH   2  12
BRANCH   1  28
HETATM   28  C   UNL     1      -5.931   4.226 -31.789  1.00  0.00    -0.027 A 
HETATM   29  C   UNL     1      -4.800   4.120 -30.966  1.00  0.00     0.011 A 
HETATM   30  C   UNL     1      -3.631   4.839 -31.254  1.00  0.00     0.030 A 
HETATM   31  C   UNL     1      -3.562   5.713 -32.341  1.00  0.00     0.030 A 
HETATM   32  C   UNL     1      -4.720   5.876 -33.111  1.00  0.00     0.030 A 
HETATM   33  C   UNL     1      -5.882   5.143 -32.851  1.00  0.00     0.011 A 
BRANCH  31  34
HETATM   34  N   UNL     1      -2.402   6.390 -32.707  1.00  0.00    -0.382 N 
BRANCH  34  35
HETATM   35  C   UNL     1      -1.872   7.449 -31.835  1.00  0.00     0.118 C 
HETATM   36  C   UNL     1      -0.505   7.069 -31.280  1.00  0.00     0.026 C 
ENDBRANCH  34  35
BRANCH  34  37
HETATM   37  C   UNL     1      -2.191   6.557 -34.154  1.00  0.00     0.118 C 
HETATM   38  C   UNL     1      -1.344   5.438 -34.746  1.00  0.00     0.026 C 
ENDBRANCH  34  37
ENDBRANCH  31  34
ENDBRANCH   1  28
BRANCH   6  39
HETATM   39  O   UNL     1      -9.694   2.819 -30.164  1.00  0.00    -0.389 OA
HETATM   40  H   UNL     1      -9.599   1.851 -30.061  1.00  0.00     0.210 HD
ENDBRANCH   6  39
TORSDOF 10
ENDMDL
MODEL 10
REMARK VINA RESULT:      -7.5      2.384      6.206
REMARK  10 active torsions:
REMARK  status: ('A' for Active; 'I' for Inactive)
REMARK    1  A    between atoms: C_2  and  N_3 
REMARK    2  A    between atoms: N_3  and  C_4 
REMARK    3  A    between atoms: N_3  and  C_37 
REMARK    4  A    between atoms: C_7  and  C_8 
REMARK    5  A    between atoms: N_9  and  C_11 
REMARK    6  A    between atoms: C_11  and  C_12 
REMARK       I    between atoms: C_12  and  N_13 
REMARK    7  A    between atoms: N_13  and  C_14 
REMARK    8  A    between atoms: C_20  and  C_21 
REMARK    9  A    between atoms: C_21  and  O_22 
REMARK   10  A    between atoms: C_28  and  O_29 
ROOT
HETATM    1  C   UNL     1      -7.161   1.291 -32.282  1.00  0.00     0.228 C 
HETATM    2  N   UNL     1      -6.232   2.405 -31.816  1.00  0.00    -0.054 N 
HETATM    3  H   UNL     1      -6.711   2.833 -31.005  1.00  0.00     0.281 HD
HETATM    4  C   UNL     1      -4.945   1.882 -31.226  1.00  0.00     0.239 C 
HETATM    5  C   UNL     1      -4.206   1.019 -32.236  1.00  0.00     0.066 C 
HETATM    6  C   UNL     1      -5.085  -0.143 -32.695  1.00  0.00     0.065 C 
HETATM    7  C   UNL     1      -6.419   0.372 -33.293  1.00  0.00     0.055 C 
HETATM    8  C   UNL     1      -4.340  -1.024 -33.714  1.00  0.00     0.038 C 
HETATM    9  C   UNL     1      -5.193  -2.200 -34.185  1.00  0.00     0.003 C 
HETATM   10  C   UNL     1      -6.544  -1.737 -34.714  1.00  0.00     0.001 C 
HETATM   11  C   UNL     1      -7.280  -0.846 -33.714  1.00  0.00     0.010 C 
ENDROOT
BRANCH   2  12
HETATM   12  C   UNL     1      -6.042   3.623 -32.733  1.00  0.00     0.338 C 
BRANCH  12  13
HETATM   13  C   UNL     1      -5.494   4.794 -31.903  1.00  0.00     0.248 C 
HETATM   14  N   UNL     1      -4.551   5.562 -32.545  1.00  0.00    -0.319 N 
HETATM   15  H   UNL     1      -4.570   5.638 -33.564  1.00  0.00     0.169 HD
HETATM   16  O   UNL     1      -5.898   4.908 -30.745  1.00  0.00    -0.271 OA
BRANCH  14  17
HETATM   17  C   UNL     1      -3.657   6.430 -31.925  1.00  0.00     0.094 A 
HETATM   18  S   UNL     1      -4.181   7.940 -31.365  1.00  0.00    -0.076 SA
HETATM   19  C   UNL     1      -2.663   8.311 -30.691  1.00  0.00    -0.012 A 
HETATM   20  C   UNL     1      -2.476   9.618 -29.987  1.00  0.00     0.057 C 
HETATM   21  C   UNL     1      -1.738   7.295 -30.892  1.00  0.00    -0.030 A 
HETATM   22  C   UNL     1      -0.317   7.359 -30.411  1.00  0.00     0.050 C 
HETATM   23  C   UNL     1      -2.331   6.170 -31.606  1.00  0.00     0.080 A 
BRANCH  23  24
HETATM   24  C   UNL     1      -1.699   4.902 -31.992  1.00  0.00     0.296 C 
HETATM   25  O   UNL     1      -1.993   3.839 -31.447  1.00  0.00    -0.259 OA
BRANCH  24  26
HETATM   26  O   UNL     1      -0.786   5.024 -32.991  1.00  0.00    -0.322 OA
HETATM   27  C   UNL     1      -1.317   5.466 -34.241  1.00  0.00     0.213 C 
ENDBRANCH  24  26
ENDBRANCH  23  24
ENDBRANCH  14  17
ENDBRANCH  12  13
ENDBRANCH   2  12
BRANCH   1  28
HETATM   28  C   UNL     1      -8.519   1.837 -32.698  1.00  0.00    -0.027 A 
HETATM   29  C   UNL     1      -9.472   2.311 -31.785  1.00  0.00     0.011 A 
HETATM   30  C   UNL     1     -10.673   2.884 -32.229  1.00  0.00     0.030 A 
HETATM   31  C   UNL     1     -10.981   2.966 -33.589  1.00  0.00     0.030 A 
HETATM   32  C   UNL     1     -10.062   2.419 -34.492  1.00  0.00     0.030 A 
HETATM   33  C   UNL     1      -8.848   1.872 -34.063  1.00  0.00     0.011 A 
BRANCH  31  34
HETATM   34  N   UNL     1     -12.124   3.592 -34.078  1.00  0.00    -0.382 N 
BRANCH  34  35
HETATM   35  C   UNL     1     -12.900   4.479 -33.198  1.00  0.00     0.118 C 
HETATM   36  C   UNL     1     -12.513   5.937 -33.411  1.00  0.00     0.026 C 
ENDBRANCH  34  35
BRANCH  34  37
HETATM   37  C   UNL     1     -12.881   2.837 -35.089  1.00  0.00     0.118 C 
HETATM   38  C   UNL     1     -13.660   1.679 -34.480  1.00  0.00     0.026 C 
ENDBRANCH  34  37
ENDBRANCH  31  34
ENDBRANCH   1  28
BRANCH   6  39
HETATM   39  O   UNL     1      -5.384  -0.917 -31.528  1.00  0.00    -0.389 OA
HETATM   40  H   UNL     1      -6.352  -0.935 -31.388  1.00  0.00     0.210 HD
ENDBRANCH   6  39
TORSDOF 10
ENDMDL
