MODEL 1
REMARK VINA RESULT:      -9.3      0.000      0.000
REMARK  4 active torsions:
REMARK  status: ('A' for Active; 'I' for Inactive)
REMARK    1  A    between atoms: C_6  and  N_7 
REMARK       I    between atoms: N_7  and  C_8 
REMARK    2  A    between atoms: C_8  and  C_9 
REMARK    3  A    between atoms: C_10  and  C_11 
REMARK    4  A    between atoms: C_14  and  O_15 
ROOT
HETATM    1  C   UNL     1      -7.642   2.313 -33.949  1.00  0.00     0.125 C 
HETATM    2  C   UNL     1      -8.666   1.915 -32.851  1.00  0.00     0.160 C 
HETATM    3  N   UNL     1      -8.717   2.872 -31.754  1.00  0.00    -0.231 N 
HETATM    4  C   UNL     1      -7.972   4.015 -31.679  1.00  0.00     0.200 A 
HETATM    5  N   UNL     1      -7.098   4.333 -32.654  1.00  0.00    -0.256 NA
HETATM    6  C   UNL     1      -6.509   3.208 -33.389  1.00  0.00     0.074 C 
HETATM    7  C   UNL     1      -5.637   3.784 -34.510  1.00  0.00     0.027 C 
HETATM    8  N   UNL     1      -9.430   2.680 -30.627  1.00  0.00    -0.162 NA
HETATM    9  C   UNL     1      -9.129   3.795 -29.951  1.00  0.00     0.258 A 
HETATM   10  N   UNL     1      -8.239   4.637 -30.562  1.00  0.00    -0.210 NA
HETATM   11  H   UNL     1      -6.432   5.055 -32.379  1.00  0.00     0.131 HD
ENDROOT
BRANCH   1  12
HETATM   12  C   UNL     1      -7.049   1.036 -34.528  1.00  0.00     0.230 C 
HETATM   13  N   UNL     1      -6.585   0.151 -33.570  1.00  0.00    -0.326 N 
HETATM   14  H   UNL     1      -6.322   0.548 -32.674  1.00  0.00     0.169 HD
HETATM   15  O   UNL     1      -6.955   0.882 -35.743  1.00  0.00    -0.273 OA
BRANCH  13  16
HETATM   16  C   UNL     1      -6.056  -1.133 -33.837  1.00  0.00     0.040 A 
HETATM   17  C   UNL     1      -4.716  -1.510 -33.635  1.00  0.00    -0.035 A 
HETATM   18  C   UNL     1      -4.339  -2.845 -33.889  1.00  0.00     0.015 A 
HETATM   19  C   UNL     1      -3.623  -0.568 -33.211  1.00  0.00     0.050 C 
HETATM   20  C   UNL     1      -5.244  -3.780 -34.402  1.00  0.00    -0.061 A 
HETATM   21  C   UNL     1      -4.826  -5.200 -34.639  1.00  0.00     0.048 C 
HETATM   22  C   UNL     1      -6.555  -3.376 -34.655  1.00  0.00     0.009 A 
HETATM   23  C   UNL     1      -6.951  -2.063 -34.391  1.00  0.00     0.030 A 
ENDBRANCH  13  16
ENDBRANCH   1  12
BRANCH   2  24
HETATM   24  C   UNL     1     -10.063   1.737 -33.447  1.00  0.00    -0.032 A 
HETATM   25  C   UNL     1     -10.620   2.734 -34.257  1.00  0.00     0.012 A 
HETATM   26  C   UNL     1     -11.908   2.584 -34.778  1.00  0.00     0.037 A 
HETATM   27  C   UNL     1     -12.661   1.438 -34.508  1.00  0.00     0.068 A 
HETATM   28  C   UNL     1     -12.111   0.435 -33.714  1.00  0.00     0.037 A 
HETATM   29  C   UNL     1     -10.821   0.580 -33.191  1.00  0.00     0.012 A 
BRANCH  27  30
HETATM   30  O   UNL     1     -13.905   1.421 -35.076  1.00  0.00    -0.356 OA
HETATM   31  C   UNL     1     -14.934   0.760 -34.350  1.00  0.00     0.210 C 
ENDBRANCH  27  30
ENDBRANCH   2  24
TORSDOF 4
ENDMDL
MODEL 2
REMARK VINA RESULT:      -8.9      1.319      1.631
REMARK  4 active torsions:
REMARK  status: ('A' for Active; 'I' for Inactive)
REMARK    1  A    between atoms: C_6  and  N_7 
REMARK       I    between atoms: N_7  and  C_8 
REMARK    2  A    between atoms: C_8  and  C_9 
REMARK    3  A    between atoms: C_10  and  C_11 
REMARK    4  A    between atoms: C_14  and  O_15 
ROOT
HETATM    1  C   UNL     1      -6.959   2.282 -32.541  1.00  0.00     0.125 C 
HETATM    2  C   UNL     1      -8.313   2.441 -31.794  1.00  0.00     0.160 C 
HETATM    3  N   UNL     1      -8.427   3.716 -31.099  1.00  0.00    -0.231 N 
HETATM    4  C   UNL     1      -7.474   4.694 -31.100  1.00  0.00     0.200 A 
HETATM    5  N   UNL     1      -6.313   4.526 -31.764  1.00  0.00    -0.256 NA
HETATM    6  C   UNL     1      -5.841   3.143 -31.904  1.00  0.00     0.074 C 
HETATM    7  C   UNL     1      -4.579   3.164 -32.772  1.00  0.00     0.027 C 
HETATM    8  N   UNL     1      -9.449   4.031 -30.279  1.00  0.00    -0.162 NA
HETATM    9  C   UNL     1      -9.081   5.255 -29.885  1.00  0.00     0.258 A 
HETATM   10  N   UNL     1      -7.877   5.697 -30.366  1.00  0.00    -0.210 NA
HETATM   11  H   UNL     1      -5.592   5.195 -31.494  1.00  0.00     0.131 HD
ENDROOT
BRANCH   1  12
HETATM   12  C   UNL     1      -6.563   0.813 -32.496  1.00  0.00     0.230 C 
HETATM   13  N   UNL     1      -6.363   0.250 -33.744  1.00  0.00    -0.326 N 
HETATM   14  H   UNL     1      -6.843   0.689 -34.523  1.00  0.00     0.169 HD
HETATM   15  O   UNL     1      -6.504   0.211 -31.427  1.00  0.00    -0.273 OA
BRANCH  13  16
HETATM   16  C   UNL     1      -5.922  -1.074 -33.980  1.00  0.00     0.040 A 
HETATM   17  C   UNL     1      -4.616  -1.541 -33.746  1.00  0.00    -0.035 A 
HETATM   18  C   UNL     1      -4.330  -2.903 -33.971  1.00  0.00     0.015 A 
HETATM   19  C   UNL     1      -3.466  -0.670 -33.318  1.00  0.00     0.050 C 
HETATM   20  C   UNL     1      -5.291  -3.780 -34.486  1.00  0.00    -0.061 A 
HETATM   21  C   UNL     1      -4.970  -5.231 -34.691  1.00  0.00     0.048 C 
HETATM   22  C   UNL     1      -6.565  -3.290 -34.769  1.00  0.00     0.009 A 
HETATM   23  C   UNL     1      -6.871  -1.947 -34.534  1.00  0.00     0.030 A 
ENDBRANCH  13  16
ENDBRANCH   1  12
BRANCH   2  24
HETATM   24  C   UNL     1      -9.489   2.269 -32.756  1.00  0.00    -0.032 A 
HETATM   25  C   UNL     1     -10.239   1.086 -32.753  1.00  0.00     0.012 A 
HETATM   26  C   UNL     1     -11.297   0.918 -33.651  1.00  0.00     0.037 A 
HETATM   27  C   UNL     1     -11.631   1.924 -34.562  1.00  0.00     0.068 A 
HETATM   28  C   UNL     1     -10.900   3.109 -34.563  1.00  0.00     0.037 A 
HETATM   29  C   UNL     1      -9.841   3.283 -33.665  1.00  0.00     0.012 A 
BRANCH  27  30
HETATM   30  O   UNL     1     -12.683   1.628 -35.384  1.00  0.00    -0.356 OA
HETATM   31  C   UNL     1     -13.912   1.282 -34.757  1.00  0.00     0.210 C 
ENDBRANCH  27  30
ENDBRANCH   2  24
TORSDOF 4
ENDMDL
MODEL 3
REMARK VINA RESULT:      -8.6      3.579      6.141
REMARK  4 active torsions:
REMARK  status: ('A' for Active; 'I' for Inactive)
REMARK    1  A    between atoms: C_6  and  N_7 
REMARK       I    between atoms: N_7  and  C_8 
REMARK    2  A    between atoms: C_8  and  C_9 
REMARK    3  A    between atoms: C_10  and  C_11 
REMARK    4  A    between atoms: C_14  and  O_15 
ROOT
HETATM    1  C   UNL     1      -5.501   2.631 -31.890  1.00  0.00     0.125 C 
HETATM    2  C   UNL     1      -5.814   3.445 -33.175  1.00  0.00     0.160 C 
HETATM    3  N   UNL     1      -7.088   4.150 -33.100  1.00  0.00    -0.231 N 
HETATM    4  C   UNL     1      -7.928   4.132 -32.024  1.00  0.00     0.200 A 
HETATM    5  N   UNL     1      -7.621   3.420 -30.921  1.00  0.00    -0.256 NA
HETATM    6  C   UNL     1      -6.789   2.229 -31.130  1.00  0.00     0.074 C 
HETATM    7  C   UNL     1      -6.471   1.632 -29.755  1.00  0.00     0.027 C 
HETATM    8  N   UNL     1      -7.636   4.815 -34.136  1.00  0.00    -0.162 NA
HETATM    9  C   UNL     1      -8.774   5.244 -33.579  1.00  0.00     0.258 A 
HETATM   10  N   UNL     1      -8.990   4.846 -32.287  1.00  0.00    -0.210 NA
HETATM   11  H   UNL     1      -8.416   3.278 -30.298  1.00  0.00     0.131 HD
ENDROOT
BRANCH   1  12
HETATM   12  C   UNL     1      -4.734   1.381 -32.297  1.00  0.00     0.230 C 
HETATM   13  N   UNL     1      -5.536   0.267 -32.475  1.00  0.00    -0.326 N 
HETATM   14  H   UNL     1      -6.419   0.257 -31.975  1.00  0.00     0.169 HD
HETATM   15  O   UNL     1      -3.510   1.396 -32.384  1.00  0.00    -0.273 OA
BRANCH  13  16
HETATM   16  C   UNL     1      -5.085  -0.998 -32.921  1.00  0.00     0.040 A 
HETATM   17  C   UNL     1      -5.576  -1.675 -34.051  1.00  0.00    -0.035 A 
HETATM   18  C   UNL     1      -4.992  -2.907 -34.413  1.00  0.00     0.015 A 
HETATM   19  C   UNL     1      -6.733  -1.203 -34.889  1.00  0.00     0.050 C 
HETATM   20  C   UNL     1      -3.991  -3.502 -33.638  1.00  0.00    -0.061 A 
HETATM   21  C   UNL     1      -3.367  -4.799 -34.059  1.00  0.00     0.048 C 
HETATM   22  C   UNL     1      -3.556  -2.848 -32.486  1.00  0.00     0.009 A 
HETATM   23  C   UNL     1      -4.109  -1.618 -32.123  1.00  0.00     0.030 A 
ENDBRANCH  13  16
ENDBRANCH   1  12
BRANCH   2  24
HETATM   24  C   UNL     1      -4.692   4.438 -33.480  1.00  0.00    -0.032 A 
HETATM   25  C   UNL     1      -4.037   5.108 -32.438  1.00  0.00     0.012 A 
HETATM   26  C   UNL     1      -3.031   6.036 -32.718  1.00  0.00     0.037 A 
HETATM   27  C   UNL     1      -2.654   6.310 -34.035  1.00  0.00     0.068 A 
HETATM   28  C   UNL     1      -3.290   5.640 -35.077  1.00  0.00     0.037 A 
HETATM   29  C   UNL     1      -4.297   4.708 -34.802  1.00  0.00     0.012 A 
BRANCH  27  30
HETATM   30  O   UNL     1      -1.660   7.241 -34.167  1.00  0.00    -0.356 OA
HETATM   31  C   UNL     1      -0.902   7.542 -33.001  1.00  0.00     0.210 C 
ENDBRANCH  27  30
ENDBRANCH   2  24
TORSDOF 4
ENDMDL
MODEL 4
REMARK VINA RESULT:      -8.5      2.242      5.164
REMARK  4 active torsions:
REMARK  status: ('A' for Active; 'I' for Inactive)
REMARK    1  A    between atoms: C_6  and  N_7 
REMARK       I    between atoms: N_7  and  C_8 
REMARK    2  A    between atoms: C_8  and  C_9 
REMARK    3  A    between atoms: C_10  and  C_11 
REMARK    4  A    between atoms: C_14  and  O_15 
ROOT
HETATM    1  C   UNL     1      -8.284   1.786 -33.422  1.00  0.00     0.125 C 
HETATM    2  C   UNL     1      -7.765   3.148 -33.961  1.00  0.00     0.160 C 
HETATM    3  N   UNL     1      -8.802   4.172 -33.996  1.00  0.00    -0.231 N 
HETATM    4  C   UNL     1     -10.092   3.990 -33.589  1.00  0.00     0.200 A 
HETATM    5  N   UNL     1     -10.507   2.796 -33.120  1.00  0.00    -0.256 NA
HETATM    6  C   UNL     1      -9.807   1.617 -33.643  1.00  0.00     0.074 C 
HETATM    7  C   UNL     1     -10.351   0.386 -32.911  1.00  0.00     0.027 C 
HETATM    8  N   UNL     1      -8.629   5.391 -34.542  1.00  0.00    -0.162 NA
HETATM    9  C   UNL     1      -9.842   5.921 -34.351  1.00  0.00     0.258 A 
HETATM   10  N   UNL     1     -10.767   5.095 -33.771  1.00  0.00    -0.210 NA
HETATM   11  H   UNL     1     -11.522   2.706 -33.085  1.00  0.00     0.131 HD
ENDROOT
BRANCH   1  12
HETATM   12  C   UNL     1      -7.534   0.676 -34.145  1.00  0.00     0.230 C 
HETATM   13  N   UNL     1      -7.028  -0.298 -33.302  1.00  0.00    -0.326 N 
HETATM   14  H   UNL     1      -6.851  -0.020 -32.342  1.00  0.00     0.169 HD
HETATM   15  O   UNL     1      -7.367   0.719 -35.361  1.00  0.00    -0.273 OA
BRANCH  13  16
HETATM   16  C   UNL     1      -6.356  -1.470 -33.721  1.00  0.00     0.040 A 
HETATM   17  C   UNL     1      -4.964  -1.664 -33.664  1.00  0.00    -0.035 A 
HETATM   18  C   UNL     1      -4.434  -2.909 -34.064  1.00  0.00     0.015 A 
HETATM   19  C   UNL     1      -3.975  -0.609 -33.252  1.00  0.00     0.050 C 
HETATM   20  C   UNL     1      -5.248  -3.923 -34.579  1.00  0.00    -0.061 A 
HETATM   21  C   UNL     1      -4.664  -5.247 -34.972  1.00  0.00     0.048 C 
HETATM   22  C   UNL     1      -6.620  -3.694 -34.686  1.00  0.00     0.009 A 
HETATM   23  C   UNL     1      -7.165  -2.475 -34.277  1.00  0.00     0.030 A 
ENDBRANCH  13  16
ENDBRANCH   1  12
BRANCH   2  24
HETATM   24  C   UNL     1      -6.577   3.644 -33.136  1.00  0.00    -0.032 A 
HETATM   25  C   UNL     1      -5.415   4.100 -33.772  1.00  0.00     0.012 A 
HETATM   26  C   UNL     1      -4.318   4.527 -33.018  1.00  0.00     0.037 A 
HETATM   27  C   UNL     1      -4.360   4.514 -31.621  1.00  0.00     0.068 A 
HETATM   28  C   UNL     1      -5.516   4.076 -30.980  1.00  0.00     0.037 A 
HETATM   29  C   UNL     1      -6.617   3.649 -31.730  1.00  0.00     0.012 A 
BRANCH  27  30
HETATM   30  O   UNL     1      -3.219   4.954 -31.008  1.00  0.00    -0.356 OA
HETATM   31  C   UNL     1      -1.985   4.631 -31.638  1.00  0.00     0.210 C 
ENDBRANCH  27  30
ENDBRANCH   2  24
TORSDOF 4
ENDMDL
MODEL 5
REMARK VINA RESULT:      -8.5      2.284      3.055
REMARK  4 active torsions:
REMARK  status: ('A' for Active; 'I' for Inactive)
REMARK    1  A    between atoms: C_6  and  N_7 
REMARK       I    between atoms: N_7  and  C_8 
REMARK    2  A    between atoms: C_8  and  C_9 
REMARK    3  A    between atoms: C_10  and  C_11 
REMARK    4  A    between atoms: C_14  and  O_15 
ROOT
HETATM    1  C   UNL     1      -5.797   2.695 -31.548  1.00  0.00     0.125 C 
HETATM    2  C   UNL     1      -7.045   3.099 -30.715  1.00  0.00     0.160 C 
HETATM    3  N   UNL     1      -6.772   4.185 -29.782  1.00  0.00    -0.231 N 
HETATM    4  C   UNL     1      -5.566   4.812 -29.645  1.00  0.00     0.200 A 
HETATM    5  N   UNL     1      -4.506   4.440 -30.390  1.00  0.00    -0.256 NA
HETATM    6  C   UNL     1      -4.476   3.037 -30.818  1.00  0.00     0.074 C 
HETATM    7  C   UNL     1      -3.260   2.851 -31.731  1.00  0.00     0.027 C 
HETATM    8  N   UNL     1      -7.656   4.621 -28.864  1.00  0.00    -0.162 NA
HETATM    9  C   UNL     1      -6.937   5.575 -28.262  1.00  0.00     0.258 A 
HETATM   10  N   UNL     1      -5.652   5.722 -28.711  1.00  0.00    -0.210 NA
HETATM   11  H   UNL     1      -3.618   4.795 -30.034  1.00  0.00     0.131 HD
ENDROOT
BRANCH   1  12
HETATM   12  C   UNL     1      -5.868   1.197 -31.809  1.00  0.00     0.230 C 
HETATM   13  N   UNL     1      -5.816   0.860 -33.150  1.00  0.00    -0.326 N 
HETATM   14  H   UNL     1      -6.121   1.569 -33.809  1.00  0.00     0.169 HD
HETATM   15  O   UNL     1      -6.020   0.406 -30.882  1.00  0.00    -0.273 OA
BRANCH  13  16
HETATM   16  C   UNL     1      -5.792  -0.461 -33.658  1.00  0.00     0.040 A 
HETATM   17  C   UNL     1      -4.665  -1.302 -33.661  1.00  0.00    -0.035 A 
HETATM   18  C   UNL     1      -4.800  -2.618 -34.147  1.00  0.00     0.015 A 
HETATM   19  C   UNL     1      -3.288  -0.879 -33.226  1.00  0.00     0.050 C 
HETATM   20  C   UNL     1      -6.003  -3.082 -34.689  1.00  0.00    -0.061 A 
HETATM   21  C   UNL     1      -6.129  -4.496 -35.174  1.00  0.00     0.048 C 
HETATM   22  C   UNL     1      -7.097  -2.218 -34.734  1.00  0.00     0.009 A 
HETATM   23  C   UNL     1      -6.987  -0.916 -34.240  1.00  0.00     0.030 A 
ENDBRANCH  13  16
ENDBRANCH   1  12
BRANCH   2  24
HETATM   24  C   UNL     1      -8.210   3.484 -31.628  1.00  0.00    -0.032 A 
HETATM   25  C   UNL     1      -9.409   2.760 -31.588  1.00  0.00     0.012 A 
HETATM   26  C   UNL     1     -10.464   3.094 -32.442  1.00  0.00     0.037 A 
HETATM   27  C   UNL     1     -10.347   4.154 -33.345  1.00  0.00     0.068 A 
HETATM   28  C   UNL     1      -9.164   4.888 -33.383  1.00  0.00     0.037 A 
HETATM   29  C   UNL     1      -8.106   4.559 -32.529  1.00  0.00     0.012 A 
BRANCH  27  30
HETATM   30  O   UNL     1     -11.451   4.370 -34.124  1.00  0.00    -0.356 OA
HETATM   31  C   UNL     1     -12.422   3.332 -34.164  1.00  0.00     0.210 C 
ENDBRANCH  27  30
ENDBRANCH   2  24
TORSDOF 4
ENDMDL
MODEL 6
REMARK VINA RESULT:      -8.4      3.173      6.338
REMARK  4 active torsions:
REMARK  status: ('A' for Active; 'I' for Inactive)
REMARK    1  A    between atoms: C_6  and  N_7 
REMARK       I    between atoms: N_7  and  C_8 
REMARK    2  A    between atoms: C_8  and  C_9 
REMARK    3  A    between atoms: C_10  and  C_11 
REMARK    4  A    between atoms: C_14  and  O_15 
ROOT
HETATM    1  C   UNL     1      -6.333   3.082 -32.054  1.00  0.00     0.125 C 
HETATM    2  C   UNL     1      -5.786   4.373 -32.722  1.00  0.00     0.160 C 
HETATM    3  N   UNL     1      -6.456   5.579 -32.252  1.00  0.00    -0.231 N 
HETATM    4  C   UNL     1      -7.448   5.605 -31.313  1.00  0.00     0.200 A 
HETATM    5  N   UNL     1      -7.894   4.465 -30.748  1.00  0.00    -0.256 NA
HETATM    6  C   UNL     1      -7.793   3.253 -31.570  1.00  0.00     0.074 C 
HETATM    7  C   UNL     1      -8.248   2.067 -30.713  1.00  0.00     0.027 C 
HETATM    8  N   UNL     1      -6.247   6.802 -32.775  1.00  0.00    -0.162 NA
HETATM    9  C   UNL     1      -7.094   7.533 -32.041  1.00  0.00     0.258 A 
HETATM   10  N   UNL     1      -7.847   6.836 -31.134  1.00  0.00    -0.210 NA
HETATM   11  H   UNL     1      -8.784   4.576 -30.263  1.00  0.00     0.131 HD
ENDROOT
BRANCH   1  12
HETATM   12  C   UNL     1      -6.259   1.954 -33.074  1.00  0.00     0.230 C 
HETATM   13  N   UNL     1      -5.931   0.726 -32.526  1.00  0.00    -0.326 N 
HETATM   14  H   UNL     1      -5.415   0.741 -31.653  1.00  0.00     0.169 HD
HETATM   15  O   UNL     1      -6.421   2.178 -34.270  1.00  0.00    -0.273 OA
BRANCH  13  16
HETATM   16  C   UNL     1      -5.867  -0.493 -33.241  1.00  0.00     0.040 A 
HETATM   17  C   UNL     1      -4.681  -1.180 -33.557  1.00  0.00    -0.035 A 
HETATM   18  C   UNL     1      -4.770  -2.419 -34.225  1.00  0.00     0.015 A 
HETATM   19  C   UNL     1      -3.298  -0.660 -33.278  1.00  0.00     0.050 C 
HETATM   20  C   UNL     1      -5.998  -2.943 -34.642  1.00  0.00    -0.061 A 
HETATM   21  C   UNL     1      -6.068  -4.275 -35.327  1.00  0.00     0.048 C 
HETATM   22  C   UNL     1      -7.162  -2.222 -34.375  1.00  0.00     0.009 A 
HETATM   23  C   UNL     1      -7.095  -1.002 -33.697  1.00  0.00     0.030 A 
ENDBRANCH  13  16
ENDBRANCH   1  12
BRANCH   2  24
HETATM   24  C   UNL     1      -4.277   4.503 -32.504  1.00  0.00    -0.032 A 
HETATM   25  C   UNL     1      -3.760   4.669 -31.213  1.00  0.00     0.012 A 
HETATM   26  C   UNL     1      -2.384   4.816 -31.018  1.00  0.00     0.037 A 
HETATM   27  C   UNL     1      -1.499   4.795 -32.099  1.00  0.00     0.068 A 
HETATM   28  C   UNL     1      -2.004   4.618 -33.386  1.00  0.00     0.037 A 
HETATM   29  C   UNL     1      -3.380   4.468 -33.586  1.00  0.00     0.012 A 
BRANCH  27  30
HETATM   30  O   UNL     1      -0.182   4.953 -31.768  1.00  0.00    -0.356 OA
HETATM   31  C   UNL     1       0.113   5.178 -30.395  1.00  0.00     0.210 C 
ENDBRANCH  27  30
ENDBRANCH   2  24
TORSDOF 4
ENDMDL
MODEL 7
REMARK VINA RESULT:      -8.3      2.730      5.021
REMARK  4 active torsions:
REMARK  status: ('A' for Active; 'I' for Inactive)
REMARK    1  A    between atoms: C_6  and  N_7 
REMARK       I    between atoms: N_7  and  C_8 
REMARK    2  A    between atoms: C_8  and  C_9 
REMARK    3  A    between atoms: C_10  and  C_11 
REMARK    4  A    between atoms: C_14  and  O_15 
ROOT
HETATM    1  C   UNL     1      -9.663   2.046 -32.837  1.00  0.00     0.125 C 
HETATM    2  C   UNL     1      -8.845   3.331 -33.143  1.00  0.00     0.160 C 
HETATM    3  N   UNL     1      -9.541   4.241 -34.044  1.00  0.00    -0.231 N 
HETATM    4  C   UNL     1     -10.785   4.025 -34.564  1.00  0.00     0.200 A 
HETATM    5  N   UNL     1     -11.470   2.901 -34.271  1.00  0.00    -0.256 NA
HETATM    6  C   UNL     1     -10.664   1.712 -33.969  1.00  0.00     0.074 C 
HETATM    7  C   UNL     1     -11.622   0.587 -33.563  1.00  0.00     0.027 C 
HETATM    8  N   UNL     1      -8.984   5.355 -34.557  1.00  0.00    -0.162 NA
HETATM    9  C   UNL     1      -9.988   5.806 -35.317  1.00  0.00     0.258 A 
HETATM   10  N   UNL     1     -11.108   5.019 -35.348  1.00  0.00    -0.210 NA
HETATM   11  H   UNL     1     -12.256   2.733 -34.898  1.00  0.00     0.131 HD
ENDROOT
BRANCH   1  12
HETATM   12  C   UNL     1      -8.684   0.893 -32.661  1.00  0.00     0.230 C 
HETATM   13  N   UNL     1      -7.931   0.623 -33.790  1.00  0.00    -0.326 N 
HETATM   14  H   UNL     1      -8.330   0.902 -34.680  1.00  0.00     0.169 HD
HETATM   15  O   UNL     1      -8.650   0.253 -31.613  1.00  0.00    -0.273 OA
BRANCH  13  16
HETATM   16  C   UNL     1      -6.903  -0.347 -33.871  1.00  0.00     0.040 A 
HETATM   17  C   UNL     1      -5.595  -0.176 -33.383  1.00  0.00    -0.035 A 
HETATM   18  C   UNL     1      -4.688  -1.251 -33.479  1.00  0.00     0.015 A 
HETATM   19  C   UNL     1      -5.065   1.107 -32.804  1.00  0.00     0.050 C 
HETATM   20  C   UNL     1      -5.034  -2.451 -34.108  1.00  0.00    -0.061 A 
HETATM   21  C   UNL     1      -4.060  -3.590 -34.174  1.00  0.00     0.048 C 
HETATM   22  C   UNL     1      -6.316  -2.585 -34.641  1.00  0.00     0.009 A 
HETATM   23  C   UNL     1      -7.235  -1.537 -34.538  1.00  0.00     0.030 A 
ENDBRANCH  13  16
ENDBRANCH   1  12
BRANCH   2  24
HETATM   24  C   UNL     1      -8.476   4.064 -31.852  1.00  0.00    -0.032 A 
HETATM   25  C   UNL     1      -7.140   4.134 -31.435  1.00  0.00     0.012 A 
HETATM   26  C   UNL     1      -6.806   4.779 -30.241  1.00  0.00     0.037 A 
HETATM   27  C   UNL     1      -7.791   5.370 -29.446  1.00  0.00     0.068 A 
HETATM   28  C   UNL     1      -9.121   5.317 -29.859  1.00  0.00     0.037 A 
HETATM   29  C   UNL     1      -9.460   4.674 -31.054  1.00  0.00     0.012 A 
BRANCH  27  30
HETATM   30  O   UNL     1      -7.329   5.964 -28.304  1.00  0.00    -0.356 OA
HETATM   31  C   UNL     1      -5.990   5.671 -27.924  1.00  0.00     0.210 C 
ENDBRANCH  27  30
ENDBRANCH   2  24
TORSDOF 4
ENDMDL
MODEL 8
REMARK VINA RESULT:      -8.3      2.851      7.012
REMARK  4 active torsions:
REMARK  status: ('A' for Active; 'I' for Inactive)
REMARK    1  A    between atoms: C_6  and  N_7 
REMARK       I    between atoms: N_7  and  C_8 
REMARK    2  A    between atoms: C_8  and  C_9 
REMARK    3  A    between atoms: C_10  and  C_11 
REMARK    4  A    between atoms: C_14  and  O_15 
ROOT
HETATM    1  C   UNL     1      -5.741   3.054 -31.006  1.00  0.00     0.125 C 
HETATM    2  C   UNL     1      -4.828   2.752 -32.226  1.00  0.00     0.160 C 
HETATM    3  N   UNL     1      -3.672   3.637 -32.298  1.00  0.00    -0.231 N 
HETATM    4  C   UNL     1      -3.385   4.621 -31.395  1.00  0.00     0.200 A 
HETATM    5  N   UNL     1      -4.196   4.851 -30.343  1.00  0.00    -0.256 NA
HETATM    6  C   UNL     1      -5.614   4.524 -30.535  1.00  0.00     0.074 C 
HETATM    7  C   UNL     1      -6.333   4.755 -29.203  1.00  0.00     0.027 C 
HETATM    8  N   UNL     1      -2.809   3.656 -33.332  1.00  0.00    -0.162 NA
HETATM    9  C   UNL     1      -1.975   4.626 -32.940  1.00  0.00     0.258 A 
HETATM   10  N   UNL     1      -2.294   5.242 -31.759  1.00  0.00    -0.210 NA
HETATM   11  H   UNL     1      -4.025   5.749 -29.890  1.00  0.00     0.131 HD
ENDROOT
BRANCH   1  12
HETATM   12  C   UNL     1      -7.181   2.768 -31.411  1.00  0.00     0.230 C 
HETATM   13  N   UNL     1      -7.423   2.927 -32.764  1.00  0.00    -0.326 N 
HETATM   14  H   UNL     1      -6.803   3.554 -33.266  1.00  0.00     0.169 HD
HETATM   15  O   UNL     1      -8.026   2.487 -30.566  1.00  0.00    -0.273 OA
BRANCH  13  16
HETATM   16  C   UNL     1      -8.653   2.656 -33.409  1.00  0.00     0.040 A 
HETATM   17  C   UNL     1      -9.195   1.373 -33.602  1.00  0.00    -0.035 A 
HETATM   18  C   UNL     1     -10.461   1.255 -34.211  1.00  0.00     0.015 A 
HETATM   19  C   UNL     1      -8.491   0.092 -33.251  1.00  0.00     0.050 C 
HETATM   20  C   UNL     1     -11.155   2.371 -34.689  1.00  0.00    -0.061 A 
HETATM   21  C   UNL     1     -12.513   2.222 -35.308  1.00  0.00     0.048 C 
HETATM   22  C   UNL     1     -10.578   3.633 -34.544  1.00  0.00     0.009 A 
HETATM   23  C   UNL     1      -9.333   3.771 -33.926  1.00  0.00     0.030 A 
ENDBRANCH  13  16
ENDBRANCH   1  12
BRANCH   2  24
HETATM   24  C   UNL     1      -4.364   1.295 -32.213  1.00  0.00    -0.032 A 
HETATM   25  C   UNL     1      -4.923   0.367 -33.100  1.00  0.00     0.012 A 
HETATM   26  C   UNL     1      -4.519  -0.971 -33.069  1.00  0.00     0.037 A 
HETATM   27  C   UNL     1      -3.549  -1.406 -32.162  1.00  0.00     0.068 A 
HETATM   28  C   UNL     1      -2.977  -0.487 -31.285  1.00  0.00     0.037 A 
HETATM   29  C   UNL     1      -3.378   0.853 -31.314  1.00  0.00     0.012 A 
BRANCH  27  30
HETATM   30  O   UNL     1      -3.249  -2.739 -32.235  1.00  0.00    -0.356 OA
HETATM   31  C   UNL     1      -3.771  -3.454 -33.349  1.00  0.00     0.210 C 
ENDBRANCH  27  30
ENDBRANCH   2  24
TORSDOF 4
ENDMDL
MODEL 9
REMARK VINA RESULT:      -8.3      2.002      6.571
REMARK  4 active torsions:
REMARK  status: ('A' for Active; 'I' for Inactive)
REMARK    1  A    between atoms: C_6  and  N_7 
REMARK       I    between atoms: N_7  and  C_8 
REMARK    2  A    between atoms: C_8  and  C_9 
REMARK    3  A    between atoms: C_10  and  C_11 
REMARK    4  A    between atoms: C_14  and  O_15 
ROOT
HETATM    1  C   UNL     1      -7.624   2.901 -31.743  1.00  0.00     0.125 C 
HETATM    2  C   UNL     1      -7.132   2.816 -33.215  1.00  0.00     0.160 C 
HETATM    3  N   UNL     1      -6.093   3.792 -33.519  1.00  0.00    -0.231 N 
HETATM    4  C   UNL     1      -5.574   4.684 -32.624  1.00  0.00     0.200 A 
HETATM    5  N   UNL     1      -6.020   4.726 -31.353  1.00  0.00    -0.256 NA
HETATM    6  C   UNL     1      -7.412   4.311 -31.141  1.00  0.00     0.074 C 
HETATM    7  C   UNL     1      -7.682   4.329 -29.633  1.00  0.00     0.027 C 
HETATM    8  N   UNL     1      -5.602   3.999 -34.756  1.00  0.00    -0.162 NA
HETATM    9  C   UNL     1      -4.726   4.980 -34.513  1.00  0.00     0.258 A 
HETATM   10  N   UNL     1      -4.679   5.428 -33.220  1.00  0.00    -0.210 NA
HETATM   11  H   UNL     1      -5.750   5.575 -30.858  1.00  0.00     0.131 HD
ENDROOT
BRANCH   1  12
HETATM   12  C   UNL     1      -9.105   2.550 -31.719  1.00  0.00     0.230 C 
HETATM   13  N   UNL     1      -9.694   2.526 -32.972  1.00  0.00    -0.326 N 
HETATM   14  H   UNL     1      -9.251   3.087 -33.693  1.00  0.00     0.169 HD
HETATM   15  O   UNL     1      -9.691   2.375 -30.655  1.00  0.00    -0.273 OA
BRANCH  13  16
HETATM   16  C   UNL     1     -11.035   2.161 -33.234  1.00  0.00     0.040 A 
HETATM   17  C   UNL     1     -12.128   3.046 -33.222  1.00  0.00    -0.035 A 
HETATM   18  C   UNL     1     -13.405   2.553 -33.560  1.00  0.00     0.015 A 
HETATM   19  C   UNL     1     -12.046   4.492 -32.817  1.00  0.00     0.050 C 
HETATM   20  C   UNL     1     -13.622   1.200 -33.837  1.00  0.00    -0.061 A 
HETATM   21  C   UNL     1     -14.985   0.706 -34.220  1.00  0.00     0.048 C 
HETATM   22  C   UNL     1     -12.540   0.322 -33.786  1.00  0.00     0.009 A 
HETATM   23  C   UNL     1     -11.263   0.795 -33.472  1.00  0.00     0.030 A 
ENDBRANCH  13  16
ENDBRANCH   1  12
BRANCH   2  24
HETATM   24  C   UNL     1      -6.630   1.409 -33.542  1.00  0.00    -0.032 A 
HETATM   25  C   UNL     1      -5.581   0.842 -32.807  1.00  0.00     0.012 A 
HETATM   26  C   UNL     1      -5.104  -0.433 -33.125  1.00  0.00     0.037 A 
HETATM   27  C   UNL     1      -5.665  -1.167 -34.173  1.00  0.00     0.068 A 
HETATM   28  C   UNL     1      -6.718  -0.618 -34.901  1.00  0.00     0.037 A 
HETATM   29  C   UNL     1      -7.200   0.658 -34.586  1.00  0.00     0.012 A 
BRANCH  27  30
HETATM   30  O   UNL     1      -5.102  -2.397 -34.379  1.00  0.00    -0.356 OA
HETATM   31  C   UNL     1      -5.929  -3.390 -34.973  1.00  0.00     0.210 C 
ENDBRANCH  27  30
ENDBRANCH   2  24
TORSDOF 4
ENDMDL
MODEL 10
REMARK VINA RESULT:      -8.0      2.417      7.013
REMARK  4 active torsions:
REMARK  status: ('A' for Active; 'I' for Inactive)
REMARK    1  A    between atoms: C_6  and  N_7 
REMARK       I    between atoms: N_7  and  C_8 
REMARK    2  A    between atoms: C_8  and  C_9 
REMARK    3  A    between atoms: C_10  and  C_11 
REMARK    4  A    between atoms: C_14  and  O_15 
ROOT
HETATM    1  C   UNL     1      -7.512   4.541 -32.867  1.00  0.00     0.125 C 
HETATM    2  C   UNL     1      -6.653   3.977 -34.032  1.00  0.00     0.160 C 
HETATM    3  N   UNL     1      -5.402   4.702 -34.213  1.00  0.00    -0.231 N 
HETATM    4  C   UNL     1      -4.992   5.755 -33.446  1.00  0.00     0.200 A 
HETATM    5  N   UNL     1      -5.760   6.215 -32.438  1.00  0.00    -0.256 NA
HETATM    6  C   UNL     1      -7.208   6.034 -32.593  1.00  0.00     0.074 C 
HETATM    7  C   UNL     1      -7.882   6.521 -31.306  1.00  0.00     0.027 C 
HETATM    8  N   UNL     1      -4.553   4.483 -35.236  1.00  0.00    -0.162 NA
HETATM    9  C   UNL     1      -3.607   5.391 -34.970  1.00  0.00     0.258 A 
HETATM   10  N   UNL     1      -3.840   6.190 -33.883  1.00  0.00    -0.210 NA
HETATM   11  H   UNL     1      -5.480   7.138 -32.106  1.00  0.00     0.131 HD
ENDROOT
BRANCH   1  12
HETATM   12  C   UNL     1      -8.979   4.376 -33.238  1.00  0.00     0.230 C 
HETATM   13  N   UNL     1      -9.669   3.503 -32.414  1.00  0.00    -0.326 N 
HETATM   14  H   UNL     1      -9.118   2.798 -31.936  1.00  0.00     0.169 HD
HETATM   15  O   UNL     1      -9.444   4.938 -34.225  1.00  0.00    -0.273 OA
BRANCH  13  16
HETATM   16  C   UNL     1     -11.054   3.228 -32.497  1.00  0.00     0.040 A 
HETATM   17  C   UNL     1     -11.635   2.271 -33.347  1.00  0.00    -0.035 A 
HETATM   18  C   UNL     1     -13.028   2.061 -33.283  1.00  0.00     0.015 A 
HETATM   19  C   UNL     1     -10.878   1.476 -34.376  1.00  0.00     0.050 C 
HETATM   20  C   UNL     1     -13.850   2.827 -32.450  1.00  0.00    -0.061 A 
HETATM   21  C   UNL     1     -15.325   2.566 -32.380  1.00  0.00     0.048 C 
HETATM   22  C   UNL     1     -13.267   3.815 -31.656  1.00  0.00     0.009 A 
HETATM   23  C   UNL     1     -11.886   4.024 -31.693  1.00  0.00     0.030 A 
ENDBRANCH  13  16
ENDBRANCH   1  12
BRANCH   2  24
HETATM   24  C   UNL     1      -6.363   2.489 -33.826  1.00  0.00    -0.032 A 
HETATM   25  C   UNL     1      -5.513   2.071 -32.793  1.00  0.00     0.012 A 
HETATM   26  C   UNL     1      -5.226   0.714 -32.623  1.00  0.00     0.037 A 
HETATM   27  C   UNL     1      -5.781  -0.249 -33.469  1.00  0.00     0.068 A 
HETATM   28  C   UNL     1      -6.638   0.156 -34.490  1.00  0.00     0.037 A 
HETATM   29  C   UNL     1      -6.930   1.514 -34.664  1.00  0.00     0.012 A 
BRANCH  27  30
HETATM   30  O   UNL     1      -5.414  -1.538 -33.193  1.00  0.00    -0.356 OA
HETATM   31  C   UNL     1      -4.543  -2.170 -34.122  1.00  0.00     0.210 C 
ENDBRANCH  27  30
ENDBRANCH   2  24
TORSDOF 4
ENDMDL
