MODEL 1
REMARK VINA RESULT:      -8.9      0.000      0.000
REMARK  8 active torsions:
REMARK  status: ('A' for Active; 'I' for Inactive)
REMARK    1  A    between atoms: C_7  and  C_8 
REMARK    2  A    between atoms: C_8  and  O_9 
REMARK    3  A    between atoms: O_9  and  C_10 
REMARK    4  A    between atoms: C_13  and  C_14 
REMARK       I    between atoms: C_14  and  N_15 
REMARK    5  A    between atoms: N_15  and  C_16 
REMARK    6  A    between atoms: C_16  and  C_17 
REMARK    7  A    between atoms: C_20  and  C_21 
REMARK    8  A    between atoms: C_21  and  N_22 
ROOT
HETATM    1  C   UNL     1      -4.830   4.357 -33.876  1.00  0.00     0.251 C 
HETATM    2  N   UNL     1      -5.750   3.699 -33.088  1.00  0.00    -0.353 N 
HETATM    3  O   UNL     1      -5.027   4.641 -35.052  1.00  0.00    -0.268 OA
HETATM    4  H   UNL     1      -5.604   3.625 -32.092  1.00  0.00     0.163 HD
ENDROOT
BRANCH   1   5
HETATM    5  C   UNL     1      -3.536   4.706 -33.229  1.00  0.00     0.032 A 
HETATM    6  C   UNL     1      -3.197   4.234 -31.957  1.00  0.00     0.020 A 
HETATM    7  C   UNL     1      -1.943   4.526 -31.416  1.00  0.00     0.038 A 
HETATM    8  C   UNL     1      -1.011   5.273 -32.140  1.00  0.00     0.069 A 
HETATM    9  C   UNL     1      -1.353   5.765 -33.399  1.00  0.00     0.038 A 
HETATM   10  C   UNL     1      -2.608   5.472 -33.947  1.00  0.00     0.020 A 
BRANCH   8  11
HETATM   11  O   UNL     1       0.185   5.449 -31.506  1.00  0.00    -0.347 OA
BRANCH  11  12
HETATM   12  C   UNL     1       0.533   6.780 -31.120  1.00  0.00     0.219 C 
BRANCH  12  13
HETATM   13  C   UNL     1      -0.400   7.259 -30.066  1.00  0.00     0.024 A 
HETATM   14  C   UNL     1      -0.374   6.945 -28.680  1.00  0.00     0.069 A 
HETATM   15  C   UNL     1       0.576   6.069 -27.957  1.00  0.00     0.073 C 
HETATM   16  N   UNL     1      -1.367   7.551 -28.021  1.00  0.00    -0.133 NA
HETATM   17  O   UNL     1      -2.070   8.262 -28.973  1.00  0.00    -0.217 OA
HETATM   18  C   UNL     1      -1.497   8.084 -30.191  1.00  0.00     0.085 A 
HETATM   19  C   UNL     1      -2.146   8.768 -31.324  1.00  0.00     0.079 C 
ENDBRANCH  12  13
ENDBRANCH  11  12
ENDBRANCH   8  11
ENDBRANCH   1   5
BRANCH   2  20
HETATM   20  C   UNL     1      -6.981   3.175 -33.640  1.00  0.00     0.161 C 
BRANCH  20  21
HETATM   21  C   UNL     1      -6.950   1.673 -33.836  1.00  0.00    -0.041 A 
HETATM   22  C   UNL     1      -7.097   1.082 -35.097  1.00  0.00     0.009 A 
HETATM   23  C   UNL     1      -7.103  -0.307 -35.241  1.00  0.00     0.009 A 
HETATM   24  C   UNL     1      -6.929  -1.141 -34.130  1.00  0.00    -0.033 A 
HETATM   25  C   UNL     1      -6.737  -0.555 -32.871  1.00  0.00     0.009 A 
HETATM   26  C   UNL     1      -6.749   0.836 -32.728  1.00  0.00     0.009 A 
BRANCH  24  27
HETATM   27  C   UNL     1      -6.957  -2.636 -34.289  1.00  0.00     0.273 C 
BRANCH  27  28
HETATM   28  N   UNL     1      -5.745  -3.193 -34.995  1.00  0.00    -0.067 N 
HETATM   29  H   UNL     1      -5.728  -2.756 -35.926  1.00  0.00     0.280 HD
HETATM   30  C   UNL     1      -5.761  -4.695 -35.198  1.00  0.00     0.235 C 
HETATM   31  C   UNL     1      -4.817  -5.214 -34.135  1.00  0.00     0.029 C 
HETATM   32  C   UNL     1      -3.713  -4.178 -34.143  1.00  0.00     0.029 C 
HETATM   33  C   UNL     1      -4.453  -2.857 -34.271  1.00  0.00     0.235 C 
ENDBRANCH  27  28
ENDBRANCH  24  27
ENDBRANCH  20  21
ENDBRANCH   2  20
TORSDOF 8
ENDMDL
MODEL 2
REMARK VINA RESULT:      -8.6      6.393     13.445
REMARK  8 active torsions:
REMARK  status: ('A' for Active; 'I' for Inactive)
REMARK    1  A    between atoms: C_7  and  C_8 
REMARK    2  A    between atoms: C_8  and  O_9 
REMARK    3  A    between atoms: O_9  and  C_10 
REMARK    4  A    between atoms: C_13  and  C_14 
REMARK       I    between atoms: C_14  and  N_15 
REMARK    5  A    between atoms: N_15  and  C_16 
REMARK    6  A    between atoms: C_16  and  C_17 
REMARK    7  A    between atoms: C_20  and  C_21 
REMARK    8  A    between atoms: C_21  and  N_22 
ROOT
HETATM    1  C   UNL     1       1.243   9.043 -25.432  1.00  0.00     0.251 C 
HETATM    2  N   UNL     1       2.550   9.477 -25.369  1.00  0.00    -0.353 N 
HETATM    3  O   UNL     1       0.396   9.323 -24.591  1.00  0.00    -0.268 OA
HETATM    4  H   UNL     1       3.166   9.348 -26.158  1.00  0.00     0.163 HD
ENDROOT
BRANCH   1   5
HETATM    5  C   UNL     1       0.891   8.176 -26.589  1.00  0.00     0.032 A 
HETATM    6  C   UNL     1       0.064   7.057 -26.447  1.00  0.00     0.020 A 
HETATM    7  C   UNL     1      -0.301   6.312 -27.571  1.00  0.00     0.038 A 
HETATM    8  C   UNL     1       0.139   6.681 -28.844  1.00  0.00     0.069 A 
HETATM    9  C   UNL     1       0.982   7.782 -28.987  1.00  0.00     0.038 A 
HETATM   10  C   UNL     1       1.347   8.535 -27.864  1.00  0.00     0.020 A 
BRANCH   8  11
HETATM   11  O   UNL     1      -0.325   5.887 -29.853  1.00  0.00    -0.347 OA
BRANCH  11  12
HETATM   12  C   UNL     1      -1.677   6.079 -30.269  1.00  0.00     0.219 C 
BRANCH  12  13
HETATM   13  C   UNL     1      -1.729   7.086 -31.362  1.00  0.00     0.024 A 
HETATM   14  C   UNL     1      -1.524   6.866 -32.751  1.00  0.00     0.069 A 
HETATM   15  C   UNL     1      -1.207   5.594 -33.440  1.00  0.00     0.073 C 
HETATM   16  N   UNL     1      -1.645   8.000 -33.451  1.00  0.00    -0.133 NA
HETATM   17  O   UNL     1      -1.916   8.986 -32.523  1.00  0.00    -0.217 OA
HETATM   18  C   UNL     1      -1.962   8.442 -31.279  1.00  0.00     0.085 A 
HETATM   19  C   UNL     1      -2.225   9.375 -30.168  1.00  0.00     0.079 C 
ENDBRANCH  12  13
ENDBRANCH  11  12
ENDBRANCH   8  11
ENDBRANCH   1   5
BRANCH   2  20
HETATM   20  C   UNL     1       3.053  10.198 -24.219  1.00  0.00     0.161 C 
BRANCH  20  21
HETATM   21  C   UNL     1       4.047   9.396 -23.406  1.00  0.00    -0.041 A 
HETATM   22  C   UNL     1       3.652   8.576 -22.341  1.00  0.00     0.009 A 
HETATM   23  C   UNL     1       4.595   7.878 -21.585  1.00  0.00     0.009 A 
HETATM   24  C   UNL     1       5.959   7.958 -21.894  1.00  0.00    -0.033 A 
HETATM   25  C   UNL     1       6.357   8.741 -22.985  1.00  0.00     0.009 A 
HETATM   26  C   UNL     1       5.411   9.453 -23.730  1.00  0.00     0.009 A 
BRANCH  24  27
HETATM   27  C   UNL     1       6.971   7.220 -21.062  1.00  0.00     0.273 C 
BRANCH  27  28
HETATM   28  N   UNL     1       7.033   5.741 -21.353  1.00  0.00    -0.067 N 
HETATM   29  H   UNL     1       6.303   5.303 -20.777  1.00  0.00     0.280 HD
HETATM   30  C   UNL     1       8.349   5.078 -21.000  1.00  0.00     0.235 C 
HETATM   31  C   UNL     1       9.040   4.908 -22.336  1.00  0.00     0.029 C 
HETATM   32  C   UNL     1       7.896   4.522 -23.250  1.00  0.00     0.029 C 
HETATM   33  C   UNL     1       6.759   5.431 -22.815  1.00  0.00     0.235 C 
ENDBRANCH  27  28
ENDBRANCH  24  27
ENDBRANCH  20  21
ENDBRANCH   2  20
TORSDOF 8
ENDMDL
MODEL 3
REMARK VINA RESULT:      -8.1      2.754     10.904
REMARK  8 active torsions:
REMARK  status: ('A' for Active; 'I' for Inactive)
REMARK    1  A    between atoms: C_7  and  C_8 
REMARK    2  A    between atoms: C_8  and  O_9 
REMARK    3  A    between atoms: O_9  and  C_10 
REMARK    4  A    between atoms: C_13  and  C_14 
REMARK       I    between atoms: C_14  and  N_15 
REMARK    5  A    between atoms: N_15  and  C_16 
REMARK    6  A    between atoms: C_16  and  C_17 
REMARK    7  A    between atoms: C_20  and  C_21 
REMARK    8  A    between atoms: C_21  and  N_22 
ROOT
HETATM    1  C   UNL     1      -4.178   4.588 -32.623  1.00  0.00     0.251 C 
HETATM    2  N   UNL     1      -2.975   5.004 -33.153  1.00  0.00    -0.353 N 
HETATM    3  O   UNL     1      -5.042   5.358 -32.221  1.00  0.00    -0.268 OA
HETATM    4  H   UNL     1      -2.365   4.341 -33.609  1.00  0.00     0.163 HD
ENDROOT
BRANCH   1   5
HETATM    5  C   UNL     1      -4.389   3.117 -32.538  1.00  0.00     0.032 A 
HETATM    6  C   UNL     1      -5.547   2.509 -33.034  1.00  0.00     0.020 A 
HETATM    7  C   UNL     1      -5.673   1.118 -33.000  1.00  0.00     0.038 A 
HETATM    8  C   UNL     1      -4.645   0.322 -32.489  1.00  0.00     0.069 A 
HETATM    9  C   UNL     1      -3.500   0.925 -31.973  1.00  0.00     0.038 A 
HETATM   10  C   UNL     1      -3.366   2.319 -32.009  1.00  0.00     0.020 A 
BRANCH   8  11
HETATM   11  O   UNL     1      -4.888  -1.021 -32.553  1.00  0.00    -0.347 OA
BRANCH  11  12
HETATM   12  C   UNL     1      -4.112  -1.784 -33.477  1.00  0.00     0.219 C 
BRANCH  12  13
HETATM   13  C   UNL     1      -4.950  -2.858 -34.072  1.00  0.00     0.024 A 
HETATM   14  C   UNL     1      -4.619  -4.231 -34.221  1.00  0.00     0.069 A 
HETATM   15  C   UNL     1      -3.368  -4.920 -33.827  1.00  0.00     0.073 C 
HETATM   16  N   UNL     1      -5.611  -4.916 -34.801  1.00  0.00    -0.133 NA
HETATM   17  O   UNL     1      -6.604  -3.992 -35.057  1.00  0.00    -0.217 OA
HETATM   18  C   UNL     1      -6.209  -2.765 -34.626  1.00  0.00     0.085 A 
HETATM   19  C   UNL     1      -7.158  -1.659 -34.846  1.00  0.00     0.079 C 
ENDBRANCH  12  13
ENDBRANCH  11  12
ENDBRANCH   8  11
ENDBRANCH   1   5
BRANCH   2  20
HETATM   20  C   UNL     1      -2.590   6.399 -33.151  1.00  0.00     0.161 C 
BRANCH  20  21
HETATM   21  C   UNL     1      -1.699   6.765 -31.982  1.00  0.00    -0.041 A 
HETATM   22  C   UNL     1      -0.379   6.307 -31.877  1.00  0.00     0.009 A 
HETATM   23  C   UNL     1       0.406   6.631 -30.769  1.00  0.00     0.009 A 
HETATM   24  C   UNL     1      -0.100   7.447 -29.750  1.00  0.00    -0.033 A 
HETATM   25  C   UNL     1      -1.404   7.945 -29.870  1.00  0.00     0.009 A 
HETATM   26  C   UNL     1      -2.193   7.605 -30.973  1.00  0.00     0.009 A 
BRANCH  24  27
HETATM   27  C   UNL     1       0.743   7.774 -28.548  1.00  0.00     0.273 C 
BRANCH  27  28
HETATM   28  N   UNL     1       0.136   8.823 -27.648  1.00  0.00    -0.067 N 
HETATM   29  H   UNL     1      -0.543   9.338 -28.224  1.00  0.00     0.280 HD
HETATM   30  C   UNL     1       1.120   9.832 -27.094  1.00  0.00     0.235 C 
HETATM   31  C   UNL     1       1.335   9.383 -25.665  1.00  0.00     0.029 C 
HETATM   32  C   UNL     1      -0.054   8.949 -25.246  1.00  0.00     0.029 C 
HETATM   33  C   UNL     1      -0.589   8.212 -26.461  1.00  0.00     0.235 C 
ENDBRANCH  27  28
ENDBRANCH  24  27
ENDBRANCH  20  21
ENDBRANCH   2  20
TORSDOF 8
ENDMDL
MODEL 4
REMARK VINA RESULT:      -8.1      2.436     10.455
REMARK  8 active torsions:
REMARK  status: ('A' for Active; 'I' for Inactive)
REMARK    1  A    between atoms: C_7  and  C_8 
REMARK    2  A    between atoms: C_8  and  O_9 
REMARK    3  A    between atoms: O_9  and  C_10 
REMARK    4  A    between atoms: C_13  and  C_14 
REMARK       I    between atoms: C_14  and  N_15 
REMARK    5  A    between atoms: N_15  and  C_16 
REMARK    6  A    between atoms: C_16  and  C_17 
REMARK    7  A    between atoms: C_20  and  C_21 
REMARK    8  A    between atoms: C_21  and  N_22 
ROOT
HETATM    1  C   UNL     1      -5.031   4.624 -33.154  1.00  0.00     0.251 C 
HETATM    2  N   UNL     1      -3.837   4.849 -33.805  1.00  0.00    -0.353 N 
HETATM    3  O   UNL     1      -5.665   5.505 -32.583  1.00  0.00    -0.268 OA
HETATM    4  H   UNL     1      -3.433   4.129 -34.386  1.00  0.00     0.163 HD
ENDROOT
BRANCH   1   5
HETATM    5  C   UNL     1      -5.530   3.222 -33.153  1.00  0.00     0.032 A 
HETATM    6  C   UNL     1      -6.219   2.685 -34.246  1.00  0.00     0.020 A 
HETATM    7  C   UNL     1      -6.606   1.343 -34.234  1.00  0.00     0.038 A 
HETATM    8  C   UNL     1      -6.299   0.522 -33.146  1.00  0.00     0.069 A 
HETATM    9  C   UNL     1      -5.633   1.060 -32.046  1.00  0.00     0.038 A 
HETATM   10  C   UNL     1      -5.238   2.404 -32.054  1.00  0.00     0.020 A 
BRANCH   8  11
HETATM   11  O   UNL     1      -6.705  -0.774 -33.286  1.00  0.00    -0.347 OA
BRANCH  11  12
HETATM   12  C   UNL     1      -6.407  -1.424 -34.522  1.00  0.00     0.219 C 
BRANCH  12  13
HETATM   13  C   UNL     1      -5.469  -2.553 -34.284  1.00  0.00     0.024 A 
HETATM   14  C   UNL     1      -5.625  -3.907 -34.686  1.00  0.00     0.069 A 
HETATM   15  C   UNL     1      -6.751  -4.518 -35.429  1.00  0.00     0.073 C 
HETATM   16  N   UNL     1      -4.585  -4.656 -34.302  1.00  0.00    -0.133 NA
HETATM   17  O   UNL     1      -3.737  -3.802 -33.626  1.00  0.00    -0.217 OA
HETATM   18  C   UNL     1      -4.265  -2.550 -33.612  1.00  0.00     0.085 A 
HETATM   19  C   UNL     1      -3.483  -1.519 -32.906  1.00  0.00     0.079 C 
ENDBRANCH  12  13
ENDBRANCH  11  12
ENDBRANCH   8  11
ENDBRANCH   1   5
BRANCH   2  20
HETATM   20  C   UNL     1      -3.174   6.134 -33.749  1.00  0.00     0.161 C 
BRANCH  20  21
HETATM   21  C   UNL     1      -2.187   6.241 -32.605  1.00  0.00    -0.041 A 
HETATM   22  C   UNL     1      -1.152   5.315 -32.422  1.00  0.00     0.009 A 
HETATM   23  C   UNL     1      -0.281   5.417 -31.336  1.00  0.00     0.009 A 
HETATM   24  C   UNL     1      -0.402   6.470 -30.421  1.00  0.00    -0.033 A 
HETATM   25  C   UNL     1      -1.407   7.426 -30.622  1.00  0.00     0.009 A 
HETATM   26  C   UNL     1      -2.289   7.310 -31.701  1.00  0.00     0.009 A 
BRANCH  24  27
HETATM   27  C   UNL     1       0.526   6.563 -29.241  1.00  0.00     0.273 C 
BRANCH  27  28
HETATM   28  N   UNL     1       0.285   7.775 -28.374  1.00  0.00    -0.067 N 
HETATM   29  H   UNL     1      -0.284   8.422 -28.935  1.00  0.00     0.280 HD
HETATM   30  C   UNL     1       1.538   8.517 -27.955  1.00  0.00     0.235 C 
HETATM   31  C   UNL     1       1.746   8.094 -26.517  1.00  0.00     0.029 C 
HETATM   32  C   UNL     1       0.332   8.058 -25.978  1.00  0.00     0.029 C 
HETATM   33  C   UNL     1      -0.473   7.431 -27.103  1.00  0.00     0.235 C 
ENDBRANCH  27  28
ENDBRANCH  24  27
ENDBRANCH  20  21
ENDBRANCH   2  20
TORSDOF 8
ENDMDL
MODEL 5
REMARK VINA RESULT:      -8.1      3.426      4.795
REMARK  8 active torsions:
REMARK  status: ('A' for Active; 'I' for Inactive)
REMARK    1  A    between atoms: C_7  and  C_8 
REMARK    2  A    between atoms: C_8  and  O_9 
REMARK    3  A    between atoms: O_9  and  C_10 
REMARK    4  A    between atoms: C_13  and  C_14 
REMARK       I    between atoms: C_14  and  N_15 
REMARK    5  A    between atoms: N_15  and  C_16 
REMARK    6  A    between atoms: C_16  and  C_17 
REMARK    7  A    between atoms: C_20  and  C_21 
REMARK    8  A    between atoms: C_21  and  N_22 
ROOT
HETATM    1  C   UNL     1      -4.848   2.152 -31.125  1.00  0.00     0.251 C 
HETATM    2  N   UNL     1      -4.896   1.272 -32.185  1.00  0.00    -0.353 N 
HETATM    3  O   UNL     1      -5.428   1.961 -30.062  1.00  0.00    -0.268 OA
HETATM    4  H   UNL     1      -4.283   1.399 -32.977  1.00  0.00     0.163 HD
ENDROOT
BRANCH   1   5
HETATM    5  C   UNL     1      -4.054   3.394 -31.332  1.00  0.00     0.032 A 
HETATM    6  C   UNL     1      -2.917   3.414 -32.146  1.00  0.00     0.020 A 
HETATM    7  C   UNL     1      -2.243   4.616 -32.371  1.00  0.00     0.038 A 
HETATM    8  C   UNL     1      -2.701   5.808 -31.803  1.00  0.00     0.069 A 
HETATM    9  C   UNL     1      -3.820   5.787 -30.973  1.00  0.00     0.038 A 
HETATM   10  C   UNL     1      -4.503   4.585 -30.747  1.00  0.00     0.020 A 
BRANCH   8  11
HETATM   11  O   UNL     1      -1.968   6.910 -32.138  1.00  0.00    -0.347 OA
BRANCH  11  12
HETATM   12  C   UNL     1      -0.604   6.943 -31.716  1.00  0.00     0.219 C 
BRANCH  12  13
HETATM   13  C   UNL     1      -0.536   6.926 -30.231  1.00  0.00     0.024 A 
HETATM   14  C   UNL     1       0.085   5.951 -29.404  1.00  0.00     0.069 A 
HETATM   15  C   UNL     1       0.805   4.724 -29.818  1.00  0.00     0.073 C 
HETATM   16  N   UNL     1      -0.047   6.250 -28.108  1.00  0.00    -0.133 NA
HETATM   17  O   UNL     1      -0.775   7.422 -28.065  1.00  0.00    -0.217 OA
HETATM   18  C   UNL     1      -1.069   7.823 -29.330  1.00  0.00     0.085 A 
HETATM   19  C   UNL     1      -1.864   9.058 -29.455  1.00  0.00     0.079 C 
ENDBRANCH  12  13
ENDBRANCH  11  12
ENDBRANCH   8  11
ENDBRANCH   1   5
BRANCH   2  20
HETATM   20  C   UNL     1      -5.752   0.106 -32.163  1.00  0.00     0.161 C 
BRANCH  20  21
HETATM   21  C   UNL     1      -7.128   0.371 -32.740  1.00  0.00    -0.041 A 
HETATM   22  C   UNL     1      -7.377   0.345 -34.119  1.00  0.00     0.009 A 
HETATM   23  C   UNL     1      -8.647   0.630 -34.623  1.00  0.00     0.009 A 
HETATM   24  C   UNL     1      -9.710   0.920 -33.758  1.00  0.00    -0.033 A 
HETATM   25  C   UNL     1      -9.478   0.904 -32.376  1.00  0.00     0.009 A 
HETATM   26  C   UNL     1      -8.201   0.634 -31.875  1.00  0.00     0.009 A 
BRANCH  24  27
HETATM   27  C   UNL     1     -11.071   1.248 -34.309  1.00  0.00     0.273 C 
BRANCH  27  28
HETATM   28  N   UNL     1     -12.194   1.019 -33.327  1.00  0.00    -0.067 N 
HETATM   29  H   UNL     1     -11.749   0.784 -32.431  1.00  0.00     0.280 HD
HETATM   30  C   UNL     1     -13.129  -0.118 -33.683  1.00  0.00     0.235 C 
HETATM   31  C   UNL     1     -14.357   0.579 -34.229  1.00  0.00     0.029 C 
HETATM   32  C   UNL     1     -14.484   1.780 -33.316  1.00  0.00     0.029 C 
HETATM   33  C   UNL     1     -13.053   2.258 -33.139  1.00  0.00     0.235 C 
ENDBRANCH  27  28
ENDBRANCH  24  27
ENDBRANCH  20  21
ENDBRANCH   2  20
TORSDOF 8
ENDMDL
MODEL 6
REMARK VINA RESULT:      -8.0      2.867     10.732
REMARK  8 active torsions:
REMARK  status: ('A' for Active; 'I' for Inactive)
REMARK    1  A    between atoms: C_7  and  C_8 
REMARK    2  A    between atoms: C_8  and  O_9 
REMARK    3  A    between atoms: O_9  and  C_10 
REMARK    4  A    between atoms: C_13  and  C_14 
REMARK       I    between atoms: C_14  and  N_15 
REMARK    5  A    between atoms: N_15  and  C_16 
REMARK    6  A    between atoms: C_16  and  C_17 
REMARK    7  A    between atoms: C_20  and  C_21 
REMARK    8  A    between atoms: C_21  and  N_22 
ROOT
HETATM    1  C   UNL     1      -1.971   5.053 -32.662  1.00  0.00     0.251 C 
HETATM    2  N   UNL     1      -1.148   5.180 -31.563  1.00  0.00    -0.353 N 
HETATM    3  O   UNL     1      -1.823   5.697 -33.695  1.00  0.00    -0.268 OA
HETATM    4  H   UNL     1      -1.216   4.523 -30.799  1.00  0.00     0.163 HD
ENDROOT
BRANCH   1   5
HETATM    5  C   UNL     1      -3.094   4.084 -32.538  1.00  0.00     0.032 A 
HETATM    6  C   UNL     1      -4.240   4.178 -33.335  1.00  0.00     0.020 A 
HETATM    7  C   UNL     1      -5.239   3.207 -33.236  1.00  0.00     0.038 A 
HETATM    8  C   UNL     1      -5.101   2.129 -32.359  1.00  0.00     0.069 A 
HETATM    9  C   UNL     1      -3.971   2.044 -31.547  1.00  0.00     0.038 A 
HETATM   10  C   UNL     1      -2.964   3.013 -31.644  1.00  0.00     0.020 A 
BRANCH   8  11
HETATM   11  O   UNL     1      -6.134   1.237 -32.395  1.00  0.00    -0.347 OA
BRANCH  11  12
HETATM   12  C   UNL     1      -5.900  -0.059 -31.844  1.00  0.00     0.219 C 
BRANCH  12  13
HETATM   13  C   UNL     1      -5.478  -0.995 -32.920  1.00  0.00     0.024 A 
HETATM   14  C   UNL     1      -4.304  -1.794 -32.960  1.00  0.00     0.069 A 
HETATM   15  C   UNL     1      -3.223  -1.885 -31.951  1.00  0.00     0.073 C 
HETATM   16  N   UNL     1      -4.242  -2.520 -34.082  1.00  0.00    -0.133 NA
HETATM   17  O   UNL     1      -5.372  -2.191 -34.804  1.00  0.00    -0.217 OA
HETATM   18  C   UNL     1      -6.106  -1.281 -34.113  1.00  0.00     0.085 A 
HETATM   19  C   UNL     1      -7.343  -0.811 -34.763  1.00  0.00     0.079 C 
ENDBRANCH  12  13
ENDBRANCH  11  12
ENDBRANCH   8  11
ENDBRANCH   1   5
BRANCH   2  20
HETATM   20  C   UNL     1      -0.115   6.192 -31.504  1.00  0.00     0.161 C 
BRANCH  20  21
HETATM   21  C   UNL     1      -0.252   7.107 -30.305  1.00  0.00    -0.041 A 
HETATM   22  C   UNL     1       0.773   7.260 -29.361  1.00  0.00     0.009 A 
HETATM   23  C   UNL     1       0.604   8.081 -28.245  1.00  0.00     0.009 A 
HETATM   24  C   UNL     1      -0.584   8.798 -28.061  1.00  0.00    -0.033 A 
HETATM   25  C   UNL     1      -1.596   8.685 -29.023  1.00  0.00     0.009 A 
HETATM   26  C   UNL     1      -1.430   7.848 -30.131  1.00  0.00     0.009 A 
BRANCH  24  27
HETATM   27  C   UNL     1      -0.768   9.665 -26.845  1.00  0.00     0.273 C 
BRANCH  27  28
HETATM   28  N   UNL     1      -0.885   8.886 -25.558  1.00  0.00    -0.067 N 
HETATM   29  H   UNL     1       0.051   8.508 -25.363  1.00  0.00     0.280 HD
HETATM   30  C   UNL     1      -1.847   7.716 -25.607  1.00  0.00     0.235 C 
HETATM   31  C   UNL     1      -3.073   8.224 -24.880  1.00  0.00     0.029 C 
HETATM   32  C   UNL     1      -2.473   9.026 -23.746  1.00  0.00     0.029 C 
HETATM   33  C   UNL     1      -1.312   9.762 -24.392  1.00  0.00     0.235 C 
ENDBRANCH  27  28
ENDBRANCH  24  27
ENDBRANCH  20  21
ENDBRANCH   2  20
TORSDOF 8
ENDMDL
MODEL 7
REMARK VINA RESULT:      -8.0      2.957     11.160
REMARK  8 active torsions:
REMARK  status: ('A' for Active; 'I' for Inactive)
REMARK    1  A    between atoms: C_7  and  C_8 
REMARK    2  A    between atoms: C_8  and  O_9 
REMARK    3  A    between atoms: O_9  and  C_10 
REMARK    4  A    between atoms: C_13  and  C_14 
REMARK       I    between atoms: C_14  and  N_15 
REMARK    5  A    between atoms: N_15  and  C_16 
REMARK    6  A    between atoms: C_16  and  C_17 
REMARK    7  A    between atoms: C_20  and  C_21 
REMARK    8  A    between atoms: C_21  and  N_22 
ROOT
HETATM    1  C   UNL     1      -4.058   4.934 -31.916  1.00  0.00     0.251 C 
HETATM    2  N   UNL     1      -2.834   5.464 -32.264  1.00  0.00    -0.353 N 
HETATM    3  O   UNL     1      -4.966   5.595 -31.426  1.00  0.00    -0.268 OA
HETATM    4  H   UNL     1      -2.178   4.917 -32.801  1.00  0.00     0.163 HD
ENDROOT
BRANCH   1   5
HETATM    5  C   UNL     1      -4.236   3.475 -32.149  1.00  0.00     0.032 A 
HETATM    6  C   UNL     1      -3.235   2.550 -31.831  1.00  0.00     0.020 A 
HETATM    7  C   UNL     1      -3.470   1.183 -31.999  1.00  0.00     0.038 A 
HETATM    8  C   UNL     1      -4.704   0.725 -32.468  1.00  0.00     0.069 A 
HETATM    9  C   UNL     1      -5.695   1.644 -32.808  1.00  0.00     0.038 A 
HETATM   10  C   UNL     1      -5.466   3.016 -32.638  1.00  0.00     0.020 A 
BRANCH   8  11
HETATM   11  O   UNL     1      -4.806  -0.634 -32.546  1.00  0.00    -0.347 OA
BRANCH  11  12
HETATM   12  C   UNL     1      -4.151  -1.279 -33.639  1.00  0.00     0.219 C 
BRANCH  12  13
HETATM   13  C   UNL     1      -4.976  -2.419 -34.119  1.00  0.00     0.024 A 
HETATM   14  C   UNL     1      -6.297  -2.371 -34.642  1.00  0.00     0.069 A 
HETATM   15  C   UNL     1      -7.166  -1.187 -34.830  1.00  0.00     0.073 C 
HETATM   16  N   UNL     1      -6.737  -3.589 -34.976  1.00  0.00    -0.133 NA
HETATM   17  O   UNL     1      -5.711  -4.458 -34.660  1.00  0.00    -0.217 OA
HETATM   18  C   UNL     1      -4.665  -3.761 -34.146  1.00  0.00     0.085 A 
HETATM   19  C   UNL     1      -3.490  -4.554 -33.739  1.00  0.00     0.079 C 
ENDBRANCH  12  13
ENDBRANCH  11  12
ENDBRANCH   8  11
ENDBRANCH   1   5
BRANCH   2  20
HETATM   20  C   UNL     1      -2.486   6.833 -31.949  1.00  0.00     0.161 C 
BRANCH  20  21
HETATM   21  C   UNL     1      -1.609   6.953 -30.720  1.00  0.00    -0.041 A 
HETATM   22  C   UNL     1      -0.210   6.992 -30.801  1.00  0.00     0.009 A 
HETATM   23  C   UNL     1       0.573   7.064 -29.648  1.00  0.00     0.009 A 
HETATM   24  C   UNL     1      -0.023   7.133 -28.383  1.00  0.00    -0.033 A 
HETATM   25  C   UNL     1      -1.422   7.139 -28.297  1.00  0.00     0.009 A 
HETATM   26  C   UNL     1      -2.203   7.049 -29.453  1.00  0.00     0.009 A 
BRANCH  24  27
HETATM   27  C   UNL     1       0.827   7.189 -27.144  1.00  0.00     0.273 C 
BRANCH  27  28
HETATM   28  N   UNL     1       1.607   8.474 -27.001  1.00  0.00    -0.067 N 
HETATM   29  H   UNL     1       2.266   8.499 -27.790  1.00  0.00     0.280 HD
HETATM   30  C   UNL     1       2.417   8.588 -25.726  1.00  0.00     0.235 C 
HETATM   31  C   UNL     1       1.599   9.521 -24.859  1.00  0.00     0.029 C 
HETATM   32  C   UNL     1       1.090  10.536 -25.860  1.00  0.00     0.029 C 
HETATM   33  C   UNL     1       0.712   9.699 -27.070  1.00  0.00     0.235 C 
ENDBRANCH  27  28
ENDBRANCH  24  27
ENDBRANCH  20  21
ENDBRANCH   2  20
TORSDOF 8
ENDMDL
MODEL 8
REMARK VINA RESULT:      -7.9      2.937     11.203
REMARK  8 active torsions:
REMARK  status: ('A' for Active; 'I' for Inactive)
REMARK    1  A    between atoms: C_7  and  C_8 
REMARK    2  A    between atoms: C_8  and  O_9 
REMARK    3  A    between atoms: O_9  and  C_10 
REMARK    4  A    between atoms: C_13  and  C_14 
REMARK       I    between atoms: C_14  and  N_15 
REMARK    5  A    between atoms: N_15  and  C_16 
REMARK    6  A    between atoms: C_16  and  C_17 
REMARK    7  A    between atoms: C_20  and  C_21 
REMARK    8  A    between atoms: C_21  and  N_22 
ROOT
HETATM    1  C   UNL     1      -1.781   4.827 -32.073  1.00  0.00     0.251 C 
HETATM    2  N   UNL     1      -1.069   4.829 -30.893  1.00  0.00    -0.353 N 
HETATM    3  O   UNL     1      -1.491   5.524 -33.038  1.00  0.00    -0.268 OA
HETATM    4  H   UNL     1      -1.253   4.130 -30.188  1.00  0.00     0.163 HD
ENDROOT
BRANCH   1   5
HETATM    5  C   UNL     1      -2.966   3.928 -32.128  1.00  0.00     0.032 A 
HETATM    6  C   UNL     1      -4.017   4.148 -33.024  1.00  0.00     0.020 A 
HETATM    7  C   UNL     1      -5.076   3.239 -33.093  1.00  0.00     0.038 A 
HETATM    8  C   UNL     1      -5.091   2.100 -32.286  1.00  0.00     0.069 A 
HETATM    9  C   UNL     1      -4.057   1.889 -31.375  1.00  0.00     0.038 A 
HETATM   10  C   UNL     1      -2.990   2.794 -31.305  1.00  0.00     0.020 A 
BRANCH   8  11
HETATM   11  O   UNL     1      -6.166   1.282 -32.485  1.00  0.00    -0.347 OA
BRANCH  11  12
HETATM   12  C   UNL     1      -6.078  -0.051 -31.980  1.00  0.00     0.219 C 
BRANCH  12  13
HETATM   13  C   UNL     1      -5.633  -0.971 -33.060  1.00  0.00     0.024 A 
HETATM   14  C   UNL     1      -4.468  -1.784 -33.079  1.00  0.00     0.069 A 
HETATM   15  C   UNL     1      -3.421  -1.908 -32.039  1.00  0.00     0.073 C 
HETATM   16  N   UNL     1      -4.379  -2.488 -34.212  1.00  0.00    -0.133 NA
HETATM   17  O   UNL     1      -5.482  -2.132 -34.963  1.00  0.00    -0.217 OA
HETATM   18  C   UNL     1      -6.226  -1.226 -34.278  1.00  0.00     0.085 A 
HETATM   19  C   UNL     1      -7.436  -0.728 -34.957  1.00  0.00     0.079 C 
ENDBRANCH  12  13
ENDBRANCH  11  12
ENDBRANCH   8  11
ENDBRANCH   1   5
BRANCH   2  20
HETATM   20  C   UNL     1       0.010   5.765 -30.661  1.00  0.00     0.161 C 
BRANCH  20  21
HETATM   21  C   UNL     1      -0.149   6.544 -29.372  1.00  0.00    -0.041 A 
HETATM   22  C   UNL     1      -0.653   7.851 -29.346  1.00  0.00     0.009 A 
HETATM   23  C   UNL     1      -0.752   8.558 -28.146  1.00  0.00     0.009 A 
HETATM   24  C   UNL     1      -0.378   7.964 -26.935  1.00  0.00    -0.033 A 
HETATM   25  C   UNL     1       0.085   6.641 -26.948  1.00  0.00     0.009 A 
HETATM   26  C   UNL     1       0.199   5.942 -28.153  1.00  0.00     0.009 A 
BRANCH  24  27
HETATM   27  C   UNL     1      -0.467   8.738 -25.649  1.00  0.00     0.273 C 
BRANCH  27  28
HETATM   28  N   UNL     1       0.701   9.667 -25.419  1.00  0.00    -0.067 N 
HETATM   29  H   UNL     1       0.530  10.494 -26.005  1.00  0.00     0.280 HD
HETATM   30  C   UNL     1       2.050   9.102 -25.811  1.00  0.00     0.235 C 
HETATM   31  C   UNL     1       2.681   8.718 -24.490  1.00  0.00     0.029 C 
HETATM   32  C   UNL     1       2.256   9.853 -23.583  1.00  0.00     0.029 C 
HETATM   33  C   UNL     1       0.809  10.107 -23.969  1.00  0.00     0.235 C 
ENDBRANCH  27  28
ENDBRANCH  24  27
ENDBRANCH  20  21
ENDBRANCH   2  20
TORSDOF 8
ENDMDL
MODEL 9
REMARK VINA RESULT:      -7.9      3.162     10.584
REMARK  8 active torsions:
REMARK  status: ('A' for Active; 'I' for Inactive)
REMARK    1  A    between atoms: C_7  and  C_8 
REMARK    2  A    between atoms: C_8  and  O_9 
REMARK    3  A    between atoms: O_9  and  C_10 
REMARK    4  A    between atoms: C_13  and  C_14 
REMARK       I    between atoms: C_14  and  N_15 
REMARK    5  A    between atoms: N_15  and  C_16 
REMARK    6  A    between atoms: C_16  and  C_17 
REMARK    7  A    between atoms: C_20  and  C_21 
REMARK    8  A    between atoms: C_21  and  N_22 
ROOT
HETATM    1  C   UNL     1      -6.146   3.465 -30.540  1.00  0.00     0.251 C 
HETATM    2  N   UNL     1      -5.687   4.573 -31.221  1.00  0.00    -0.353 N 
HETATM    3  O   UNL     1      -6.892   3.530 -29.570  1.00  0.00    -0.268 OA
HETATM    4  H   UNL     1      -5.202   4.463 -32.100  1.00  0.00     0.163 HD
ENDROOT
BRANCH   1   5
HETATM    5  C   UNL     1      -5.670   2.143 -31.031  1.00  0.00     0.032 A 
HETATM    6  C   UNL     1      -4.400   1.980 -31.594  1.00  0.00     0.020 A 
HETATM    7  C   UNL     1      -3.966   0.708 -31.976  1.00  0.00     0.038 A 
HETATM    8  C   UNL     1      -4.782  -0.410 -31.789  1.00  0.00     0.069 A 
HETATM    9  C   UNL     1      -6.058  -0.247 -31.250  1.00  0.00     0.038 A 
HETATM   10  C   UNL     1      -6.496   1.025 -30.861  1.00  0.00     0.020 A 
BRANCH   8  11
HETATM   11  O   UNL     1      -4.216  -1.591 -32.173  1.00  0.00    -0.347 OA
BRANCH  11  12
HETATM   12  C   UNL     1      -3.980  -1.782 -33.568  1.00  0.00     0.219 C 
BRANCH  12  13
HETATM   13  C   UNL     1      -4.938  -2.782 -34.109  1.00  0.00     0.024 A 
HETATM   14  C   UNL     1      -4.727  -4.176 -34.283  1.00  0.00     0.069 A 
HETATM   15  C   UNL     1      -3.511  -4.964 -33.976  1.00  0.00     0.073 C 
HETATM   16  N   UNL     1      -5.806  -4.776 -34.798  1.00  0.00    -0.133 NA
HETATM   17  O   UNL     1      -6.739  -3.775 -34.983  1.00  0.00    -0.217 OA
HETATM   18  C   UNL     1      -6.220  -2.587 -34.577  1.00  0.00     0.085 A 
HETATM   19  C   UNL     1      -7.092  -1.408 -34.729  1.00  0.00     0.079 C 
ENDBRANCH  12  13
ENDBRANCH  11  12
ENDBRANCH   8  11
ENDBRANCH   1   5
BRANCH   2  20
HETATM   20  C   UNL     1      -5.955   5.915 -30.751  1.00  0.00     0.161 C 
BRANCH  20  21
HETATM   21  C   UNL     1      -4.857   6.461 -29.862  1.00  0.00    -0.041 A 
HETATM   22  C   UNL     1      -3.625   6.889 -30.374  1.00  0.00     0.009 A 
HETATM   23  C   UNL     1      -2.617   7.352 -29.525  1.00  0.00     0.009 A 
HETATM   24  C   UNL     1      -2.828   7.429 -28.143  1.00  0.00    -0.033 A 
HETATM   25  C   UNL     1      -4.074   7.045 -27.629  1.00  0.00     0.009 A 
HETATM   26  C   UNL     1      -5.075   6.566 -28.480  1.00  0.00     0.009 A 
BRANCH  24  27
HETATM   27  C   UNL     1      -1.732   7.909 -27.233  1.00  0.00     0.273 C 
BRANCH  27  28
HETATM   28  N   UNL     1      -0.372   7.943 -27.887  1.00  0.00    -0.067 N 
HETATM   29  H   UNL     1      -0.538   7.880 -28.900  1.00  0.00     0.280 HD
HETATM   30  C   UNL     1       0.547   6.801 -27.506  1.00  0.00     0.235 C 
HETATM   31  C   UNL     1       1.510   7.424 -26.518  1.00  0.00     0.029 C 
HETATM   32  C   UNL     1       1.751   8.794 -27.116  1.00  0.00     0.029 C 
HETATM   33  C   UNL     1       0.376   9.232 -27.592  1.00  0.00     0.235 C 
ENDBRANCH  27  28
ENDBRANCH  24  27
ENDBRANCH  20  21
ENDBRANCH   2  20
TORSDOF 8
ENDMDL
MODEL 10
REMARK VINA RESULT:      -7.8      2.890      5.422
REMARK  8 active torsions:
REMARK  status: ('A' for Active; 'I' for Inactive)
REMARK    1  A    between atoms: C_7  and  C_8 
REMARK    2  A    between atoms: C_8  and  O_9 
REMARK    3  A    between atoms: O_9  and  C_10 
REMARK    4  A    between atoms: C_13  and  C_14 
REMARK       I    between atoms: C_14  and  N_15 
REMARK    5  A    between atoms: N_15  and  C_16 
REMARK    6  A    between atoms: C_16  and  C_17 
REMARK    7  A    between atoms: C_20  and  C_21 
REMARK    8  A    between atoms: C_21  and  N_22 
ROOT
HETATM    1  C   UNL     1      -0.460   5.947 -31.412  1.00  0.00     0.251 C 
HETATM    2  N   UNL     1      -1.126   6.364 -32.545  1.00  0.00    -0.353 N 
HETATM    3  O   UNL     1       0.082   4.852 -31.312  1.00  0.00    -0.268 OA
HETATM    4  H   UNL     1      -1.422   7.325 -32.634  1.00  0.00     0.163 HD
ENDROOT
BRANCH   1   5
HETATM    5  C   UNL     1      -0.439   6.900 -30.269  1.00  0.00     0.032 A 
HETATM    6  C   UNL     1       0.632   6.948 -29.370  1.00  0.00     0.020 A 
HETATM    7  C   UNL     1       0.646   7.907 -28.354  1.00  0.00     0.038 A 
HETATM    8  C   UNL     1      -0.393   8.833 -28.234  1.00  0.00     0.069 A 
HETATM    9  C   UNL     1      -1.472   8.774 -29.114  1.00  0.00     0.038 A 
HETATM   10  C   UNL     1      -1.489   7.817 -30.137  1.00  0.00     0.020 A 
BRANCH   8  11
HETATM   11  O   UNL     1      -0.230   9.734 -27.221  1.00  0.00    -0.347 OA
BRANCH  11  12
HETATM   12  C   UNL     1      -0.181   9.221 -25.889  1.00  0.00     0.219 C 
BRANCH  12  13
HETATM   13  C   UNL     1      -1.562   8.989 -25.389  1.00  0.00     0.024 A 
HETATM   14  C   UNL     1      -2.417   9.923 -24.745  1.00  0.00     0.069 A 
HETATM   15  C   UNL     1      -2.142  11.341 -24.414  1.00  0.00     0.073 C 
HETATM   16  N   UNL     1      -3.594   9.373 -24.426  1.00  0.00    -0.133 NA
HETATM   17  O   UNL     1      -3.519   8.060 -24.845  1.00  0.00    -0.217 OA
HETATM   18  C   UNL     1      -2.308   7.830 -25.415  1.00  0.00     0.085 A 
HETATM   19  C   UNL     1      -2.063   6.459 -25.899  1.00  0.00     0.079 C 
ENDBRANCH  12  13
ENDBRANCH  11  12
ENDBRANCH   8  11
ENDBRANCH   1   5
BRANCH   2  20
HETATM   20  C   UNL     1      -1.346   5.474 -33.664  1.00  0.00     0.161 C 
BRANCH  20  21
HETATM   21  C   UNL     1      -2.708   4.811 -33.635  1.00  0.00    -0.041 A 
HETATM   22  C   UNL     1      -3.757   5.221 -34.469  1.00  0.00     0.009 A 
HETATM   23  C   UNL     1      -5.012   4.615 -34.392  1.00  0.00     0.009 A 
HETATM   24  C   UNL     1      -5.243   3.560 -33.500  1.00  0.00    -0.033 A 
HETATM   25  C   UNL     1      -4.186   3.116 -32.694  1.00  0.00     0.009 A 
HETATM   26  C   UNL     1      -2.934   3.736 -32.762  1.00  0.00     0.009 A 
BRANCH  24  27
HETATM   27  C   UNL     1      -6.604   2.927 -33.407  1.00  0.00     0.273 C 
BRANCH  27  28
HETATM   28  N   UNL     1      -6.577   1.420 -33.483  1.00  0.00    -0.067 N 
HETATM   29  H   UNL     1      -5.640   1.132 -33.171  1.00  0.00     0.280 HD
HETATM   30  C   UNL     1      -6.790   0.848 -34.870  1.00  0.00     0.235 C 
HETATM   31  C   UNL     1      -8.225   0.368 -34.848  1.00  0.00     0.029 C 
HETATM   32  C   UNL     1      -8.355  -0.212 -33.456  1.00  0.00     0.029 C 
HETATM   33  C   UNL     1      -7.614   0.780 -32.576  1.00  0.00     0.235 C 
ENDBRANCH  27  28
ENDBRANCH  24  27
ENDBRANCH  20  21
ENDBRANCH   2  20
TORSDOF 8
ENDMDL
