MODEL 1
REMARK VINA RESULT:      -7.8      0.000      0.000
REMARK  8 active torsions:
REMARK  status: ('A' for Active; 'I' for Inactive)
REMARK    1  A    between atoms: C_2  and  C_3 
REMARK    2  A    between atoms: C_7  and  C_8 
REMARK       I    between atoms: C_8  and  N_9 
REMARK    3  A    between atoms: N_9  and  C_10 
REMARK    4  A    between atoms: C_10  and  C_11 
REMARK    5  A    between atoms: C_11  and  O_12 
REMARK    6  A    between atoms: C_11  and  C_13 
REMARK    7  A    between atoms: C_13  and  O_14 
REMARK    8  A    between atoms: O_14  and  C_15 
ROOT
HETATM    1  C   UNL     1      -7.037   2.991 -34.014  1.00  0.00     0.269 C 
HETATM    2  N   UNL     1      -5.829   3.640 -34.115  1.00  0.00    -0.353 N 
HETATM    3  O   UNL     1      -8.065   3.564 -33.669  1.00  0.00    -0.266 OA
HETATM    4  H   UNL     1      -5.008   3.130 -34.402  1.00  0.00     0.162 HD
ENDROOT
BRANCH   1   5
HETATM    5  C   UNL     1      -6.999   1.584 -34.302  1.00  0.00     0.120 A 
HETATM    6  N   UNL     1      -7.986   0.973 -35.026  1.00  0.00    -0.272 N 
HETATM    7  N   UNL     1      -7.825  -0.350 -35.170  1.00  0.00    -0.174 NA
HETATM    8  H   UNL     1      -8.806   1.415 -35.430  1.00  0.00     0.189 HD
HETATM    9  C   UNL     1      -6.661  -0.619 -34.559  1.00  0.00     0.089 A 
HETATM   10  C   UNL     1      -6.114   0.569 -33.997  1.00  0.00     0.071 A 
BRANCH   9  11
HETATM   11  C   UNL     1      -6.110  -1.977 -34.513  1.00  0.00    -0.005 A 
HETATM   12  C   UNL     1      -6.909  -3.092 -34.811  1.00  0.00     0.017 A 
HETATM   13  C   UNL     1      -6.370  -4.382 -34.769  1.00  0.00     0.043 A 
HETATM   14  C   UNL     1      -5.034  -4.559 -34.434  1.00  0.00     0.116 A 
HETATM   15  C   UNL     1      -4.224  -3.471 -34.133  1.00  0.00     0.043 A 
HETATM   16  F   UNL     1      -4.520  -5.795 -34.397  1.00  0.00    -0.206 F 
HETATM   17  C   UNL     1      -4.763  -2.182 -34.170  1.00  0.00     0.017 A 
ENDBRANCH   9  11
ENDBRANCH   1   5
BRANCH   2  18
HETATM   18  C   UNL     1      -5.689   5.073 -33.879  1.00  0.00     0.156 C 
BRANCH  18  19
HETATM   19  C   UNL     1      -4.325   5.441 -33.271  1.00  0.00     0.159 C 
BRANCH  19  20
HETATM   20  O   UNL     1      -4.441   6.666 -32.533  1.00  0.00    -0.392 OA
HETATM   21  H   UNL     1      -5.367   6.954 -32.643  1.00  0.00     0.210 HD
ENDBRANCH  19  20
BRANCH  19  22
HETATM   22  C   UNL     1      -3.819   4.348 -32.322  1.00  0.00     0.201 C 
BRANCH  22  23
HETATM   23  O   UNL     1      -4.762   3.927 -31.341  1.00  0.00    -0.383 OA
BRANCH  23  24
HETATM   24  C   UNL     1      -4.525   2.656 -30.724  1.00  0.00     0.121 C 
HETATM   25  C   UNL     1      -3.577   1.900 -31.665  1.00  0.00     0.032 C 
HETATM   26  C   UNL     1      -3.304   0.477 -31.197  1.00  0.00     0.002 C 
HETATM   27  C   UNL     1      -4.599  -0.300 -30.992  1.00  0.00     0.000 C 
HETATM   28  C   UNL     1      -5.541   0.432 -30.042  1.00  0.00     0.002 C 
HETATM   29  C   UNL     1      -5.816   1.860 -30.506  1.00  0.00     0.032 C 
ENDBRANCH  23  24
ENDBRANCH  22  23
ENDBRANCH  19  22
ENDBRANCH  18  19
ENDBRANCH   2  18
TORSDOF 8
ENDMDL
MODEL 2
REMARK VINA RESULT:      -7.7      2.534      3.420
REMARK  8 active torsions:
REMARK  status: ('A' for Active; 'I' for Inactive)
REMARK    1  A    between atoms: C_2  and  C_3 
REMARK    2  A    between atoms: C_7  and  C_8 
REMARK       I    between atoms: C_8  and  N_9 
REMARK    3  A    between atoms: N_9  and  C_10 
REMARK    4  A    between atoms: C_10  and  C_11 
REMARK    5  A    between atoms: C_11  and  O_12 
REMARK    6  A    between atoms: C_11  and  C_13 
REMARK    7  A    between atoms: C_13  and  O_14 
REMARK    8  A    between atoms: O_14  and  C_15 
ROOT
HETATM    1  C   UNL     1     -10.279   1.232 -33.411  1.00  0.00     0.269 C 
HETATM    2  N   UNL     1     -10.006   2.469 -32.878  1.00  0.00    -0.353 N 
HETATM    3  O   UNL     1     -11.414   0.770 -33.453  1.00  0.00    -0.266 OA
HETATM    4  H   UNL     1      -9.057   2.811 -32.863  1.00  0.00     0.162 HD
ENDROOT
BRANCH   1   5
HETATM    5  C   UNL     1      -9.133   0.502 -33.879  1.00  0.00     0.120 A 
HETATM    6  N   UNL     1      -8.436   0.894 -34.988  1.00  0.00    -0.272 N 
HETATM    7  N   UNL     1      -7.420   0.084 -35.317  1.00  0.00    -0.174 NA
HETATM    8  H   UNL     1      -8.627   1.704 -35.571  1.00  0.00     0.189 HD
HETATM    9  C   UNL     1      -7.414  -0.857 -34.360  1.00  0.00     0.089 A 
HETATM   10  C   UNL     1      -8.477  -0.631 -33.441  1.00  0.00     0.071 A 
BRANCH   9  11
HETATM   11  C   UNL     1      -6.422  -1.936 -34.346  1.00  0.00    -0.005 A 
HETATM   12  C   UNL     1      -6.760  -3.233 -34.765  1.00  0.00     0.017 A 
HETATM   13  C   UNL     1      -5.804  -4.253 -34.753  1.00  0.00     0.043 A 
HETATM   14  C   UNL     1      -4.510  -3.980 -34.326  1.00  0.00     0.116 A 
HETATM   15  C   UNL     1      -4.154  -2.706 -33.904  1.00  0.00     0.043 A 
HETATM   16  F   UNL     1      -3.597  -4.959 -34.317  1.00  0.00    -0.206 F 
HETATM   17  C   UNL     1      -5.110  -1.686 -33.911  1.00  0.00     0.017 A 
ENDBRANCH   9  11
ENDBRANCH   1   5
BRANCH   2  18
HETATM   18  C   UNL     1     -11.051   3.354 -32.376  1.00  0.00     0.156 C 
BRANCH  18  19
HETATM   19  C   UNL     1     -10.623   4.119 -31.113  1.00  0.00     0.159 C 
BRANCH  19  20
HETATM   20  O   UNL     1     -11.193   3.494 -29.954  1.00  0.00    -0.392 OA
HETATM   21  H   UNL     1     -10.448   3.336 -29.346  1.00  0.00     0.210 HD
ENDBRANCH  19  20
BRANCH  19  22
HETATM   22  C   UNL     1      -9.098   4.135 -30.956  1.00  0.00     0.201 C 
BRANCH  22  23
HETATM   23  O   UNL     1      -8.551   2.976 -30.334  1.00  0.00    -0.383 OA
BRANCH  23  24
HETATM   24  C   UNL     1      -7.179   2.679 -30.622  1.00  0.00     0.121 C 
HETATM   25  C   UNL     1      -6.830   3.476 -31.886  1.00  0.00     0.032 C 
HETATM   26  C   UNL     1      -5.421   3.188 -32.387  1.00  0.00     0.002 C 
HETATM   27  C   UNL     1      -5.203   1.695 -32.608  1.00  0.00     0.000 C 
HETATM   28  C   UNL     1      -5.526   0.895 -31.350  1.00  0.00     0.002 C 
HETATM   29  C   UNL     1      -6.938   1.182 -30.844  1.00  0.00     0.032 C 
ENDBRANCH  23  24
ENDBRANCH  22  23
ENDBRANCH  19  22
ENDBRANCH  18  19
ENDBRANCH   2  18
TORSDOF 8
ENDMDL
MODEL 3
REMARK VINA RESULT:      -7.7      2.307      3.876
REMARK  8 active torsions:
REMARK  status: ('A' for Active; 'I' for Inactive)
REMARK    1  A    between atoms: C_2  and  C_3 
REMARK    2  A    between atoms: C_7  and  C_8 
REMARK       I    between atoms: C_8  and  N_9 
REMARK    3  A    between atoms: N_9  and  C_10 
REMARK    4  A    between atoms: C_10  and  C_11 
REMARK    5  A    between atoms: C_11  and  O_12 
REMARK    6  A    between atoms: C_11  and  C_13 
REMARK    7  A    between atoms: C_13  and  O_14 
REMARK    8  A    between atoms: O_14  and  C_15 
ROOT
HETATM    1  C   UNL     1      -3.586   2.206 -31.239  1.00  0.00     0.269 C 
HETATM    2  N   UNL     1      -4.811   2.689 -30.843  1.00  0.00    -0.353 N 
HETATM    3  O   UNL     1      -2.582   2.910 -31.274  1.00  0.00    -0.266 OA
HETATM    4  H   UNL     1      -5.612   2.075 -30.829  1.00  0.00     0.162 HD
ENDROOT
BRANCH   1   5
HETATM    5  C   UNL     1      -3.576   0.828 -31.647  1.00  0.00     0.120 A 
HETATM    6  N   UNL     1      -2.697  -0.072 -31.111  1.00  0.00    -0.272 N 
HETATM    7  N   UNL     1      -2.787  -1.306 -31.628  1.00  0.00    -0.174 NA
HETATM    8  H   UNL     1      -1.998   0.111 -30.397  1.00  0.00     0.189 HD
HETATM    9  C   UNL     1      -3.798  -1.231 -32.508  1.00  0.00     0.089 A 
HETATM   10  C   UNL     1      -4.315   0.094 -32.552  1.00  0.00     0.071 A 
BRANCH   9  11
HETATM   11  C   UNL     1      -4.234  -2.397 -33.282  1.00  0.00    -0.005 A 
HETATM   12  C   UNL     1      -3.604  -3.643 -33.130  1.00  0.00     0.017 A 
HETATM   13  C   UNL     1      -4.032  -4.749 -33.870  1.00  0.00     0.043 A 
HETATM   14  C   UNL     1      -5.091  -4.614 -34.760  1.00  0.00     0.116 A 
HETATM   15  C   UNL     1      -5.728  -3.392 -34.929  1.00  0.00     0.043 A 
HETATM   16  F   UNL     1      -5.500  -5.676 -35.465  1.00  0.00    -0.206 F 
HETATM   17  C   UNL     1      -5.297  -2.284 -34.194  1.00  0.00     0.017 A 
ENDBRANCH   9  11
ENDBRANCH   1   5
BRANCH   2  18
HETATM   18  C   UNL     1      -4.999   4.058 -30.377  1.00  0.00     0.156 C 
BRANCH  18  19
HETATM   19  C   UNL     1      -5.490   5.000 -31.489  1.00  0.00     0.159 C 
BRANCH  19  20
HETATM   20  O   UNL     1      -4.422   5.253 -32.413  1.00  0.00    -0.392 OA
HETATM   21  H   UNL     1      -3.620   5.356 -31.867  1.00  0.00     0.210 HD
ENDBRANCH  19  20
BRANCH  19  22
HETATM   22  C   UNL     1      -6.667   4.391 -32.261  1.00  0.00     0.201 C 
BRANCH  22  23
HETATM   23  O   UNL     1      -6.300   3.421 -33.239  1.00  0.00    -0.383 OA
BRANCH  23  24
HETATM   24  C   UNL     1      -7.317   2.494 -33.637  1.00  0.00     0.121 C 
HETATM   25  C   UNL     1      -7.772   1.788 -32.353  1.00  0.00     0.032 C 
HETATM   26  C   UNL     1      -8.790   0.687 -32.622  1.00  0.00     0.002 C 
HETATM   27  C   UNL     1      -8.265  -0.319 -33.640  1.00  0.00     0.000 C 
HETATM   28  C   UNL     1      -7.831   0.370 -34.929  1.00  0.00     0.002 C 
HETATM   29  C   UNL     1      -6.810   1.474 -34.663  1.00  0.00     0.032 C 
ENDBRANCH  23  24
ENDBRANCH  22  23
ENDBRANCH  19  22
ENDBRANCH  18  19
ENDBRANCH   2  18
TORSDOF 8
ENDMDL
MODEL 4
REMARK VINA RESULT:      -7.5      4.269      5.354
REMARK  8 active torsions:
REMARK  status: ('A' for Active; 'I' for Inactive)
REMARK    1  A    between atoms: C_2  and  C_3 
REMARK    2  A    between atoms: C_7  and  C_8 
REMARK       I    between atoms: C_8  and  N_9 
REMARK    3  A    between atoms: N_9  and  C_10 
REMARK    4  A    between atoms: C_10  and  C_11 
REMARK    5  A    between atoms: C_11  and  O_12 
REMARK    6  A    between atoms: C_11  and  C_13 
REMARK    7  A    between atoms: C_13  and  O_14 
REMARK    8  A    between atoms: O_14  and  C_15 
ROOT
HETATM    1  C   UNL     1      -3.809   2.814 -31.338  1.00  0.00     0.269 C 
HETATM    2  N   UNL     1      -2.730   3.486 -31.861  1.00  0.00    -0.353 N 
HETATM    3  O   UNL     1      -4.574   3.327 -30.530  1.00  0.00    -0.266 OA
HETATM    4  H   UNL     1      -2.124   3.025 -32.524  1.00  0.00     0.162 HD
ENDROOT
BRANCH   1   5
HETATM    5  C   UNL     1      -3.951   1.452 -31.776  1.00  0.00     0.120 A 
HETATM    6  N   UNL     1      -3.136   0.459 -31.307  1.00  0.00    -0.272 N 
HETATM    7  N   UNL     1      -3.369  -0.746 -31.846  1.00  0.00    -0.174 NA
HETATM    8  H   UNL     1      -2.388   0.556 -30.627  1.00  0.00     0.189 HD
HETATM    9  C   UNL     1      -4.411  -0.553 -32.669  1.00  0.00     0.089 A 
HETATM   10  C   UNL     1      -4.802   0.815 -32.657  1.00  0.00     0.071 A 
BRANCH   9  11
HETATM   11  C   UNL     1      -4.994  -1.652 -33.445  1.00  0.00    -0.005 A 
HETATM   12  C   UNL     1      -4.230  -2.777 -33.794  1.00  0.00     0.017 A 
HETATM   13  C   UNL     1      -4.799  -3.821 -34.529  1.00  0.00     0.043 A 
HETATM   14  C   UNL     1      -6.132  -3.745 -34.914  1.00  0.00     0.116 A 
HETATM   15  C   UNL     1      -6.907  -2.641 -34.584  1.00  0.00     0.043 A 
HETATM   16  F   UNL     1      -6.675  -4.747 -35.616  1.00  0.00    -0.206 F 
HETATM   17  C   UNL     1      -6.338  -1.595 -33.853  1.00  0.00     0.017 A 
ENDBRANCH   9  11
ENDBRANCH   1   5
BRANCH   2  18
HETATM   18  C   UNL     1      -2.446   4.880 -31.542  1.00  0.00     0.156 C 
BRANCH  18  19
HETATM   19  C   UNL     1      -0.943   5.204 -31.583  1.00  0.00     0.159 C 
BRANCH  19  20
HETATM   20  O   UNL     1      -0.706   6.272 -32.512  1.00  0.00    -0.392 OA
HETATM   21  H   UNL     1      -0.092   6.881 -32.062  1.00  0.00     0.210 HD
ENDBRANCH  19  20
BRANCH  19  22
HETATM   22  C   UNL     1      -0.423   5.633 -30.206  1.00  0.00     0.201 C 
BRANCH  22  23
HETATM   23  O   UNL     1      -1.273   6.535 -29.503  1.00  0.00    -0.383 OA
BRANCH  23  24
HETATM   24  C   UNL     1      -0.680   7.266 -28.423  1.00  0.00     0.121 C 
HETATM   25  C   UNL     1       0.662   7.788 -28.951  1.00  0.00     0.032 C 
HETATM   26  C   UNL     1       1.471   8.508 -27.880  1.00  0.00     0.002 C 
HETATM   27  C   UNL     1       1.675   7.629 -26.652  1.00  0.00     0.000 C 
HETATM   28  C   UNL     1       0.345   7.122 -26.105  1.00  0.00     0.002 C 
HETATM   29  C   UNL     1      -0.469   6.400 -27.176  1.00  0.00     0.032 C 
ENDBRANCH  23  24
ENDBRANCH  22  23
ENDBRANCH  19  22
ENDBRANCH  18  19
ENDBRANCH   2  18
TORSDOF 8
ENDMDL
MODEL 5
REMARK VINA RESULT:      -7.5      1.779      3.519
REMARK  8 active torsions:
REMARK  status: ('A' for Active; 'I' for Inactive)
REMARK    1  A    between atoms: C_2  and  C_3 
REMARK    2  A    between atoms: C_7  and  C_8 
REMARK       I    between atoms: C_8  and  N_9 
REMARK    3  A    between atoms: N_9  and  C_10 
REMARK    4  A    between atoms: C_10  and  C_11 
REMARK    5  A    between atoms: C_11  and  O_12 
REMARK    6  A    between atoms: C_11  and  C_13 
REMARK    7  A    between atoms: C_13  and  O_14 
REMARK    8  A    between atoms: O_14  and  C_15 
ROOT
HETATM    1  C   UNL     1      -6.555   3.139 -33.016  1.00  0.00     0.269 C 
HETATM    2  N   UNL     1      -6.798   3.196 -31.664  1.00  0.00    -0.353 N 
HETATM    3  O   UNL     1      -6.406   4.146 -33.700  1.00  0.00    -0.266 OA
HETATM    4  H   UNL     1      -6.915   2.342 -31.139  1.00  0.00     0.162 HD
ENDROOT
BRANCH   1   5
HETATM    5  C   UNL     1      -6.530   1.816 -33.577  1.00  0.00     0.120 A 
HETATM    6  N   UNL     1      -7.307   1.475 -34.649  1.00  0.00    -0.272 N 
HETATM    7  N   UNL     1      -7.199   0.193 -35.023  1.00  0.00    -0.174 NA
HETATM    8  H   UNL     1      -7.948   2.082 -35.153  1.00  0.00     0.189 HD
HETATM    9  C   UNL     1      -6.278  -0.325 -34.197  1.00  0.00     0.089 A 
HETATM   10  C   UNL     1      -5.837   0.661 -33.271  1.00  0.00     0.071 A 
BRANCH   9  11
HETATM   11  C   UNL     1      -5.852  -1.724 -34.297  1.00  0.00    -0.005 A 
HETATM   12  C   UNL     1      -4.552  -2.112 -33.937  1.00  0.00     0.017 A 
HETATM   13  C   UNL     1      -4.159  -3.450 -34.030  1.00  0.00     0.043 A 
HETATM   14  C   UNL     1      -5.064  -4.404 -34.480  1.00  0.00     0.116 A 
HETATM   15  C   UNL     1      -6.355  -4.044 -34.844  1.00  0.00     0.043 A 
HETATM   16  F   UNL     1      -4.686  -5.685 -34.566  1.00  0.00    -0.206 F 
HETATM   17  C   UNL     1      -6.748  -2.705 -34.756  1.00  0.00     0.017 A 
ENDBRANCH   9  11
ENDBRANCH   1   5
BRANCH   2  18
HETATM   18  C   UNL     1      -6.837   4.454 -30.928  1.00  0.00     0.156 C 
BRANCH  18  19
HETATM   19  C   UNL     1      -5.695   4.578 -29.906  1.00  0.00     0.159 C 
BRANCH  19  20
HETATM   20  O   UNL     1      -5.271   3.269 -29.496  1.00  0.00    -0.392 OA
HETATM   21  H   UNL     1      -5.723   3.099 -28.649  1.00  0.00     0.210 HD
ENDBRANCH  19  20
BRANCH  19  22
HETATM   22  C   UNL     1      -4.488   5.316 -30.499  1.00  0.00     0.201 C 
BRANCH  22  23
HETATM   23  O   UNL     1      -3.777   4.589 -31.497  1.00  0.00    -0.383 OA
BRANCH  23  24
HETATM   24  C   UNL     1      -3.354   5.327 -32.650  1.00  0.00     0.121 C 
HETATM   25  C   UNL     1      -2.529   4.351 -33.498  1.00  0.00     0.032 C 
HETATM   26  C   UNL     1      -1.916   5.016 -34.723  1.00  0.00     0.002 C 
HETATM   27  C   UNL     1      -1.086   6.235 -34.337  1.00  0.00     0.000 C 
HETATM   28  C   UNL     1      -1.903   7.223 -33.511  1.00  0.00     0.002 C 
HETATM   29  C   UNL     1      -2.521   6.560 -32.283  1.00  0.00     0.032 C 
ENDBRANCH  23  24
ENDBRANCH  22  23
ENDBRANCH  19  22
ENDBRANCH  18  19
ENDBRANCH   2  18
TORSDOF 8
ENDMDL
MODEL 6
REMARK VINA RESULT:      -7.2      2.299      3.708
REMARK  8 active torsions:
REMARK  status: ('A' for Active; 'I' for Inactive)
REMARK    1  A    between atoms: C_2  and  C_3 
REMARK    2  A    between atoms: C_7  and  C_8 
REMARK       I    between atoms: C_8  and  N_9 
REMARK    3  A    between atoms: N_9  and  C_10 
REMARK    4  A    between atoms: C_10  and  C_11 
REMARK    5  A    between atoms: C_11  and  O_12 
REMARK    6  A    between atoms: C_11  and  C_13 
REMARK    7  A    between atoms: C_13  and  O_14 
REMARK    8  A    between atoms: O_14  and  C_15 
ROOT
HETATM    1  C   UNL     1      -4.366   3.351 -31.872  1.00  0.00     0.269 C 
HETATM    2  N   UNL     1      -5.485   4.063 -32.234  1.00  0.00    -0.353 N 
HETATM    3  O   UNL     1      -3.398   3.878 -31.335  1.00  0.00    -0.266 OA
HETATM    4  H   UNL     1      -6.260   3.590 -32.675  1.00  0.00     0.162 HD
ENDROOT
BRANCH   1   5
HETATM    5  C   UNL     1      -4.396   1.954 -32.207  1.00  0.00     0.120 A 
HETATM    6  N   UNL     1      -3.470   1.078 -31.713  1.00  0.00    -0.272 N 
HETATM    7  N   UNL     1      -3.611  -0.181 -32.154  1.00  0.00    -0.174 NA
HETATM    8  H   UNL     1      -2.703   1.294 -31.082  1.00  0.00     0.189 HD
HETATM    9  C   UNL     1      -4.703  -0.147 -32.932  1.00  0.00     0.089 A 
HETATM   10  C   UNL     1      -5.222   1.177 -32.995  1.00  0.00     0.071 A 
BRANCH   9  11
HETATM   11  C   UNL     1      -5.213  -1.349 -33.597  1.00  0.00    -0.005 A 
HETATM   12  C   UNL     1      -6.586  -1.510 -33.846  1.00  0.00     0.017 A 
HETATM   13  C   UNL     1      -7.061  -2.659 -34.486  1.00  0.00     0.043 A 
HETATM   14  C   UNL     1      -6.166  -3.646 -34.881  1.00  0.00     0.116 A 
HETATM   15  C   UNL     1      -4.805  -3.511 -34.644  1.00  0.00     0.043 A 
HETATM   16  F   UNL     1      -6.624  -4.744 -35.496  1.00  0.00    -0.206 F 
HETATM   17  C   UNL     1      -4.329  -2.365 -34.000  1.00  0.00     0.017 A 
ENDBRANCH   9  11
ENDBRANCH   1   5
BRANCH   2  18
HETATM   18  C   UNL     1      -5.633   5.486 -31.953  1.00  0.00     0.156 C 
BRANCH  18  19
HETATM   19  C   UNL     1      -7.053   6.002 -32.240  1.00  0.00     0.159 C 
BRANCH  19  20
HETATM   20  O   UNL     1      -6.986   7.345 -32.739  1.00  0.00    -0.392 OA
HETATM   21  H   UNL     1      -7.329   7.305 -33.651  1.00  0.00     0.210 HD
ENDBRANCH  19  20
BRANCH  19  22
HETATM   22  C   UNL     1      -7.768   5.131 -33.281  1.00  0.00     0.201 C 
BRANCH  22  23
HETATM   23  O   UNL     1      -8.781   4.280 -32.751  1.00  0.00    -0.383 OA
BRANCH  23  24
HETATM   24  C   UNL     1      -8.557   2.870 -32.862  1.00  0.00     0.121 C 
HETATM   25  C   UNL     1      -9.493   2.378 -33.974  1.00  0.00     0.032 C 
HETATM   26  C   UNL     1      -9.449   0.866 -34.147  1.00  0.00     0.002 C 
HETATM   27  C   UNL     1      -9.739   0.146 -32.835  1.00  0.00     0.000 C 
HETATM   28  C   UNL     1      -8.799   0.611 -31.728  1.00  0.00     0.002 C 
HETATM   29  C   UNL     1      -8.840   2.127 -31.551  1.00  0.00     0.032 C 
ENDBRANCH  23  24
ENDBRANCH  22  23
ENDBRANCH  19  22
ENDBRANCH  18  19
ENDBRANCH   2  18
TORSDOF 8
ENDMDL
MODEL 7
REMARK VINA RESULT:      -7.1      3.735      5.557
REMARK  8 active torsions:
REMARK  status: ('A' for Active; 'I' for Inactive)
REMARK    1  A    between atoms: C_2  and  C_3 
REMARK    2  A    between atoms: C_7  and  C_8 
REMARK       I    between atoms: C_8  and  N_9 
REMARK    3  A    between atoms: N_9  and  C_10 
REMARK    4  A    between atoms: C_10  and  C_11 
REMARK    5  A    between atoms: C_11  and  O_12 
REMARK    6  A    between atoms: C_11  and  C_13 
REMARK    7  A    between atoms: C_13  and  O_14 
REMARK    8  A    between atoms: O_14  and  C_15 
ROOT
HETATM    1  C   UNL     1      -9.199   2.776 -33.061  1.00  0.00     0.269 C 
HETATM    2  N   UNL     1      -8.842   3.998 -33.581  1.00  0.00    -0.353 N 
HETATM    3  O   UNL     1     -10.025   2.659 -32.163  1.00  0.00    -0.266 OA
HETATM    4  H   UNL     1      -8.156   4.048 -34.319  1.00  0.00     0.162 HD
ENDROOT
BRANCH   1   5
HETATM    5  C   UNL     1      -8.503   1.649 -33.618  1.00  0.00     0.120 A 
HETATM    6  N   UNL     1      -8.784   1.180 -34.872  1.00  0.00    -0.272 N 
HETATM    7  N   UNL     1      -8.078   0.097 -35.227  1.00  0.00    -0.174 NA
HETATM    8  H   UNL     1      -9.467   1.556 -35.523  1.00  0.00     0.189 HD
HETATM    9  C   UNL     1      -7.263  -0.132 -34.187  1.00  0.00     0.089 A 
HETATM   10  C   UNL     1      -7.503   0.818 -33.154  1.00  0.00     0.071 A 
BRANCH   9  11
HETATM   11  C   UNL     1      -6.299  -1.236 -34.191  1.00  0.00    -0.005 A 
HETATM   12  C   UNL     1      -6.614  -2.469 -34.785  1.00  0.00     0.017 A 
HETATM   13  C   UNL     1      -5.684  -3.513 -34.788  1.00  0.00     0.043 A 
HETATM   14  C   UNL     1      -4.438  -3.327 -34.202  1.00  0.00     0.116 A 
HETATM   15  C   UNL     1      -4.105  -2.119 -33.605  1.00  0.00     0.043 A 
HETATM   16  F   UNL     1      -3.549  -4.328 -34.208  1.00  0.00    -0.206 F 
HETATM   17  C   UNL     1      -5.035  -1.075 -33.597  1.00  0.00     0.017 A 
ENDBRANCH   9  11
ENDBRANCH   1   5
BRANCH   2  18
HETATM   18  C   UNL     1      -9.463   5.244 -33.147  1.00  0.00     0.156 C 
BRANCH  18  19
HETATM   19  C   UNL     1     -10.139   6.002 -34.302  1.00  0.00     0.159 C 
BRANCH  19  20
HETATM   20  O   UNL     1      -9.340   5.885 -35.489  1.00  0.00    -0.392 OA
HETATM   21  H   UNL     1      -9.972   5.863 -36.231  1.00  0.00     0.210 HD
ENDBRANCH  19  20
BRANCH  19  22
HETATM   22  C   UNL     1     -11.536   5.442 -34.599  1.00  0.00     0.201 C 
BRANCH  22  23
HETATM   23  O   UNL     1     -11.544   4.161 -35.222  1.00  0.00    -0.383 OA
BRANCH  23  24
HETATM   24  C   UNL     1     -12.676   3.325 -34.957  1.00  0.00     0.121 C 
HETATM   25  C   UNL     1     -13.084   3.613 -33.506  1.00  0.00     0.032 C 
HETATM   26  C   UNL     1     -14.223   2.720 -33.032  1.00  0.00     0.002 C 
HETATM   27  C   UNL     1     -13.889   1.245 -33.219  1.00  0.00     0.000 C 
HETATM   28  C   UNL     1     -13.503   0.943 -34.663  1.00  0.00     0.002 C 
HETATM   29  C   UNL     1     -12.362   1.836 -35.143  1.00  0.00     0.032 C 
ENDBRANCH  23  24
ENDBRANCH  22  23
ENDBRANCH  19  22
ENDBRANCH  18  19
ENDBRANCH   2  18
TORSDOF 8
ENDMDL
MODEL 8
REMARK VINA RESULT:      -7.0      2.879      4.118
REMARK  8 active torsions:
REMARK  status: ('A' for Active; 'I' for Inactive)
REMARK    1  A    between atoms: C_2  and  C_3 
REMARK    2  A    between atoms: C_7  and  C_8 
REMARK       I    between atoms: C_8  and  N_9 
REMARK    3  A    between atoms: N_9  and  C_10 
REMARK    4  A    between atoms: C_10  and  C_11 
REMARK    5  A    between atoms: C_11  and  O_12 
REMARK    6  A    between atoms: C_11  and  C_13 
REMARK    7  A    between atoms: C_13  and  O_14 
REMARK    8  A    between atoms: O_14  and  C_15 
ROOT
HETATM    1  C   UNL     1      -5.644   3.428 -31.821  1.00  0.00     0.269 C 
HETATM    2  N   UNL     1      -5.168   4.278 -32.790  1.00  0.00    -0.353 N 
HETATM    3  O   UNL     1      -6.174   3.834 -30.792  1.00  0.00    -0.266 OA
HETATM    4  H   UNL     1      -4.738   3.901 -33.621  1.00  0.00     0.162 HD
ENDROOT
BRANCH   1   5
HETATM    5  C   UNL     1      -5.440   2.030 -32.081  1.00  0.00     0.120 A 
HETATM    6  N   UNL     1      -4.674   1.251 -31.259  1.00  0.00    -0.272 N 
HETATM    7  N   UNL     1      -4.548  -0.021 -31.664  1.00  0.00    -0.174 NA
HETATM    8  H   UNL     1      -4.197   1.546 -30.412  1.00  0.00     0.189 HD
HETATM    9  C   UNL     1      -5.299  -0.100 -32.773  1.00  0.00     0.089 A 
HETATM   10  C   UNL     1      -5.872   1.168 -33.071  1.00  0.00     0.071 A 
BRANCH   9  11
HETATM   11  C   UNL     1      -5.444  -1.353 -33.519  1.00  0.00    -0.005 A 
HETATM   12  C   UNL     1      -4.331  -2.166 -33.790  1.00  0.00     0.017 A 
HETATM   13  C   UNL     1      -4.483  -3.362 -34.498  1.00  0.00     0.043 A 
HETATM   14  C   UNL     1      -5.744  -3.750 -34.932  1.00  0.00     0.116 A 
HETATM   15  C   UNL     1      -6.859  -2.962 -34.679  1.00  0.00     0.043 A 
HETATM   16  F   UNL     1      -5.886  -4.898 -35.607  1.00  0.00    -0.206 F 
HETATM   17  C   UNL     1      -6.708  -1.763 -33.975  1.00  0.00     0.017 A 
ENDBRANCH   9  11
ENDBRANCH   1   5
BRANCH   2  18
HETATM   18  C   UNL     1      -5.309   5.727 -32.699  1.00  0.00     0.156 C 
BRANCH  18  19
HETATM   19  C   UNL     1      -4.110   6.396 -32.006  1.00  0.00     0.159 C 
BRANCH  19  20
HETATM   20  O   UNL     1      -4.212   6.217 -30.586  1.00  0.00    -0.392 OA
HETATM   21  H   UNL     1      -5.071   5.781 -30.436  1.00  0.00     0.210 HD
ENDBRANCH  19  20
BRANCH  19  22
HETATM   22  C   UNL     1      -2.780   5.794 -32.478  1.00  0.00     0.201 C 
BRANCH  22  23
HETATM   23  O   UNL     1      -1.751   6.746 -32.729  1.00  0.00    -0.383 OA
BRANCH  23  24
HETATM   24  C   UNL     1      -0.618   6.713 -31.853  1.00  0.00     0.121 C 
HETATM   25  C   UNL     1      -0.325   5.228 -31.596  1.00  0.00     0.032 C 
HETATM   26  C   UNL     1       0.801   5.020 -30.593  1.00  0.00     0.002 C 
HETATM   27  C   UNL     1       0.523   5.754 -29.285  1.00  0.00     0.000 C 
HETATM   28  C   UNL     1       0.253   7.235 -29.527  1.00  0.00     0.002 C 
HETATM   29  C   UNL     1      -0.875   7.448 -30.533  1.00  0.00     0.032 C 
ENDBRANCH  23  24
ENDBRANCH  22  23
ENDBRANCH  19  22
ENDBRANCH  18  19
ENDBRANCH   2  18
TORSDOF 8
ENDMDL
MODEL 9
REMARK VINA RESULT:      -6.9      3.518      4.791
REMARK  8 active torsions:
REMARK  status: ('A' for Active; 'I' for Inactive)
REMARK    1  A    between atoms: C_2  and  C_3 
REMARK    2  A    between atoms: C_7  and  C_8 
REMARK       I    between atoms: C_8  and  N_9 
REMARK    3  A    between atoms: N_9  and  C_10 
REMARK    4  A    between atoms: C_10  and  C_11 
REMARK    5  A    between atoms: C_11  and  O_12 
REMARK    6  A    between atoms: C_11  and  C_13 
REMARK    7  A    between atoms: C_13  and  O_14 
REMARK    8  A    between atoms: O_14  and  C_15 
ROOT
HETATM    1  C   UNL     1      -4.490   3.041 -31.757  1.00  0.00     0.269 C 
HETATM    2  N   UNL     1      -3.224   3.428 -32.127  1.00  0.00    -0.353 N 
HETATM    3  O   UNL     1      -5.119   3.610 -30.873  1.00  0.00    -0.266 OA
HETATM    4  H   UNL     1      -2.741   2.930 -32.860  1.00  0.00     0.162 HD
ENDROOT
BRANCH   1   5
HETATM    5  C   UNL     1      -5.006   1.895 -32.454  1.00  0.00     0.120 A 
HETATM    6  N   UNL     1      -6.206   1.933 -33.108  1.00  0.00    -0.272 N 
HETATM    7  N   UNL     1      -6.565   0.771 -33.671  1.00  0.00    -0.174 NA
HETATM    8  H   UNL     1      -6.832   2.730 -33.185  1.00  0.00     0.189 HD
HETATM    9  C   UNL     1      -5.540  -0.058 -33.421  1.00  0.00     0.089 A 
HETATM   10  C   UNL     1      -4.543   0.609 -32.655  1.00  0.00     0.071 A 
BRANCH   9  11
HETATM   11  C   UNL     1      -5.535  -1.444 -33.897  1.00  0.00    -0.005 A 
HETATM   12  C   UNL     1      -6.702  -2.039 -34.402  1.00  0.00     0.017 A 
HETATM   13  C   UNL     1      -6.684  -3.361 -34.858  1.00  0.00     0.043 A 
HETATM   14  C   UNL     1      -5.501  -4.088 -34.814  1.00  0.00     0.116 A 
HETATM   15  C   UNL     1      -4.335  -3.522 -34.317  1.00  0.00     0.043 A 
HETATM   16  F   UNL     1      -5.486  -5.352 -35.254  1.00  0.00    -0.206 F 
HETATM   17  C   UNL     1      -4.353  -2.202 -33.856  1.00  0.00     0.017 A 
ENDBRANCH   9  11
ENDBRANCH   1   5
BRANCH   2  18
HETATM   18  C   UNL     1      -2.555   4.582 -31.539  1.00  0.00     0.156 C 
BRANCH  18  19
HETATM   19  C   UNL     1      -1.282   4.982 -32.304  1.00  0.00     0.159 C 
BRANCH  19  20
HETATM   20  O   UNL     1      -1.536   4.943 -33.716  1.00  0.00    -0.392 OA
HETATM   21  H   UNL     1      -1.190   4.085 -34.023  1.00  0.00     0.210 HD
ENDBRANCH  19  20
BRANCH  19  22
HETATM   22  C   UNL     1      -0.824   6.398 -31.931  1.00  0.00     0.201 C 
BRANCH  22  23
HETATM   23  O   UNL     1      -1.660   7.066 -30.991  1.00  0.00    -0.383 OA
BRANCH  23  24
HETATM   24  C   UNL     1      -1.149   7.198 -29.659  1.00  0.00     0.121 C 
HETATM   25  C   UNL     1      -1.427   8.649 -29.242  1.00  0.00     0.032 C 
HETATM   26  C   UNL     1      -0.848   8.984 -27.874  1.00  0.00     0.002 C 
HETATM   27  C   UNL     1       0.644   8.675 -27.810  1.00  0.00     0.000 C 
HETATM   28  C   UNL     1       0.929   7.229 -28.201  1.00  0.00     0.002 C 
HETATM   29  C   UNL     1       0.349   6.889 -29.572  1.00  0.00     0.032 C 
ENDBRANCH  23  24
ENDBRANCH  22  23
ENDBRANCH  19  22
ENDBRANCH  18  19
ENDBRANCH   2  18
TORSDOF 8
ENDMDL
MODEL 10
REMARK VINA RESULT:      -6.9      2.969      4.746
REMARK  8 active torsions:
REMARK  status: ('A' for Active; 'I' for Inactive)
REMARK    1  A    between atoms: C_2  and  C_3 
REMARK    2  A    between atoms: C_7  and  C_8 
REMARK       I    between atoms: C_8  and  N_9 
REMARK    3  A    between atoms: N_9  and  C_10 
REMARK    4  A    between atoms: C_10  and  C_11 
REMARK    5  A    between atoms: C_11  and  O_12 
REMARK    6  A    between atoms: C_11  and  C_13 
REMARK    7  A    between atoms: C_13  and  O_14 
REMARK    8  A    between atoms: O_14  and  C_15 
ROOT
HETATM    1  C   UNL     1      -6.769   3.147 -31.636  1.00  0.00     0.269 C 
HETATM    2  N   UNL     1      -6.979   4.092 -32.612  1.00  0.00    -0.353 N 
HETATM    3  O   UNL     1      -6.996   3.364 -30.451  1.00  0.00    -0.266 OA
HETATM    4  H   UNL     1      -6.778   3.872 -33.576  1.00  0.00     0.162 HD
ENDROOT
BRANCH   1   5
HETATM    5  C   UNL     1      -6.225   1.900 -32.101  1.00  0.00     0.120 A 
HETATM    6  N   UNL     1      -4.921   1.558 -31.877  1.00  0.00    -0.272 N 
HETATM    7  N   UNL     1      -4.559   0.383 -32.412  1.00  0.00    -0.174 NA
HETATM    8  H   UNL     1      -4.225   2.105 -31.377  1.00  0.00     0.189 HD
HETATM    9  C   UNL     1      -5.681  -0.094 -32.971  1.00  0.00     0.089 A 
HETATM   10  C   UNL     1      -6.748   0.831 -32.801  1.00  0.00     0.071 A 
BRANCH   9  11
HETATM   11  C   UNL     1      -5.711  -1.392 -33.652  1.00  0.00    -0.005 A 
HETATM   12  C   UNL     1      -6.925  -1.966 -34.060  1.00  0.00     0.017 A 
HETATM   13  C   UNL     1      -6.941  -3.202 -34.714  1.00  0.00     0.043 A 
HETATM   14  C   UNL     1      -5.745  -3.864 -34.963  1.00  0.00     0.116 A 
HETATM   15  C   UNL     1      -4.532  -3.318 -34.567  1.00  0.00     0.043 A 
HETATM   16  F   UNL     1      -5.764  -5.046 -35.592  1.00  0.00    -0.206 F 
HETATM   17  C   UNL     1      -4.515  -2.084 -33.909  1.00  0.00     0.017 A 
ENDBRANCH   9  11
ENDBRANCH   1   5
BRANCH   2  18
HETATM   18  C   UNL     1      -7.544   5.405 -32.322  1.00  0.00     0.156 C 
BRANCH  18  19
HETATM   19  C   UNL     1      -8.769   5.728 -33.194  1.00  0.00     0.159 C 
BRANCH  19  20
HETATM   20  O   UNL     1      -8.417   5.615 -34.581  1.00  0.00    -0.392 OA
HETATM   21  H   UNL     1      -7.506   5.957 -34.650  1.00  0.00     0.210 HD
ENDBRANCH  19  20
BRANCH  19  22
HETATM   22  C   UNL     1      -9.931   4.768 -32.908  1.00  0.00     0.201 C 
BRANCH  22  23
HETATM   23  O   UNL     1     -10.714   4.426 -34.048  1.00  0.00    -0.383 OA
BRANCH  23  24
HETATM   24  C   UNL     1     -10.862   3.029 -34.329  1.00  0.00     0.121 C 
HETATM   25  C   UNL     1     -12.343   2.820 -34.671  1.00  0.00     0.032 C 
HETATM   26  C   UNL     1     -12.689   1.355 -34.899  1.00  0.00     0.002 C 
HETATM   27  C   UNL     1     -12.280   0.495 -33.708  1.00  0.00     0.000 C 
HETATM   28  C   UNL     1     -10.803   0.678 -33.373  1.00  0.00     0.002 C 
HETATM   29  C   UNL     1     -10.452   2.146 -33.145  1.00  0.00     0.032 C 
ENDBRANCH  23  24
ENDBRANCH  22  23
ENDBRANCH  19  22
ENDBRANCH  18  19
ENDBRANCH   2  18
TORSDOF 8
ENDMDL
