MODEL 1
REMARK VINA RESULT:      -9.5      0.000      0.000
REMARK  5 active torsions:
REMARK  status: ('A' for Active; 'I' for Inactive)
REMARK    1  A    between atoms: C_3  and  C_4 
REMARK    2  A    between atoms: C_7  and  C_8 
REMARK    3  A    between atoms: C_8  and  N_9 
REMARK    4  A    between atoms: C_16  and  O_17 
REMARK    5  A    between atoms: C_18  and  O_19 
ROOT
HETATM    1  N   UNL     1     -10.361   2.494 -34.947  1.00  0.00    -0.067 N 
HETATM    2  H   UNL     1     -10.086   2.183 -35.887  1.00  0.00     0.280 HD
HETATM    3  C   UNL     1     -10.998   3.864 -35.095  1.00  0.00     0.240 C 
HETATM    4  C   UNL     1     -12.417   3.705 -34.553  1.00  0.00     0.020 C 
HETATM    5  C   UNL     1     -12.730   2.236 -34.848  1.00  0.00     0.020 C 
HETATM    6  C   UNL     1     -11.433   1.529 -34.477  1.00  0.00     0.240 C 
HETATM    7  C   UNL     1     -12.507   4.064 -33.057  1.00  0.00     0.041 C 
HETATM    8  C   UNL     1     -13.826   3.605 -32.440  1.00  0.00     0.147 C 
HETATM    9  C   UNL     1     -14.019   2.093 -32.646  1.00  0.00     0.147 C 
HETATM   10  C   UNL     1     -13.962   1.704 -34.125  1.00  0.00     0.041 C 
ENDROOT
BRANCH   1  11
HETATM   11  C   UNL     1      -9.101   2.489 -34.123  1.00  0.00     0.273 C 
BRANCH  11  12
HETATM   12  C   UNL     1      -8.358   1.185 -34.193  1.00  0.00    -0.033 A 
HETATM   13  C   UNL     1      -8.497   0.223 -33.183  1.00  0.00     0.010 A 
HETATM   14  C   UNL     1      -7.777  -0.976 -33.242  1.00  0.00     0.013 A 
HETATM   15  C   UNL     1      -6.898  -1.246 -34.303  1.00  0.00    -0.023 A 
HETATM   16  C   UNL     1      -6.769  -0.277 -35.309  1.00  0.00     0.013 A 
HETATM   17  C   UNL     1      -7.487   0.921 -35.258  1.00  0.00     0.010 A 
BRANCH  15  18
HETATM   18  C   UNL     1      -6.142  -2.508 -34.366  1.00  0.00     0.013 A 
HETATM   19  C   UNL     1      -6.750  -3.695 -34.810  1.00  0.00     0.015 A 
HETATM   20  C   UNL     1      -6.029  -4.892 -34.884  1.00  0.00     0.001 A 
HETATM   21  C   UNL     1      -4.686  -4.926 -34.514  1.00  0.00     0.003 A 
HETATM   22  C   UNL     1      -4.063  -3.762 -34.069  1.00  0.00     0.043 A 
HETATM   23  C   UNL     1      -4.787  -2.573 -34.000  1.00  0.00     0.127 A 
HETATM   24  F   UNL     1      -4.156  -1.472 -33.559  1.00  0.00    -0.205 F 
ENDBRANCH  15  18
ENDBRANCH  11  12
ENDBRANCH   1  11
BRANCH   8  25
HETATM   25  O   UNL     1     -14.902   4.294 -33.079  1.00  0.00    -0.393 OA
HETATM   26  H   UNL     1     -15.737   3.928 -32.730  1.00  0.00     0.210 HD
ENDBRANCH   8  25
BRANCH   9  27
HETATM   27  O   UNL     1     -15.280   1.694 -32.121  1.00  0.00    -0.393 OA
HETATM   28  H   UNL     1     -15.888   2.449 -32.254  1.00  0.00     0.210 HD
ENDBRANCH   9  27
TORSDOF 5
ENDMDL
MODEL 2
REMARK VINA RESULT:      -9.5      6.192      7.900
REMARK  5 active torsions:
REMARK  status: ('A' for Active; 'I' for Inactive)
REMARK    1  A    between atoms: C_3  and  C_4 
REMARK    2  A    between atoms: C_7  and  C_8 
REMARK    3  A    between atoms: C_8  and  N_9 
REMARK    4  A    between atoms: C_16  and  O_17 
REMARK    5  A    between atoms: C_18  and  O_19 
ROOT
HETATM    1  N   UNL     1      -4.088   4.092 -30.832  1.00  0.00    -0.067 N 
HETATM    2  H   UNL     1      -3.816   3.694 -29.924  1.00  0.00     0.280 HD
HETATM    3  C   UNL     1      -4.001   5.602 -30.704  1.00  0.00     0.240 C 
HETATM    4  C   UNL     1      -2.982   6.033 -31.756  1.00  0.00     0.020 C 
HETATM    5  C   UNL     1      -2.059   4.816 -31.853  1.00  0.00     0.020 C 
HETATM    6  C   UNL     1      -3.032   3.645 -31.825  1.00  0.00     0.240 C 
HETATM    7  C   UNL     1      -3.654   6.401 -33.094  1.00  0.00     0.041 C 
HETATM    8  C   UNL     1      -2.638   6.517 -34.228  1.00  0.00     0.147 C 
HETATM    9  C   UNL     1      -1.836   5.213 -34.368  1.00  0.00     0.147 C 
HETATM   10  C   UNL     1      -1.132   4.831 -33.064  1.00  0.00     0.041 C 
ENDROOT
BRANCH   1  11
HETATM   11  C   UNL     1      -5.476   3.579 -31.111  1.00  0.00     0.273 C 
BRANCH  11  12
HETATM   12  C   UNL     1      -5.481   2.234 -31.782  1.00  0.00    -0.033 A 
HETATM   13  C   UNL     1      -5.824   2.107 -33.135  1.00  0.00     0.010 A 
HETATM   14  C   UNL     1      -5.856   0.846 -33.742  1.00  0.00     0.013 A 
HETATM   15  C   UNL     1      -5.553  -0.318 -33.020  1.00  0.00    -0.023 A 
HETATM   16  C   UNL     1      -5.210  -0.178 -31.667  1.00  0.00     0.013 A 
HETATM   17  C   UNL     1      -5.172   1.078 -31.054  1.00  0.00     0.010 A 
BRANCH  15  18
HETATM   18  C   UNL     1      -5.585  -1.645 -33.659  1.00  0.00     0.013 A 
HETATM   19  C   UNL     1      -4.414  -2.410 -33.798  1.00  0.00     0.015 A 
HETATM   20  C   UNL     1      -4.445  -3.676 -34.393  1.00  0.00     0.001 A 
HETATM   21  C   UNL     1      -5.647  -4.201 -34.862  1.00  0.00     0.003 A 
HETATM   22  C   UNL     1      -6.819  -3.460 -34.737  1.00  0.00     0.043 A 
HETATM   23  C   UNL     1      -6.782  -2.200 -34.142  1.00  0.00     0.127 A 
HETATM   24  F   UNL     1      -7.930  -1.511 -34.046  1.00  0.00    -0.205 F 
ENDBRANCH  15  18
ENDBRANCH  11  12
ENDBRANCH   1  11
BRANCH   8  25
HETATM   25  O   UNL     1      -1.733   7.582 -33.933  1.00  0.00    -0.393 OA
HETATM   26  H   UNL     1      -2.264   8.365 -33.697  1.00  0.00     0.210 HD
ENDBRANCH   8  25
BRANCH   9  27
HETATM   27  O   UNL     1      -0.854   5.361 -35.386  1.00  0.00    -0.393 OA
HETATM   28  H   UNL     1      -1.116   4.762 -36.114  1.00  0.00     0.210 HD
ENDBRANCH   9  27
TORSDOF 5
ENDMDL
MODEL 3
REMARK VINA RESULT:      -9.1      3.685      4.951
REMARK  5 active torsions:
REMARK  status: ('A' for Active; 'I' for Inactive)
REMARK    1  A    between atoms: C_3  and  C_4 
REMARK    2  A    between atoms: C_7  and  C_8 
REMARK    3  A    between atoms: C_8  and  N_9 
REMARK    4  A    between atoms: C_16  and  O_17 
REMARK    5  A    between atoms: C_18  and  O_19 
ROOT
HETATM    1  N   UNL     1      -8.976   3.254 -33.140  1.00  0.00    -0.067 N 
HETATM    2  H   UNL     1      -9.725   3.955 -33.096  1.00  0.00     0.280 HD
HETATM    3  C   UNL     1      -7.678   3.998 -33.402  1.00  0.00     0.240 C 
HETATM    4  C   UNL     1      -6.782   3.669 -32.211  1.00  0.00     0.020 C 
HETATM    5  C   UNL     1      -7.790   3.446 -31.081  1.00  0.00     0.020 C 
HETATM    6  C   UNL     1      -8.889   2.638 -31.756  1.00  0.00     0.240 C 
HETATM    7  C   UNL     1      -5.884   2.446 -32.483  1.00  0.00     0.041 C 
HETATM    8  C   UNL     1      -5.233   1.923 -31.205  1.00  0.00     0.147 C 
HETATM    9  C   UNL     1      -6.304   1.583 -30.156  1.00  0.00     0.147 C 
HETATM   10  C   UNL     1      -7.199   2.784 -29.840  1.00  0.00     0.041 C 
ENDROOT
BRANCH   1  11
HETATM   11  C   UNL     1      -9.366   2.297 -34.235  1.00  0.00     0.273 C 
BRANCH  11  12
HETATM   12  C   UNL     1      -8.515   1.058 -34.264  1.00  0.00    -0.033 A 
HETATM   13  C   UNL     1      -7.539   0.879 -35.253  1.00  0.00     0.010 A 
HETATM   14  C   UNL     1      -6.774  -0.292 -35.289  1.00  0.00     0.013 A 
HETATM   15  C   UNL     1      -6.962  -1.315 -34.346  1.00  0.00    -0.023 A 
HETATM   16  C   UNL     1      -7.941  -1.123 -33.360  1.00  0.00     0.013 A 
HETATM   17  C   UNL     1      -8.706   0.045 -33.315  1.00  0.00     0.010 A 
BRANCH  15  18
HETATM   18  C   UNL     1      -6.155  -2.547 -34.383  1.00  0.00     0.013 A 
HETATM   19  C   UNL     1      -6.699  -3.755 -34.851  1.00  0.00     0.015 A 
HETATM   20  C   UNL     1      -5.929  -4.923 -34.898  1.00  0.00     0.001 A 
HETATM   21  C   UNL     1      -4.602  -4.905 -34.477  1.00  0.00     0.003 A 
HETATM   22  C   UNL     1      -4.043  -3.720 -34.007  1.00  0.00     0.043 A 
HETATM   23  C   UNL     1      -4.814  -2.560 -33.964  1.00  0.00     0.127 A 
HETATM   24  F   UNL     1      -4.244  -1.437 -33.497  1.00  0.00    -0.205 F 
ENDBRANCH  15  18
ENDBRANCH  11  12
ENDBRANCH   1  11
BRANCH   8  25
HETATM   25  O   UNL     1      -4.376   2.933 -30.672  1.00  0.00    -0.393 OA
HETATM   26  H   UNL     1      -3.944   2.567 -29.878  1.00  0.00     0.210 HD
ENDBRANCH   8  25
BRANCH   9  27
HETATM   27  O   UNL     1      -5.678   1.156 -28.952  1.00  0.00    -0.393 OA
HETATM   28  H   UNL     1      -6.378   1.131 -28.269  1.00  0.00     0.210 HD
ENDBRANCH   9  27
TORSDOF 5
ENDMDL
MODEL 4
REMARK VINA RESULT:      -9.1      1.747      2.583
REMARK  5 active torsions:
REMARK  status: ('A' for Active; 'I' for Inactive)
REMARK    1  A    between atoms: C_3  and  C_4 
REMARK    2  A    between atoms: C_7  and  C_8 
REMARK    3  A    between atoms: C_8  and  N_9 
REMARK    4  A    between atoms: C_16  and  O_17 
REMARK    5  A    between atoms: C_18  and  O_19 
ROOT
HETATM    1  N   UNL     1      -8.169   3.686 -32.925  1.00  0.00    -0.067 N 
HETATM    2  H   UNL     1      -7.921   4.465 -32.303  1.00  0.00     0.280 HD
HETATM    3  C   UNL     1      -8.634   2.539 -32.045  1.00  0.00     0.240 C 
HETATM    4  C   UNL     1     -10.068   2.256 -32.483  1.00  0.00     0.020 C 
HETATM    5  C   UNL     1     -10.553   3.626 -32.965  1.00  0.00     0.020 C 
HETATM    6  C   UNL     1      -9.357   4.158 -33.743  1.00  0.00     0.240 C 
HETATM    7  C   UNL     1     -10.136   1.165 -33.570  1.00  0.00     0.041 C 
HETATM    8  C   UNL     1     -11.510   1.107 -34.235  1.00  0.00     0.147 C 
HETATM    9  C   UNL     1     -11.881   2.478 -34.822  1.00  0.00     0.147 C 
HETATM   10  C   UNL     1     -11.851   3.583 -33.764  1.00  0.00     0.041 C 
ENDROOT
BRANCH   1  11
HETATM   11  C   UNL     1      -6.931   3.383 -33.725  1.00  0.00     0.273 C 
BRANCH  11  12
HETATM   12  C   UNL     1      -6.666   1.910 -33.861  1.00  0.00    -0.033 A 
HETATM   13  C   UNL     1      -5.947   1.215 -32.880  1.00  0.00     0.010 A 
HETATM   14  C   UNL     1      -5.679  -0.151 -33.031  1.00  0.00     0.013 A 
HETATM   15  C   UNL     1      -6.114  -0.858 -34.163  1.00  0.00    -0.023 A 
HETATM   16  C   UNL     1      -6.834  -0.151 -35.138  1.00  0.00     0.013 A 
HETATM   17  C   UNL     1      -7.109   1.211 -34.992  1.00  0.00     0.010 A 
BRANCH  15  18
HETATM   18  C   UNL     1      -5.834  -2.295 -34.322  1.00  0.00     0.013 A 
HETATM   19  C   UNL     1      -6.831  -3.182 -34.762  1.00  0.00     0.015 A 
HETATM   20  C   UNL     1      -6.563  -4.546 -34.926  1.00  0.00     0.001 A 
HETATM   21  C   UNL     1      -5.293  -5.048 -34.652  1.00  0.00     0.003 A 
HETATM   22  C   UNL     1      -4.290  -4.188 -34.213  1.00  0.00     0.043 A 
HETATM   23  C   UNL     1      -4.563  -2.831 -34.053  1.00  0.00     0.127 A 
HETATM   24  F   UNL     1      -3.574  -2.032 -33.620  1.00  0.00    -0.205 F 
ENDBRANCH  15  18
ENDBRANCH  11  12
ENDBRANCH   1  11
BRANCH   8  25
HETATM   25  O   UNL     1     -12.485   0.751 -33.254  1.00  0.00    -0.393 OA
HETATM   26  H   UNL     1     -12.012   0.556 -32.423  1.00  0.00     0.210 HD
ENDBRANCH   8  25
BRANCH   9  27
HETATM   27  O   UNL     1     -13.188   2.423 -35.382  1.00  0.00    -0.393 OA
HETATM   28  H   UNL     1     -13.079   2.152 -36.315  1.00  0.00     0.210 HD
ENDBRANCH   9  27
TORSDOF 5
ENDMDL
MODEL 5
REMARK VINA RESULT:      -9.0      6.306      7.565
REMARK  5 active torsions:
REMARK  status: ('A' for Active; 'I' for Inactive)
REMARK    1  A    between atoms: C_3  and  C_4 
REMARK    2  A    between atoms: C_7  and  C_8 
REMARK    3  A    between atoms: C_8  and  N_9 
REMARK    4  A    between atoms: C_16  and  O_17 
REMARK    5  A    between atoms: C_18  and  O_19 
ROOT
HETATM    1  N   UNL     1      -4.744   3.732 -31.679  1.00  0.00    -0.067 N 
HETATM    2  H   UNL     1      -5.738   3.607 -31.449  1.00  0.00     0.280 HD
HETATM    3  C   UNL     1      -4.636   3.784 -33.193  1.00  0.00     0.240 C 
HETATM    4  C   UNL     1      -4.025   5.148 -33.503  1.00  0.00     0.020 C 
HETATM    5  C   UNL     1      -4.517   6.012 -32.339  1.00  0.00     0.020 C 
HETATM    6  C   UNL     1      -4.352   5.094 -31.136  1.00  0.00     0.240 C 
HETATM    7  C   UNL     1      -2.489   5.082 -33.611  1.00  0.00     0.041 C 
HETATM    8  C   UNL     1      -1.857   6.472 -33.598  1.00  0.00     0.147 C 
HETATM    9  C   UNL     1      -2.277   7.241 -32.335  1.00  0.00     0.147 C 
HETATM   10  C   UNL     1      -3.798   7.350 -32.208  1.00  0.00     0.041 C 
ENDROOT
BRANCH   1  11
HETATM   11  C   UNL     1      -4.023   2.569 -31.052  1.00  0.00     0.273 C 
BRANCH  11  12
HETATM   12  C   UNL     1      -4.318   1.260 -31.730  1.00  0.00    -0.033 A 
HETATM   13  C   UNL     1      -3.371   0.654 -32.566  1.00  0.00     0.010 A 
HETATM   14  C   UNL     1      -3.667  -0.549 -33.217  1.00  0.00     0.013 A 
HETATM   15  C   UNL     1      -4.912  -1.176 -33.058  1.00  0.00    -0.023 A 
HETATM   16  C   UNL     1      -5.852  -0.560 -32.218  1.00  0.00     0.013 A 
HETATM   17  C   UNL     1      -5.562   0.639 -31.561  1.00  0.00     0.010 A 
BRANCH  15  18
HETATM   18  C   UNL     1      -5.224  -2.442 -33.742  1.00  0.00     0.013 A 
HETATM   19  C   UNL     1      -6.397  -2.585 -34.502  1.00  0.00     0.015 A 
HETATM   20  C   UNL     1      -6.688  -3.785 -35.163  1.00  0.00     0.001 A 
HETATM   21  C   UNL     1      -5.812  -4.864 -35.075  1.00  0.00     0.003 A 
HETATM   22  C   UNL     1      -4.644  -4.745 -34.325  1.00  0.00     0.043 A 
HETATM   23  C   UNL     1      -4.360  -3.548 -33.671  1.00  0.00     0.127 A 
HETATM   24  F   UNL     1      -3.228  -3.473 -32.951  1.00  0.00    -0.205 F 
ENDBRANCH  15  18
ENDBRANCH  11  12
ENDBRANCH   1  11
BRANCH   8  25
HETATM   25  O   UNL     1      -2.305   7.196 -34.744  1.00  0.00    -0.393 OA
HETATM   26  H   UNL     1      -3.247   6.982 -34.881  1.00  0.00     0.210 HD
ENDBRANCH   8  25
BRANCH   9  27
HETATM   27  O   UNL     1      -1.730   8.554 -32.369  1.00  0.00    -0.393 OA
HETATM   28  H   UNL     1      -1.095   8.611 -31.627  1.00  0.00     0.210 HD
ENDBRANCH   9  27
TORSDOF 5
ENDMDL
MODEL 6
REMARK VINA RESULT:      -8.9      1.509      2.419
REMARK  5 active torsions:
REMARK  status: ('A' for Active; 'I' for Inactive)
REMARK    1  A    between atoms: C_3  and  C_4 
REMARK    2  A    between atoms: C_7  and  C_8 
REMARK    3  A    between atoms: C_8  and  N_9 
REMARK    4  A    between atoms: C_16  and  O_17 
REMARK    5  A    between atoms: C_18  and  O_19 
ROOT
HETATM    1  N   UNL     1      -9.107   3.077 -32.539  1.00  0.00    -0.067 N 
HETATM    2  H   UNL     1      -8.821   3.127 -31.553  1.00  0.00     0.280 HD
HETATM    3  C   UNL     1      -9.957   1.828 -32.697  1.00  0.00     0.240 C 
HETATM    4  C   UNL     1     -11.312   2.328 -33.191  1.00  0.00     0.020 C 
HETATM    5  C   UNL     1     -11.400   3.728 -32.579  1.00  0.00     0.020 C 
HETATM    6  C   UNL     1      -9.996   4.281 -32.784  1.00  0.00     0.240 C 
HETATM    7  C   UNL     1     -11.403   2.324 -34.730  1.00  0.00     0.041 C 
HETATM    8  C   UNL     1     -12.611   3.113 -35.230  1.00  0.00     0.147 C 
HETATM    9  C   UNL     1     -12.571   4.554 -34.696  1.00  0.00     0.147 C 
HETATM   10  C   UNL     1     -12.507   4.597 -33.167  1.00  0.00     0.041 C 
ENDROOT
BRANCH   1  11
HETATM   11  C   UNL     1      -7.833   3.057 -33.340  1.00  0.00     0.273 C 
BRANCH  11  12
HETATM   12  C   UNL     1      -7.315   1.668 -33.586  1.00  0.00    -0.033 A 
HETATM   13  C   UNL     1      -7.440   1.066 -34.846  1.00  0.00     0.010 A 
HETATM   14  C   UNL     1      -6.982  -0.240 -35.056  1.00  0.00     0.013 A 
HETATM   15  C   UNL     1      -6.394  -0.981 -34.019  1.00  0.00    -0.023 A 
HETATM   16  C   UNL     1      -6.273  -0.368 -32.763  1.00  0.00     0.013 A 
HETATM   17  C   UNL     1      -6.724   0.937 -32.547  1.00  0.00     0.010 A 
BRANCH  15  18
HETATM   18  C   UNL     1      -5.911  -2.355 -34.240  1.00  0.00     0.013 A 
HETATM   19  C   UNL     1      -6.764  -3.349 -34.749  1.00  0.00     0.015 A 
HETATM   20  C   UNL     1      -6.302  -4.652 -34.972  1.00  0.00     0.001 A 
HETATM   21  C   UNL     1      -4.979  -4.984 -34.690  1.00  0.00     0.003 A 
HETATM   22  C   UNL     1      -4.117  -4.015 -34.183  1.00  0.00     0.043 A 
HETATM   23  C   UNL     1      -4.582  -2.720 -33.965  1.00  0.00     0.127 A 
HETATM   24  F   UNL     1      -3.725  -1.814 -33.468  1.00  0.00    -0.205 F 
ENDBRANCH  15  18
ENDBRANCH  11  12
ENDBRANCH   1  11
BRANCH   8  25
HETATM   25  O   UNL     1     -13.803   2.484 -34.760  1.00  0.00    -0.393 OA
HETATM   26  H   UNL     1     -13.542   1.785 -34.132  1.00  0.00     0.210 HD
ENDBRANCH   8  25
BRANCH   9  27
HETATM   27  O   UNL     1     -13.733   5.256 -35.120  1.00  0.00    -0.393 OA
HETATM   28  H   UNL     1     -13.438   6.151 -35.380  1.00  0.00     0.210 HD
ENDBRANCH   9  27
TORSDOF 5
ENDMDL
MODEL 7
REMARK VINA RESULT:      -8.9      4.876      6.379
REMARK  5 active torsions:
REMARK  status: ('A' for Active; 'I' for Inactive)
REMARK    1  A    between atoms: C_3  and  C_4 
REMARK    2  A    between atoms: C_7  and  C_8 
REMARK    3  A    between atoms: C_8  and  N_9 
REMARK    4  A    between atoms: C_16  and  O_17 
REMARK    5  A    between atoms: C_18  and  O_19 
ROOT
HETATM    1  N   UNL     1      -6.870   4.257 -33.754  1.00  0.00    -0.067 N 
HETATM    2  H   UNL     1      -7.362   4.812 -34.465  1.00  0.00     0.280 HD
HETATM    3  C   UNL     1      -5.641   3.661 -34.418  1.00  0.00     0.240 C 
HETATM    4  C   UNL     1      -4.456   4.201 -33.622  1.00  0.00     0.020 C 
HETATM    5  C   UNL     1      -4.971   5.553 -33.122  1.00  0.00     0.020 C 
HETATM    6  C   UNL     1      -6.399   5.240 -32.698  1.00  0.00     0.240 C 
HETATM    7  C   UNL     1      -4.039   3.246 -32.487  1.00  0.00     0.041 C 
HETATM    8  C   UNL     1      -3.084   3.915 -31.502  1.00  0.00     0.147 C 
HETATM    9  C   UNL     1      -3.713   5.194 -30.927  1.00  0.00     0.147 C 
HETATM   10  C   UNL     1      -4.116   6.180 -32.026  1.00  0.00     0.041 C 
ENDROOT
BRANCH   1  11
HETATM   11  C   UNL     1      -7.861   3.233 -33.267  1.00  0.00     0.273 C 
BRANCH  11  12
HETATM   12  C   UNL     1      -7.408   1.819 -33.503  1.00  0.00    -0.033 A 
HETATM   13  C   UNL     1      -6.864   1.055 -32.463  1.00  0.00     0.010 A 
HETATM   14  C   UNL     1      -6.417  -0.250 -32.700  1.00  0.00     0.013 A 
HETATM   15  C   UNL     1      -6.495  -0.825 -33.978  1.00  0.00    -0.023 A 
HETATM   16  C   UNL     1      -7.044  -0.051 -35.012  1.00  0.00     0.013 A 
HETATM   17  C   UNL     1      -7.496   1.251 -34.781  1.00  0.00     0.010 A 
BRANCH  15  18
HETATM   18  C   UNL     1      -6.027  -2.199 -34.228  1.00  0.00     0.013 A 
HETATM   19  C   UNL     1      -6.918  -3.203 -34.644  1.00  0.00     0.015 A 
HETATM   20  C   UNL     1      -6.471  -4.506 -34.894  1.00  0.00     0.001 A 
HETATM   21  C   UNL     1      -5.126  -4.829 -34.734  1.00  0.00     0.003 A 
HETATM   22  C   UNL     1      -4.226  -3.850 -34.321  1.00  0.00     0.043 A 
HETATM   23  C   UNL     1      -4.676  -2.555 -34.075  1.00  0.00     0.127 A 
HETATM   24  F   UNL     1      -3.781  -1.639 -33.671  1.00  0.00    -0.205 F 
ENDBRANCH  15  18
ENDBRANCH  11  12
ENDBRANCH   1  11
BRANCH   8  25
HETATM   25  O   UNL     1      -1.881   4.266 -32.187  1.00  0.00    -0.393 OA
HETATM   26  H   UNL     1      -1.427   3.437 -32.431  1.00  0.00     0.210 HD
ENDBRANCH   8  25
BRANCH   9  27
HETATM   27  O   UNL     1      -2.787   5.837 -30.059  1.00  0.00    -0.393 OA
HETATM   28  H   UNL     1      -2.896   5.423 -29.180  1.00  0.00     0.210 HD
ENDBRANCH   9  27
TORSDOF 5
ENDMDL
MODEL 8
REMARK VINA RESULT:      -8.7      2.874      3.961
REMARK  5 active torsions:
REMARK  status: ('A' for Active; 'I' for Inactive)
REMARK    1  A    between atoms: C_3  and  C_4 
REMARK    2  A    between atoms: C_7  and  C_8 
REMARK    3  A    between atoms: C_8  and  N_9 
REMARK    4  A    between atoms: C_16  and  O_17 
REMARK    5  A    between atoms: C_18  and  O_19 
ROOT
HETATM    1  N   UNL     1      -6.922   3.831 -30.855  1.00  0.00    -0.067 N 
HETATM    2  H   UNL     1      -6.798   4.725 -30.364  1.00  0.00     0.280 HD
HETATM    3  C   UNL     1      -7.983   3.049 -30.103  1.00  0.00     0.240 C 
HETATM    4  C   UNL     1      -9.098   2.811 -31.118  1.00  0.00     0.020 C 
HETATM    5  C   UNL     1      -8.981   4.026 -32.041  1.00  0.00     0.020 C 
HETATM    6  C   UNL     1      -7.477   4.173 -32.225  1.00  0.00     0.240 C 
HETATM    7  C   UNL     1      -8.934   1.465 -31.851  1.00  0.00     0.041 C 
HETATM    8  C   UNL     1      -9.843   1.369 -33.074  1.00  0.00     0.147 C 
HETATM    9  C   UNL     1      -9.581   2.542 -34.033  1.00  0.00     0.147 C 
HETATM   10  C   UNL     1      -9.762   3.897 -33.344  1.00  0.00     0.041 C 
ENDROOT
BRANCH   1  11
HETATM   11  C   UNL     1      -5.568   3.173 -30.867  1.00  0.00     0.273 C 
BRANCH  11  12
HETATM   12  C   UNL     1      -5.563   1.854 -31.587  1.00  0.00    -0.033 A 
HETATM   13  C   UNL     1      -5.539   1.799 -32.987  1.00  0.00     0.010 A 
HETATM   14  C   UNL     1      -5.566   0.565 -33.649  1.00  0.00     0.013 A 
HETATM   15  C   UNL     1      -5.623  -0.642 -32.936  1.00  0.00    -0.023 A 
HETATM   16  C   UNL     1      -5.646  -0.575 -31.535  1.00  0.00     0.013 A 
HETATM   17  C   UNL     1      -5.615   0.653 -30.867  1.00  0.00     0.010 A 
BRANCH  15  18
HETATM   18  C   UNL     1      -5.650  -1.940 -33.631  1.00  0.00     0.013 A 
HETATM   19  C   UNL     1      -6.813  -2.391 -34.279  1.00  0.00     0.015 A 
HETATM   20  C   UNL     1      -6.836  -3.619 -34.951  1.00  0.00     0.001 A 
HETATM   21  C   UNL     1      -5.696  -4.419 -34.988  1.00  0.00     0.003 A 
HETATM   22  C   UNL     1      -4.533  -3.993 -34.352  1.00  0.00     0.043 A 
HETATM   23  C   UNL     1      -4.516  -2.769 -33.685  1.00  0.00     0.127 A 
HETATM   24  F   UNL     1      -3.379  -2.395 -33.077  1.00  0.00    -0.205 F 
ENDBRANCH  15  18
ENDBRANCH  11  12
ENDBRANCH   1  11
BRANCH   8  25
HETATM   25  O   UNL     1     -11.204   1.424 -32.646  1.00  0.00    -0.393 OA
HETATM   26  H   UNL     1     -11.660   2.092 -33.192  1.00  0.00     0.210 HD
ENDBRANCH   8  25
BRANCH   9  27
HETATM   27  O   UNL     1     -10.478   2.471 -35.135  1.00  0.00    -0.393 OA
HETATM   28  H   UNL     1     -11.331   2.834 -34.823  1.00  0.00     0.210 HD
ENDBRANCH   9  27
TORSDOF 5
ENDMDL
MODEL 9
REMARK VINA RESULT:      -8.3      5.270      6.769
REMARK  5 active torsions:
REMARK  status: ('A' for Active; 'I' for Inactive)
REMARK    1  A    between atoms: C_3  and  C_4 
REMARK    2  A    between atoms: C_7  and  C_8 
REMARK    3  A    between atoms: C_8  and  N_9 
REMARK    4  A    between atoms: C_16  and  O_17 
REMARK    5  A    between atoms: C_18  and  O_19 
ROOT
HETATM    1  N   UNL     1      -6.136   4.156 -30.459  1.00  0.00    -0.067 N 
HETATM    2  H   UNL     1      -6.123   4.070 -29.435  1.00  0.00     0.280 HD
HETATM    3  C   UNL     1      -6.138   5.639 -30.786  1.00  0.00     0.240 C 
HETATM    4  C   UNL     1      -4.875   5.867 -31.612  1.00  0.00     0.020 C 
HETATM    5  C   UNL     1      -3.924   4.792 -31.081  1.00  0.00     0.020 C 
HETATM    6  C   UNL     1      -4.825   3.571 -30.950  1.00  0.00     0.240 C 
HETATM    7  C   UNL     1      -5.147   5.754 -33.125  1.00  0.00     0.041 C 
HETATM    8  C   UNL     1      -3.853   5.660 -33.930  1.00  0.00     0.147 C 
HETATM    9  C   UNL     1      -3.002   4.475 -33.444  1.00  0.00     0.147 C 
HETATM   10  C   UNL     1      -2.689   4.568 -31.948  1.00  0.00     0.041 C 
ENDROOT
BRANCH   1  11
HETATM   11  C   UNL     1      -7.368   3.424 -30.921  1.00  0.00     0.273 C 
BRANCH  11  12
HETATM   12  C   UNL     1      -7.054   2.139 -31.635  1.00  0.00    -0.033 A 
HETATM   13  C   UNL     1      -6.869   0.947 -30.921  1.00  0.00     0.010 A 
HETATM   14  C   UNL     1      -6.546  -0.238 -31.593  1.00  0.00     0.013 A 
HETATM   15  C   UNL     1      -6.395  -0.267 -32.988  1.00  0.00    -0.023 A 
HETATM   16  C   UNL     1      -6.585   0.932 -33.691  1.00  0.00     0.013 A 
HETATM   17  C   UNL     1      -6.911   2.118 -33.028  1.00  0.00     0.010 A 
BRANCH  15  18
HETATM   18  C   UNL     1      -6.058  -1.514 -33.695  1.00  0.00     0.013 A 
HETATM   19  C   UNL     1      -7.065  -2.367 -34.179  1.00  0.00     0.015 A 
HETATM   20  C   UNL     1      -6.745  -3.546 -34.863  1.00  0.00     0.001 A 
HETATM   21  C   UNL     1      -5.413  -3.895 -35.074  1.00  0.00     0.003 A 
HETATM   22  C   UNL     1      -4.399  -3.066 -34.600  1.00  0.00     0.043 A 
HETATM   23  C   UNL     1      -4.724  -1.893 -33.922  1.00  0.00     0.127 A 
HETATM   24  F   UNL     1      -3.720  -1.122 -33.473  1.00  0.00    -0.205 F 
ENDBRANCH  15  18
ENDBRANCH  11  12
ENDBRANCH   1  11
BRANCH   8  25
HETATM   25  O   UNL     1      -3.105   6.863 -33.750  1.00  0.00    -0.393 OA
HETATM   26  H   UNL     1      -2.803   7.159 -34.630  1.00  0.00     0.210 HD
ENDBRANCH   8  25
BRANCH   9  27
HETATM   27  O   UNL     1      -1.774   4.439 -34.162  1.00  0.00    -0.393 OA
HETATM   28  H   UNL     1      -1.881   3.764 -34.861  1.00  0.00     0.210 HD
ENDBRANCH   9  27
TORSDOF 5
ENDMDL
MODEL 10
REMARK VINA RESULT:      -8.2     13.067     14.649
REMARK  5 active torsions:
REMARK  status: ('A' for Active; 'I' for Inactive)
REMARK    1  A    between atoms: C_3  and  C_4 
REMARK    2  A    between atoms: C_7  and  C_8 
REMARK    3  A    between atoms: C_8  and  N_9 
REMARK    4  A    between atoms: C_16  and  O_17 
REMARK    5  A    between atoms: C_18  and  O_19 
ROOT
HETATM    1  N   UNL     1      -0.927   7.014 -30.245  1.00  0.00    -0.067 N 
HETATM    2  H   UNL     1      -0.906   7.978 -29.891  1.00  0.00     0.280 HD
HETATM    3  C   UNL     1      -2.384   6.598 -30.333  1.00  0.00     0.240 C 
HETATM    4  C   UNL     1      -2.616   6.263 -31.804  1.00  0.00     0.020 C 
HETATM    5  C   UNL     1      -1.619   7.176 -32.521  1.00  0.00     0.020 C 
HETATM    6  C   UNL     1      -0.371   7.068 -31.656  1.00  0.00     0.240 C 
HETATM    7  C   UNL     1      -2.396   4.765 -32.096  1.00  0.00     0.041 C 
HETATM    8  C   UNL     1      -2.309   4.485 -33.595  1.00  0.00     0.147 C 
HETATM    9  C   UNL     1      -1.196   5.329 -34.236  1.00  0.00     0.147 C 
HETATM   10  C   UNL     1      -1.397   6.827 -33.989  1.00  0.00     0.041 C 
ENDROOT
BRANCH   1  11
HETATM   11  C   UNL     1      -0.113   6.198 -29.276  1.00  0.00     0.273 C 
BRANCH  11  12
HETATM   12  C   UNL     1       0.440   7.013 -28.142  1.00  0.00    -0.033 A 
HETATM   13  C   UNL     1       1.201   8.164 -28.388  1.00  0.00     0.010 A 
HETATM   14  C   UNL     1       1.738   8.900 -27.325  1.00  0.00     0.013 A 
HETATM   15  C   UNL     1       1.537   8.507 -25.993  1.00  0.00    -0.023 A 
HETATM   16  C   UNL     1       0.773   7.354 -25.759  1.00  0.00     0.013 A 
HETATM   17  C   UNL     1       0.230   6.617 -26.814  1.00  0.00     0.010 A 
BRANCH  15  18
HETATM   18  C   UNL     1       2.101   9.281 -24.874  1.00  0.00     0.013 A 
HETATM   19  C   UNL     1       3.475   9.239 -24.583  1.00  0.00     0.015 A 
HETATM   20  C   UNL     1       4.014   9.985 -23.528  1.00  0.00     0.001 A 
HETATM   21  C   UNL     1       3.188  10.786 -22.743  1.00  0.00     0.003 A 
HETATM   22  C   UNL     1       1.823  10.842 -23.012  1.00  0.00     0.043 A 
HETATM   23  C   UNL     1       1.293  10.099 -24.065  1.00  0.00     0.127 A 
HETATM   24  F   UNL     1      -0.029  10.171 -24.289  1.00  0.00    -0.205 F 
ENDBRANCH  15  18
ENDBRANCH  11  12
ENDBRANCH   1  11
BRANCH   8  25
HETATM   25  O   UNL     1      -3.553   4.830 -34.205  1.00  0.00    -0.393 OA
HETATM   26  H   UNL     1      -3.434   4.775 -35.172  1.00  0.00     0.210 HD
ENDBRANCH   8  25
BRANCH   9  27
HETATM   27  O   UNL     1      -1.170   5.102 -35.640  1.00  0.00    -0.393 OA
HETATM   28  H   UNL     1      -0.249   4.861 -35.865  1.00  0.00     0.210 HD
ENDBRANCH   9  27
TORSDOF 5
ENDMDL
