MODEL 1
REMARK VINA RESULT:      -8.8      0.000      0.000
REMARK  2 active torsions:
REMARK  status: ('A' for Active; 'I' for Inactive)
REMARK    1  A    between atoms: C_2  and  N_3 
REMARK    2  A    between atoms: N_3  and  C_4 
ROOT
HETATM    1  C   UNL     1      -5.101   0.385 -33.061  1.00  0.00     0.143 A 
HETATM    2  N   UNL     1      -4.607   1.317 -32.209  1.00  0.00    -0.223 NA
HETATM    3  C   UNL     1      -3.652   0.982 -31.334  1.00  0.00     0.236 A 
HETATM    4  N   UNL     1      -3.095  -0.212 -31.170  1.00  0.00    -0.234 NA
HETATM    5  C   UNL     1      -3.583  -1.126 -32.023  1.00  0.00     0.114 A 
HETATM    6  C   UNL     1      -4.551  -0.926 -33.002  1.00  0.00     0.053 A 
HETATM    7  S   UNL     1      -3.016  -2.729 -31.951  1.00  0.00    -0.073 SA
HETATM    8  C   UNL     1      -4.037  -3.209 -33.216  1.00  0.00    -0.008 A 
HETATM    9  C   UNL     1      -4.780  -2.162 -33.736  1.00  0.00    -0.028 A 
HETATM   10  C   UNL     1      -5.722  -2.387 -34.888  1.00  0.00     0.041 C 
HETATM   11  C   UNL     1      -5.508  -3.744 -35.576  1.00  0.00     0.005 C 
HETATM   12  C   UNL     1      -5.308  -4.875 -34.561  1.00  0.00     0.005 C 
HETATM   13  C   UNL     1      -4.065  -4.627 -33.698  1.00  0.00     0.047 C 
ENDROOT
BRANCH   1  14
HETATM   14  N   UNL     1      -6.112   0.736 -33.970  1.00  0.00    -0.340 N 
HETATM   15  H   UNL     1      -5.816   0.718 -34.932  1.00  0.00     0.167 HD
BRANCH  14  16
HETATM   16  C   UNL     1      -7.508   0.857 -33.830  1.00  0.00     0.036 A 
HETATM   17  C   UNL     1      -8.202  -0.183 -33.187  1.00  0.00     0.032 A 
HETATM   18  C   UNL     1      -9.588  -0.137 -33.013  1.00  0.00     0.042 A 
HETATM   19  C   UNL     1     -10.306   0.954 -33.487  1.00  0.00     0.102 A 
HETATM   20  C   UNL     1      -9.643   1.972 -34.174  1.00  0.00     0.104 A 
HETATM   21  O   UNL     1     -11.656   0.958 -33.249  1.00  0.00    -0.346 OA
HETATM   22  C   UNL     1      -8.256   1.923 -34.340  1.00  0.00     0.069 A 
HETATM   23  O   UNL     1     -10.288   3.064 -34.701  1.00  0.00    -0.346 OA
HETATM   24  C   UNL     1     -11.703   2.857 -34.761  1.00  0.00     0.202 C 
HETATM   25  C   UNL     1     -12.214   2.261 -33.459  1.00  0.00     0.202 C 
ENDBRANCH  14  16
ENDBRANCH   1  14
TORSDOF 2
ENDMDL
MODEL 2
REMARK VINA RESULT:      -8.7      3.504      7.075
REMARK  2 active torsions:
REMARK  status: ('A' for Active; 'I' for Inactive)
REMARK    1  A    between atoms: C_2  and  N_3 
REMARK    2  A    between atoms: N_3  and  C_4 
ROOT
HETATM    1  C   UNL     1      -7.663   2.327 -33.197  1.00  0.00     0.143 A 
HETATM    2  N   UNL     1      -6.615   3.185 -33.156  1.00  0.00    -0.223 NA
HETATM    3  C   UNL     1      -6.749   4.427 -33.634  1.00  0.00     0.236 A 
HETATM    4  N   UNL     1      -7.832   4.964 -34.185  1.00  0.00    -0.234 NA
HETATM    5  C   UNL     1      -8.868   4.111 -34.213  1.00  0.00     0.114 A 
HETATM    6  C   UNL     1      -8.891   2.805 -33.733  1.00  0.00     0.053 A 
HETATM    7  S   UNL     1     -10.341   4.602 -34.908  1.00  0.00    -0.073 SA
HETATM    8  C   UNL     1     -11.058   3.098 -34.595  1.00  0.00    -0.008 A 
HETATM    9  C   UNL     1     -10.214   2.228 -33.924  1.00  0.00    -0.028 A 
HETATM   10  C   UNL     1     -10.683   0.854 -33.530  1.00  0.00     0.041 C 
HETATM   11  C   UNL     1     -12.206   0.686 -33.654  1.00  0.00     0.005 C 
HETATM   12  C   UNL     1     -12.746   1.303 -34.949  1.00  0.00     0.005 C 
HETATM   13  C   UNL     1     -12.472   2.811 -34.997  1.00  0.00     0.047 C 
ENDROOT
BRANCH   1  14
HETATM   14  N   UNL     1      -7.515   1.020 -32.705  1.00  0.00    -0.340 N 
HETATM   15  H   UNL     1      -8.211   0.762 -32.025  1.00  0.00     0.167 HD
BRANCH  14  16
HETATM   16  C   UNL     1      -6.756  -0.077 -33.154  1.00  0.00     0.036 A 
HETATM   17  C   UNL     1      -5.354   0.017 -33.093  1.00  0.00     0.032 A 
HETATM   18  C   UNL     1      -4.533  -1.029 -33.523  1.00  0.00     0.042 A 
HETATM   19  C   UNL     1      -5.104  -2.190 -34.030  1.00  0.00     0.102 A 
HETATM   20  C   UNL     1      -6.492  -2.283 -34.148  1.00  0.00     0.104 A 
HETATM   21  O   UNL     1      -4.247  -3.194 -34.397  1.00  0.00    -0.346 OA
HETATM   22  C   UNL     1      -7.308  -1.236 -33.711  1.00  0.00     0.069 A 
HETATM   23  O   UNL     1      -7.128  -3.383 -34.670  1.00  0.00    -0.346 OA
HETATM   24  C   UNL     1      -6.213  -4.233 -35.370  1.00  0.00     0.202 C 
HETATM   25  C   UNL     1      -4.943  -4.435 -34.560  1.00  0.00     0.202 C 
ENDBRANCH  14  16
ENDBRANCH   1  14
TORSDOF 2
ENDMDL
MODEL 3
REMARK VINA RESULT:      -8.5      1.627      2.059
REMARK  2 active torsions:
REMARK  status: ('A' for Active; 'I' for Inactive)
REMARK    1  A    between atoms: C_2  and  N_3 
REMARK    2  A    between atoms: N_3  and  C_4 
ROOT
HETATM    1  C   UNL     1      -7.028   0.675 -31.554  1.00  0.00     0.143 A 
HETATM    2  N   UNL     1      -6.662   1.649 -30.685  1.00  0.00    -0.223 NA
HETATM    3  C   UNL     1      -5.366   1.886 -30.454  1.00  0.00     0.236 A 
HETATM    4  N   UNL     1      -4.326   1.253 -30.986  1.00  0.00    -0.234 NA
HETATM    5  C   UNL     1      -4.697   0.298 -31.852  1.00  0.00     0.114 A 
HETATM    6  C   UNL     1      -5.995  -0.046 -32.215  1.00  0.00     0.053 A 
HETATM    7  S   UNL     1      -3.508  -0.648 -32.619  1.00  0.00    -0.073 SA
HETATM    8  C   UNL     1      -4.677  -1.544 -33.457  1.00  0.00    -0.008 A 
HETATM    9  C   UNL     1      -5.970  -1.113 -33.205  1.00  0.00    -0.028 A 
HETATM   10  C   UNL     1      -7.143  -1.767 -33.884  1.00  0.00     0.041 C 
HETATM   11  C   UNL     1      -6.726  -2.669 -35.056  1.00  0.00     0.005 C 
HETATM   12  C   UNL     1      -5.507  -3.530 -34.709  1.00  0.00     0.005 C 
HETATM   13  C   UNL     1      -4.290  -2.655 -34.384  1.00  0.00     0.047 C 
ENDROOT
BRANCH   1  14
HETATM   14  N   UNL     1      -8.389   0.422 -31.785  1.00  0.00    -0.340 N 
HETATM   15  H   UNL     1      -8.812  -0.181 -31.098  1.00  0.00     0.167 HD
BRANCH  14  16
HETATM   16  C   UNL     1      -9.335   1.038 -32.627  1.00  0.00     0.036 A 
HETATM   17  C   UNL     1     -10.476   0.303 -32.993  1.00  0.00     0.032 A 
HETATM   18  C   UNL     1     -11.458   0.845 -33.828  1.00  0.00     0.042 A 
HETATM   19  C   UNL     1     -11.308   2.136 -34.318  1.00  0.00     0.102 A 
HETATM   20  C   UNL     1     -10.157   2.864 -34.009  1.00  0.00     0.104 A 
HETATM   21  O   UNL     1     -12.324   2.625 -35.098  1.00  0.00    -0.346 OA
HETATM   22  C   UNL     1      -9.183   2.319 -33.170  1.00  0.00     0.069 A 
HETATM   23  O   UNL     1      -9.923   4.132 -34.483  1.00  0.00    -0.346 OA
HETATM   24  C   UNL     1     -10.801   4.456 -35.567  1.00  0.00     0.202 C 
HETATM   25  C   UNL     1     -12.228   4.047 -35.241  1.00  0.00     0.202 C 
ENDBRANCH  14  16
ENDBRANCH   1  14
TORSDOF 2
ENDMDL
MODEL 4
REMARK VINA RESULT:      -8.3      3.986      6.338
REMARK  2 active torsions:
REMARK  status: ('A' for Active; 'I' for Inactive)
REMARK    1  A    between atoms: C_2  and  N_3 
REMARK    2  A    between atoms: N_3  and  C_4 
ROOT
HETATM    1  C   UNL     1      -3.774   0.791 -31.563  1.00  0.00     0.143 A 
HETATM    2  N   UNL     1      -2.679   0.154 -31.082  1.00  0.00    -0.223 NA
HETATM    3  C   UNL     1      -2.361  -1.063 -31.536  1.00  0.00     0.236 A 
HETATM    4  N   UNL     1      -3.016  -1.779 -32.443  1.00  0.00    -0.234 NA
HETATM    5  C   UNL     1      -4.093  -1.138 -32.921  1.00  0.00     0.114 A 
HETATM    6  C   UNL     1      -4.535   0.134 -32.570  1.00  0.00     0.053 A 
HETATM    7  S   UNL     1      -5.083  -1.903 -34.074  1.00  0.00    -0.073 SA
HETATM    8  C   UNL     1      -6.131  -0.572 -34.145  1.00  0.00    -0.008 A 
HETATM    9  C   UNL     1      -5.723   0.478 -33.338  1.00  0.00    -0.028 A 
HETATM   10  C   UNL     1      -6.509   1.760 -33.292  1.00  0.00     0.041 C 
HETATM   11  C   UNL     1      -7.543   1.866 -34.424  1.00  0.00     0.005 C 
HETATM   12  C   UNL     1      -8.299   0.549 -34.634  1.00  0.00     0.005 C 
HETATM   13  C   UNL     1      -7.339  -0.579 -35.030  1.00  0.00     0.047 C 
ENDROOT
BRANCH   1  14
HETATM   14  N   UNL     1      -4.113   2.064 -31.076  1.00  0.00    -0.340 N 
HETATM   15  H   UNL     1      -4.532   2.049 -30.161  1.00  0.00     0.167 HD
BRANCH  14  16
HETATM   16  C   UNL     1      -3.753   3.360 -31.492  1.00  0.00     0.036 A 
HETATM   17  C   UNL     1      -4.525   4.442 -31.032  1.00  0.00     0.032 A 
HETATM   18  C   UNL     1      -4.233   5.757 -31.404  1.00  0.00     0.042 A 
HETATM   19  C   UNL     1      -3.162   6.012 -32.251  1.00  0.00     0.102 A 
HETATM   20  C   UNL     1      -2.416   4.948 -32.762  1.00  0.00     0.104 A 
HETATM   21  O   UNL     1      -2.903   7.325 -32.546  1.00  0.00    -0.346 OA
HETATM   22  C   UNL     1      -2.709   3.636 -32.382  1.00  0.00     0.069 A 
HETATM   23  O   UNL     1      -1.366   5.118 -33.630  1.00  0.00    -0.346 OA
HETATM   24  C   UNL     1      -1.361   6.433 -34.195  1.00  0.00     0.202 C 
HETATM   25  C   UNL     1      -1.599   7.480 -33.118  1.00  0.00     0.202 C 
ENDBRANCH  14  16
ENDBRANCH   1  14
TORSDOF 2
ENDMDL
MODEL 5
REMARK VINA RESULT:      -8.1      4.587      7.083
REMARK  2 active torsions:
REMARK  status: ('A' for Active; 'I' for Inactive)
REMARK    1  A    between atoms: C_2  and  N_3 
REMARK    2  A    between atoms: N_3  and  C_4 
ROOT
HETATM    1  C   UNL     1      -5.530   2.351 -32.492  1.00  0.00     0.143 A 
HETATM    2  N   UNL     1      -6.232   3.431 -32.069  1.00  0.00    -0.223 NA
HETATM    3  C   UNL     1      -7.568   3.395 -32.056  1.00  0.00     0.236 A 
HETATM    4  N   UNL     1      -8.349   2.388 -32.432  1.00  0.00    -0.234 NA
HETATM    5  C   UNL     1      -7.647   1.321 -32.840  1.00  0.00     0.114 A 
HETATM    6  C   UNL     1      -6.262   1.196 -32.884  1.00  0.00     0.053 A 
HETATM    7  S   UNL     1      -8.468  -0.064 -33.390  1.00  0.00    -0.073 SA
HETATM    8  C   UNL     1      -7.012  -0.874 -33.706  1.00  0.00    -0.008 A 
HETATM    9  C   UNL     1      -5.896  -0.131 -33.359  1.00  0.00    -0.028 A 
HETATM   10  C   UNL     1      -4.512  -0.695 -33.536  1.00  0.00     0.041 C 
HETATM   11  C   UNL     1      -4.516  -2.208 -33.807  1.00  0.00     0.005 C 
HETATM   12  C   UNL     1      -5.605  -2.607 -34.808  1.00  0.00     0.005 C 
HETATM   13  C   UNL     1      -7.000  -2.260 -34.273  1.00  0.00     0.047 C 
ENDROOT
BRANCH   1  14
HETATM   14  N   UNL     1      -4.126   2.396 -32.516  1.00  0.00    -0.340 N 
HETATM   15  H   UNL     1      -3.697   1.521 -32.768  1.00  0.00     0.167 HD
BRANCH  14  16
HETATM   16  C   UNL     1      -3.216   3.470 -32.510  1.00  0.00     0.036 A 
HETATM   17  C   UNL     1      -3.107   4.253 -33.673  1.00  0.00     0.032 A 
HETATM   18  C   UNL     1      -2.224   5.335 -33.745  1.00  0.00     0.042 A 
HETATM   19  C   UNL     1      -1.427   5.647 -32.651  1.00  0.00     0.102 A 
HETATM   20  C   UNL     1      -1.481   4.850 -31.506  1.00  0.00     0.104 A 
HETATM   21  O   UNL     1      -0.612   6.742 -32.771  1.00  0.00    -0.346 OA
HETATM   22  C   UNL     1      -2.370   3.775 -31.438  1.00  0.00     0.069 A 
HETATM   23  O   UNL     1      -0.700   5.076 -30.399  1.00  0.00    -0.346 OA
HETATM   24  C   UNL     1       0.376   5.972 -30.691  1.00  0.00     0.202 C 
HETATM   25  C   UNL     1      -0.121   7.164 -31.493  1.00  0.00     0.202 C 
ENDBRANCH  14  16
ENDBRANCH   1  14
TORSDOF 2
ENDMDL
MODEL 6
REMARK VINA RESULT:      -8.0      3.803      6.763
REMARK  2 active torsions:
REMARK  status: ('A' for Active; 'I' for Inactive)
REMARK    1  A    between atoms: C_2  and  N_3 
REMARK    2  A    between atoms: N_3  and  C_4 
ROOT
HETATM    1  C   UNL     1      -6.607   1.982 -32.458  1.00  0.00     0.143 A 
HETATM    2  N   UNL     1      -7.843   1.684 -31.987  1.00  0.00    -0.223 NA
HETATM    3  C   UNL     1      -8.329   2.338 -30.926  1.00  0.00     0.236 A 
HETATM    4  N   UNL     1      -7.726   3.290 -30.224  1.00  0.00    -0.234 NA
HETATM    5  C   UNL     1      -6.508   3.586 -30.702  1.00  0.00     0.114 A 
HETATM    6  C   UNL     1      -5.881   3.016 -31.806  1.00  0.00     0.053 A 
HETATM    7  S   UNL     1      -5.561   4.763 -29.920  1.00  0.00    -0.073 SA
HETATM    8  C   UNL     1      -4.288   4.556 -31.020  1.00  0.00    -0.008 A 
HETATM    9  C   UNL     1      -4.578   3.634 -32.013  1.00  0.00    -0.028 A 
HETATM   10  C   UNL     1      -3.582   3.338 -33.100  1.00  0.00     0.041 C 
HETATM   11  C   UNL     1      -2.437   4.362 -33.154  1.00  0.00     0.005 C 
HETATM   12  C   UNL     1      -1.915   4.710 -31.756  1.00  0.00     0.005 C 
HETATM   13  C   UNL     1      -3.018   5.340 -30.897  1.00  0.00     0.047 C 
ENDROOT
BRANCH   1  14
HETATM   14  N   UNL     1      -6.095   1.286 -33.565  1.00  0.00    -0.340 N 
HETATM   15  H   UNL     1      -5.798   1.884 -34.318  1.00  0.00     0.167 HD
BRANCH  14  16
HETATM   16  C   UNL     1      -5.679  -0.049 -33.731  1.00  0.00     0.036 A 
HETATM   17  C   UNL     1      -4.364  -0.384 -33.363  1.00  0.00     0.032 A 
HETATM   18  C   UNL     1      -3.877  -1.687 -33.500  1.00  0.00     0.042 A 
HETATM   19  C   UNL     1      -4.700  -2.679 -34.016  1.00  0.00     0.102 A 
HETATM   20  C   UNL     1      -5.992  -2.357 -34.437  1.00  0.00     0.104 A 
HETATM   21  O   UNL     1      -4.177  -3.944 -34.088  1.00  0.00    -0.346 OA
HETATM   22  C   UNL     1      -6.475  -1.054 -34.291  1.00  0.00     0.069 A 
HETATM   23  O   UNL     1      -6.852  -3.275 -34.987  1.00  0.00    -0.346 OA
HETATM   24  C   UNL     1      -6.163  -4.466 -35.383  1.00  0.00     0.202 C 
HETATM   25  C   UNL     1      -5.207  -4.919 -34.292  1.00  0.00     0.202 C 
ENDBRANCH  14  16
ENDBRANCH   1  14
TORSDOF 2
ENDMDL
MODEL 7
REMARK VINA RESULT:      -7.9      5.167      7.887
REMARK  2 active torsions:
REMARK  status: ('A' for Active; 'I' for Inactive)
REMARK    1  A    between atoms: C_2  and  N_3 
REMARK    2  A    between atoms: N_3  and  C_4 
ROOT
HETATM    1  C   UNL     1      -5.574   4.139 -33.753  1.00  0.00     0.143 A 
HETATM    2  N   UNL     1      -6.463   5.117 -34.052  1.00  0.00    -0.223 NA
HETATM    3  C   UNL     1      -7.746   4.984 -33.701  1.00  0.00     0.236 A 
HETATM    4  N   UNL     1      -8.304   3.958 -33.068  1.00  0.00    -0.234 NA
HETATM    5  C   UNL     1      -7.416   2.998 -32.767  1.00  0.00     0.114 A 
HETATM    6  C   UNL     1      -6.051   3.004 -33.040  1.00  0.00     0.053 A 
HETATM    7  S   UNL     1      -7.942   1.585 -31.979  1.00  0.00    -0.073 SA
HETATM    8  C   UNL     1      -6.376   0.934 -31.974  1.00  0.00    -0.008 A 
HETATM    9  C   UNL     1      -5.435   1.790 -32.523  1.00  0.00    -0.028 A 
HETATM   10  C   UNL     1      -3.983   1.401 -32.578  1.00  0.00     0.041 C 
HETATM   11  C   UNL     1      -3.661   0.177 -31.706  1.00  0.00     0.005 C 
HETATM   12  C   UNL     1      -4.721  -0.920 -31.847  1.00  0.00     0.005 C 
HETATM   13  C   UNL     1      -6.097  -0.418 -31.395  1.00  0.00     0.047 C 
ENDROOT
BRANCH   1  14
HETATM   14  N   UNL     1      -4.229   4.276 -34.133  1.00  0.00    -0.340 N 
HETATM   15  H   UNL     1      -4.049   4.013 -35.088  1.00  0.00     0.167 HD
BRANCH  14  16
HETATM   16  C   UNL     1      -3.142   4.943 -33.535  1.00  0.00     0.036 A 
HETATM   17  C   UNL     1      -2.730   6.168 -34.090  1.00  0.00     0.032 A 
HETATM   18  C   UNL     1      -1.657   6.887 -33.555  1.00  0.00     0.042 A 
HETATM   19  C   UNL     1      -0.973   6.387 -32.454  1.00  0.00     0.102 A 
HETATM   20  C   UNL     1      -1.333   5.147 -31.921  1.00  0.00     0.104 A 
HETATM   21  O   UNL     1       0.042   7.158 -31.952  1.00  0.00    -0.346 OA
HETATM   22  C   UNL     1      -2.410   4.436 -32.457  1.00  0.00     0.069 A 
HETATM   23  O   UNL     1      -0.684   4.573 -30.856  1.00  0.00    -0.346 OA
HETATM   24  C   UNL     1       0.572   5.211 -30.603  1.00  0.00     0.202 C 
HETATM   25  C   UNL     1       0.423   6.723 -30.641  1.00  0.00     0.202 C 
ENDBRANCH  14  16
ENDBRANCH   1  14
TORSDOF 2
ENDMDL
MODEL 8
REMARK VINA RESULT:      -7.8      2.929      4.406
REMARK  2 active torsions:
REMARK  status: ('A' for Active; 'I' for Inactive)
REMARK    1  A    between atoms: C_2  and  N_3 
REMARK    2  A    between atoms: N_3  and  C_4 
ROOT
HETATM    1  C   UNL     1      -8.702   3.280 -33.957  1.00  0.00     0.143 A 
HETATM    2  N   UNL     1      -8.722   4.571 -33.543  1.00  0.00    -0.223 NA
HETATM    3  C   UNL     1      -7.681   5.072 -32.870  1.00  0.00     0.236 A 
HETATM    4  N   UNL     1      -6.567   4.438 -32.523  1.00  0.00    -0.234 NA
HETATM    5  C   UNL     1      -6.551   3.165 -32.945  1.00  0.00     0.114 A 
HETATM    6  C   UNL     1      -7.539   2.511 -33.675  1.00  0.00     0.053 A 
HETATM    7  S   UNL     1      -5.218   2.174 -32.575  1.00  0.00    -0.073 SA
HETATM    8  C   UNL     1      -5.909   0.846 -33.370  1.00  0.00    -0.008 A 
HETATM    9  C   UNL     1      -7.126   1.145 -33.961  1.00  0.00    -0.028 A 
HETATM   10  C   UNL     1      -7.877   0.101 -34.742  1.00  0.00     0.041 C 
HETATM   11  C   UNL     1      -7.022  -1.136 -35.059  1.00  0.00     0.005 C 
HETATM   12  C   UNL     1      -6.189  -1.581 -33.852  1.00  0.00     0.005 C 
HETATM   13  C   UNL     1      -5.212  -0.479 -33.421  1.00  0.00     0.047 C 
ENDROOT
BRANCH   1  14
HETATM   14  N   UNL     1      -9.801   2.753 -34.654  1.00  0.00    -0.340 N 
HETATM   15  H   UNL     1      -9.555   2.307 -35.522  1.00  0.00     0.167 HD
BRANCH  14  16
HETATM   16  C   UNL     1     -11.131   2.498 -34.266  1.00  0.00     0.036 A 
HETATM   17  C   UNL     1     -11.824   1.463 -34.917  1.00  0.00     0.032 A 
HETATM   18  C   UNL     1     -13.147   1.151 -34.589  1.00  0.00     0.042 A 
HETATM   19  C   UNL     1     -13.802   1.879 -33.604  1.00  0.00     0.102 A 
HETATM   20  C   UNL     1     -13.149   2.945 -32.982  1.00  0.00     0.104 A 
HETATM   21  O   UNL     1     -15.084   1.499 -33.301  1.00  0.00    -0.346 OA
HETATM   22  C   UNL     1     -11.825   3.248 -33.310  1.00  0.00     0.069 A 
HETATM   23  O   UNL     1     -13.742   3.731 -32.025  1.00  0.00    -0.346 OA
HETATM   24  C   UNL     1     -15.161   3.549 -32.003  1.00  0.00     0.202 C 
HETATM   25  C   UNL     1     -15.513   2.072 -32.060  1.00  0.00     0.202 C 
ENDBRANCH  14  16
ENDBRANCH   1  14
TORSDOF 2
ENDMDL
MODEL 9
REMARK VINA RESULT:      -7.7      4.229      8.032
REMARK  2 active torsions:
REMARK  status: ('A' for Active; 'I' for Inactive)
REMARK    1  A    between atoms: C_2  and  N_3 
REMARK    2  A    between atoms: N_3  and  C_4 
ROOT
HETATM    1  C   UNL     1     -11.225   1.014 -33.401  1.00  0.00     0.143 A 
HETATM    2  N   UNL     1     -12.241   0.138 -33.594  1.00  0.00    -0.223 NA
HETATM    3  C   UNL     1     -13.275   0.475 -34.372  1.00  0.00     0.236 A 
HETATM    4  N   UNL     1     -13.457   1.624 -35.014  1.00  0.00    -0.234 NA
HETATM    5  C   UNL     1     -12.443   2.482 -34.825  1.00  0.00     0.114 A 
HETATM    6  C   UNL     1     -11.293   2.267 -34.071  1.00  0.00     0.053 A 
HETATM    7  S   UNL     1     -12.503   4.024 -35.542  1.00  0.00    -0.073 SA
HETATM    8  C   UNL     1     -11.005   4.457 -34.875  1.00  0.00    -0.008 A 
HETATM    9  C   UNL     1     -10.424   3.433 -34.145  1.00  0.00    -0.028 A 
HETATM   10  C   UNL     1      -9.076   3.618 -33.502  1.00  0.00     0.041 C 
HETATM   11  C   UNL     1      -8.340   4.868 -34.010  1.00  0.00     0.005 C 
HETATM   12  C   UNL     1      -9.275   6.078 -34.116  1.00  0.00     0.005 C 
HETATM   13  C   UNL     1     -10.411   5.811 -35.111  1.00  0.00     0.047 C 
ENDROOT
BRANCH   1  14
HETATM   14  N   UNL     1     -10.146   0.661 -32.575  1.00  0.00    -0.340 N 
HETATM   15  H   UNL     1     -10.414   0.446 -31.629  1.00  0.00     0.167 HD
BRANCH  14  16
HETATM   16  C   UNL     1      -8.815   0.301 -32.861  1.00  0.00     0.036 A 
HETATM   17  C   UNL     1      -8.504  -0.094 -34.175  1.00  0.00     0.032 A 
HETATM   18  C   UNL     1      -7.206  -0.469 -34.536  1.00  0.00     0.042 A 
HETATM   19  C   UNL     1      -6.196  -0.459 -33.583  1.00  0.00     0.102 A 
HETATM   20  C   UNL     1      -6.495  -0.121 -32.261  1.00  0.00     0.104 A 
HETATM   21  O   UNL     1      -4.938  -0.798 -34.009  1.00  0.00    -0.346 OA
HETATM   22  C   UNL     1      -7.792   0.258 -31.908  1.00  0.00     0.069 A 
HETATM   23  O   UNL     1      -5.558  -0.122 -31.258  1.00  0.00    -0.346 OA
HETATM   24  C   UNL     1      -4.373  -0.822 -31.648  1.00  0.00     0.202 C 
HETATM   25  C   UNL     1      -3.946  -0.415 -33.049  1.00  0.00     0.202 C 
ENDBRANCH  14  16
ENDBRANCH   1  14
TORSDOF 2
ENDMDL
MODEL 10
REMARK VINA RESULT:      -7.4      4.074      7.233
REMARK  2 active torsions:
REMARK  status: ('A' for Active; 'I' for Inactive)
REMARK    1  A    between atoms: C_2  and  N_3 
REMARK    2  A    between atoms: N_3  and  C_4 
ROOT
HETATM    1  C   UNL     1      -3.882   2.695 -31.403  1.00  0.00     0.143 A 
HETATM    2  N   UNL     1      -2.602   3.118 -31.541  1.00  0.00    -0.223 NA
HETATM    3  C   UNL     1      -2.351   4.391 -31.863  1.00  0.00     0.236 A 
HETATM    4  N   UNL     1      -3.238   5.354 -32.088  1.00  0.00    -0.234 NA
HETATM    5  C   UNL     1      -4.502   4.929 -31.939  1.00  0.00     0.114 A 
HETATM    6  C   UNL     1      -4.920   3.651 -31.583  1.00  0.00     0.053 A 
HETATM    7  S   UNL     1      -5.788   6.009 -32.213  1.00  0.00    -0.073 SA
HETATM    8  C   UNL     1      -6.942   4.815 -31.869  1.00  0.00    -0.008 A 
HETATM    9  C   UNL     1      -6.373   3.607 -31.500  1.00  0.00    -0.028 A 
HETATM   10  C   UNL     1      -7.238   2.434 -31.125  1.00  0.00     0.041 C 
HETATM   11  C   UNL     1      -8.706   2.827 -30.892  1.00  0.00     0.005 C 
HETATM   12  C   UNL     1      -9.213   3.801 -31.960  1.00  0.00     0.005 C 
HETATM   13  C   UNL     1      -8.409   5.107 -31.942  1.00  0.00     0.047 C 
ENDROOT
BRANCH   1  14
HETATM   14  N   UNL     1      -4.143   1.354 -31.076  1.00  0.00    -0.340 N 
HETATM   15  H   UNL     1      -4.526   1.229 -30.154  1.00  0.00     0.167 HD
BRANCH  14  16
HETATM   16  C   UNL     1      -4.220   0.189 -31.863  1.00  0.00     0.036 A 
HETATM   17  C   UNL     1      -5.056   0.205 -32.993  1.00  0.00     0.032 A 
HETATM   18  C   UNL     1      -5.187  -0.914 -33.821  1.00  0.00     0.042 A 
HETATM   19  C   UNL     1      -4.484  -2.075 -33.526  1.00  0.00     0.102 A 
HETATM   20  C   UNL     1      -3.689  -2.130 -32.379  1.00  0.00     0.104 A 
HETATM   21  O   UNL     1      -4.623  -3.123 -34.398  1.00  0.00    -0.346 OA
HETATM   22  C   UNL     1      -3.558  -1.006 -31.559  1.00  0.00     0.069 A 
HETATM   23  O   UNL     1      -2.992  -3.252 -32.004  1.00  0.00    -0.346 OA
HETATM   24  C   UNL     1      -3.445  -4.411 -32.711  1.00  0.00     0.202 C 
HETATM   25  C   UNL     1      -3.603  -4.107 -34.192  1.00  0.00     0.202 C 
ENDBRANCH  14  16
ENDBRANCH   1  14
TORSDOF 2
ENDMDL
