MODEL 1
REMARK VINA RESULT:      -8.5      0.000      0.000
REMARK  5 active torsions:
REMARK  status: ('A' for Active; 'I' for Inactive)
REMARK    1  A    between atoms: C_8  and  C_9 
REMARK    2  A    between atoms: C_9  and  C_10 
REMARK       I    between atoms: C_10  and  N_11 
REMARK    3  A    between atoms: N_11  and  C_12 
REMARK    4  A    between atoms: C_12  and  C_13 
REMARK    5  A    between atoms: C_13  and  C_14 
ROOT
HETATM    1  C   UNL     1     -10.914   2.446 -33.660  1.00  0.00     0.226 C 
HETATM    2  N   UNL     1     -10.363   1.372 -34.329  1.00  0.00    -0.360 N 
HETATM    3  O   UNL     1     -10.402   2.942 -32.658  1.00  0.00    -0.273 OA
HETATM    4  H   UNL     1     -10.983   0.847 -34.932  1.00  0.00     0.162 HD
ENDROOT
BRANCH   2   5
HETATM    5  C   UNL     1      -9.194   0.677 -33.817  1.00  0.00     0.127 C 
BRANCH   5   6
HETATM    6  C   UNL     1      -8.169   0.328 -34.902  1.00  0.00     0.060 C 
BRANCH   6   7
HETATM    7  C   UNL     1      -6.833  -0.028 -34.323  1.00  0.00    -0.029 A 
HETATM    8  C   UNL     1      -6.204  -1.313 -34.356  1.00  0.00    -0.002 A 
HETATM    9  C   UNL     1      -4.972  -1.192 -33.712  1.00  0.00     0.044 A 
HETATM   10  C   UNL     1      -6.571  -2.571 -34.879  1.00  0.00     0.016 A 
HETATM   11  C   UNL     1      -4.081  -2.264 -33.570  1.00  0.00     0.054 A 
HETATM   12  N   UNL     1      -4.863   0.112 -33.289  1.00  0.00    -0.365 N 
HETATM   13  C   UNL     1      -4.470  -3.496 -34.106  1.00  0.00     0.036 A 
HETATM   14 CL   UNL     1      -3.406  -4.845 -33.962  1.00  0.00    -0.084 Cl
HETATM   15  C   UNL     1      -5.693  -3.654 -34.750  1.00  0.00     0.025 A 
HETATM   16  H   UNL     1      -4.072   0.486 -32.781  1.00  0.00     0.165 HD
HETATM   17  C   UNL     1      -5.974   0.823 -33.655  1.00  0.00     0.096 A 
ENDBRANCH   6   7
ENDBRANCH   5   6
ENDBRANCH   2   5
BRANCH   1  18
HETATM   18  C   UNL     1     -12.220   2.989 -34.250  1.00  0.00     0.111 C 
HETATM   19  C   UNL     1     -12.327   2.689 -35.743  1.00  0.00     0.025 C 
BRANCH  18  20
HETATM   20  C   UNL     1     -13.401   2.563 -33.416  1.00  0.00     0.004 A 
HETATM   21  C   UNL     1     -13.983   1.317 -33.225  1.00  0.00     0.033 A 
HETATM   22  C   UNL     1     -13.691  -0.039 -33.749  1.00  0.00     0.070 C 
HETATM   23  N   UNL     1     -15.031   1.521 -32.368  1.00  0.00    -0.282 N 
HETATM   24  H   UNL     1     -15.690   0.838 -32.009  1.00  0.00     0.189 HD
HETATM   25  N   UNL     1     -15.172   2.789 -31.975  1.00  0.00    -0.179 NA
HETATM   26  C   UNL     1     -14.190   3.439 -32.606  1.00  0.00     0.060 A 
HETATM   27  C   UNL     1     -14.028   4.904 -32.410  1.00  0.00     0.073 C 
ENDBRANCH  18  20
ENDBRANCH   1  18
TORSDOF 5
ENDMDL
MODEL 2
REMARK VINA RESULT:      -8.4      5.376      9.031
REMARK  5 active torsions:
REMARK  status: ('A' for Active; 'I' for Inactive)
REMARK    1  A    between atoms: C_8  and  C_9 
REMARK    2  A    between atoms: C_9  and  C_10 
REMARK       I    between atoms: C_10  and  N_11 
REMARK    3  A    between atoms: N_11  and  C_12 
REMARK    4  A    between atoms: C_12  and  C_13 
REMARK    5  A    between atoms: C_13  and  C_14 
ROOT
HETATM    1  C   UNL     1      -2.687   4.017 -32.338  1.00  0.00     0.226 C 
HETATM    2  N   UNL     1      -2.831   3.131 -31.289  1.00  0.00    -0.360 N 
HETATM    3  O   UNL     1      -3.502   4.104 -33.254  1.00  0.00    -0.273 OA
HETATM    4  H   UNL     1      -1.995   2.910 -30.765  1.00  0.00     0.162 HD
ENDROOT
BRANCH   2   5
HETATM    5  C   UNL     1      -3.905   2.153 -31.264  1.00  0.00     0.127 C 
BRANCH   5   6
HETATM    6  C   UNL     1      -3.612   0.903 -32.102  1.00  0.00     0.060 C 
BRANCH   6   7
HETATM    7  C   UNL     1      -4.828   0.410 -32.825  1.00  0.00    -0.029 A 
HETATM    8  C   UNL     1      -5.000  -0.879 -33.424  1.00  0.00    -0.002 A 
HETATM    9  C   UNL     1      -6.281  -0.915 -33.977  1.00  0.00     0.044 A 
HETATM   10  C   UNL     1      -4.181  -2.022 -33.544  1.00  0.00     0.016 A 
HETATM   11  C   UNL     1      -6.790  -2.040 -34.639  1.00  0.00     0.054 A 
HETATM   12  N   UNL     1      -6.859   0.309 -33.738  1.00  0.00    -0.365 N 
HETATM   13  C   UNL     1      -5.958  -3.160 -34.734  1.00  0.00     0.036 A 
HETATM   14 CL   UNL     1      -6.540  -4.572 -35.534  1.00  0.00    -0.084 Cl
HETATM   15  C   UNL     1      -4.673  -3.158 -34.199  1.00  0.00     0.025 A 
HETATM   16  H   UNL     1      -7.789   0.572 -34.036  1.00  0.00     0.165 HD
HETATM   17  C   UNL     1      -5.997   1.112 -33.043  1.00  0.00     0.096 A 
ENDBRANCH   6   7
ENDBRANCH   5   6
ENDBRANCH   2   5
BRANCH   1  18
HETATM   18  C   UNL     1      -1.432   4.895 -32.290  1.00  0.00     0.111 C 
HETATM   19  C   UNL     1      -1.332   5.795 -33.518  1.00  0.00     0.025 C 
BRANCH  18  20
HETATM   20  C   UNL     1      -1.323   5.598 -30.960  1.00  0.00     0.004 A 
HETATM   21  C   UNL     1      -2.205   6.439 -30.296  1.00  0.00     0.033 A 
HETATM   22  C   UNL     1      -3.551   6.969 -30.619  1.00  0.00     0.070 C 
HETATM   23  N   UNL     1      -1.582   6.788 -29.128  1.00  0.00    -0.282 N 
HETATM   24  H   UNL     1      -1.924   7.398 -28.393  1.00  0.00     0.189 HD
HETATM   25  N   UNL     1      -0.378   6.233 -28.969  1.00  0.00    -0.179 NA
HETATM   26  C   UNL     1      -0.202   5.508 -30.076  1.00  0.00     0.060 A 
HETATM   27  C   UNL     1       1.054   4.732 -30.260  1.00  0.00     0.073 C 
ENDBRANCH  18  20
ENDBRANCH   1  18
TORSDOF 5
ENDMDL
MODEL 3
REMARK VINA RESULT:      -8.3      5.208      8.650
REMARK  5 active torsions:
REMARK  status: ('A' for Active; 'I' for Inactive)
REMARK    1  A    between atoms: C_8  and  C_9 
REMARK    2  A    between atoms: C_9  and  C_10 
REMARK       I    between atoms: C_10  and  N_11 
REMARK    3  A    between atoms: N_11  and  C_12 
REMARK    4  A    between atoms: C_12  and  C_13 
REMARK    5  A    between atoms: C_13  and  C_14 
ROOT
HETATM    1  C   UNL     1      -3.255   4.643 -31.053  1.00  0.00     0.226 C 
HETATM    2  N   UNL     1      -3.020   3.291 -31.194  1.00  0.00    -0.360 N 
HETATM    3  O   UNL     1      -4.382   5.112 -30.901  1.00  0.00    -0.273 OA
HETATM    4  H   UNL     1      -2.137   3.026 -31.611  1.00  0.00     0.162 HD
ENDROOT
BRANCH   2   5
HETATM    5  C   UNL     1      -4.111   2.337 -31.294  1.00  0.00     0.127 C 
BRANCH   5   6
HETATM    6  C   UNL     1      -3.798   1.146 -32.207  1.00  0.00     0.060 C 
BRANCH   6   7
HETATM    7  C   UNL     1      -5.041   0.499 -32.738  1.00  0.00    -0.029 A 
HETATM    8  C   UNL     1      -5.128  -0.768 -33.400  1.00  0.00    -0.002 A 
HETATM    9  C   UNL     1      -6.470  -0.984 -33.715  1.00  0.00     0.044 A 
HETATM   10  C   UNL     1      -4.184  -1.754 -33.757  1.00  0.00     0.016 A 
HETATM   11  C   UNL     1      -6.920  -2.141 -34.364  1.00  0.00     0.054 A 
HETATM   12  N   UNL     1      -7.170   0.116 -33.277  1.00  0.00    -0.365 N 
HETATM   13  C   UNL     1      -5.962  -3.103 -34.698  1.00  0.00     0.036 A 
HETATM   14 CL   UNL     1      -6.467  -4.547 -35.493  1.00  0.00    -0.084 Cl
HETATM   15  C   UNL     1      -4.615  -2.919 -34.403  1.00  0.00     0.025 A 
HETATM   16  H   UNL     1      -8.168   0.239 -33.381  1.00  0.00     0.165 HD
HETATM   17  C   UNL     1      -6.322   1.012 -32.684  1.00  0.00     0.096 A 
ENDBRANCH   6   7
ENDBRANCH   5   6
ENDBRANCH   2   5
BRANCH   1  18
HETATM   18  C   UNL     1      -2.010   5.536 -31.096  1.00  0.00     0.111 C 
HETATM   19  C   UNL     1      -0.745   4.749 -30.767  1.00  0.00     0.025 C 
BRANCH  18  20
HETATM   20  C   UNL     1      -1.966   6.329 -32.378  1.00  0.00     0.004 A 
HETATM   21  C   UNL     1      -1.963   5.921 -33.705  1.00  0.00     0.033 A 
HETATM   22  C   UNL     1      -1.993   4.595 -34.367  1.00  0.00     0.070 C 
HETATM   23  N   UNL     1      -1.907   7.069 -34.449  1.00  0.00    -0.282 N 
HETATM   24  H   UNL     1      -1.882   7.161 -35.459  1.00  0.00     0.189 HD
HETATM   25  N   UNL     1      -1.890   8.187 -33.720  1.00  0.00    -0.179 NA
HETATM   26  C   UNL     1      -1.921   7.757 -32.456  1.00  0.00     0.060 A 
HETATM   27  C   UNL     1      -1.912   8.739 -31.340  1.00  0.00     0.073 C 
ENDBRANCH  18  20
ENDBRANCH   1  18
TORSDOF 5
ENDMDL
MODEL 4
REMARK VINA RESULT:      -8.2      4.751      7.745
REMARK  5 active torsions:
REMARK  status: ('A' for Active; 'I' for Inactive)
REMARK    1  A    between atoms: C_8  and  C_9 
REMARK    2  A    between atoms: C_9  and  C_10 
REMARK       I    between atoms: C_10  and  N_11 
REMARK    3  A    between atoms: N_11  and  C_12 
REMARK    4  A    between atoms: C_12  and  C_13 
REMARK    5  A    between atoms: C_13  and  C_14 
ROOT
HETATM    1  C   UNL     1      -7.221   0.141 -32.671  1.00  0.00     0.226 C 
HETATM    2  N   UNL     1      -7.864   1.362 -32.712  1.00  0.00    -0.360 N 
HETATM    3  O   UNL     1      -6.872  -0.395 -31.621  1.00  0.00    -0.273 OA
HETATM    4  H   UNL     1      -7.838   1.858 -33.592  1.00  0.00     0.162 HD
ENDROOT
BRANCH   2   5
HETATM    5  C   UNL     1      -8.063   2.154 -31.511  1.00  0.00     0.127 C 
BRANCH   5   6
HETATM    6  C   UNL     1      -7.404   3.537 -31.577  1.00  0.00     0.060 C 
BRANCH   6   7
HETATM    7  C   UNL     1      -5.908   3.451 -31.558  1.00  0.00    -0.029 A 
HETATM    8  C   UNL     1      -5.009   3.989 -32.534  1.00  0.00    -0.002 A 
HETATM    9  C   UNL     1      -3.712   3.688 -32.119  1.00  0.00     0.044 A 
HETATM   10  C   UNL     1      -5.184   4.708 -33.735  1.00  0.00     0.016 A 
HETATM   11  C   UNL     1      -2.575   4.077 -32.839  1.00  0.00     0.054 A 
HETATM   12  N   UNL     1      -3.816   2.981 -30.944  1.00  0.00    -0.365 N 
HETATM   13  C   UNL     1      -2.780   4.796 -34.021  1.00  0.00     0.036 A 
HETATM   14 CL   UNL     1      -1.413   5.303 -34.942  1.00  0.00    -0.084 Cl
HETATM   15  C   UNL     1      -4.060   5.109 -34.468  1.00  0.00     0.025 A 
HETATM   16  H   UNL     1      -3.031   2.622 -30.418  1.00  0.00     0.165 HD
HETATM   17  C   UNL     1      -5.132   2.836 -30.595  1.00  0.00     0.096 A 
ENDBRANCH   6   7
ENDBRANCH   5   6
ENDBRANCH   2   5
BRANCH   1  18
HETATM   18  C   UNL     1      -6.967  -0.515 -34.033  1.00  0.00     0.111 C 
HETATM   19  C   UNL     1      -6.968   0.516 -35.159  1.00  0.00     0.025 C 
BRANCH  18  20
HETATM   20  C   UNL     1      -5.757  -1.412 -33.976  1.00  0.00     0.004 A 
HETATM   21  C   UNL     1      -4.447  -1.157 -33.593  1.00  0.00     0.033 A 
HETATM   22  C   UNL     1      -3.741   0.054 -33.110  1.00  0.00     0.070 C 
HETATM   23  N   UNL     1      -3.775  -2.340 -33.748  1.00  0.00    -0.282 N 
HETATM   24  H   UNL     1      -2.795  -2.532 -33.570  1.00  0.00     0.189 HD
HETATM   25  N   UNL     1      -4.538  -3.344 -34.184  1.00  0.00    -0.179 NA
HETATM   26  C   UNL     1      -5.748  -2.798 -34.333  1.00  0.00     0.060 A 
HETATM   27  C   UNL     1      -6.881  -3.630 -34.816  1.00  0.00     0.073 C 
ENDBRANCH  18  20
ENDBRANCH   1  18
TORSDOF 5
ENDMDL
MODEL 5
REMARK VINA RESULT:      -8.0      6.150      8.306
REMARK  5 active torsions:
REMARK  status: ('A' for Active; 'I' for Inactive)
REMARK    1  A    between atoms: C_8  and  C_9 
REMARK    2  A    between atoms: C_9  and  C_10 
REMARK       I    between atoms: C_10  and  N_11 
REMARK    3  A    between atoms: N_11  and  C_12 
REMARK    4  A    between atoms: C_12  and  C_13 
REMARK    5  A    between atoms: C_13  and  C_14 
ROOT
HETATM    1  C   UNL     1      -3.218   3.719 -32.356  1.00  0.00     0.226 C 
HETATM    2  N   UNL     1      -4.028   2.605 -32.258  1.00  0.00    -0.360 N 
HETATM    3  O   UNL     1      -2.225   3.886 -31.650  1.00  0.00    -0.273 OA
HETATM    4  H   UNL     1      -4.960   2.689 -32.640  1.00  0.00     0.162 HD
ENDROOT
BRANCH   2   5
HETATM    5  C   UNL     1      -3.824   1.608 -31.222  1.00  0.00     0.127 C 
BRANCH   5   6
HETATM    6  C   UNL     1      -4.888   0.504 -31.221  1.00  0.00     0.060 C 
BRANCH   6   7
HETATM    7  C   UNL     1      -4.407  -0.745 -31.895  1.00  0.00    -0.029 A 
HETATM    8  C   UNL     1      -5.117  -1.516 -32.870  1.00  0.00    -0.002 A 
HETATM    9  C   UNL     1      -4.298  -2.586 -33.234  1.00  0.00     0.044 A 
HETATM   10  C   UNL     1      -6.384  -1.398 -33.479  1.00  0.00     0.016 A 
HETATM   11  C   UNL     1      -4.678  -3.542 -34.185  1.00  0.00     0.054 A 
HETATM   12  N   UNL     1      -3.142  -2.479 -32.498  1.00  0.00    -0.365 N 
HETATM   13  C   UNL     1      -5.936  -3.394 -34.777  1.00  0.00     0.036 A 
HETATM   14 CL   UNL     1      -6.447  -4.543 -35.957  1.00  0.00    -0.084 Cl
HETATM   15  C   UNL     1      -6.781  -2.343 -34.434  1.00  0.00     0.025 A 
HETATM   16  H   UNL     1      -2.368  -3.128 -32.548  1.00  0.00     0.165 HD
HETATM   17  C   UNL     1      -3.195  -1.374 -31.692  1.00  0.00     0.096 A 
ENDBRANCH   6   7
ENDBRANCH   5   6
ENDBRANCH   2   5
BRANCH   1  18
HETATM   18  C   UNL     1      -3.637   4.747 -33.413  1.00  0.00     0.111 C 
HETATM   19  C   UNL     1      -5.153   4.911 -33.463  1.00  0.00     0.025 C 
BRANCH  18  20
HETATM   20  C   UNL     1      -2.850   6.024 -33.257  1.00  0.00     0.004 A 
HETATM   21  C   UNL     1      -3.047   7.123 -32.433  1.00  0.00     0.033 A 
HETATM   22  C   UNL     1      -4.073   7.471 -31.421  1.00  0.00     0.070 C 
HETATM   23  N   UNL     1      -2.028   7.992 -32.719  1.00  0.00    -0.282 N 
HETATM   24  H   UNL     1      -1.851   8.906 -32.315  1.00  0.00     0.189 HD
HETATM   25  N   UNL     1      -1.178   7.545 -33.646  1.00  0.00    -0.179 NA
HETATM   26  C   UNL     1      -1.665   6.349 -33.989  1.00  0.00     0.060 A 
HETATM   27  C   UNL     1      -0.968   5.535 -35.020  1.00  0.00     0.073 C 
ENDBRANCH  18  20
ENDBRANCH   1  18
TORSDOF 5
ENDMDL
MODEL 6
REMARK VINA RESULT:      -7.8      4.938      8.481
REMARK  5 active torsions:
REMARK  status: ('A' for Active; 'I' for Inactive)
REMARK    1  A    between atoms: C_8  and  C_9 
REMARK    2  A    between atoms: C_9  and  C_10 
REMARK       I    between atoms: C_10  and  N_11 
REMARK    3  A    between atoms: N_11  and  C_12 
REMARK    4  A    between atoms: C_12  and  C_13 
REMARK    5  A    between atoms: C_13  and  C_14 
ROOT
HETATM    1  C   UNL     1      -4.074   4.881 -30.962  1.00  0.00     0.226 C 
HETATM    2  N   UNL     1      -4.768   3.910 -30.268  1.00  0.00    -0.360 N 
HETATM    3  O   UNL     1      -4.397   6.067 -30.953  1.00  0.00    -0.273 OA
HETATM    4  H   UNL     1      -4.631   2.954 -30.567  1.00  0.00     0.162 HD
ENDROOT
BRANCH   2   5
HETATM    5  C   UNL     1      -6.005   4.214 -29.571  1.00  0.00     0.127 C 
BRANCH   5   6
HETATM    6  C   UNL     1      -7.182   3.333 -30.006  1.00  0.00     0.060 C 
BRANCH   6   7
HETATM    7  C   UNL     1      -7.090   2.940 -31.449  1.00  0.00    -0.029 A 
HETATM    8  C   UNL     1      -6.704   1.660 -31.962  1.00  0.00    -0.002 A 
HETATM    9  C   UNL     1      -6.766   1.731 -33.354  1.00  0.00     0.044 A 
HETATM   10  C   UNL     1      -6.310   0.444 -31.366  1.00  0.00     0.016 A 
HETATM   11  C   UNL     1      -6.461   0.645 -34.184  1.00  0.00     0.054 A 
HETATM   12  N   UNL     1      -7.158   3.009 -33.677  1.00  0.00    -0.365 N 
HETATM   13  C   UNL     1      -6.081  -0.549 -33.563  1.00  0.00     0.036 A 
HETATM   14 CL   UNL     1      -5.700  -1.918 -34.541  1.00  0.00    -0.084 Cl
HETATM   15  C   UNL     1      -6.004  -0.655 -32.178  1.00  0.00     0.025 A 
HETATM   16  H   UNL     1      -7.278   3.352 -34.621  1.00  0.00     0.165 HD
HETATM   17  C   UNL     1      -7.360   3.744 -32.539  1.00  0.00     0.096 A 
ENDBRANCH   6   7
ENDBRANCH   5   6
ENDBRANCH   2   5
BRANCH   1  18
HETATM   18  C   UNL     1      -2.861   4.382 -31.756  1.00  0.00     0.111 C 
HETATM   19  C   UNL     1      -3.041   2.934 -32.202  1.00  0.00     0.025 C 
BRANCH  18  20
HETATM   20  C   UNL     1      -2.500   5.358 -32.848  1.00  0.00     0.004 A 
HETATM   21  C   UNL     1      -3.104   5.627 -34.068  1.00  0.00     0.033 A 
HETATM   22  C   UNL     1      -4.294   5.080 -34.763  1.00  0.00     0.070 C 
HETATM   23  N   UNL     1      -2.343   6.603 -34.654  1.00  0.00    -0.282 N 
HETATM   24  H   UNL     1      -2.477   7.044 -35.558  1.00  0.00     0.189 HD
HETATM   25  N   UNL     1      -1.307   7.001 -33.913  1.00  0.00    -0.179 NA
HETATM   26  C   UNL     1      -1.384   6.251 -32.811  1.00  0.00     0.060 A 
HETATM   27  C   UNL     1      -0.373   6.416 -31.732  1.00  0.00     0.073 C 
ENDBRANCH  18  20
ENDBRANCH   1  18
TORSDOF 5
ENDMDL
MODEL 7
REMARK VINA RESULT:      -7.8      6.602      9.489
REMARK  5 active torsions:
REMARK  status: ('A' for Active; 'I' for Inactive)
REMARK    1  A    between atoms: C_8  and  C_9 
REMARK    2  A    between atoms: C_9  and  C_10 
REMARK       I    between atoms: C_10  and  N_11 
REMARK    3  A    between atoms: N_11  and  C_12 
REMARK    4  A    between atoms: C_12  and  C_13 
REMARK    5  A    between atoms: C_13  and  C_14 
ROOT
HETATM    1  C   UNL     1      -1.889   5.033 -33.186  1.00  0.00     0.226 C 
HETATM    2  N   UNL     1      -2.474   4.221 -32.236  1.00  0.00    -0.360 N 
HETATM    3  O   UNL     1      -2.070   4.886 -34.394  1.00  0.00    -0.273 OA
HETATM    4  H   UNL     1      -2.045   4.212 -31.321  1.00  0.00     0.162 HD
ENDROOT
BRANCH   2   5
HETATM    5  C   UNL     1      -3.255   3.055 -32.612  1.00  0.00     0.127 C 
BRANCH   5   6
HETATM    6  C   UNL     1      -3.695   2.204 -31.415  1.00  0.00     0.060 C 
BRANCH   6   7
HETATM    7  C   UNL     1      -3.539   0.737 -31.676  1.00  0.00    -0.029 A 
HETATM    8  C   UNL     1      -4.333  -0.062 -32.561  1.00  0.00    -0.002 A 
HETATM    9  C   UNL     1      -3.838  -1.365 -32.506  1.00  0.00     0.044 A 
HETATM   10  C   UNL     1      -5.428   0.209 -33.408  1.00  0.00     0.016 A 
HETATM   11  C   UNL     1      -4.378  -2.414 -33.261  1.00  0.00     0.054 A 
HETATM   12  N   UNL     1      -2.795  -1.364 -31.610  1.00  0.00    -0.365 N 
HETATM   13  C   UNL     1      -5.458  -2.113 -34.096  1.00  0.00     0.036 A 
HETATM   14 CL   UNL     1      -6.154  -3.369 -35.051  1.00  0.00    -0.084 Cl
HETATM   15  C   UNL     1      -5.980  -0.826 -34.174  1.00  0.00     0.025 A 
HETATM   16  H   UNL     1      -2.251  -2.179 -31.362  1.00  0.00     0.165 HD
HETATM   17  C   UNL     1      -2.603  -0.105 -31.108  1.00  0.00     0.096 A 
ENDBRANCH   6   7
ENDBRANCH   5   6
ENDBRANCH   2   5
BRANCH   1  18
HETATM   18  C   UNL     1      -0.987   6.144 -32.637  1.00  0.00     0.111 C 
HETATM   19  C   UNL     1      -1.371   7.508 -33.204  1.00  0.00     0.025 C 
BRANCH  18  20
HETATM   20  C   UNL     1      -0.901   6.067 -31.133  1.00  0.00     0.004 A 
HETATM   21  C   UNL     1      -1.766   6.516 -30.145  1.00  0.00     0.033 A 
HETATM   22  C   UNL     1      -3.066   7.227 -30.170  1.00  0.00     0.070 C 
HETATM   23  N   UNL     1      -1.179   6.181 -28.954  1.00  0.00    -0.282 N 
HETATM   24  H   UNL     1      -1.520   6.357 -28.015  1.00  0.00     0.189 HD
HETATM   25  N   UNL     1      -0.015   5.541 -29.085  1.00  0.00    -0.179 NA
HETATM   26  C   UNL     1       0.173   5.465 -30.405  1.00  0.00     0.060 A 
HETATM   27  C   UNL     1       1.392   4.805 -30.942  1.00  0.00     0.073 C 
ENDBRANCH  18  20
ENDBRANCH   1  18
TORSDOF 5
ENDMDL
MODEL 8
REMARK VINA RESULT:      -7.6      6.119      9.359
REMARK  5 active torsions:
REMARK  status: ('A' for Active; 'I' for Inactive)
REMARK    1  A    between atoms: C_8  and  C_9 
REMARK    2  A    between atoms: C_9  and  C_10 
REMARK       I    between atoms: C_10  and  N_11 
REMARK    3  A    between atoms: N_11  and  C_12 
REMARK    4  A    between atoms: C_12  and  C_13 
REMARK    5  A    between atoms: C_13  and  C_14 
ROOT
HETATM    1  C   UNL     1      -5.472   1.675 -31.984  1.00  0.00     0.226 C 
HETATM    2  N   UNL     1      -4.311   2.096 -32.601  1.00  0.00    -0.360 N 
HETATM    3  O   UNL     1      -6.459   2.397 -31.858  1.00  0.00    -0.273 OA
HETATM    4  H   UNL     1      -3.472   1.571 -32.395  1.00  0.00     0.162 HD
ENDROOT
BRANCH   2   5
HETATM    5  C   UNL     1      -4.140   3.471 -33.039  1.00  0.00     0.127 C 
BRANCH   5   6
HETATM    6  C   UNL     1      -2.746   4.036 -32.743  1.00  0.00     0.060 C 
BRANCH   6   7
HETATM    7  C   UNL     1      -2.757   4.989 -31.586  1.00  0.00    -0.029 A 
HETATM    8  C   UNL     1      -1.621   5.639 -31.004  1.00  0.00    -0.002 A 
HETATM    9  C   UNL     1      -2.087   6.442 -29.963  1.00  0.00     0.044 A 
HETATM   10  C   UNL     1      -0.236   5.617 -31.272  1.00  0.00     0.016 A 
HETATM   11  C   UNL     1      -1.239   7.235 -29.179  1.00  0.00     0.054 A 
HETATM   12  N   UNL     1      -3.451   6.276 -29.903  1.00  0.00    -0.365 N 
HETATM   13  C   UNL     1       0.127   7.198 -29.473  1.00  0.00     0.036 A 
HETATM   14 CL   UNL     1       1.212   8.160 -28.540  1.00  0.00    -0.084 Cl
HETATM   15  C   UNL     1       0.628   6.405 -30.501  1.00  0.00     0.025 A 
HETATM   16  H   UNL     1      -4.055   6.732 -29.233  1.00  0.00     0.165 HD
HETATM   17  C   UNL     1      -3.865   5.408 -30.877  1.00  0.00     0.096 A 
ENDBRANCH   6   7
ENDBRANCH   5   6
ENDBRANCH   2   5
BRANCH   1  18
HETATM   18  C   UNL     1      -5.453   0.236 -31.459  1.00  0.00     0.111 C 
HETATM   19  C   UNL     1      -6.624  -0.032 -30.518  1.00  0.00     0.025 C 
BRANCH  18  20
HETATM   20  C   UNL     1      -5.296  -0.744 -32.594  1.00  0.00     0.004 A 
HETATM   21  C   UNL     1      -6.120  -1.033 -33.674  1.00  0.00     0.033 A 
HETATM   22  C   UNL     1      -7.436  -0.517 -34.121  1.00  0.00     0.070 C 
HETATM   23  N   UNL     1      -5.479  -2.013 -34.383  1.00  0.00    -0.282 N 
HETATM   24  H   UNL     1      -5.787  -2.477 -35.231  1.00  0.00     0.189 HD
HETATM   25  N   UNL     1      -4.303  -2.375 -33.866  1.00  0.00    -0.179 NA
HETATM   26  C   UNL     1      -4.176  -1.616 -32.774  1.00  0.00     0.060 A 
HETATM   27  C   UNL     1      -2.965  -1.744 -31.920  1.00  0.00     0.073 C 
ENDBRANCH  18  20
ENDBRANCH   1  18
TORSDOF 5
ENDMDL
MODEL 9
REMARK VINA RESULT:      -7.5      2.109      3.216
REMARK  5 active torsions:
REMARK  status: ('A' for Active; 'I' for Inactive)
REMARK    1  A    between atoms: C_8  and  C_9 
REMARK    2  A    between atoms: C_9  and  C_10 
REMARK       I    between atoms: C_10  and  N_11 
REMARK    3  A    between atoms: N_11  and  C_12 
REMARK    4  A    between atoms: C_12  and  C_13 
REMARK    5  A    between atoms: C_13  and  C_14 
ROOT
HETATM    1  C   UNL     1      -9.641   3.219 -32.465  1.00  0.00     0.226 C 
HETATM    2  N   UNL     1      -8.874   2.188 -32.970  1.00  0.00    -0.360 N 
HETATM    3  O   UNL     1      -9.153   4.225 -31.953  1.00  0.00    -0.273 OA
HETATM    4  H   UNL     1      -9.335   1.295 -33.084  1.00  0.00     0.162 HD
ENDROOT
BRANCH   2   5
HETATM    5  C   UNL     1      -7.430   2.173 -32.820  1.00  0.00     0.127 C 
BRANCH   5   6
HETATM    6  C   UNL     1      -6.684   1.879 -34.127  1.00  0.00     0.060 C 
BRANCH   6   7
HETATM    7  C   UNL     1      -6.340   0.428 -34.267  1.00  0.00    -0.029 A 
HETATM    8  C   UNL     1      -5.363  -0.295 -33.510  1.00  0.00    -0.002 A 
HETATM    9  C   UNL     1      -5.378  -1.616 -33.960  1.00  0.00     0.044 A 
HETATM   10  C   UNL     1      -4.467   0.056 -32.478  1.00  0.00     0.016 A 
HETATM   11  C   UNL     1      -4.547  -2.609 -33.425  1.00  0.00     0.054 A 
HETATM   12  N   UNL     1      -6.316  -1.691 -34.963  1.00  0.00    -0.365 N 
HETATM   13  C   UNL     1      -3.676  -2.232 -32.399  1.00  0.00     0.036 A 
HETATM   14 CL   UNL     1      -2.637  -3.419 -31.703  1.00  0.00    -0.084 Cl
HETATM   15  C   UNL     1      -3.630  -0.924 -31.928  1.00  0.00     0.025 A 
HETATM   16  H   UNL     1      -6.535  -2.531 -35.482  1.00  0.00     0.165 HD
HETATM   17  C   UNL     1      -6.904  -0.469 -35.153  1.00  0.00     0.096 A 
ENDBRANCH   6   7
ENDBRANCH   5   6
ENDBRANCH   2   5
BRANCH   1  18
HETATM   18  C   UNL     1     -11.158   3.030 -32.582  1.00  0.00     0.111 C 
HETATM   19  C   UNL     1     -11.917   4.137 -31.858  1.00  0.00     0.025 C 
BRANCH  18  20
HETATM   20  C   UNL     1     -11.557   2.800 -34.018  1.00  0.00     0.004 A 
HETATM   21  C   UNL     1     -11.328   3.553 -35.162  1.00  0.00     0.033 A 
HETATM   22  C   UNL     1     -10.630   4.835 -35.418  1.00  0.00     0.070 C 
HETATM   23  N   UNL     1     -11.926   2.868 -36.186  1.00  0.00    -0.282 N 
HETATM   24  H   UNL     1     -11.969   3.121 -37.167  1.00  0.00     0.189 HD
HETATM   25  N   UNL     1     -12.511   1.730 -35.808  1.00  0.00    -0.179 NA
HETATM   26  C   UNL     1     -12.300   1.673 -34.491  1.00  0.00     0.060 A 
HETATM   27  C   UNL     1     -12.820   0.521 -33.707  1.00  0.00     0.073 C 
ENDBRANCH  18  20
ENDBRANCH   1  18
TORSDOF 5
ENDMDL
MODEL 10
REMARK VINA RESULT:      -7.4      3.435      8.166
REMARK  5 active torsions:
REMARK  status: ('A' for Active; 'I' for Inactive)
REMARK    1  A    between atoms: C_8  and  C_9 
REMARK    2  A    between atoms: C_9  and  C_10 
REMARK       I    between atoms: C_10  and  N_11 
REMARK    3  A    between atoms: N_11  and  C_12 
REMARK    4  A    between atoms: C_12  and  C_13 
REMARK    5  A    between atoms: C_13  and  C_14 
ROOT
HETATM    1  C   UNL     1      -6.657  -0.066 -32.747  1.00  0.00     0.226 C 
HETATM    2  N   UNL     1      -6.592   1.291 -32.991  1.00  0.00    -0.360 N 
HETATM    3  O   UNL     1      -6.636  -0.542 -31.613  1.00  0.00    -0.273 OA
HETATM    4  H   UNL     1      -6.311   1.571 -33.921  1.00  0.00     0.162 HD
ENDROOT
BRANCH   2   5
HETATM    5  C   UNL     1      -6.372   2.245 -31.918  1.00  0.00     0.127 C 
BRANCH   5   6
HETATM    6  C   UNL     1      -7.579   2.404 -30.986  1.00  0.00     0.060 C 
BRANCH   6   7
HETATM    7  C   UNL     1      -8.772   2.966 -31.698  1.00  0.00    -0.029 A 
HETATM    8  C   UNL     1      -9.788   2.222 -32.381  1.00  0.00    -0.002 A 
HETATM    9  C   UNL     1     -10.709   3.140 -32.887  1.00  0.00     0.044 A 
HETATM   10  C   UNL     1     -10.008   0.848 -32.611  1.00  0.00     0.016 A 
HETATM   11  C   UNL     1     -11.847   2.754 -33.608  1.00  0.00     0.054 A 
HETATM   12  N   UNL     1     -10.263   4.394 -32.540  1.00  0.00    -0.365 N 
HETATM   13  C   UNL     1     -12.041   1.385 -33.813  1.00  0.00     0.036 A 
HETATM   14 CL   UNL     1     -13.430   0.858 -34.689  1.00  0.00    -0.084 Cl
HETATM   15  C   UNL     1     -11.141   0.441 -33.327  1.00  0.00     0.025 A 
HETATM   16  H   UNL     1     -10.731   5.257 -32.784  1.00  0.00     0.165 HD
HETATM   17  C   UNL     1      -9.102   4.301 -31.821  1.00  0.00     0.096 A 
ENDBRANCH   6   7
ENDBRANCH   5   6
ENDBRANCH   2   5
BRANCH   1  18
HETATM   18  C   UNL     1      -6.760  -0.954 -33.992  1.00  0.00     0.111 C 
HETATM   19  C   UNL     1      -6.977  -0.125 -35.255  1.00  0.00     0.025 C 
BRANCH  18  20
HETATM   20  C   UNL     1      -5.612  -1.931 -34.046  1.00  0.00     0.004 A 
HETATM   21  C   UNL     1      -4.272  -1.786 -33.712  1.00  0.00     0.033 A 
HETATM   22  C   UNL     1      -3.464  -0.656 -33.195  1.00  0.00     0.070 C 
HETATM   23  N   UNL     1      -3.690  -2.999 -33.969  1.00  0.00    -0.282 N 
HETATM   24  H   UNL     1      -2.718  -3.265 -33.851  1.00  0.00     0.189 HD
HETATM   25  N   UNL     1      -4.538  -3.922 -34.426  1.00  0.00    -0.179 NA
HETATM   26  C   UNL     1      -5.713  -3.289 -34.484  1.00  0.00     0.060 A 
HETATM   27  C   UNL     1      -6.922  -4.014 -34.959  1.00  0.00     0.073 C 
ENDBRANCH  18  20
ENDBRANCH   1  18
TORSDOF 5
ENDMDL
