MODEL 1
REMARK VINA RESULT:      -8.3      0.000      0.000
REMARK  10 active torsions:
REMARK  status: ('A' for Active; 'I' for Inactive)
REMARK    1  A    between atoms: C_3  and  C_4 
REMARK    2  A    between atoms: C_4  and  C_5 
REMARK       I    between atoms: C_5  and  N_6 
REMARK    3  A    between atoms: N_6  and  C_7 
REMARK    4  A    between atoms: C_7  and  C_8 
REMARK    5  A    between atoms: C_8  and  O_9 
REMARK    6  A    between atoms: C_15  and  N_16 
REMARK    7  A    between atoms: N_16  and  C_17 
REMARK    8  A    between atoms: C_26  and  C_27 
REMARK    9  A    between atoms: C_27  and  O_28 
REMARK   10  A    between atoms: C_30  and  O_31 
ROOT
HETATM    1  C   UNL     1      -5.544   3.361 -29.603  1.00  0.00     0.016 C 
HETATM    2  C   UNL     1      -5.796   4.063 -30.977  1.00  0.00    -0.030 C 
HETATM    3  C   UNL     1      -5.099   3.233 -32.145  1.00  0.00     0.056 C 
HETATM    4  C   UNL     1      -5.956   2.056 -32.552  1.00  0.00     0.056 C 
HETATM    5  C   UNL     1      -7.243   1.848 -32.106  1.00  0.00     0.012 C 
HETATM    6  S   UNL     1      -7.868   0.407 -32.751  1.00  0.00    -0.055 SA
HETATM    7  C   UNL     1      -6.497   0.308 -33.799  1.00  0.00     0.172 C 
HETATM    8  N   UNL     1      -5.540   1.176 -33.535  1.00  0.00    -0.227 NA
HETATM    9  C   UNL     1      -8.016   2.752 -31.214  1.00  0.00     0.055 C 
HETATM   10  C   UNL     1      -7.367   4.165 -31.192  1.00  0.00     0.012 C 
HETATM   11  C   UNL     1      -7.846   5.155 -32.349  1.00  0.00     0.008 C 
HETATM   12  C   UNL     1      -9.222   5.729 -31.896  1.00  0.00     0.020 C 
HETATM   13  C   UNL     1      -6.868   6.365 -32.491  1.00  0.00     0.128 C 
HETATM   14  C   UNL     1      -6.098   6.637 -31.207  1.00  0.00     0.033 C 
HETATM   15  C   UNL     1      -5.155   5.483 -30.869  1.00  0.00     0.013 C 
ENDROOT
BRANCH   3  16
HETATM   16  C   UNL     1      -3.670   2.787 -31.784  1.00  0.00     0.114 C 
BRANCH  16  17
HETATM   17  C   UNL     1      -2.617   3.797 -32.185  1.00  0.00     0.218 C 
HETATM   18  N   UNL     1      -2.712   4.251 -33.478  1.00  0.00    -0.359 N 
HETATM   19  H   UNL     1      -3.647   4.260 -33.892  1.00  0.00     0.162 HD
HETATM   20  O   UNL     1      -1.721   4.127 -31.411  1.00  0.00    -0.274 OA
BRANCH  18  21
HETATM   21  C   UNL     1      -1.737   5.188 -34.007  1.00  0.00     0.148 C 
BRANCH  21  22
HETATM   22  C   UNL     1      -2.346   6.568 -34.266  1.00  0.00     0.186 C 
BRANCH  22  23
HETATM   23  O   UNL     1      -1.489   7.634 -33.848  1.00  0.00    -0.394 OA
HETATM   24  C   UNL     1      -1.262   7.634 -32.443  1.00  0.00     0.201 C 
ENDBRANCH  22  23
ENDBRANCH  21  22
ENDBRANCH  18  21
ENDBRANCH  16  17
ENDBRANCH   3  16
BRANCH  11  25
HETATM   25  C   UNL     1      -8.052   4.525 -33.754  1.00  0.00     0.176 C 
BRANCH  25  26
HETATM   26  O   UNL     1      -8.519   5.467 -34.713  1.00  0.00    -0.400 OA
HETATM   27  H   UNL     1      -9.413   5.176 -34.967  1.00  0.00     0.209 HD
ENDBRANCH  25  26
ENDBRANCH  11  25
BRANCH   7  28
HETATM   28  N   UNL     1      -6.509  -0.600 -34.808  1.00  0.00    -0.334 N 
HETATM   29  H   UNL     1      -6.222  -0.215 -35.701  1.00  0.00     0.168 HD
BRANCH  28  30
HETATM   30  C   UNL     1      -5.985  -1.908 -34.656  1.00  0.00     0.051 A 
HETATM   31  C   UNL     1      -4.695  -2.208 -34.215  1.00  0.00     0.145 A 
HETATM   32  N   UNL     1      -4.195  -3.466 -34.076  1.00  0.00    -0.271 NA
HETATM   33  C   UNL     1      -5.028  -4.484 -34.363  1.00  0.00     0.116 A 
HETATM   34  C   UNL     1      -6.341  -4.307 -34.761  1.00  0.00     0.021 A 
HETATM   35  C   UNL     1      -6.824  -3.005 -34.893  1.00  0.00     0.032 A 
ENDBRANCH  28  30
ENDBRANCH   7  28
BRANCH  13  36
HETATM   36  O   UNL     1      -5.931   6.142 -33.545  1.00  0.00    -0.395 OA
HETATM   37  H   UNL     1      -5.531   5.263 -33.415  1.00  0.00     0.210 HD
ENDBRANCH  13  36
TORSDOF 10
ENDMDL
MODEL 2
REMARK VINA RESULT:      -8.0      1.414      2.012
REMARK  10 active torsions:
REMARK  status: ('A' for Active; 'I' for Inactive)
REMARK    1  A    between atoms: C_3  and  C_4 
REMARK    2  A    between atoms: C_4  and  C_5 
REMARK       I    between atoms: C_5  and  N_6 
REMARK    3  A    between atoms: N_6  and  C_7 
REMARK    4  A    between atoms: C_7  and  C_8 
REMARK    5  A    between atoms: C_8  and  O_9 
REMARK    6  A    between atoms: C_15  and  N_16 
REMARK    7  A    between atoms: N_16  and  C_17 
REMARK    8  A    between atoms: C_26  and  C_27 
REMARK    9  A    between atoms: C_27  and  O_28 
REMARK   10  A    between atoms: C_30  and  O_31 
ROOT
HETATM    1  C   UNL     1      -6.578   3.488 -30.536  1.00  0.00     0.016 C 
HETATM    2  C   UNL     1      -7.235   3.841 -31.909  1.00  0.00    -0.030 C 
HETATM    3  C   UNL     1      -6.377   3.215 -33.097  1.00  0.00     0.056 C 
HETATM    4  C   UNL     1      -6.703   1.749 -33.280  1.00  0.00     0.056 C 
HETATM    5  C   UNL     1      -7.736   1.103 -32.636  1.00  0.00     0.012 C 
HETATM    6  S   UNL     1      -7.766  -0.539 -33.066  1.00  0.00    -0.055 SA
HETATM    7  C   UNL     1      -6.591  -0.217 -34.292  1.00  0.00     0.172 C 
HETATM    8  N   UNL     1      -6.060   0.988 -34.240  1.00  0.00    -0.227 NA
HETATM    9  C   UNL     1      -8.721   1.729 -31.716  1.00  0.00     0.055 C 
HETATM   10  C   UNL     1      -8.719   3.273 -31.901  1.00  0.00     0.012 C 
HETATM   11  C   UNL     1      -9.680   3.825 -33.051  1.00  0.00     0.008 C 
HETATM   12  C   UNL     1     -11.116   3.851 -32.449  1.00  0.00     0.020 C 
HETATM   13  C   UNL     1      -9.312   5.295 -33.429  1.00  0.00     0.128 C 
HETATM   14  C   UNL     1      -8.601   6.021 -32.297  1.00  0.00     0.033 C 
HETATM   15  C   UNL     1      -7.235   5.399 -32.009  1.00  0.00     0.013 C 
ENDROOT
BRANCH   3  16
HETATM   16  C   UNL     1      -4.864   3.432 -32.914  1.00  0.00     0.114 C 
BRANCH  16  17
HETATM   17  C   UNL     1      -4.273   4.371 -33.943  1.00  0.00     0.218 C 
HETATM   18  N   UNL     1      -2.904   4.475 -33.915  1.00  0.00    -0.359 N 
HETATM   19  H   UNL     1      -2.390   3.657 -33.579  1.00  0.00     0.162 HD
HETATM   20  O   UNL     1      -4.990   5.022 -34.700  1.00  0.00    -0.274 OA
BRANCH  18  21
HETATM   21  C   UNL     1      -2.211   5.376 -34.818  1.00  0.00     0.148 C 
BRANCH  21  22
HETATM   22  C   UNL     1      -1.181   6.242 -34.089  1.00  0.00     0.186 C 
BRANCH  22  23
HETATM   23  O   UNL     1      -1.621   7.592 -33.919  1.00  0.00    -0.394 OA
HETATM   24  C   UNL     1      -1.720   7.967 -32.550  1.00  0.00     0.201 C 
ENDBRANCH  22  23
ENDBRANCH  21  22
ENDBRANCH  18  21
ENDBRANCH  16  17
ENDBRANCH   3  16
BRANCH  11  25
HETATM   25  C   UNL     1      -9.744   2.984 -34.356  1.00  0.00     0.176 C 
BRANCH  25  26
HETATM   26  O   UNL     1     -10.636   3.536 -35.318  1.00  0.00    -0.400 OA
HETATM   27  H   UNL     1     -11.118   4.250 -34.865  1.00  0.00     0.209 HD
ENDBRANCH  25  26
ENDBRANCH  11  25
BRANCH   7  28
HETATM   28  N   UNL     1      -6.325  -1.178 -35.213  1.00  0.00    -0.334 N 
HETATM   29  H   UNL     1      -5.830  -0.832 -36.027  1.00  0.00     0.168 HD
BRANCH  28  30
HETATM   30  C   UNL     1      -5.826  -2.456 -34.853  1.00  0.00     0.051 A 
HETATM   31  C   UNL     1      -6.482  -3.666 -35.084  1.00  0.00     0.145 A 
HETATM   32  N   UNL     1      -6.001  -4.889 -34.733  1.00  0.00    -0.271 NA
HETATM   33  C   UNL     1      -4.790  -4.917 -34.144  1.00  0.00     0.116 A 
HETATM   34  C   UNL     1      -4.029  -3.786 -33.910  1.00  0.00     0.021 A 
HETATM   35  C   UNL     1      -4.550  -2.548 -34.284  1.00  0.00     0.032 A 
ENDBRANCH  28  30
ENDBRANCH   7  28
BRANCH  13  36
HETATM   36  O   UNL     1      -8.479   5.330 -34.587  1.00  0.00    -0.395 OA
HETATM   37  H   UNL     1      -7.566   5.128 -34.311  1.00  0.00     0.210 HD
ENDBRANCH  13  36
TORSDOF 10
ENDMDL
MODEL 3
REMARK VINA RESULT:      -7.8      3.771      6.377
REMARK  10 active torsions:
REMARK  status: ('A' for Active; 'I' for Inactive)
REMARK    1  A    between atoms: C_3  and  C_4 
REMARK    2  A    between atoms: C_4  and  C_5 
REMARK       I    between atoms: C_5  and  N_6 
REMARK    3  A    between atoms: N_6  and  C_7 
REMARK    4  A    between atoms: C_7  and  C_8 
REMARK    5  A    between atoms: C_8  and  O_9 
REMARK    6  A    between atoms: C_15  and  N_16 
REMARK    7  A    between atoms: N_16  and  C_17 
REMARK    8  A    between atoms: C_26  and  C_27 
REMARK    9  A    between atoms: C_27  and  O_28 
REMARK   10  A    between atoms: C_30  and  O_31 
ROOT
HETATM    1  C   UNL     1      -6.005   1.545 -29.740  1.00  0.00     0.016 C 
HETATM    2  C   UNL     1      -5.456   2.110 -31.090  1.00  0.00    -0.030 C 
HETATM    3  C   UNL     1      -6.060   1.281 -32.310  1.00  0.00     0.056 C 
HETATM    4  C   UNL     1      -7.457   1.754 -32.641  1.00  0.00     0.056 C 
HETATM    5  C   UNL     1      -8.044   2.873 -32.089  1.00  0.00     0.012 C 
HETATM    6  S   UNL     1      -9.626   3.062 -32.676  1.00  0.00    -0.055 SA
HETATM    7  C   UNL     1      -9.322   1.815 -33.834  1.00  0.00     0.172 C 
HETATM    8  N   UNL     1      -8.192   1.161 -33.653  1.00  0.00    -0.227 NA
HETATM    9  C   UNL     1      -7.401   3.819 -31.139  1.00  0.00     0.055 C 
HETATM   10  C   UNL     1      -5.856   3.645 -31.175  1.00  0.00     0.012 C 
HETATM   11  C   UNL     1      -5.099   4.499 -32.291  1.00  0.00     0.008 C 
HETATM   12  C   UNL     1      -4.971   5.946 -31.728  1.00  0.00     0.020 C 
HETATM   13  C   UNL     1      -3.649   3.964 -32.517  1.00  0.00     0.128 C 
HETATM   14  C   UNL     1      -3.113   3.221 -31.303  1.00  0.00     0.033 C 
HETATM   15  C   UNL     1      -3.905   1.941 -31.040  1.00  0.00     0.013 C 
ENDROOT
BRANCH   3  16
HETATM   16  C   UNL     1      -6.027  -0.239 -32.067  1.00  0.00     0.114 C 
BRANCH  16  17
HETATM   17  C   UNL     1      -5.524  -1.017 -33.263  1.00  0.00     0.218 C 
HETATM   18  N   UNL     1      -6.449  -1.850 -33.843  1.00  0.00    -0.359 N 
HETATM   19  H   UNL     1      -7.430  -1.574 -33.759  1.00  0.00     0.162 HD
HETATM   20  O   UNL     1      -4.355  -0.935 -33.633  1.00  0.00    -0.274 OA
BRANCH  18  21
HETATM   21  C   UNL     1      -6.086  -2.690 -34.970  1.00  0.00     0.148 C 
BRANCH  21  22
HETATM   22  C   UNL     1      -6.756  -4.064 -34.904  1.00  0.00     0.186 C 
BRANCH  22  23
HETATM   23  O   UNL     1      -5.821  -5.138 -35.033  1.00  0.00    -0.394 OA
HETATM   24  C   UNL     1      -4.641  -4.930 -34.267  1.00  0.00     0.201 C 
ENDBRANCH  22  23
ENDBRANCH  21  22
ENDBRANCH  18  21
ENDBRANCH  16  17
ENDBRANCH   3  16
BRANCH  11  25
HETATM   25  C   UNL     1      -5.803   4.606 -33.672  1.00  0.00     0.176 C 
BRANCH  25  26
HETATM   26  O   UNL     1      -5.062   5.384 -34.606  1.00  0.00    -0.400 OA
HETATM   27  H   UNL     1      -4.227   5.618 -34.163  1.00  0.00     0.209 HD
ENDBRANCH  25  26
ENDBRANCH  11  25
BRANCH   7  28
HETATM   28  N   UNL     1     -10.217   1.620 -34.835  1.00  0.00    -0.334 N 
HETATM   29  H   UNL     1      -9.860   1.042 -35.589  1.00  0.00     0.168 HD
BRANCH  28  30
HETATM   30  C   UNL     1     -11.576   1.302 -34.587  1.00  0.00     0.051 A 
HETATM   31  C   UNL     1     -12.668   1.930 -35.188  1.00  0.00     0.145 A 
HETATM   32  N   UNL     1     -13.971   1.624 -34.942  1.00  0.00    -0.271 NA
HETATM   33  C   UNL     1     -14.204   0.622 -34.073  1.00  0.00     0.116 A 
HETATM   34  C   UNL     1     -13.200  -0.102 -33.456  1.00  0.00     0.021 A 
HETATM   35  C   UNL     1     -11.875   0.235 -33.731  1.00  0.00     0.032 A 
ENDBRANCH  28  30
ENDBRANCH   7  28
BRANCH  13  36
HETATM   36  O   UNL     1      -3.598   3.090 -33.644  1.00  0.00    -0.395 OA
HETATM   37  H   UNL     1      -3.226   3.585 -34.397  1.00  0.00     0.210 HD
ENDBRANCH  13  36
TORSDOF 10
ENDMDL
MODEL 4
REMARK VINA RESULT:      -7.7      3.277      7.526
REMARK  10 active torsions:
REMARK  status: ('A' for Active; 'I' for Inactive)
REMARK    1  A    between atoms: C_3  and  C_4 
REMARK    2  A    between atoms: C_4  and  C_5 
REMARK       I    between atoms: C_5  and  N_6 
REMARK    3  A    between atoms: N_6  and  C_7 
REMARK    4  A    between atoms: C_7  and  C_8 
REMARK    5  A    between atoms: C_8  and  O_9 
REMARK    6  A    between atoms: C_15  and  N_16 
REMARK    7  A    between atoms: N_16  and  C_17 
REMARK    8  A    between atoms: C_26  and  C_27 
REMARK    9  A    between atoms: C_27  and  O_28 
REMARK   10  A    between atoms: C_30  and  O_31 
ROOT
HETATM    1  C   UNL     1      -6.319   2.225 -34.098  1.00  0.00     0.016 C 
HETATM    2  C   UNL     1      -6.082   2.390 -32.561  1.00  0.00    -0.030 C 
HETATM    3  C   UNL     1      -4.541   2.168 -32.224  1.00  0.00     0.056 C 
HETATM    4  C   UNL     1      -3.742   3.418 -32.516  1.00  0.00     0.056 C 
HETATM    5  C   UNL     1      -4.303   4.634 -32.842  1.00  0.00     0.012 C 
HETATM    6  S   UNL     1      -3.091   5.787 -33.132  1.00  0.00    -0.055 SA
HETATM    7  C   UNL     1      -1.917   4.672 -32.527  1.00  0.00     0.172 C 
HETATM    8  N   UNL     1      -2.372   3.452 -32.322  1.00  0.00    -0.227 NA
HETATM    9  C   UNL     1      -5.757   4.936 -32.907  1.00  0.00     0.055 C 
HETATM   10  C   UNL     1      -6.564   3.846 -32.146  1.00  0.00     0.012 C 
HETATM   11  C   UNL     1      -6.744   4.097 -30.580  1.00  0.00     0.008 C 
HETATM   12  C   UNL     1      -7.902   5.128 -30.429  1.00  0.00     0.020 C 
HETATM   13  C   UNL     1      -7.193   2.791 -29.851  1.00  0.00     0.128 C 
HETATM   14  C   UNL     1      -7.899   1.822 -30.788  1.00  0.00     0.033 C 
HETATM   15  C   UNL     1      -6.949   1.296 -31.863  1.00  0.00     0.013 C 
ENDROOT
BRANCH   3  16
HETATM   16  C   UNL     1      -3.947   0.944 -32.946  1.00  0.00     0.114 C 
BRANCH  16  17
HETATM   17  C   UNL     1      -3.590  -0.183 -32.001  1.00  0.00     0.218 C 
HETATM   18  N   UNL     1      -3.325  -1.386 -32.608  1.00  0.00    -0.359 N 
HETATM   19  H   UNL     1      -2.950  -1.346 -33.559  1.00  0.00     0.162 HD
HETATM   20  O   UNL     1      -3.599  -0.022 -30.783  1.00  0.00    -0.274 OA
BRANCH  18  21
HETATM   21  C   UNL     1      -3.014  -2.563 -31.816  1.00  0.00     0.148 C 
BRANCH  21  22
HETATM   22  C   UNL     1      -3.295  -3.860 -32.579  1.00  0.00     0.186 C 
BRANCH  22  23
HETATM   23  O   UNL     1      -3.987  -3.635 -33.810  1.00  0.00    -0.394 OA
HETATM   24  C   UNL     1      -4.637  -4.804 -34.294  1.00  0.00     0.201 C 
ENDBRANCH  22  23
ENDBRANCH  21  22
ENDBRANCH  18  21
ENDBRANCH  16  17
ENDBRANCH   3  16
BRANCH  11  25
HETATM   25  C   UNL     1      -5.512   4.678 -29.831  1.00  0.00     0.176 C 
BRANCH  25  26
HETATM   26  O   UNL     1      -5.678   4.669 -28.417  1.00  0.00    -0.400 OA
HETATM   27  H   UNL     1      -6.565   4.303 -28.249  1.00  0.00     0.209 HD
ENDBRANCH  25  26
ENDBRANCH  11  25
BRANCH   7  28
HETATM   28  N   UNL     1      -0.659   5.118 -32.280  1.00  0.00    -0.334 N 
HETATM   29  H   UNL     1      -0.287   5.708 -33.016  1.00  0.00     0.168 HD
BRANCH  28  30
HETATM   30  C   UNL     1      -0.269   5.624 -31.014  1.00  0.00     0.051 A 
HETATM   31  C   UNL     1       0.367   4.882 -30.017  1.00  0.00     0.145 A 
HETATM   32  N   UNL     1       0.735   5.371 -28.802  1.00  0.00    -0.271 NA
HETATM   33  C   UNL     1       0.484   6.675 -28.572  1.00  0.00     0.116 A 
HETATM   34  C   UNL     1      -0.096   7.516 -29.504  1.00  0.00     0.021 A 
HETATM   35  C   UNL     1      -0.460   6.984 -30.741  1.00  0.00     0.032 A 
ENDBRANCH  28  30
ENDBRANCH   7  28
BRANCH  13  36
HETATM   36  O   UNL     1      -6.075   2.124 -29.265  1.00  0.00    -0.395 OA
HETATM   37  H   UNL     1      -5.696   2.708 -28.582  1.00  0.00     0.210 HD
ENDBRANCH  13  36
TORSDOF 10
ENDMDL
MODEL 5
REMARK VINA RESULT:      -7.3      2.067      3.073
REMARK  10 active torsions:
REMARK  status: ('A' for Active; 'I' for Inactive)
REMARK    1  A    between atoms: C_3  and  C_4 
REMARK    2  A    between atoms: C_4  and  C_5 
REMARK       I    between atoms: C_5  and  N_6 
REMARK    3  A    between atoms: N_6  and  C_7 
REMARK    4  A    between atoms: C_7  and  C_8 
REMARK    5  A    between atoms: C_8  and  O_9 
REMARK    6  A    between atoms: C_15  and  N_16 
REMARK    7  A    between atoms: N_16  and  C_17 
REMARK    8  A    between atoms: C_26  and  C_27 
REMARK    9  A    between atoms: C_27  and  O_28 
REMARK   10  A    between atoms: C_30  and  O_31 
ROOT
HETATM    1  C   UNL     1      -8.975   4.534 -30.844  1.00  0.00     0.016 C 
HETATM    2  C   UNL     1      -9.132   4.869 -32.363  1.00  0.00    -0.030 C 
HETATM    3  C   UNL     1      -7.914   4.249 -33.183  1.00  0.00     0.056 C 
HETATM    4  C   UNL     1      -8.140   2.778 -33.450  1.00  0.00     0.056 C 
HETATM    5  C   UNL     1      -9.321   2.119 -33.188  1.00  0.00     0.012 C 
HETATM    6  S   UNL     1      -9.183   0.474 -33.586  1.00  0.00    -0.055 SA
HETATM    7  C   UNL     1      -7.665   0.808 -34.343  1.00  0.00     0.172 C 
HETATM    8  N   UNL     1      -7.199   2.022 -34.127  1.00  0.00    -0.227 NA
HETATM    9  C   UNL     1     -10.568   2.735 -32.663  1.00  0.00     0.055 C 
HETATM   10  C   UNL     1     -10.523   4.278 -32.852  1.00  0.00     0.012 C 
HETATM   11  C   UNL     1     -11.044   4.808 -34.265  1.00  0.00     0.008 C 
HETATM   12  C   UNL     1     -12.600   4.815 -34.187  1.00  0.00     0.020 C 
HETATM   13  C   UNL     1     -10.589   6.282 -34.512  1.00  0.00     0.128 C 
HETATM   14  C   UNL     1     -10.313   7.025 -33.214  1.00  0.00     0.033 C 
HETATM   15  C   UNL     1      -9.118   6.426 -32.473  1.00  0.00     0.013 C 
ENDROOT
BRANCH   3  16
HETATM   16  C   UNL     1      -6.555   4.492 -32.500  1.00  0.00     0.114 C 
BRANCH  16  17
HETATM   17  C   UNL     1      -5.591   5.274 -33.364  1.00  0.00     0.218 C 
HETATM   18  N   UNL     1      -4.941   4.535 -34.322  1.00  0.00    -0.359 N 
HETATM   19  H   UNL     1      -5.434   3.713 -34.679  1.00  0.00     0.162 HD
HETATM   20  O   UNL     1      -5.381   6.469 -33.167  1.00  0.00    -0.274 OA
BRANCH  18  21
HETATM   21  C   UNL     1      -3.953   5.151 -35.190  1.00  0.00     0.148 C 
BRANCH  21  22
HETATM   22  C   UNL     1      -2.562   5.179 -34.550  1.00  0.00     0.186 C 
BRANCH  22  23
HETATM   23  O   UNL     1      -2.389   4.155 -33.568  1.00  0.00    -0.394 OA
HETATM   24  C   UNL     1      -1.835   4.649 -32.354  1.00  0.00     0.201 C 
ENDBRANCH  22  23
ENDBRANCH  21  22
ENDBRANCH  18  21
ENDBRANCH  16  17
ENDBRANCH   3  16
BRANCH  11  25
HETATM   25  C   UNL     1     -10.651   3.960 -35.506  1.00  0.00     0.176 C 
BRANCH  25  26
HETATM   26  O   UNL     1     -11.721   3.144 -35.972  1.00  0.00    -0.400 OA
HETATM   27  H   UNL     1     -12.269   3.713 -36.541  1.00  0.00     0.209 HD
ENDBRANCH  25  26
ENDBRANCH  11  25
BRANCH   7  28
HETATM   28  N   UNL     1      -7.091  -0.154 -35.110  1.00  0.00    -0.334 N 
HETATM   29  H   UNL     1      -6.826   0.170 -36.033  1.00  0.00     0.168 HD
BRANCH  28  30
HETATM   30  C   UNL     1      -6.100  -1.033 -34.605  1.00  0.00     0.051 A 
HETATM   31  C   UNL     1      -5.151  -0.699 -33.637  1.00  0.00     0.145 A 
HETATM   32  N   UNL     1      -4.198  -1.546 -33.160  1.00  0.00    -0.271 NA
HETATM   33  C   UNL     1      -4.204  -2.801 -33.649  1.00  0.00     0.116 A 
HETATM   34  C   UNL     1      -5.127  -3.256 -34.573  1.00  0.00     0.021 A 
HETATM   35  C   UNL     1      -6.092  -2.364 -35.041  1.00  0.00     0.032 A 
ENDBRANCH  28  30
ENDBRANCH   7  28
BRANCH  13  36
HETATM   36  O   UNL     1      -9.412   6.323 -35.319  1.00  0.00    -0.395 OA
HETATM   37  H   UNL     1      -9.145   5.406 -35.514  1.00  0.00     0.210 HD
ENDBRANCH  13  36
TORSDOF 10
ENDMDL
MODEL 6
REMARK VINA RESULT:      -7.3      3.296      5.382
REMARK  10 active torsions:
REMARK  status: ('A' for Active; 'I' for Inactive)
REMARK    1  A    between atoms: C_3  and  C_4 
REMARK    2  A    between atoms: C_4  and  C_5 
REMARK       I    between atoms: C_5  and  N_6 
REMARK    3  A    between atoms: N_6  and  C_7 
REMARK    4  A    between atoms: C_7  and  C_8 
REMARK    5  A    between atoms: C_8  and  O_9 
REMARK    6  A    between atoms: C_15  and  N_16 
REMARK    7  A    between atoms: N_16  and  C_17 
REMARK    8  A    between atoms: C_26  and  C_27 
REMARK    9  A    between atoms: C_27  and  O_28 
REMARK   10  A    between atoms: C_30  and  O_31 
ROOT
HETATM    1  C   UNL     1      -5.636   7.843 -31.640  1.00  0.00     0.016 C 
HETATM    2  C   UNL     1      -4.241   7.268 -31.229  1.00  0.00    -0.030 C 
HETATM    3  C   UNL     1      -4.429   6.119 -30.142  1.00  0.00     0.056 C 
HETATM    4  C   UNL     1      -4.810   4.813 -30.802  1.00  0.00     0.056 C 
HETATM    5  C   UNL     1      -4.805   4.607 -32.165  1.00  0.00     0.012 C 
HETATM    6  S   UNL     1      -5.325   3.032 -32.528  1.00  0.00    -0.055 SA
HETATM    7  C   UNL     1      -5.247   2.642 -30.846  1.00  0.00     0.172 C 
HETATM    8  N   UNL     1      -5.051   3.676 -30.051  1.00  0.00    -0.227 NA
HETATM    9  C   UNL     1      -4.379   5.589 -33.196  1.00  0.00     0.055 C 
HETATM   10  C   UNL     1      -3.534   6.719 -32.541  1.00  0.00     0.012 C 
HETATM   11  C   UNL     1      -1.972   6.415 -32.412  1.00  0.00     0.008 C 
HETATM   12  C   UNL     1      -1.351   6.698 -33.812  1.00  0.00     0.020 C 
HETATM   13  C   UNL     1      -1.293   7.395 -31.402  1.00  0.00     0.128 C 
HETATM   14  C   UNL     1      -2.067   8.697 -31.253  1.00  0.00     0.033 C 
HETATM   15  C   UNL     1      -3.437   8.459 -30.619  1.00  0.00     0.013 C 
ENDROOT
BRANCH   3  16
HETATM   16  C   UNL     1      -5.434   6.503 -29.040  1.00  0.00     0.114 C 
BRANCH  16  17
HETATM   17  C   UNL     1      -4.795   6.629 -27.675  1.00  0.00     0.218 C 
HETATM   18  N   UNL     1      -3.422   6.670 -27.679  1.00  0.00    -0.359 N 
HETATM   19  H   UNL     1      -2.978   7.057 -28.516  1.00  0.00     0.162 HD
HETATM   20  O   UNL     1      -5.473   6.635 -26.650  1.00  0.00    -0.274 OA
BRANCH  18  21
HETATM   21  C   UNL     1      -2.679   6.742 -26.434  1.00  0.00     0.148 C 
BRANCH  21  22
HETATM   22  C   UNL     1      -1.459   7.661 -26.544  1.00  0.00     0.186 C 
BRANCH  22  23
HETATM   23  O   UNL     1      -0.451   7.134 -27.411  1.00  0.00    -0.394 OA
HETATM   24  C   UNL     1       0.855   7.237 -26.857  1.00  0.00     0.201 C 
ENDBRANCH  22  23
ENDBRANCH  21  22
ENDBRANCH  18  21
ENDBRANCH  16  17
ENDBRANCH   3  16
BRANCH  11  25
HETATM   25  C   UNL     1      -1.582   4.963 -32.022  1.00  0.00     0.176 C 
BRANCH  25  26
HETATM   26  O   UNL     1      -0.183   4.809 -31.813  1.00  0.00    -0.400 OA
HETATM   27  H   UNL     1      -0.030   4.963 -30.864  1.00  0.00     0.209 HD
ENDBRANCH  25  26
ENDBRANCH  11  25
BRANCH   7  28
HETATM   28  N   UNL     1      -5.355   1.343 -30.469  1.00  0.00    -0.334 N 
HETATM   29  H   UNL     1      -6.304   1.064 -30.247  1.00  0.00     0.168 HD
BRANCH  28  30
HETATM   30  C   UNL     1      -4.696   0.296 -31.162  1.00  0.00     0.051 A 
HETATM   31  C   UNL     1      -3.335   0.000 -31.061  1.00  0.00     0.145 A 
HETATM   32  N   UNL     1      -2.707  -1.003 -31.732  1.00  0.00    -0.271 NA
HETATM   33  C   UNL     1      -3.475  -1.774 -32.526  1.00  0.00     0.116 A 
HETATM   34  C   UNL     1      -4.840  -1.605 -32.665  1.00  0.00     0.021 A 
HETATM   35  C   UNL     1      -5.455  -0.568 -31.962  1.00  0.00     0.032 A 
ENDBRANCH  28  30
ENDBRANCH   7  28
BRANCH  13  36
HETATM   36  O   UNL     1      -1.165   6.792 -30.115  1.00  0.00    -0.395 OA
HETATM   37  H   UNL     1      -0.525   6.060 -30.184  1.00  0.00     0.210 HD
ENDBRANCH  13  36
TORSDOF 10
ENDMDL
MODEL 7
REMARK VINA RESULT:      -7.1      3.583      6.727
REMARK  10 active torsions:
REMARK  status: ('A' for Active; 'I' for Inactive)
REMARK    1  A    between atoms: C_3  and  C_4 
REMARK    2  A    between atoms: C_4  and  C_5 
REMARK       I    between atoms: C_5  and  N_6 
REMARK    3  A    between atoms: N_6  and  C_7 
REMARK    4  A    between atoms: C_7  and  C_8 
REMARK    5  A    between atoms: C_8  and  O_9 
REMARK    6  A    between atoms: C_15  and  N_16 
REMARK    7  A    between atoms: N_16  and  C_17 
REMARK    8  A    between atoms: C_26  and  C_27 
REMARK    9  A    between atoms: C_27  and  O_28 
REMARK   10  A    between atoms: C_30  and  O_31 
ROOT
HETATM    1  C   UNL     1      -5.624   1.037 -29.655  1.00  0.00     0.016 C 
HETATM    2  C   UNL     1      -5.581   1.851 -30.989  1.00  0.00    -0.030 C 
HETATM    3  C   UNL     1      -6.841   1.480 -31.891  1.00  0.00     0.056 C 
HETATM    4  C   UNL     1      -8.069   2.233 -31.433  1.00  0.00     0.056 C 
HETATM    5  C   UNL     1      -8.051   3.240 -30.492  1.00  0.00     0.012 C 
HETATM    6  S   UNL     1      -9.623   3.819 -30.213  1.00  0.00    -0.055 SA
HETATM    7  C   UNL     1     -10.179   2.895 -31.564  1.00  0.00     0.172 C 
HETATM    8  N   UNL     1      -9.292   2.051 -32.054  1.00  0.00    -0.227 NA
HETATM    9  C   UNL     1      -6.843   3.788 -29.821  1.00  0.00     0.055 C 
HETATM   10  C   UNL     1      -5.566   3.396 -30.617  1.00  0.00     0.012 C 
HETATM   11  C   UNL     1      -5.166   4.390 -31.801  1.00  0.00     0.008 C 
HETATM   12  C   UNL     1      -4.439   5.597 -31.135  1.00  0.00     0.020 C 
HETATM   13  C   UNL     1      -4.147   3.720 -32.775  1.00  0.00     0.128 C 
HETATM   14  C   UNL     1      -3.355   2.606 -32.105  1.00  0.00     0.033 C 
HETATM   15  C   UNL     1      -4.260   1.439 -31.713  1.00  0.00     0.013 C 
ENDROOT
BRANCH   3  16
HETATM   16  C   UNL     1      -7.102  -0.036 -31.949  1.00  0.00     0.114 C 
BRANCH  16  17
HETATM   17  C   UNL     1      -7.007  -0.599 -33.350  1.00  0.00     0.218 C 
HETATM   18  N   UNL     1      -6.263  -1.747 -33.464  1.00  0.00    -0.359 N 
HETATM   19  H   UNL     1      -6.226  -2.353 -32.641  1.00  0.00     0.162 HD
HETATM   20  O   UNL     1      -7.520  -0.022 -34.307  1.00  0.00    -0.274 OA
BRANCH  18  21
HETATM   21  C   UNL     1      -6.051  -2.367 -34.760  1.00  0.00     0.148 C 
BRANCH  21  22
HETATM   22  C   UNL     1      -6.769  -3.714 -34.878  1.00  0.00     0.186 C 
BRANCH  22  23
HETATM   23  O   UNL     1      -5.893  -4.770 -35.280  1.00  0.00    -0.394 OA
HETATM   24  C   UNL     1      -4.866  -5.021 -34.329  1.00  0.00     0.201 C 
ENDBRANCH  22  23
ENDBRANCH  21  22
ENDBRANCH  18  21
ENDBRANCH  16  17
ENDBRANCH   3  16
BRANCH  11  25
HETATM   25  C   UNL     1      -6.339   4.968 -32.640  1.00  0.00     0.176 C 
BRANCH  25  26
HETATM   26  O   UNL     1      -5.917   5.980 -33.547  1.00  0.00    -0.400 OA
HETATM   27  H   UNL     1      -6.367   5.796 -34.390  1.00  0.00     0.209 HD
ENDBRANCH  25  26
ENDBRANCH  11  25
BRANCH   7  28
HETATM   28  N   UNL     1     -11.433   3.114 -32.034  1.00  0.00    -0.334 N 
HETATM   29  H   UNL     1     -11.917   3.866 -31.559  1.00  0.00     0.168 HD
BRANCH  28  30
HETATM   30  C   UNL     1     -11.726   3.153 -33.421  1.00  0.00     0.051 A 
HETATM   31  C   UNL     1     -11.453   4.230 -34.267  1.00  0.00     0.145 A 
HETATM   32  N   UNL     1     -11.740   4.265 -35.596  1.00  0.00    -0.271 NA
HETATM   33  C   UNL     1     -12.304   3.161 -36.123  1.00  0.00     0.116 A 
HETATM   34  C   UNL     1     -12.574   2.019 -35.392  1.00  0.00     0.021 A 
HETATM   35  C   UNL     1     -12.266   2.014 -34.031  1.00  0.00     0.032 A 
ENDBRANCH  28  30
ENDBRANCH   7  28
BRANCH  13  36
HETATM   36  O   UNL     1      -4.812   3.181 -33.917  1.00  0.00    -0.395 OA
HETATM   37  H   UNL     1      -4.236   3.309 -34.693  1.00  0.00     0.210 HD
ENDBRANCH  13  36
TORSDOF 10
ENDMDL
MODEL 8
REMARK VINA RESULT:      -7.1      3.831      6.884
REMARK  10 active torsions:
REMARK  status: ('A' for Active; 'I' for Inactive)
REMARK    1  A    between atoms: C_3  and  C_4 
REMARK    2  A    between atoms: C_4  and  C_5 
REMARK       I    between atoms: C_5  and  N_6 
REMARK    3  A    between atoms: N_6  and  C_7 
REMARK    4  A    between atoms: C_7  and  C_8 
REMARK    5  A    between atoms: C_8  and  O_9 
REMARK    6  A    between atoms: C_15  and  N_16 
REMARK    7  A    between atoms: N_16  and  C_17 
REMARK    8  A    between atoms: C_26  and  C_27 
REMARK    9  A    between atoms: C_27  and  O_28 
REMARK   10  A    between atoms: C_30  and  O_31 
ROOT
HETATM    1  C   UNL     1      -9.859   4.581 -34.769  1.00  0.00     0.016 C 
HETATM    2  C   UNL     1     -10.012   4.145 -33.276  1.00  0.00    -0.030 C 
HETATM    3  C   UNL     1      -9.723   2.584 -33.136  1.00  0.00     0.056 C 
HETATM    4  C   UNL     1      -8.235   2.315 -33.098  1.00  0.00     0.056 C 
HETATM    5  C   UNL     1      -7.276   3.299 -33.003  1.00  0.00     0.012 C 
HETATM    6  S   UNL     1      -5.721   2.615 -33.023  1.00  0.00    -0.055 SA
HETATM    7  C   UNL     1      -6.434   1.048 -32.868  1.00  0.00     0.172 C 
HETATM    8  N   UNL     1      -7.745   1.024 -33.004  1.00  0.00    -0.227 NA
HETATM    9  C   UNL     1      -7.529   4.757 -32.867  1.00  0.00     0.055 C 
HETATM   10  C   UNL     1      -8.995   5.005 -32.410  1.00  0.00     0.012 C 
HETATM   11  C   UNL     1      -9.231   4.978 -30.831  1.00  0.00     0.008 C 
HETATM   12  C   UNL     1      -8.779   6.368 -30.294  1.00  0.00     0.020 C 
HETATM   13  C   UNL     1     -10.749   4.827 -30.496  1.00  0.00     0.128 C 
HETATM   14  C   UNL     1     -11.642   5.322 -31.625  1.00  0.00     0.033 C 
HETATM   15  C   UNL     1     -11.488   4.457 -32.875  1.00  0.00     0.013 C 
ENDROOT
BRANCH   3  16
HETATM   16  C   UNL     1     -10.414   1.753 -34.232  1.00  0.00     0.114 C 
BRANCH  16  17
HETATM   17  C   UNL     1     -11.507   0.857 -33.693  1.00  0.00     0.218 C 
HETATM   18  N   UNL     1     -12.786   1.270 -33.973  1.00  0.00    -0.359 N 
HETATM   19  H   UNL     1     -12.915   1.815 -34.829  1.00  0.00     0.162 HD
HETATM   20  O   UNL     1     -11.245  -0.132 -33.010  1.00  0.00    -0.274 OA
BRANCH  18  21
HETATM   21  C   UNL     1     -13.931   0.528 -33.475  1.00  0.00     0.148 C 
BRANCH  21  22
HETATM   22  C   UNL     1     -15.222   0.903 -34.207  1.00  0.00     0.186 C 
BRANCH  22  23
HETATM   23  O   UNL     1     -16.170   1.550 -33.353  1.00  0.00    -0.394 OA
HETATM   24  C   UNL     1     -15.576   2.061 -32.166  1.00  0.00     0.201 C 
ENDBRANCH  22  23
ENDBRANCH  21  22
ENDBRANCH  18  21
ENDBRANCH  16  17
ENDBRANCH   3  16
BRANCH  11  25
HETATM   25  C   UNL     1      -8.445   3.900 -30.036  1.00  0.00     0.176 C 
BRANCH  25  26
HETATM   26  O   UNL     1      -7.282   4.426 -29.405  1.00  0.00    -0.400 OA
HETATM   27  H   UNL     1      -6.744   3.658 -29.142  1.00  0.00     0.209 HD
ENDBRANCH  25  26
ENDBRANCH  11  25
BRANCH   7  28
HETATM   28  N   UNL     1      -5.631  -0.011 -32.592  1.00  0.00    -0.334 N 
HETATM   29  H   UNL     1      -5.658  -0.297 -31.620  1.00  0.00     0.168 HD
BRANCH  28  30
HETATM   30  C   UNL     1      -5.572  -1.155 -33.428  1.00  0.00     0.051 A 
HETATM   31  C   UNL     1      -4.401  -1.831 -33.779  1.00  0.00     0.145 A 
HETATM   32  N   UNL     1      -4.349  -2.925 -34.585  1.00  0.00    -0.271 NA
HETATM   33  C   UNL     1      -5.525  -3.394 -35.047  1.00  0.00     0.116 A 
HETATM   34  C   UNL     1      -6.748  -2.835 -34.725  1.00  0.00     0.021 A 
HETATM   35  C   UNL     1      -6.768  -1.715 -33.894  1.00  0.00     0.032 A 
ENDBRANCH  28  30
ENDBRANCH   7  28
BRANCH  13  36
HETATM   36  O   UNL     1     -11.078   3.465 -30.221  1.00  0.00    -0.395 OA
HETATM   37  H   UNL     1     -11.745   3.177 -30.870  1.00  0.00     0.210 HD
ENDBRANCH  13  36
TORSDOF 10
ENDMDL
MODEL 9
REMARK VINA RESULT:      -7.0      4.528      7.666
REMARK  10 active torsions:
REMARK  status: ('A' for Active; 'I' for Inactive)
REMARK    1  A    between atoms: C_3  and  C_4 
REMARK    2  A    between atoms: C_4  and  C_5 
REMARK       I    between atoms: C_5  and  N_6 
REMARK    3  A    between atoms: N_6  and  C_7 
REMARK    4  A    between atoms: C_7  and  C_8 
REMARK    5  A    between atoms: C_8  and  O_9 
REMARK    6  A    between atoms: C_15  and  N_16 
REMARK    7  A    between atoms: N_16  and  C_17 
REMARK    8  A    between atoms: C_26  and  C_27 
REMARK    9  A    between atoms: C_27  and  O_28 
REMARK   10  A    between atoms: C_30  and  O_31 
ROOT
HETATM    1  C   UNL     1     -11.427   4.141 -35.963  1.00  0.00     0.016 C 
HETATM    2  C   UNL     1     -11.636   4.229 -34.416  1.00  0.00    -0.030 C 
HETATM    3  C   UNL     1     -11.551   2.773 -33.774  1.00  0.00     0.056 C 
HETATM    4  C   UNL     1     -10.110   2.351 -33.590  1.00  0.00     0.056 C 
HETATM    5  C   UNL     1      -9.032   3.189 -33.772  1.00  0.00     0.012 C 
HETATM    6  S   UNL     1      -7.579   2.351 -33.508  1.00  0.00    -0.055 SA
HETATM    7  C   UNL     1      -8.487   1.015 -32.893  1.00  0.00     0.172 C 
HETATM    8  N   UNL     1      -9.790   1.109 -33.070  1.00  0.00    -0.227 NA
HETATM    9  C   UNL     1      -9.095   4.633 -34.119  1.00  0.00     0.055 C 
HETATM   10  C   UNL     1     -10.517   5.191 -33.826  1.00  0.00     0.012 C 
HETATM   11  C   UNL     1     -10.757   5.701 -32.332  1.00  0.00     0.008 C 
HETATM   12  C   UNL     1     -10.129   7.124 -32.246  1.00  0.00     0.020 C 
HETATM   13  C   UNL     1     -12.282   5.852 -32.031  1.00  0.00     0.128 C 
HETATM   14  C   UNL     1     -13.102   6.063 -33.295  1.00  0.00     0.033 C 
HETATM   15  C   UNL     1     -13.059   4.831 -34.198  1.00  0.00     0.013 C 
ENDROOT
BRANCH   3  16
HETATM   16  C   UNL     1     -12.342   1.725 -34.577  1.00  0.00     0.114 C 
BRANCH  16  17
HETATM   17  C   UNL     1     -13.738   1.498 -34.039  1.00  0.00     0.218 C 
HETATM   18  N   UNL     1     -13.950   1.965 -32.765  1.00  0.00    -0.359 N 
HETATM   19  H   UNL     1     -13.387   2.766 -32.471  1.00  0.00     0.162 HD
HETATM   20  O   UNL     1     -14.583   0.890 -34.692  1.00  0.00    -0.274 OA
BRANCH  18  21
HETATM   21  C   UNL     1     -15.232   1.772 -32.110  1.00  0.00     0.148 C 
BRANCH  21  22
HETATM   22  C   UNL     1     -16.139   2.997 -32.248  1.00  0.00     0.186 C 
BRANCH  22  23
HETATM   23  O   UNL     1     -15.597   4.158 -31.612  1.00  0.00    -0.394 OA
HETATM   24  C   UNL     1     -16.395   5.317 -31.817  1.00  0.00     0.201 C 
ENDBRANCH  22  23
ENDBRANCH  21  22
ENDBRANCH  18  21
ENDBRANCH  16  17
ENDBRANCH   3  16
BRANCH  11  25
HETATM   25  C   UNL     1     -10.116   4.848 -31.203  1.00  0.00     0.176 C 
BRANCH  25  26
HETATM   26  O   UNL     1     -10.287   5.429 -29.915  1.00  0.00    -0.400 OA
HETATM   27  H   UNL     1      -9.549   6.054 -29.798  1.00  0.00     0.209 HD
ENDBRANCH  25  26
ENDBRANCH  11  25
BRANCH   7  28
HETATM   28  N   UNL     1      -7.828   0.011 -32.261  1.00  0.00    -0.334 N 
HETATM   29  H   UNL     1      -8.440  -0.618 -31.754  1.00  0.00     0.168 HD
BRANCH  28  30
HETATM   30  C   UNL     1      -6.791  -0.726 -32.886  1.00  0.00     0.051 A 
HETATM   31  C   UNL     1      -5.474  -0.803 -32.428  1.00  0.00     0.145 A 
HETATM   32  N   UNL     1      -4.482  -1.508 -33.035  1.00  0.00    -0.271 NA
HETATM   33  C   UNL     1      -4.819  -2.199 -34.142  1.00  0.00     0.116 A 
HETATM   34  C   UNL     1      -6.101  -2.235 -34.657  1.00  0.00     0.021 A 
HETATM   35  C   UNL     1      -7.097  -1.503 -34.011  1.00  0.00     0.032 A 
ENDBRANCH  28  30
ENDBRANCH   7  28
BRANCH  13  36
HETATM   36  O   UNL     1     -12.783   4.701 -31.351  1.00  0.00    -0.395 OA
HETATM   37  H   UNL     1     -13.223   4.129 -32.006  1.00  0.00     0.210 HD
ENDBRANCH  13  36
TORSDOF 10
ENDMDL
MODEL 10
REMARK VINA RESULT:      -7.0      3.601      6.255
REMARK  10 active torsions:
REMARK  status: ('A' for Active; 'I' for Inactive)
REMARK    1  A    between atoms: C_3  and  C_4 
REMARK    2  A    between atoms: C_4  and  C_5 
REMARK       I    between atoms: C_5  and  N_6 
REMARK    3  A    between atoms: N_6  and  C_7 
REMARK    4  A    between atoms: C_7  and  C_8 
REMARK    5  A    between atoms: C_8  and  O_9 
REMARK    6  A    between atoms: C_15  and  N_16 
REMARK    7  A    between atoms: N_16  and  C_17 
REMARK    8  A    between atoms: C_26  and  C_27 
REMARK    9  A    between atoms: C_27  and  O_28 
REMARK   10  A    between atoms: C_30  and  O_31 
ROOT
HETATM    1  C   UNL     1      -3.185   8.939 -31.104  1.00  0.00     0.016 C 
HETATM    2  C   UNL     1      -2.544   7.535 -30.854  1.00  0.00    -0.030 C 
HETATM    3  C   UNL     1      -3.329   6.780 -29.690  1.00  0.00     0.056 C 
HETATM    4  C   UNL     1      -4.594   6.146 -30.220  1.00  0.00     0.056 C 
HETATM    5  C   UNL     1      -4.919   6.070 -31.557  1.00  0.00     0.012 C 
HETATM    6  S   UNL     1      -6.430   5.321 -31.759  1.00  0.00    -0.055 SA
HETATM    7  C   UNL     1      -6.417   4.895 -30.084  1.00  0.00     0.172 C 
HETATM    8  N   UNL     1      -5.453   5.455 -29.382  1.00  0.00    -0.227 NA
HETATM    9  C   UNL     1      -4.075   6.536 -32.689  1.00  0.00     0.055 C 
HETATM   10  C   UNL     1      -2.605   6.722 -32.218  1.00  0.00     0.012 C 
HETATM   11  C   UNL     1      -1.695   5.412 -32.286  1.00  0.00     0.008 C 
HETATM   12  C   UNL     1      -1.250   5.261 -33.772  1.00  0.00     0.020 C 
HETATM   13  C   UNL     1      -0.398   5.587 -31.434  1.00  0.00     0.128 C 
HETATM   14  C   UNL     1      -0.020   7.050 -31.252  1.00  0.00     0.033 C 
HETATM   15  C   UNL     1      -1.066   7.796 -30.426  1.00  0.00     0.013 C 
ENDROOT
BRANCH   3  16
HETATM   16  C   UNL     1      -3.622   7.693 -28.486  1.00  0.00     0.114 C 
BRANCH  16  17
HETATM   17  C   UNL     1      -2.807   7.336 -27.262  1.00  0.00     0.218 C 
HETATM   18  N   UNL     1      -1.658   6.628 -27.517  1.00  0.00    -0.359 N 
HETATM   19  H   UNL     1      -1.217   6.783 -28.427  1.00  0.00     0.162 HD
HETATM   20  O   UNL     1      -3.194   7.621 -26.131  1.00  0.00    -0.274 OA
BRANCH  18  21
HETATM   21  C   UNL     1      -0.806   6.181 -26.429  1.00  0.00     0.148 C 
BRANCH  21  22
HETATM   22  C   UNL     1       0.499   6.978 -26.355  1.00  0.00     0.186 C 
BRANCH  22  23
HETATM   23  O   UNL     1       1.060   7.235 -27.645  1.00  0.00    -0.394 OA
HETATM   24  C   UNL     1       1.525   8.573 -27.783  1.00  0.00     0.201 C 
ENDBRANCH  22  23
ENDBRANCH  21  22
ENDBRANCH  18  21
ENDBRANCH  16  17
ENDBRANCH   3  16
BRANCH  11  25
HETATM   25  C   UNL     1      -2.376   4.078 -31.873  1.00  0.00     0.176 C 
BRANCH  25  26
HETATM   26  O   UNL     1      -2.865   3.345 -32.991  1.00  0.00    -0.400 OA
HETATM   27  H   UNL     1      -3.249   4.000 -33.600  1.00  0.00     0.209 HD
ENDBRANCH  25  26
ENDBRANCH  11  25
BRANCH   7  28
HETATM   28  N   UNL     1      -7.345   4.017 -29.626  1.00  0.00    -0.334 N 
HETATM   29  H   UNL     1      -8.181   4.464 -29.266  1.00  0.00     0.168 HD
BRANCH  28  30
HETATM   30  C   UNL     1      -7.697   2.844 -30.340  1.00  0.00     0.051 A 
HETATM   31  C   UNL     1      -6.870   1.731 -30.509  1.00  0.00     0.145 A 
HETATM   32  N   UNL     1      -7.210   0.610 -31.200  1.00  0.00    -0.271 NA
HETATM   33  C   UNL     1      -8.449   0.576 -31.728  1.00  0.00     0.116 A 
HETATM   34  C   UNL     1      -9.368   1.598 -31.582  1.00  0.00     0.021 A 
HETATM   35  C   UNL     1      -8.989   2.734 -30.867  1.00  0.00     0.032 A 
ENDBRANCH  28  30
ENDBRANCH   7  28
BRANCH  13  36
HETATM   36  O   UNL     1      -0.551   4.994 -30.145  1.00  0.00    -0.395 OA
HETATM   37  H   UNL     1       0.275   4.526 -29.925  1.00  0.00     0.210 HD
ENDBRANCH  13  36
TORSDOF 10
ENDMDL
