MODEL 1
REMARK VINA RESULT:      -8.0      0.000      0.000
REMARK  3 active torsions:
REMARK  status: ('A' for Active; 'I' for Inactive)
REMARK    1  A    between atoms: C_2  and  C_3 
REMARK    2  A    between atoms: C_9  and  C_10 
REMARK    3  A    between atoms: C_23  and  N_24 
ROOT
HETATM    1  C   UNL     1      -8.443   4.246 -33.697  1.00  0.00     0.066 A 
HETATM    2  N   UNL     1      -8.646   5.363 -34.418  1.00  0.00    -0.177 NA
HETATM    3  N   UNL     1      -9.797   5.131 -35.080  1.00  0.00    -0.256 N 
HETATM    4  H   UNL     1     -10.163   5.851 -35.692  1.00  0.00     0.191 HD
HETATM    5  C   UNL     1     -10.326   3.913 -34.801  1.00  0.00     0.175 A 
HETATM    6  C   UNL     1      -9.477   3.302 -33.915  1.00  0.00     0.035 A 
HETATM    7  C   UNL     1      -9.806   1.944 -33.388  1.00  0.00     0.106 A 
HETATM    8  C   UNL     1     -11.145   1.460 -33.953  1.00  0.00     0.081 A 
HETATM    9  C   UNL     1     -11.630   0.211 -33.467  1.00  0.00     0.100 C 
HETATM   10  N   UNL     1     -12.033  -0.804 -33.075  1.00  0.00    -0.191 NA
HETATM   11  C   UNL     1     -11.882   2.188 -34.839  1.00  0.00     0.140 A 
HETATM   12  O   UNL     1     -11.460   3.447 -35.305  1.00  0.00    -0.279 OA
ENDROOT
BRANCH   7  13
HETATM   13  C   UNL     1      -8.634   1.032 -33.758  1.00  0.00    -0.033 A 
HETATM   14  C   UNL     1      -7.692   0.571 -32.782  1.00  0.00    -0.019 A 
HETATM   15  C   UNL     1      -6.625  -0.265 -33.211  1.00  0.00    -0.025 A 
HETATM   16  C   UNL     1      -7.739   0.882 -31.399  1.00  0.00     0.013 A 
HETATM   17  C   UNL     1      -5.670  -0.730 -32.292  1.00  0.00     0.012 A 
HETATM   18  C   UNL     1      -6.515  -0.640 -34.556  1.00  0.00     0.012 A 
HETATM   19  C   UNL     1      -5.746  -0.397 -30.943  1.00  0.00     0.001 A 
HETATM   20  C   UNL     1      -6.783   0.407 -30.496  1.00  0.00     0.001 A 
HETATM   21  C   UNL     1      -7.446  -0.214 -35.494  1.00  0.00     0.001 A 
HETATM   22  C   UNL     1      -8.495   0.604 -35.100  1.00  0.00     0.009 A 
ENDBRANCH   7  13
BRANCH  11  23
HETATM   23  N   UNL     1     -13.093   1.807 -35.372  1.00  0.00    -0.282 NA
HETATM   24  H   UNL     1     -13.819   2.519 -35.367  1.00  0.00     0.126 HD
HETATM   25  H   UNL     1     -13.409   0.912 -35.005  1.00  0.00     0.126 HD
ENDBRANCH  11  23
BRANCH   1  26
HETATM   26  C   UNL     1      -7.242   4.137 -32.817  1.00  0.00     0.057 C 
HETATM   27  C   UNL     1      -6.003   3.695 -33.578  1.00  0.00     0.011 C 
ENDBRANCH   1  26
TORSDOF 3
ENDMDL
MODEL 2
REMARK VINA RESULT:      -7.7      3.518      5.932
REMARK  3 active torsions:
REMARK  status: ('A' for Active; 'I' for Inactive)
REMARK    1  A    between atoms: C_2  and  C_3 
REMARK    2  A    between atoms: C_9  and  C_10 
REMARK    3  A    between atoms: C_23  and  N_24 
ROOT
HETATM    1  C   UNL     1      -8.130   3.025 -31.190  1.00  0.00     0.066 A 
HETATM    2  N   UNL     1      -8.749   3.585 -30.136  1.00  0.00    -0.177 NA
HETATM    3  N   UNL     1      -7.816   4.384 -29.583  1.00  0.00    -0.256 N 
HETATM    4  H   UNL     1      -8.060   4.928 -28.763  1.00  0.00     0.191 HD
HETATM    5  C   UNL     1      -6.635   4.350 -30.250  1.00  0.00     0.175 A 
HETATM    6  C   UNL     1      -6.791   3.476 -31.295  1.00  0.00     0.035 A 
HETATM    7  C   UNL     1      -5.661   3.244 -32.244  1.00  0.00     0.106 A 
HETATM    8  C   UNL     1      -4.457   4.111 -31.865  1.00  0.00     0.081 A 
HETATM    9  C   UNL     1      -3.332   4.058 -32.738  1.00  0.00     0.100 C 
HETATM   10  N   UNL     1      -2.412   4.023 -33.445  1.00  0.00    -0.191 NA
HETATM   11  C   UNL     1      -4.451   4.939 -30.783  1.00  0.00     0.140 A 
HETATM   12  O   UNL     1      -5.560   5.056 -29.925  1.00  0.00    -0.279 OA
ENDROOT
BRANCH   7  13
HETATM   13  C   UNL     1      -5.356   1.744 -32.206  1.00  0.00    -0.033 A 
HETATM   14  C   UNL     1      -5.821   0.849 -33.224  1.00  0.00    -0.019 A 
HETATM   15  C   UNL     1      -5.502  -0.532 -33.109  1.00  0.00    -0.025 A 
HETATM   16  C   UNL     1      -6.581   1.233 -34.357  1.00  0.00     0.013 A 
HETATM   17  C   UNL     1      -5.947  -1.450 -34.075  1.00  0.00     0.012 A 
HETATM   18  C   UNL     1      -4.736  -0.996 -32.032  1.00  0.00     0.012 A 
HETATM   19  C   UNL     1      -6.698  -1.034 -35.171  1.00  0.00     0.001 A 
HETATM   20  C   UNL     1      -7.012   0.308 -35.313  1.00  0.00     0.001 A 
HETATM   21  C   UNL     1      -4.263  -0.120 -31.063  1.00  0.00     0.001 A 
HETATM   22  C   UNL     1      -4.563   1.232 -31.152  1.00  0.00     0.009 A 
ENDBRANCH   7  13
BRANCH  11  23
HETATM   23  N   UNL     1      -3.402   5.746 -30.401  1.00  0.00    -0.282 NA
HETATM   24  H   UNL     1      -2.476   5.340 -30.504  1.00  0.00     0.126 HD
HETATM   25  H   UNL     1      -3.554   6.167 -29.489  1.00  0.00     0.126 HD
ENDBRANCH  11  23
BRANCH   1  26
HETATM   26  C   UNL     1      -8.869   2.066 -32.063  1.00  0.00     0.057 C 
HETATM   27  C   UNL     1      -8.902   0.660 -31.483  1.00  0.00     0.011 C 
ENDBRANCH   1  26
TORSDOF 3
ENDMDL
MODEL 3
REMARK VINA RESULT:      -7.6     10.128     12.120
REMARK  3 active torsions:
REMARK  status: ('A' for Active; 'I' for Inactive)
REMARK    1  A    between atoms: C_2  and  C_3 
REMARK    2  A    between atoms: C_9  and  C_10 
REMARK    3  A    between atoms: C_23  and  N_24 
ROOT
HETATM    1  C   UNL     1       0.455   8.611 -25.810  1.00  0.00     0.066 A 
HETATM    2  N   UNL     1       0.762   9.511 -24.858  1.00  0.00    -0.177 NA
HETATM    3  N   UNL     1      -0.413   9.772 -24.251  1.00  0.00    -0.256 N 
HETATM    4  H   UNL     1      -0.430  10.427 -23.479  1.00  0.00     0.191 HD
HETATM    5  C   UNL     1      -1.445   9.069 -24.783  1.00  0.00     0.175 A 
HETATM    6  C   UNL     1      -0.929   8.310 -25.802  1.00  0.00     0.035 A 
HETATM    7  C   UNL     1      -1.823   7.393 -26.570  1.00  0.00     0.106 A 
HETATM    8  C   UNL     1      -3.251   7.452 -26.020  1.00  0.00     0.081 A 
HETATM    9  C   UNL     1      -4.197   6.560 -26.603  1.00  0.00     0.100 C 
HETATM   10  N   UNL     1      -4.974   5.836 -27.072  1.00  0.00    -0.191 NA
HETATM   11  C   UNL     1      -3.616   8.269 -24.993  1.00  0.00     0.140 A 
HETATM   12  O   UNL     1      -2.700   9.128 -24.359  1.00  0.00    -0.279 OA
ENDROOT
BRANCH   7  13
HETATM   13  C   UNL     1      -1.727   7.815 -28.039  1.00  0.00    -0.033 A 
HETATM   14  C   UNL     1      -0.962   7.071 -28.995  1.00  0.00    -0.019 A 
HETATM   15  C   UNL     1      -0.917   7.536 -30.337  1.00  0.00    -0.025 A 
HETATM   16  C   UNL     1      -0.238   5.886 -28.708  1.00  0.00     0.013 A 
HETATM   17  C   UNL     1      -0.170   6.847 -31.307  1.00  0.00     0.012 A 
HETATM   18  C   UNL     1      -1.622   8.687 -30.713  1.00  0.00     0.012 A 
HETATM   19  C   UNL     1       0.535   5.690 -30.984  1.00  0.00     0.001 A 
HETATM   20  C   UNL     1       0.498   5.208 -29.686  1.00  0.00     0.001 A 
HETATM   21  C   UNL     1      -2.386   9.389 -29.790  1.00  0.00     0.001 A 
HETATM   22  C   UNL     1      -2.444   8.956 -28.472  1.00  0.00     0.009 A 
ENDBRANCH   7  13
BRANCH  11  23
HETATM   23  N   UNL     1      -4.881   8.356 -24.454  1.00  0.00    -0.282 NA
HETATM   24  H   UNL     1      -4.988   7.969 -23.519  1.00  0.00     0.126 HD
HETATM   25  H   UNL     1      -5.597   8.038 -25.102  1.00  0.00     0.126 HD
ENDBRANCH  11  23
BRANCH   1  26
HETATM   26  C   UNL     1       1.528   8.075 -26.698  1.00  0.00     0.057 C 
HETATM   27  C   UNL     1       1.783   8.965 -27.904  1.00  0.00     0.011 C 
ENDBRANCH   1  26
TORSDOF 3
ENDMDL
MODEL 4
REMARK VINA RESULT:      -7.6      2.943      5.116
REMARK  3 active torsions:
REMARK  status: ('A' for Active; 'I' for Inactive)
REMARK    1  A    between atoms: C_2  and  C_3 
REMARK    2  A    between atoms: C_9  and  C_10 
REMARK    3  A    between atoms: C_23  and  N_24 
ROOT
HETATM    1  C   UNL     1      -8.783   2.190 -31.445  1.00  0.00     0.066 A 
HETATM    2  N   UNL     1      -9.496   2.728 -30.440  1.00  0.00    -0.177 NA
HETATM    3  N   UNL     1      -9.026   3.985 -30.329  1.00  0.00    -0.256 N 
HETATM    4  H   UNL     1      -9.427   4.598 -29.629  1.00  0.00     0.191 HD
HETATM    5  C   UNL     1      -8.046   4.260 -31.227  1.00  0.00     0.175 A 
HETATM    6  C   UNL     1      -7.851   3.122 -31.966  1.00  0.00     0.035 A 
HETATM    7  C   UNL     1      -6.846   3.117 -33.070  1.00  0.00     0.106 A 
HETATM    8  C   UNL     1      -6.190   4.495 -33.203  1.00  0.00     0.081 A 
HETATM    9  C   UNL     1      -5.269   4.663 -34.277  1.00  0.00     0.100 C 
HETATM   10  N   UNL     1      -4.519   4.810 -35.151  1.00  0.00    -0.191 NA
HETATM   11  C   UNL     1      -6.490   5.541 -32.382  1.00  0.00     0.140 A 
HETATM   12  O   UNL     1      -7.429   5.428 -31.341  1.00  0.00    -0.279 OA
ENDROOT
BRANCH   7  13
HETATM   13  C   UNL     1      -5.845   2.005 -32.749  1.00  0.00    -0.033 A 
HETATM   14  C   UNL     1      -5.870   0.742 -33.426  1.00  0.00    -0.019 A 
HETATM   15  C   UNL     1      -4.911  -0.242 -33.061  1.00  0.00    -0.025 A 
HETATM   16  C   UNL     1      -6.785   0.388 -34.449  1.00  0.00     0.013 A 
HETATM   17  C   UNL     1      -4.905  -1.500 -33.687  1.00  0.00     0.012 A 
HETATM   18  C   UNL     1      -3.955   0.031 -32.073  1.00  0.00     0.012 A 
HETATM   19  C   UNL     1      -5.825  -1.812 -34.683  1.00  0.00     0.001 A 
HETATM   20  C   UNL     1      -6.763  -0.867 -35.067  1.00  0.00     0.001 A 
HETATM   21  C   UNL     1      -3.916   1.267 -31.441  1.00  0.00     0.001 A 
HETATM   22  C   UNL     1      -4.843   2.243 -31.778  1.00  0.00     0.009 A 
ENDBRANCH   7  13
BRANCH  11  23
HETATM   23  N   UNL     1      -5.938   6.800 -32.461  1.00  0.00    -0.282 NA
HETATM   24  H   UNL     1      -6.327   7.406 -33.179  1.00  0.00     0.126 HD
HETATM   25  H   UNL     1      -4.922   6.774 -32.468  1.00  0.00     0.126 HD
ENDBRANCH  11  23
BRANCH   1  26
HETATM   26  C   UNL     1      -9.036   0.780 -31.865  1.00  0.00     0.057 C 
HETATM   27  C   UNL     1     -10.092   0.680 -32.955  1.00  0.00     0.011 C 
ENDBRANCH   1  26
TORSDOF 3
ENDMDL
MODEL 5
REMARK VINA RESULT:      -7.3      4.212      6.308
REMARK  3 active torsions:
REMARK  status: ('A' for Active; 'I' for Inactive)
REMARK    1  A    between atoms: C_2  and  C_3 
REMARK    2  A    between atoms: C_9  and  C_10 
REMARK    3  A    between atoms: C_23  and  N_24 
ROOT
HETATM    1  C   UNL     1      -6.268   3.905 -29.969  1.00  0.00     0.066 A 
HETATM    2  N   UNL     1      -5.998   4.515 -28.801  1.00  0.00    -0.177 NA
HETATM    3  N   UNL     1      -5.051   5.423 -29.107  1.00  0.00    -0.256 N 
HETATM    4  H   UNL     1      -4.691   6.021 -28.372  1.00  0.00     0.191 HD
HETATM    5  C   UNL     1      -4.717   5.409 -30.422  1.00  0.00     0.175 A 
HETATM    6  C   UNL     1      -5.475   4.434 -31.017  1.00  0.00     0.035 A 
HETATM    7  C   UNL     1      -5.356   4.195 -32.486  1.00  0.00     0.106 A 
HETATM    8  C   UNL     1      -4.356   5.174 -33.109  1.00  0.00     0.081 A 
HETATM    9  C   UNL     1      -4.206   5.119 -34.525  1.00  0.00     0.100 C 
HETATM   10  N   UNL     1      -4.079   5.082 -35.679  1.00  0.00    -0.191 NA
HETATM   11  C   UNL     1      -3.668   6.096 -32.379  1.00  0.00     0.140 A 
HETATM   12  O   UNL     1      -3.825   6.213 -30.986  1.00  0.00    -0.279 OA
ENDROOT
BRANCH   7  13
HETATM   13  C   UNL     1      -4.951   2.730 -32.662  1.00  0.00    -0.033 A 
HETATM   14  C   UNL     1      -5.766   1.796 -33.380  1.00  0.00    -0.019 A 
HETATM   15  C   UNL     1      -5.321   0.450 -33.488  1.00  0.00    -0.025 A 
HETATM   16  C   UNL     1      -6.999   2.110 -34.005  1.00  0.00     0.013 A 
HETATM   17  C   UNL     1      -6.094  -0.504 -34.171  1.00  0.00     0.012 A 
HETATM   18  C   UNL     1      -4.103   0.058 -32.918  1.00  0.00     0.012 A 
HETATM   19  C   UNL     1      -7.304  -0.158 -34.766  1.00  0.00     0.001 A 
HETATM   20  C   UNL     1      -7.754   1.150 -34.686  1.00  0.00     0.001 A 
HETATM   21  C   UNL     1      -3.302   0.972 -32.248  1.00  0.00     0.001 A 
HETATM   22  C   UNL     1      -3.715   2.292 -32.127  1.00  0.00     0.009 A 
ENDBRANCH   7  13
BRANCH  11  23
HETATM   23  N   UNL     1      -2.766   7.004 -32.886  1.00  0.00    -0.282 NA
HETATM   24  H   UNL     1      -1.816   6.925 -32.531  1.00  0.00     0.126 HD
HETATM   25  H   UNL     1      -3.124   7.955 -32.862  1.00  0.00     0.126 HD
ENDBRANCH  11  23
BRANCH   1  26
HETATM   26  C   UNL     1      -7.293   2.821 -30.022  1.00  0.00     0.057 C 
HETATM   27  C   UNL     1      -6.681   1.436 -29.892  1.00  0.00     0.011 C 
ENDBRANCH   1  26
TORSDOF 3
ENDMDL
MODEL 6
REMARK VINA RESULT:      -7.2      2.797      5.461
REMARK  3 active torsions:
REMARK  status: ('A' for Active; 'I' for Inactive)
REMARK    1  A    between atoms: C_2  and  C_3 
REMARK    2  A    between atoms: C_9  and  C_10 
REMARK    3  A    between atoms: C_23  and  N_24 
ROOT
HETATM    1  C   UNL     1      -7.828   0.960 -33.340  1.00  0.00     0.066 A 
HETATM    2  N   UNL     1      -8.716   0.037 -32.930  1.00  0.00    -0.177 NA
HETATM    3  N   UNL     1      -9.445   0.667 -31.988  1.00  0.00    -0.256 N 
HETATM    4  H   UNL     1     -10.197   0.164 -31.533  1.00  0.00     0.191 HD
HETATM    5  C   UNL     1      -9.052   1.951 -31.793  1.00  0.00     0.175 A 
HETATM    6  C   UNL     1      -8.001   2.182 -32.643  1.00  0.00     0.035 A 
HETATM    7  C   UNL     1      -7.363   3.531 -32.686  1.00  0.00     0.106 A 
HETATM    8  C   UNL     1      -8.070   4.489 -31.722  1.00  0.00     0.081 A 
HETATM    9  C   UNL     1      -7.621   5.841 -31.723  1.00  0.00     0.100 C 
HETATM   10  N   UNL     1      -7.263   6.946 -31.717  1.00  0.00    -0.191 NA
HETATM   11  C   UNL     1      -9.111   4.108 -30.930  1.00  0.00     0.140 A 
HETATM   12  O   UNL     1      -9.614   2.794 -30.938  1.00  0.00    -0.279 OA
ENDROOT
BRANCH   7  13
HETATM   13  C   UNL     1      -5.883   3.328 -32.352  1.00  0.00    -0.033 A 
HETATM   14  C   UNL     1      -4.839   3.906 -33.146  1.00  0.00    -0.019 A 
HETATM   15  C   UNL     1      -3.489   3.660 -32.773  1.00  0.00    -0.025 A 
HETATM   16  C   UNL     1      -5.044   4.719 -34.288  1.00  0.00     0.013 A 
HETATM   17  C   UNL     1      -2.432   4.195 -33.528  1.00  0.00     0.012 A 
HETATM   18  C   UNL     1      -3.195   2.884 -31.644  1.00  0.00     0.012 A 
HETATM   19  C   UNL     1      -2.675   4.984 -34.649  1.00  0.00     0.001 A 
HETATM   20  C   UNL     1      -3.981   5.249 -35.026  1.00  0.00     0.001 A 
HETATM   21  C   UNL     1      -4.210   2.350 -30.861  1.00  0.00     0.001 A 
HETATM   22  C   UNL     1      -5.536   2.574 -31.206  1.00  0.00     0.009 A 
ENDBRANCH   7  13
BRANCH  11  23
HETATM   23  N   UNL     1      -9.788   4.928 -30.054  1.00  0.00    -0.282 NA
HETATM   24  H   UNL     1     -10.183   4.467 -29.238  1.00  0.00     0.126 HD
HETATM   25  H   UNL     1     -10.450   5.534 -30.530  1.00  0.00     0.126 HD
ENDBRANCH  11  23
BRANCH   1  26
HETATM   26  C   UNL     1      -6.837   0.618 -34.403  1.00  0.00     0.057 C 
HETATM   27  C   UNL     1      -5.625  -0.115 -33.852  1.00  0.00     0.011 C 
ENDBRANCH   1  26
TORSDOF 3
ENDMDL
MODEL 7
REMARK VINA RESULT:      -7.0      3.882      6.102
REMARK  3 active torsions:
REMARK  status: ('A' for Active; 'I' for Inactive)
REMARK    1  A    between atoms: C_2  and  C_3 
REMARK    2  A    between atoms: C_9  and  C_10 
REMARK    3  A    between atoms: C_23  and  N_24 
ROOT
HETATM    1  C   UNL     1      -4.600   4.795 -32.724  1.00  0.00     0.066 A 
HETATM    2  N   UNL     1      -3.586   5.529 -32.232  1.00  0.00    -0.177 NA
HETATM    3  N   UNL     1      -2.791   4.632 -31.615  1.00  0.00    -0.256 N 
HETATM    4  H   UNL     1      -1.942   4.957 -31.169  1.00  0.00     0.191 HD
HETATM    5  C   UNL     1      -3.266   3.364 -31.703  1.00  0.00     0.175 A 
HETATM    6  C   UNL     1      -4.441   3.423 -32.407  1.00  0.00     0.035 A 
HETATM    7  C   UNL     1      -5.195   2.169 -32.700  1.00  0.00     0.106 A 
HETATM    8  C   UNL     1      -4.448   0.952 -32.144  1.00  0.00     0.081 A 
HETATM    9  C   UNL     1      -5.010  -0.326 -32.427  1.00  0.00     0.100 C 
HETATM   10  N   UNL     1      -5.460  -1.372 -32.655  1.00  0.00    -0.191 NA
HETATM   11  C   UNL     1      -3.277   1.053 -31.455  1.00  0.00     0.140 A 
HETATM   12  O   UNL     1      -2.666   2.294 -31.198  1.00  0.00    -0.279 OA
ENDROOT
BRANCH   7  13
HETATM   13  C   UNL     1      -6.590   2.343 -32.096  1.00  0.00    -0.033 A 
HETATM   14  C   UNL     1      -7.777   1.953 -32.797  1.00  0.00    -0.019 A 
HETATM   15  C   UNL     1      -9.036   2.159 -32.169  1.00  0.00    -0.025 A 
HETATM   16  C   UNL     1      -7.800   1.364 -34.087  1.00  0.00     0.013 A 
HETATM   17  C   UNL     1     -10.226   1.804 -32.824  1.00  0.00     0.012 A 
HETATM   18  C   UNL     1      -9.104   2.715 -30.885  1.00  0.00     0.012 A 
HETATM   19  C   UNL     1     -10.208   1.234 -34.094  1.00  0.00     0.001 A 
HETATM   20  C   UNL     1      -8.994   1.011 -34.724  1.00  0.00     0.001 A 
HETATM   21  C   UNL     1      -7.951   3.066 -30.196  1.00  0.00     0.001 A 
HETATM   22  C   UNL     1      -6.710   2.876 -30.789  1.00  0.00     0.009 A 
ENDBRANCH   7  13
BRANCH  11  23
HETATM   23  N   UNL     1      -2.560  -0.005 -30.942  1.00  0.00    -0.282 NA
HETATM   24  H   UNL     1      -2.000  -0.523 -31.614  1.00  0.00     0.126 HD
HETATM   25  H   UNL     1      -3.130  -0.603 -30.350  1.00  0.00     0.126 HD
ENDBRANCH  11  23
BRANCH   1  26
HETATM   26  C   UNL     1      -5.695   5.460 -33.490  1.00  0.00     0.057 C 
HETATM   27  C   UNL     1      -6.738   6.093 -32.582  1.00  0.00     0.011 C 
ENDBRANCH   1  26
TORSDOF 3
ENDMDL
MODEL 8
REMARK VINA RESULT:      -7.0      3.488      5.542
REMARK  3 active torsions:
REMARK  status: ('A' for Active; 'I' for Inactive)
REMARK    1  A    between atoms: C_2  and  C_3 
REMARK    2  A    between atoms: C_9  and  C_10 
REMARK    3  A    between atoms: C_23  and  N_24 
ROOT
HETATM    1  C   UNL     1      -7.588   3.148 -30.533  1.00  0.00     0.066 A 
HETATM    2  N   UNL     1      -8.905   2.950 -30.344  1.00  0.00    -0.177 NA
HETATM    3  N   UNL     1      -9.170   1.801 -30.997  1.00  0.00    -0.256 N 
HETATM    4  H   UNL     1     -10.116   1.439 -30.986  1.00  0.00     0.191 HD
HETATM    5  C   UNL     1      -8.069   1.268 -31.586  1.00  0.00     0.175 A 
HETATM    6  C   UNL     1      -7.023   2.112 -31.318  1.00  0.00     0.035 A 
HETATM    7  C   UNL     1      -5.654   1.778 -31.811  1.00  0.00     0.106 A 
HETATM    8  C   UNL     1      -5.665   0.439 -32.556  1.00  0.00     0.081 A 
HETATM    9  C   UNL     1      -4.406  -0.051 -33.009  1.00  0.00     0.100 C 
HETATM   10  N   UNL     1      -3.384  -0.458 -33.379  1.00  0.00    -0.191 NA
HETATM   11  C   UNL     1      -6.799  -0.293 -32.747  1.00  0.00     0.140 A 
HETATM   12  O   UNL     1      -8.053   0.134 -32.273  1.00  0.00    -0.279 OA
ENDROOT
BRANCH   7  13
HETATM   13  C   UNL     1      -5.204   2.949 -32.688  1.00  0.00    -0.033 A 
HETATM   14  C   UNL     1      -3.976   3.647 -32.451  1.00  0.00    -0.019 A 
HETATM   15  C   UNL     1      -3.636   4.731 -33.306  1.00  0.00    -0.025 A 
HETATM   16  C   UNL     1      -3.054   3.339 -31.419  1.00  0.00     0.013 A 
HETATM   17  C   UNL     1      -2.449   5.454 -33.104  1.00  0.00     0.012 A 
HETATM   18  C   UNL     1      -4.480   5.090 -34.365  1.00  0.00     0.012 A 
HETATM   19  C   UNL     1      -1.572   5.125 -32.075  1.00  0.00     0.001 A 
HETATM   20  C   UNL     1      -1.873   4.065 -31.234  1.00  0.00     0.001 A 
HETATM   21  C   UNL     1      -5.656   4.392 -34.609  1.00  0.00     0.001 A 
HETATM   22  C   UNL     1      -6.010   3.332 -33.787  1.00  0.00     0.009 A 
ENDBRANCH   7  13
BRANCH  11  23
HETATM   23  N   UNL     1      -6.866  -1.504 -33.400  1.00  0.00    -0.282 NA
HETATM   24  H   UNL     1      -6.322  -2.257 -32.986  1.00  0.00     0.126 HD
HETATM   25  H   UNL     1      -6.718  -1.408 -34.402  1.00  0.00     0.126 HD
ENDBRANCH  11  23
BRANCH   1  26
HETATM   26  C   UNL     1      -6.924   4.345 -29.939  1.00  0.00     0.057 C 
HETATM   27  C   UNL     1      -6.925   5.537 -30.883  1.00  0.00     0.011 C 
ENDBRANCH   1  26
TORSDOF 3
ENDMDL
MODEL 9
REMARK VINA RESULT:      -6.9      1.536      4.654
REMARK  3 active torsions:
REMARK  status: ('A' for Active; 'I' for Inactive)
REMARK    1  A    between atoms: C_2  and  C_3 
REMARK    2  A    between atoms: C_9  and  C_10 
REMARK    3  A    between atoms: C_23  and  N_24 
ROOT
HETATM    1  C   UNL     1      -9.348   0.551 -32.998  1.00  0.00     0.066 A 
HETATM    2  N   UNL     1     -10.273  -0.393 -32.750  1.00  0.00    -0.177 NA
HETATM    3  N   UNL     1     -11.437   0.167 -33.136  1.00  0.00    -0.256 N 
HETATM    4  H   UNL     1     -12.291  -0.372 -33.051  1.00  0.00     0.191 HD
HETATM    5  C   UNL     1     -11.278   1.425 -33.619  1.00  0.00     0.175 A 
HETATM    6  C   UNL     1      -9.941   1.718 -33.541  1.00  0.00     0.035 A 
HETATM    7  C   UNL     1      -9.440   3.036 -34.032  1.00  0.00     0.106 A 
HETATM    8  C   UNL     1     -10.593   3.869 -34.602  1.00  0.00     0.081 A 
HETATM    9  C   UNL     1     -10.248   5.120 -35.189  1.00  0.00     0.100 C 
HETATM   10  N   UNL     1      -9.975   6.141 -35.671  1.00  0.00    -0.191 NA
HETATM   11  C   UNL     1     -11.886   3.438 -34.606  1.00  0.00     0.140 A 
HETATM   12  O   UNL     1     -12.259   2.188 -34.080  1.00  0.00    -0.279 OA
ENDROOT
BRANCH   7  13
HETATM   13  C   UNL     1      -8.741   3.710 -32.849  1.00  0.00    -0.033 A 
HETATM   14  C   UNL     1      -7.365   4.105 -32.904  1.00  0.00    -0.019 A 
HETATM   15  C   UNL     1      -6.788   4.716 -31.757  1.00  0.00    -0.025 A 
HETATM   16  C   UNL     1      -6.518   3.938 -34.028  1.00  0.00     0.013 A 
HETATM   17  C   UNL     1      -5.439   5.108 -31.760  1.00  0.00     0.012 A 
HETATM   18  C   UNL     1      -7.559   4.938 -30.609  1.00  0.00     0.012 A 
HETATM   19  C   UNL     1      -4.637   4.921 -32.882  1.00  0.00     0.001 A 
HETATM   20  C   UNL     1      -5.178   4.339 -34.018  1.00  0.00     0.001 A 
HETATM   21  C   UNL     1      -8.900   4.580 -30.569  1.00  0.00     0.001 A 
HETATM   22  C   UNL     1      -9.486   3.981 -31.676  1.00  0.00     0.009 A 
ENDBRANCH   7  13
BRANCH  11  23
HETATM   23  N   UNL     1     -12.958   4.140 -35.112  1.00  0.00    -0.282 NA
HETATM   24  H   UNL     1     -13.364   3.767 -35.966  1.00  0.00     0.126 HD
HETATM   25  H   UNL     1     -12.775   5.139 -35.159  1.00  0.00     0.126 HD
ENDBRANCH  11  23
BRANCH   1  26
HETATM   26  C   UNL     1      -7.911   0.282 -32.696  1.00  0.00     0.057 C 
HETATM   27  C   UNL     1      -7.526   0.703 -31.287  1.00  0.00     0.011 C 
ENDBRANCH   1  26
TORSDOF 3
ENDMDL
MODEL 10
REMARK VINA RESULT:      -6.7      2.843      5.279
REMARK  3 active torsions:
REMARK  status: ('A' for Active; 'I' for Inactive)
REMARK    1  A    between atoms: C_2  and  C_3 
REMARK    2  A    between atoms: C_9  and  C_10 
REMARK    3  A    between atoms: C_23  and  N_24 
ROOT
HETATM    1  C   UNL     1      -5.297  -0.233 -33.372  1.00  0.00     0.066 A 
HETATM    2  N   UNL     1      -5.658  -1.527 -33.434  1.00  0.00    -0.177 NA
HETATM    3  N   UNL     1      -6.979  -1.495 -33.696  1.00  0.00    -0.256 N 
HETATM    4  H   UNL     1      -7.479  -2.370 -33.798  1.00  0.00     0.191 HD
HETATM    5  C   UNL     1      -7.461  -0.231 -33.804  1.00  0.00     0.175 A 
HETATM    6  C   UNL     1      -6.407   0.619 -33.593  1.00  0.00     0.035 A 
HETATM    7  C   UNL     1      -6.615   2.095 -33.679  1.00  0.00     0.106 A 
HETATM    8  C   UNL     1      -8.069   2.411 -34.042  1.00  0.00     0.081 A 
HETATM    9  C   UNL     1      -8.393   3.784 -34.244  1.00  0.00     0.100 C 
HETATM   10  N   UNL     1      -8.666   4.900 -34.413  1.00  0.00    -0.191 NA
HETATM   11  C   UNL     1      -9.015   1.447 -34.218  1.00  0.00     0.140 A 
HETATM   12  O   UNL     1      -8.722   0.078 -34.075  1.00  0.00    -0.279 OA
ENDROOT
BRANCH   7  13
HETATM   13  C   UNL     1      -6.193   2.678 -32.328  1.00  0.00    -0.033 A 
HETATM   14  C   UNL     1      -5.128   3.629 -32.210  1.00  0.00    -0.019 A 
HETATM   15  C   UNL     1      -4.792   4.114 -30.916  1.00  0.00    -0.025 A 
HETATM   16  C   UNL     1      -4.371   4.139 -33.295  1.00  0.00     0.013 A 
HETATM   17  C   UNL     1      -3.747   5.037 -30.749  1.00  0.00     0.012 A 
HETATM   18  C   UNL     1      -5.503   3.680 -29.789  1.00  0.00     0.012 A 
HETATM   19  C   UNL     1      -3.022   5.509 -31.840  1.00  0.00     0.001 A 
HETATM   20  C   UNL     1      -3.337   5.062 -33.113  1.00  0.00     0.001 A 
HETATM   21  C   UNL     1      -6.553   2.780 -29.912  1.00  0.00     0.001 A 
HETATM   22  C   UNL     1      -6.899   2.291 -31.164  1.00  0.00     0.009 A 
ENDBRANCH   7  13
BRANCH  11  23
HETATM   23  N   UNL     1     -10.332   1.673 -34.553  1.00  0.00    -0.282 NA
HETATM   24  H   UNL     1     -10.488   2.080 -35.471  1.00  0.00     0.126 HD
HETATM   25  H   UNL     1     -10.839   2.150 -33.812  1.00  0.00     0.126 HD
ENDBRANCH  11  23
BRANCH   1  26
HETATM   26  C   UNL     1      -3.875   0.130 -33.098  1.00  0.00     0.057 C 
HETATM   27  C   UNL     1      -3.578   0.231 -31.610  1.00  0.00     0.011 C 
ENDBRANCH   1  26
TORSDOF 3
ENDMDL
