MODEL 1
REMARK VINA RESULT:      -9.2      0.000      0.000
REMARK  4 active torsions:
REMARK  status: ('A' for Active; 'I' for Inactive)
REMARK    1  A    between atoms: C_6  and  C_7 
REMARK       I    between atoms: C_7  and  N_8 
REMARK    2  A    between atoms: N_8  and  C_9 
REMARK    3  A    between atoms: C_16  and  C_17 
REMARK       I    between atoms: C_17  and  N_18 
REMARK    4  A    between atoms: C_25  and  O_26 
ROOT
HETATM    1  C   UNL     1      -7.256  -0.182 -34.425  1.00  0.00     0.259 C 
HETATM    2  N   UNL     1      -8.069   0.359 -33.447  1.00  0.00    -0.323 N 
HETATM    3  O   UNL     1      -7.412  -0.050 -35.633  1.00  0.00    -0.267 OA
HETATM    4  H   UNL     1      -7.771   0.224 -32.492  1.00  0.00     0.169 HD
ENDROOT
BRANCH   2   5
HETATM    5  C   UNL     1      -9.224   1.154 -33.622  1.00  0.00     0.036 A 
HETATM    6  C   UNL     1     -10.531   0.647 -33.623  1.00  0.00     0.046 A 
HETATM    7  C   UNL     1     -11.619   1.522 -33.835  1.00  0.00     0.030 A 
HETATM    8  C   UNL     1     -11.367   2.876 -34.016  1.00  0.00     0.063 A 
HETATM    9  C   UNL     1     -13.038   1.394 -33.939  1.00  0.00     0.156 A 
HETATM   10  N   UNL     1     -12.594   3.455 -34.186  1.00  0.00    -0.277 N 
HETATM   11  C   UNL     1     -10.081   3.418 -34.010  1.00  0.00     0.034 A 
HETATM   12  H   UNL     1     -12.794   4.436 -34.338  1.00  0.00     0.189 HD
HETATM   13  N   UNL     1     -13.624   2.594 -34.153  1.00  0.00    -0.168 NA
HETATM   14  C   UNL     1      -9.016   2.527 -33.818  1.00  0.00     0.032 A 
BRANCH   9  15
HETATM   15  C   UNL     1     -13.836   0.162 -33.854  1.00  0.00     0.270 C 
HETATM   16  N   UNL     1     -15.081   0.262 -34.412  1.00  0.00    -0.365 N 
HETATM   17  H   UNL     1     -15.352   1.140 -34.841  1.00  0.00     0.159 HD
HETATM   18  H   UNL     1     -15.689  -0.541 -34.423  1.00  0.00     0.159 HD
HETATM   19  O   UNL     1     -13.451  -0.886 -33.346  1.00  0.00    -0.266 OA
ENDBRANCH   9  15
ENDBRANCH   2   5
BRANCH   1  20
HETATM   20  C   UNL     1      -6.114  -0.928 -33.901  1.00  0.00     0.074 A 
HETATM   21  C   UNL     1      -5.922  -2.284 -34.136  1.00  0.00     0.066 A 
HETATM   22  C   UNL     1      -6.696  -3.302 -34.882  1.00  0.00     0.078 C 
HETATM   23  O   UNL     1      -4.768  -2.716 -33.564  1.00  0.00    -0.314 OA
HETATM   24  C   UNL     1      -4.217  -1.655 -32.923  1.00  0.00     0.087 A 
HETATM   25  C   UNL     1      -5.008  -0.523 -33.076  1.00  0.00     0.019 A 
HETATM   26  C   UNL     1      -3.027  -1.696 -32.202  1.00  0.00     0.041 A 
HETATM   27  C   UNL     1      -4.592   0.662 -32.421  1.00  0.00     0.052 A 
HETATM   28  C   UNL     1      -3.390   0.663 -31.696  1.00  0.00     0.069 A 
HETATM   29  C   UNL     1      -2.626  -0.505 -31.593  1.00  0.00     0.039 A 
BRANCH  28  30
HETATM   30  O   UNL     1      -2.860   1.738 -31.033  1.00  0.00    -0.356 OA
HETATM   31  C   UNL     1      -3.206   3.031 -31.509  1.00  0.00     0.210 C 
ENDBRANCH  28  30
ENDBRANCH   1  20
TORSDOF 4
ENDMDL
MODEL 2
REMARK VINA RESULT:      -8.8      1.165      3.256
REMARK  4 active torsions:
REMARK  status: ('A' for Active; 'I' for Inactive)
REMARK    1  A    between atoms: C_6  and  C_7 
REMARK       I    between atoms: C_7  and  N_8 
REMARK    2  A    between atoms: N_8  and  C_9 
REMARK    3  A    between atoms: C_16  and  C_17 
REMARK       I    between atoms: C_17  and  N_18 
REMARK    4  A    between atoms: C_25  and  O_26 
ROOT
HETATM    1  C   UNL     1      -6.793   0.668 -33.961  1.00  0.00     0.259 C 
HETATM    2  N   UNL     1      -7.841   0.798 -33.069  1.00  0.00    -0.323 N 
HETATM    3  O   UNL     1      -6.754   1.145 -35.088  1.00  0.00    -0.267 OA
HETATM    4  H   UNL     1      -7.696   0.412 -32.149  1.00  0.00     0.169 HD
ENDROOT
BRANCH   2   5
HETATM    5  C   UNL     1      -9.061   1.485 -33.262  1.00  0.00     0.036 A 
HETATM    6  C   UNL     1     -10.309   0.852 -33.350  1.00  0.00     0.046 A 
HETATM    7  C   UNL     1     -11.470   1.626 -33.572  1.00  0.00     0.030 A 
HETATM    8  C   UNL     1     -11.348   3.005 -33.674  1.00  0.00     0.063 A 
HETATM    9  C   UNL     1     -12.863   1.363 -33.750  1.00  0.00     0.156 A 
HETATM   10  N   UNL     1     -12.619   3.468 -33.874  1.00  0.00    -0.277 N 
HETATM   11  C   UNL     1     -10.125   3.670 -33.580  1.00  0.00     0.034 A 
HETATM   12  H   UNL     1     -12.910   4.432 -33.989  1.00  0.00     0.189 HD
HETATM   13  N   UNL     1     -13.557   2.510 -33.933  1.00  0.00    -0.168 NA
HETATM   14  C   UNL     1      -8.985   2.880 -33.380  1.00  0.00     0.032 A 
BRANCH   9  15
HETATM   15  C   UNL     1     -13.535   0.057 -33.763  1.00  0.00     0.270 C 
HETATM   16  N   UNL     1     -14.788   0.077 -34.314  1.00  0.00    -0.365 N 
HETATM   17  H   UNL     1     -15.146   0.955 -34.672  1.00  0.00     0.159 HD
HETATM   18  H   UNL     1     -15.314  -0.778 -34.388  1.00  0.00     0.159 HD
HETATM   19  O   UNL     1     -13.046  -0.985 -33.339  1.00  0.00    -0.266 OA
ENDBRANCH   9  15
ENDBRANCH   2   5
BRANCH   1  20
HETATM   20  C   UNL     1      -5.653  -0.077 -33.431  1.00  0.00     0.074 A 
HETATM   21  C   UNL     1      -4.694   0.492 -32.601  1.00  0.00     0.066 A 
HETATM   22  C   UNL     1      -4.511   1.854 -32.052  1.00  0.00     0.078 C 
HETATM   23  O   UNL     1      -3.768  -0.430 -32.228  1.00  0.00    -0.314 OA
HETATM   24  C   UNL     1      -4.095  -1.596 -32.838  1.00  0.00     0.087 A 
HETATM   25  C   UNL     1      -5.240  -1.443 -33.612  1.00  0.00     0.019 A 
HETATM   26  C   UNL     1      -3.377  -2.783 -32.716  1.00  0.00     0.041 A 
HETATM   27  C   UNL     1      -5.685  -2.564 -34.355  1.00  0.00     0.052 A 
HETATM   28  C   UNL     1      -4.994  -3.781 -34.245  1.00  0.00     0.069 A 
HETATM   29  C   UNL     1      -3.858  -3.878 -33.435  1.00  0.00     0.039 A 
BRANCH  28  30
HETATM   30  O   UNL     1      -5.324  -4.945 -34.888  1.00  0.00    -0.356 OA
HETATM   31  C   UNL     1      -6.478  -4.926 -35.717  1.00  0.00     0.210 C 
ENDBRANCH  28  30
ENDBRANCH   1  20
TORSDOF 4
ENDMDL
MODEL 3
REMARK VINA RESULT:      -8.7      4.495      8.980
REMARK  4 active torsions:
REMARK  status: ('A' for Active; 'I' for Inactive)
REMARK    1  A    between atoms: C_6  and  C_7 
REMARK       I    between atoms: C_7  and  N_8 
REMARK    2  A    between atoms: N_8  and  C_9 
REMARK    3  A    between atoms: C_16  and  C_17 
REMARK       I    between atoms: C_17  and  N_18 
REMARK    4  A    between atoms: C_25  and  O_26 
ROOT
HETATM    1  C   UNL     1      -4.984   2.577 -31.991  1.00  0.00     0.259 C 
HETATM    2  N   UNL     1      -4.184   3.504 -32.631  1.00  0.00    -0.323 N 
HETATM    3  O   UNL     1      -5.165   2.507 -30.782  1.00  0.00    -0.267 OA
HETATM    4  H   UNL     1      -4.193   3.482 -33.640  1.00  0.00     0.169 HD
ENDROOT
BRANCH   2   5
HETATM    5  C   UNL     1      -3.420   4.540 -32.047  1.00  0.00     0.036 A 
HETATM    6  C   UNL     1      -2.098   4.385 -31.610  1.00  0.00     0.046 A 
HETATM    7  C   UNL     1      -1.428   5.476 -31.012  1.00  0.00     0.030 A 
HETATM    8  C   UNL     1      -2.093   6.689 -30.893  1.00  0.00     0.063 A 
HETATM    9  C   UNL     1      -0.143   5.700 -30.428  1.00  0.00     0.156 A 
HETATM   10  N   UNL     1      -1.202   7.536 -30.295  1.00  0.00    -0.277 N 
HETATM   11  C   UNL     1      -3.405   6.883 -31.328  1.00  0.00     0.034 A 
HETATM   12  H   UNL     1      -1.345   8.510 -30.057  1.00  0.00     0.189 HD
HETATM   13  N   UNL     1      -0.020   6.976 -29.994  1.00  0.00    -0.168 NA
HETATM   14  C   UNL     1      -4.056   5.781 -31.899  1.00  0.00     0.032 A 
BRANCH   9  15
HETATM   15  C   UNL     1       0.949   4.732 -30.265  1.00  0.00     0.270 C 
HETATM   16  N   UNL     1       1.125   4.297 -28.979  1.00  0.00    -0.365 N 
HETATM   17  H   UNL     1       0.504   4.648 -28.259  1.00  0.00     0.159 HD
HETATM   18  H   UNL     1       1.835   3.612 -28.777  1.00  0.00     0.159 HD
HETATM   19  O   UNL     1       1.657   4.317 -31.177  1.00  0.00    -0.266 OA
ENDBRANCH   9  15
ENDBRANCH   2   5
BRANCH   1  20
HETATM   20  C   UNL     1      -5.671   1.660 -32.897  1.00  0.00     0.074 A 
HETATM   21  C   UNL     1      -6.793   2.021 -33.634  1.00  0.00     0.066 A 
HETATM   22  C   UNL     1      -7.577   3.273 -33.736  1.00  0.00     0.078 C 
HETATM   23  O   UNL     1      -7.209   0.993 -34.418  1.00  0.00    -0.314 OA
HETATM   24  C   UNL     1      -6.385  -0.056 -34.175  1.00  0.00     0.087 A 
HETATM   25  C   UNL     1      -5.423   0.283 -33.230  1.00  0.00     0.019 A 
HETATM   26  C   UNL     1      -6.493  -1.305 -34.780  1.00  0.00     0.041 A 
HETATM   27  C   UNL     1      -4.513  -0.725 -32.830  1.00  0.00     0.052 A 
HETATM   28  C   UNL     1      -4.582  -1.994 -33.429  1.00  0.00     0.069 A 
HETATM   29  C   UNL     1      -5.562  -2.269 -34.388  1.00  0.00     0.039 A 
BRANCH  28  30
HETATM   30  O   UNL     1      -3.756  -3.051 -33.153  1.00  0.00    -0.356 OA
HETATM   31  C   UNL     1      -3.023  -3.004 -31.936  1.00  0.00     0.210 C 
ENDBRANCH  28  30
ENDBRANCH   1  20
TORSDOF 4
ENDMDL
MODEL 4
REMARK VINA RESULT:      -8.6      4.430      8.884
REMARK  4 active torsions:
REMARK  status: ('A' for Active; 'I' for Inactive)
REMARK    1  A    between atoms: C_6  and  C_7 
REMARK       I    between atoms: C_7  and  N_8 
REMARK    2  A    between atoms: N_8  and  C_9 
REMARK    3  A    between atoms: C_16  and  C_17 
REMARK       I    between atoms: C_17  and  N_18 
REMARK    4  A    between atoms: C_25  and  O_26 
ROOT
HETATM    1  C   UNL     1      -4.796   2.362 -32.025  1.00  0.00     0.259 C 
HETATM    2  N   UNL     1      -4.325   3.178 -33.037  1.00  0.00    -0.323 N 
HETATM    3  O   UNL     1      -4.452   2.415 -30.851  1.00  0.00    -0.267 OA
HETATM    4  H   UNL     1      -4.758   3.064 -33.942  1.00  0.00     0.169 HD
ENDROOT
BRANCH   2   5
HETATM    5  C   UNL     1      -3.370   4.216 -32.940  1.00  0.00     0.036 A 
HETATM    6  C   UNL     1      -2.355   4.256 -31.974  1.00  0.00     0.046 A 
HETATM    7  C   UNL     1      -1.465   5.353 -31.942  1.00  0.00     0.030 A 
HETATM    8  C   UNL     1      -1.605   6.359 -32.889  1.00  0.00     0.063 A 
HETATM    9  C   UNL     1      -0.367   5.765 -31.126  1.00  0.00     0.156 A 
HETATM   10  N   UNL     1      -0.615   7.260 -32.613  1.00  0.00    -0.277 N 
HETATM   11  C   UNL     1      -2.596   6.346 -33.872  1.00  0.00     0.034 A 
HETATM   12  H   UNL     1      -0.412   8.121 -33.107  1.00  0.00     0.189 HD
HETATM   13  N   UNL     1       0.147   6.940 -31.554  1.00  0.00    -0.168 NA
HETATM   14  C   UNL     1      -3.480   5.259 -33.871  1.00  0.00     0.032 A 
BRANCH   9  15
HETATM   15  C   UNL     1       0.185   5.075 -29.952  1.00  0.00     0.270 C 
HETATM   16  N   UNL     1      -0.210   5.606 -28.754  1.00  0.00    -0.365 N 
HETATM   17  H   UNL     1      -0.842   6.399 -28.759  1.00  0.00     0.159 HD
HETATM   18  H   UNL     1       0.100   5.182 -27.894  1.00  0.00     0.159 HD
HETATM   19  O   UNL     1       0.928   4.100 -29.999  1.00  0.00    -0.266 OA
ENDBRANCH   9  15
ENDBRANCH   2   5
BRANCH   1  20
HETATM   20  C   UNL     1      -5.815   1.409 -32.459  1.00  0.00     0.074 A 
HETATM   21  C   UNL     1      -7.177   1.632 -32.300  1.00  0.00     0.066 A 
HETATM   22  C   UNL     1      -7.960   2.744 -31.714  1.00  0.00     0.078 C 
HETATM   23  O   UNL     1      -7.900   0.605 -32.819  1.00  0.00    -0.314 OA
HETATM   24  C   UNL     1      -7.016  -0.310 -33.288  1.00  0.00     0.087 A 
HETATM   25  C   UNL     1      -5.710   0.116 -33.080  1.00  0.00     0.019 A 
HETATM   26  C   UNL     1      -7.368  -1.516 -33.887  1.00  0.00     0.041 A 
HETATM   27  C   UNL     1      -4.664  -0.755 -33.472  1.00  0.00     0.052 A 
HETATM   28  C   UNL     1      -4.980  -1.975 -34.093  1.00  0.00     0.069 A 
HETATM   29  C   UNL     1      -6.316  -2.340 -34.292  1.00  0.00     0.039 A 
BRANCH  28  30
HETATM   30  O   UNL     1      -4.074  -2.900 -34.539  1.00  0.00    -0.356 OA
HETATM   31  C   UNL     1      -4.318  -4.261 -34.210  1.00  0.00     0.210 C 
ENDBRANCH  28  30
ENDBRANCH   1  20
TORSDOF 4
ENDMDL
MODEL 5
REMARK VINA RESULT:      -8.6      1.657      2.946
REMARK  4 active torsions:
REMARK  status: ('A' for Active; 'I' for Inactive)
REMARK    1  A    between atoms: C_6  and  C_7 
REMARK       I    between atoms: C_7  and  N_8 
REMARK    2  A    between atoms: N_8  and  C_9 
REMARK    3  A    between atoms: C_16  and  C_17 
REMARK       I    between atoms: C_17  and  N_18 
REMARK    4  A    between atoms: C_25  and  O_26 
ROOT
HETATM    1  C   UNL     1      -7.316  -0.117 -34.494  1.00  0.00     0.259 C 
HETATM    2  N   UNL     1      -8.148   0.429 -33.535  1.00  0.00    -0.323 N 
HETATM    3  O   UNL     1      -7.449   0.005 -35.705  1.00  0.00    -0.267 OA
HETATM    4  H   UNL     1      -7.867   0.303 -32.574  1.00  0.00     0.169 HD
ENDROOT
BRANCH   2   5
HETATM    5  C   UNL     1      -9.301   1.220 -33.738  1.00  0.00     0.036 A 
HETATM    6  C   UNL     1      -9.268   2.561 -34.147  1.00  0.00     0.046 A 
HETATM    7  C   UNL     1     -10.478   3.276 -34.295  1.00  0.00     0.030 A 
HETATM    8  C   UNL     1     -11.678   2.622 -34.052  1.00  0.00     0.063 A 
HETATM    9  C   UNL     1     -10.848   4.611 -34.644  1.00  0.00     0.156 A 
HETATM   10  N   UNL     1     -12.653   3.552 -34.283  1.00  0.00    -0.277 N 
HETATM   11  C   UNL     1     -11.750   1.285 -33.656  1.00  0.00     0.034 A 
HETATM   12  H   UNL     1     -13.655   3.424 -34.207  1.00  0.00     0.189 HD
HETATM   13  N   UNL     1     -12.192   4.764 -34.633  1.00  0.00    -0.168 NA
HETATM   14  C   UNL     1     -10.537   0.603 -33.496  1.00  0.00     0.032 A 
BRANCH   9  15
HETATM   15  C   UNL     1      -9.957   5.733 -34.968  1.00  0.00     0.270 C 
HETATM   16  N   UNL     1      -9.387   6.329 -33.875  1.00  0.00    -0.365 N 
HETATM   17  H   UNL     1      -9.600   5.961 -32.955  1.00  0.00     0.159 HD
HETATM   18  H   UNL     1      -8.742   7.092 -34.003  1.00  0.00     0.159 HD
HETATM   19  O   UNL     1      -9.711   6.124 -36.104  1.00  0.00    -0.266 OA
ENDBRANCH   9  15
ENDBRANCH   2   5
BRANCH   1  20
HETATM   20  C   UNL     1      -6.182  -0.856 -33.943  1.00  0.00     0.074 A 
HETATM   21  C   UNL     1      -5.992  -2.217 -34.149  1.00  0.00     0.066 A 
HETATM   22  C   UNL     1      -6.763  -3.248 -34.880  1.00  0.00     0.078 C 
HETATM   23  O   UNL     1      -4.845  -2.641 -33.556  1.00  0.00    -0.314 OA
HETATM   24  C   UNL     1      -4.297  -1.570 -32.932  1.00  0.00     0.087 A 
HETATM   25  C   UNL     1      -5.083  -0.438 -33.115  1.00  0.00     0.019 A 
HETATM   26  C   UNL     1      -3.115  -1.600 -32.197  1.00  0.00     0.041 A 
HETATM   27  C   UNL     1      -4.669   0.759 -32.481  1.00  0.00     0.052 A 
HETATM   28  C   UNL     1      -3.474   0.771 -31.744  1.00  0.00     0.069 A 
HETATM   29  C   UNL     1      -2.716  -0.397 -31.610  1.00  0.00     0.039 A 
BRANCH  28  30
HETATM   30  O   UNL     1      -2.947   1.857 -31.098  1.00  0.00    -0.356 OA
HETATM   31  C   UNL     1      -3.100   3.124 -31.725  1.00  0.00     0.210 C 
ENDBRANCH  28  30
ENDBRANCH   1  20
TORSDOF 4
ENDMDL
MODEL 6
REMARK VINA RESULT:      -8.6      4.762      9.044
REMARK  4 active torsions:
REMARK  status: ('A' for Active; 'I' for Inactive)
REMARK    1  A    between atoms: C_6  and  C_7 
REMARK       I    between atoms: C_7  and  N_8 
REMARK    2  A    between atoms: N_8  and  C_9 
REMARK    3  A    between atoms: C_16  and  C_17 
REMARK       I    between atoms: C_17  and  N_18 
REMARK    4  A    between atoms: C_25  and  O_26 
ROOT
HETATM    1  C   UNL     1      -3.866   1.876 -32.109  1.00  0.00     0.259 C 
HETATM    2  N   UNL     1      -3.805   3.136 -32.674  1.00  0.00    -0.323 N 
HETATM    3  O   UNL     1      -3.041   1.400 -31.341  1.00  0.00    -0.267 OA
HETATM    4  H   UNL     1      -4.599   3.416 -33.230  1.00  0.00     0.169 HD
ENDROOT
BRANCH   2   5
HETATM    5  C   UNL     1      -2.804   4.117 -32.496  1.00  0.00     0.036 A 
HETATM    6  C   UNL     1      -2.475   4.684 -31.257  1.00  0.00     0.046 A 
HETATM    7  C   UNL     1      -1.476   5.680 -31.188  1.00  0.00     0.030 A 
HETATM    8  C   UNL     1      -0.823   6.059 -32.354  1.00  0.00     0.063 A 
HETATM    9  C   UNL     1      -0.903   6.494 -30.163  1.00  0.00     0.156 A 
HETATM   10  N   UNL     1       0.077   7.014 -31.973  1.00  0.00    -0.277 N 
HETATM   11  C   UNL     1      -1.115   5.507 -33.602  1.00  0.00     0.034 A 
HETATM   12  H   UNL     1       0.732   7.512 -32.565  1.00  0.00     0.189 HD
HETATM   13  N   UNL     1       0.054   7.309 -30.663  1.00  0.00    -0.168 NA
HETATM   14  C   UNL     1      -2.124   4.536 -33.649  1.00  0.00     0.032 A 
BRANCH   9  15
HETATM   15  C   UNL     1      -1.256   6.520 -28.737  1.00  0.00     0.270 C 
HETATM   16  N   UNL     1      -0.372   5.855 -27.930  1.00  0.00    -0.365 N 
HETATM   17  H   UNL     1       0.439   5.419 -28.353  1.00  0.00     0.159 HD
HETATM   18  H   UNL     1      -0.520   5.841 -26.934  1.00  0.00     0.159 HD
HETATM   19  O   UNL     1      -2.239   7.085 -28.270  1.00  0.00    -0.266 OA
ENDBRANCH   9  15
ENDBRANCH   2   5
BRANCH   1  20
HETATM   20  C   UNL     1      -5.064   1.122 -32.472  1.00  0.00     0.074 A 
HETATM   21  C   UNL     1      -6.352   1.569 -32.202  1.00  0.00     0.066 A 
HETATM   22  C   UNL     1      -6.885   2.782 -31.542  1.00  0.00     0.078 C 
HETATM   23  O   UNL     1      -7.278   0.694 -32.675  1.00  0.00    -0.314 OA
HETATM   24  C   UNL     1      -6.602  -0.346 -33.226  1.00  0.00     0.087 A 
HETATM   25  C   UNL     1      -5.230  -0.154 -33.116  1.00  0.00     0.019 A 
HETATM   26  C   UNL     1      -7.200  -1.459 -33.810  1.00  0.00     0.041 A 
HETATM   27  C   UNL     1      -4.382  -1.179 -33.602  1.00  0.00     0.052 A 
HETATM   28  C   UNL     1      -4.949  -2.311 -34.211  1.00  0.00     0.069 A 
HETATM   29  C   UNL     1      -6.339  -2.439 -34.308  1.00  0.00     0.039 A 
BRANCH  28  30
HETATM   30  O   UNL     1      -4.252  -3.364 -34.740  1.00  0.00    -0.356 OA
HETATM   31  C   UNL     1      -4.621  -4.669 -34.313  1.00  0.00     0.210 C 
ENDBRANCH  28  30
ENDBRANCH   1  20
TORSDOF 4
ENDMDL
MODEL 7
REMARK VINA RESULT:      -8.4      2.597      4.511
REMARK  4 active torsions:
REMARK  status: ('A' for Active; 'I' for Inactive)
REMARK    1  A    between atoms: C_6  and  C_7 
REMARK       I    between atoms: C_7  and  N_8 
REMARK    2  A    between atoms: N_8  and  C_9 
REMARK    3  A    between atoms: C_16  and  C_17 
REMARK       I    between atoms: C_17  and  N_18 
REMARK    4  A    between atoms: C_25  and  O_26 
ROOT
HETATM    1  C   UNL     1      -8.294   0.750 -32.347  1.00  0.00     0.259 C 
HETATM    2  N   UNL     1      -8.455   1.445 -33.530  1.00  0.00    -0.323 N 
HETATM    3  O   UNL     1      -9.170   0.548 -31.515  1.00  0.00    -0.267 OA
HETATM    4  H   UNL     1      -7.659   1.465 -34.150  1.00  0.00     0.169 HD
ENDROOT
BRANCH   2   5
HETATM    5  C   UNL     1      -9.629   2.061 -34.020  1.00  0.00     0.036 A 
HETATM    6  C   UNL     1      -9.777   3.445 -34.186  1.00  0.00     0.046 A 
HETATM    7  C   UNL     1     -11.003   3.965 -34.657  1.00  0.00     0.030 A 
HETATM    8  C   UNL     1     -12.030   3.085 -34.969  1.00  0.00     0.063 A 
HETATM    9  C   UNL     1     -11.539   5.264 -34.915  1.00  0.00     0.156 A 
HETATM   10  N   UNL     1     -13.064   3.869 -35.398  1.00  0.00    -0.277 N 
HETATM   11  C   UNL     1     -11.915   1.701 -34.828  1.00  0.00     0.034 A 
HETATM   12  H   UNL     1     -13.977   3.564 -35.714  1.00  0.00     0.189 HD
HETATM   13  N   UNL     1     -12.809   5.187 -35.373  1.00  0.00    -0.168 NA
HETATM   14  C   UNL     1     -10.697   1.210 -34.340  1.00  0.00     0.032 A 
BRANCH   9  15
HETATM   15  C   UNL     1     -10.877   6.561 -34.722  1.00  0.00     0.270 C 
HETATM   16  N   UNL     1      -9.983   6.886 -35.707  1.00  0.00    -0.365 N 
HETATM   17  H   UNL     1      -9.856   6.241 -36.478  1.00  0.00     0.159 HD
HETATM   18  H   UNL     1      -9.500   7.769 -35.671  1.00  0.00     0.159 HD
HETATM   19  O   UNL     1     -11.085   7.320 -33.781  1.00  0.00    -0.266 OA
ENDBRANCH   9  15
ENDBRANCH   2   5
BRANCH   1  20
HETATM   20  C   UNL     1      -6.952   0.204 -32.158  1.00  0.00     0.074 A 
HETATM   21  C   UNL     1      -6.086   0.648 -31.166  1.00  0.00     0.066 A 
HETATM   22  C   UNL     1      -6.197   1.683 -30.113  1.00  0.00     0.078 C 
HETATM   23  O   UNL     1      -4.920  -0.050 -31.193  1.00  0.00    -0.314 OA
HETATM   24  C   UNL     1      -5.003  -0.929 -32.222  1.00  0.00     0.087 A 
HETATM   25  C   UNL     1      -6.226  -0.811 -32.873  1.00  0.00     0.019 A 
HETATM   26  C   UNL     1      -3.998  -1.821 -32.586  1.00  0.00     0.041 A 
HETATM   27  C   UNL     1      -6.449  -1.631 -34.006  1.00  0.00     0.052 A 
HETATM   28  C   UNL     1      -5.463  -2.553 -34.394  1.00  0.00     0.069 A 
HETATM   29  C   UNL     1      -4.259  -2.638 -33.688  1.00  0.00     0.039 A 
BRANCH  28  30
HETATM   30  O   UNL     1      -5.553  -3.417 -35.453  1.00  0.00    -0.356 OA
HETATM   31  C   UNL     1      -6.496  -4.476 -35.350  1.00  0.00     0.210 C 
ENDBRANCH  28  30
ENDBRANCH   1  20
TORSDOF 4
ENDMDL
MODEL 8
REMARK VINA RESULT:      -8.1      3.265      8.524
REMARK  4 active torsions:
REMARK  status: ('A' for Active; 'I' for Inactive)
REMARK    1  A    between atoms: C_6  and  C_7 
REMARK       I    between atoms: C_7  and  N_8 
REMARK    2  A    between atoms: N_8  and  C_9 
REMARK    3  A    between atoms: C_16  and  C_17 
REMARK       I    between atoms: C_17  and  N_18 
REMARK    4  A    between atoms: C_25  and  O_26 
ROOT
HETATM    1  C   UNL     1      -7.863   2.258 -32.458  1.00  0.00     0.259 C 
HETATM    2  N   UNL     1      -7.992   0.885 -32.360  1.00  0.00    -0.323 N 
HETATM    3  O   UNL     1      -7.037   2.848 -33.142  1.00  0.00    -0.267 OA
HETATM    4  H   UNL     1      -8.769   0.546 -31.812  1.00  0.00     0.169 HD
ENDROOT
BRANCH   2   5
HETATM    5  C   UNL     1      -7.217  -0.106 -33.004  1.00  0.00     0.036 A 
HETATM    6  C   UNL     1      -6.010  -0.607 -32.498  1.00  0.00     0.046 A 
HETATM    7  C   UNL     1      -5.294  -1.578 -33.234  1.00  0.00     0.030 A 
HETATM    8  C   UNL     1      -5.820  -2.032 -34.436  1.00  0.00     0.063 A 
HETATM    9  C   UNL     1      -4.060  -2.282 -33.082  1.00  0.00     0.156 A 
HETATM   10  N   UNL     1      -4.924  -2.954 -34.900  1.00  0.00    -0.277 N 
HETATM   11  C   UNL     1      -7.024  -1.564 -34.965  1.00  0.00     0.034 A 
HETATM   12  H   UNL     1      -4.986  -3.496 -35.755  1.00  0.00     0.189 HD
HETATM   13  N   UNL     1      -3.848  -3.127 -34.116  1.00  0.00    -0.168 NA
HETATM   14  C   UNL     1      -7.705  -0.586 -34.228  1.00  0.00     0.032 A 
BRANCH   9  15
HETATM   15  C   UNL     1      -3.084  -2.154 -31.990  1.00  0.00     0.270 C 
HETATM   16  N   UNL     1      -2.703  -3.348 -31.439  1.00  0.00    -0.365 N 
HETATM   17  H   UNL     1      -3.093  -4.204 -31.816  1.00  0.00     0.159 HD
HETATM   18  H   UNL     1      -2.018  -3.359 -30.700  1.00  0.00     0.159 HD
HETATM   19  O   UNL     1      -2.621  -1.093 -31.587  1.00  0.00    -0.266 OA
ENDBRANCH   9  15
ENDBRANCH   2   5
BRANCH   1  20
HETATM   20  C   UNL     1      -8.855   3.002 -31.686  1.00  0.00     0.074 A 
HETATM   21  C   UNL     1      -8.552   3.670 -30.505  1.00  0.00     0.066 A 
HETATM   22  C   UNL     1      -7.304   3.831 -29.725  1.00  0.00     0.078 C 
HETATM   23  O   UNL     1      -9.647   4.306 -30.013  1.00  0.00    -0.314 OA
HETATM   24  C   UNL     1     -10.679   4.030 -30.848  1.00  0.00     0.087 A 
HETATM   25  C   UNL     1     -10.263   3.213 -31.892  1.00  0.00     0.019 A 
HETATM   26  C   UNL     1     -11.982   4.492 -30.677  1.00  0.00     0.041 A 
HETATM   27  C   UNL     1     -11.241   2.793 -32.827  1.00  0.00     0.052 A 
HETATM   28  C   UNL     1     -12.562   3.250 -32.695  1.00  0.00     0.069 A 
HETATM   29  C   UNL     1     -12.916   4.086 -31.632  1.00  0.00     0.039 A 
BRANCH  28  30
HETATM   30  O   UNL     1     -13.599   2.941 -33.534  1.00  0.00    -0.356 OA
HETATM   31  C   UNL     1     -14.482   1.905 -33.123  1.00  0.00     0.210 C 
ENDBRANCH  28  30
ENDBRANCH   1  20
TORSDOF 4
ENDMDL
MODEL 9
REMARK VINA RESULT:      -8.1      2.517      4.169
REMARK  4 active torsions:
REMARK  status: ('A' for Active; 'I' for Inactive)
REMARK    1  A    between atoms: C_6  and  C_7 
REMARK       I    between atoms: C_7  and  N_8 
REMARK    2  A    between atoms: N_8  and  C_9 
REMARK    3  A    between atoms: C_16  and  C_17 
REMARK       I    between atoms: C_17  and  N_18 
REMARK    4  A    between atoms: C_25  and  O_26 
ROOT
HETATM    1  C   UNL     1      -8.221   0.721 -32.159  1.00  0.00     0.259 C 
HETATM    2  N   UNL     1      -8.673   1.548 -33.169  1.00  0.00    -0.323 N 
HETATM    3  O   UNL     1      -8.906   0.262 -31.254  1.00  0.00    -0.267 OA
HETATM    4  H   UNL     1      -8.004   1.785 -33.887  1.00  0.00     0.169 HD
ENDROOT
BRANCH   2   5
HETATM    5  C   UNL     1      -9.985   2.033 -33.369  1.00  0.00     0.036 A 
HETATM    6  C   UNL     1     -10.644   2.894 -32.481  1.00  0.00     0.046 A 
HETATM    7  C   UNL     1     -11.969   3.301 -32.756  1.00  0.00     0.030 A 
HETATM    8  C   UNL     1     -12.581   2.854 -33.920  1.00  0.00     0.063 A 
HETATM    9  C   UNL     1     -12.954   4.109 -32.108  1.00  0.00     0.156 A 
HETATM   10  N   UNL     1     -13.828   3.413 -33.913  1.00  0.00    -0.277 N 
HETATM   11  C   UNL     1     -11.951   2.006 -34.833  1.00  0.00     0.034 A 
HETATM   12  H   UNL     1     -14.552   3.307 -34.614  1.00  0.00     0.189 HD
HETATM   13  N   UNL     1     -14.093   4.169 -32.835  1.00  0.00    -0.168 NA
HETATM   14  C   UNL     1     -10.646   1.599 -34.527  1.00  0.00     0.032 A 
BRANCH   9  15
HETATM   15  C   UNL     1     -12.836   4.804 -30.819  1.00  0.00     0.270 C 
HETATM   16  N   UNL     1     -12.784   3.969 -29.736  1.00  0.00    -0.365 N 
HETATM   17  H   UNL     1     -12.815   2.968 -29.893  1.00  0.00     0.159 HD
HETATM   18  H   UNL     1     -12.679   4.356 -28.812  1.00  0.00     0.159 HD
HETATM   19  O   UNL     1     -12.776   6.021 -30.684  1.00  0.00    -0.266 OA
ENDBRANCH   9  15
ENDBRANCH   2   5
BRANCH   1  20
HETATM   20  C   UNL     1      -6.805   0.374 -32.266  1.00  0.00     0.074 A 
HETATM   21  C   UNL     1      -5.803   1.065 -31.596  1.00  0.00     0.066 A 
HETATM   22  C   UNL     1      -5.813   2.229 -30.682  1.00  0.00     0.078 C 
HETATM   23  O   UNL     1      -4.586   0.515 -31.845  1.00  0.00    -0.314 OA
HETATM   24  C   UNL     1      -4.780  -0.516 -32.704  1.00  0.00     0.087 A 
HETATM   25  C   UNL     1      -6.128  -0.646 -33.020  1.00  0.00     0.019 A 
HETATM   26  C   UNL     1      -3.768  -1.327 -33.211  1.00  0.00     0.041 A 
HETATM   27  C   UNL     1      -6.490  -1.651 -33.950  1.00  0.00     0.052 A 
HETATM   28  C   UNL     1      -5.498  -2.498 -34.471  1.00  0.00     0.069 A 
HETATM   29  C   UNL     1      -4.160  -2.329 -34.101  1.00  0.00     0.039 A 
BRANCH  28  30
HETATM   30  O   UNL     1      -5.709  -3.520 -35.358  1.00  0.00    -0.356 OA
HETATM   31  C   UNL     1      -6.777  -4.415 -35.078  1.00  0.00     0.210 C 
ENDBRANCH  28  30
ENDBRANCH   1  20
TORSDOF 4
ENDMDL
MODEL 10
REMARK VINA RESULT:      -8.1      4.374      9.088
REMARK  4 active torsions:
REMARK  status: ('A' for Active; 'I' for Inactive)
REMARK    1  A    between atoms: C_6  and  C_7 
REMARK       I    between atoms: C_7  and  N_8 
REMARK    2  A    between atoms: N_8  and  C_9 
REMARK    3  A    between atoms: C_16  and  C_17 
REMARK       I    between atoms: C_17  and  N_18 
REMARK    4  A    between atoms: C_25  and  O_26 
ROOT
HETATM    1  C   UNL     1      -5.038   2.503 -31.857  1.00  0.00     0.259 C 
HETATM    2  N   UNL     1      -4.348   3.048 -32.923  1.00  0.00    -0.323 N 
HETATM    3  O   UNL     1      -4.946   2.864 -30.691  1.00  0.00    -0.267 OA
HETATM    4  H   UNL     1      -4.585   2.693 -33.838  1.00  0.00     0.169 HD
ENDROOT
BRANCH   2   5
HETATM    5  C   UNL     1      -3.411   4.105 -32.899  1.00  0.00     0.036 A 
HETATM    6  C   UNL     1      -2.349   4.189 -31.988  1.00  0.00     0.046 A 
HETATM    7  C   UNL     1      -1.481   5.303 -32.027  1.00  0.00     0.030 A 
HETATM    8  C   UNL     1      -1.689   6.282 -32.988  1.00  0.00     0.063 A 
HETATM    9  C   UNL     1      -0.352   5.755 -31.277  1.00  0.00     0.156 A 
HETATM   10  N   UNL     1      -0.704   7.208 -32.784  1.00  0.00    -0.277 N 
HETATM   11  C   UNL     1      -2.728   6.227 -33.919  1.00  0.00     0.034 A 
HETATM   12  H   UNL     1      -0.544   8.061 -33.307  1.00  0.00     0.189 HD
HETATM   13  N   UNL     1       0.116   6.929 -31.758  1.00  0.00    -0.168 NA
HETATM   14  C   UNL     1      -3.588   5.123 -33.847  1.00  0.00     0.032 A 
BRANCH   9  15
HETATM   15  C   UNL     1       0.272   5.105 -30.117  1.00  0.00     0.270 C 
HETATM   16  N   UNL     1      -0.226   5.516 -28.909  1.00  0.00    -0.365 N 
HETATM   17  H   UNL     1      -0.971   6.203 -28.900  1.00  0.00     0.159 HD
HETATM   18  H   UNL     1       0.126   5.105 -28.059  1.00  0.00     0.159 HD
HETATM   19  O   UNL     1       1.156   4.257 -30.182  1.00  0.00    -0.266 OA
ENDBRANCH   9  15
ENDBRANCH   2   5
BRANCH   1  20
HETATM   20  C   UNL     1      -5.966   1.439 -32.234  1.00  0.00     0.074 A 
HETATM   21  C   UNL     1      -5.563   0.131 -32.475  1.00  0.00     0.066 A 
HETATM   22  C   UNL     1      -4.245  -0.543 -32.450  1.00  0.00     0.078 C 
HETATM   23  O   UNL     1      -6.629  -0.657 -32.773  1.00  0.00    -0.314 OA
HETATM   24  C   UNL     1      -7.729   0.135 -32.761  1.00  0.00     0.087 A 
HETATM   25  C   UNL     1      -7.388   1.447 -32.454  1.00  0.00     0.019 A 
HETATM   26  C   UNL     1      -9.023  -0.302 -33.032  1.00  0.00     0.041 A 
HETATM   27  C   UNL     1      -8.425   2.412 -32.451  1.00  0.00     0.052 A 
HETATM   28  C   UNL     1      -9.745   2.006 -32.705  1.00  0.00     0.069 A 
HETATM   29  C   UNL     1     -10.029   0.666 -32.991  1.00  0.00     0.039 A 
BRANCH  28  30
HETATM   30  O   UNL     1     -10.842   2.824 -32.714  1.00  0.00    -0.356 OA
HETATM   31  C   UNL     1     -11.992   2.364 -33.413  1.00  0.00     0.210 C 
ENDBRANCH  28  30
ENDBRANCH   1  20
TORSDOF 4
ENDMDL
