MODEL 1
REMARK VINA RESULT:      -8.6      0.000      0.000
REMARK  10 active torsions:
REMARK  status: ('A' for Active; 'I' for Inactive)
REMARK    1  A    between atoms: C_2  and  C_3 
REMARK    2  A    between atoms: C_3  and  O_4 
REMARK    3  A    between atoms: O_4  and  C_5 
REMARK    4  A    between atoms: C_7  and  C_8 
REMARK       I    between atoms: C_8  and  N_9 
REMARK    5  A    between atoms: N_9  and  C_10 
REMARK    6  A    between atoms: C_10  and  N_11 
REMARK    7  A    between atoms: N_11  and  C_12 
REMARK    8  A    between atoms: C_15  and  N_16 
REMARK    9  A    between atoms: N_19  and  C_21 
REMARK   10  A    between atoms: C_21  and  C_22 
ROOT
HETATM    1  C   UNL     1      -6.313   5.929 -30.144  1.00  0.00     0.034 A 
HETATM    2  C   UNL     1      -6.432   4.691 -29.514  1.00  0.00     0.032 A 
HETATM    3  C   UNL     1      -6.459   3.509 -30.266  1.00  0.00     0.031 A 
HETATM    4  C   UNL     1      -6.402   3.522 -31.668  1.00  0.00     0.030 A 
HETATM    5  C   UNL     1      -6.332   4.781 -32.282  1.00  0.00     0.031 A 
HETATM    6  C   UNL     1      -6.293   5.969 -31.535  1.00  0.00     0.032 A 
ENDROOT
BRANCH   1   7
HETATM    7  N   UNL     1      -6.287   7.074 -29.326  1.00  0.00    -0.333 N 
HETATM    8  H   UNL     1      -7.134   7.632 -29.349  1.00  0.00     0.168 HD
BRANCH   7   9
HETATM    9  C   UNL     1      -5.242   7.704 -28.745  1.00  0.00     0.179 C 
HETATM   10  S   UNL     1      -5.510   8.599 -27.356  1.00  0.00    -0.040 SA
BRANCH   9  11
HETATM   11  N   UNL     1      -3.957   7.581 -29.181  1.00  0.00    -0.299 N 
HETATM   12  C   UNL     1      -3.180   8.510 -29.872  1.00  0.00     0.257 C 
HETATM   13  O   UNL     1      -3.249   9.730 -29.811  1.00  0.00    -0.267 OA
HETATM   14  H   UNL     1      -3.729   6.612 -29.364  1.00  0.00     0.171 HD
BRANCH  12  15
HETATM   15  C   UNL     1      -2.100   7.912 -30.698  1.00  0.00     0.035 A 
HETATM   16  C   UNL     1      -2.245   7.763 -32.084  1.00  0.00     0.053 A 
HETATM   17  C   UNL     1      -1.200   7.211 -32.824  1.00  0.00     0.069 A 
HETATM   18  C   UNL     1      -0.037   6.778 -32.185  1.00  0.00     0.037 A 
HETATM   19  C   UNL     1       0.117   6.950 -30.810  1.00  0.00     0.004 A 
HETATM   20  C   UNL     1      -0.910   7.529 -30.065  1.00  0.00     0.017 A 
BRANCH  17  21
HETATM   21  O   UNL     1      -1.254   7.013 -34.175  1.00  0.00    -0.351 OA
BRANCH  21  22
HETATM   22  C   UNL     1      -1.255   5.633 -34.562  1.00  0.00     0.175 C 
BRANCH  22  23
HETATM   23  C   UNL     1      -2.662   5.089 -34.329  1.00  0.00     0.022 C 
HETATM   24  C   UNL     1      -2.691   4.045 -33.228  1.00  0.00     0.007 C 
ENDBRANCH  22  23
ENDBRANCH  21  22
ENDBRANCH  17  21
ENDBRANCH  12  15
ENDBRANCH   9  11
ENDBRANCH   7   9
ENDBRANCH   1   7
BRANCH   4  25
HETATM   25  N   UNL     1      -6.350   2.317 -32.377  1.00  0.00    -0.378 N 
HETATM   26  C   UNL     1      -6.142   2.421 -33.834  1.00  0.00     0.150 C 
HETATM   27  C   UNL     1      -6.650   1.139 -34.528  1.00  0.00     0.255 C 
HETATM   28  N   UNL     1      -6.009  -0.108 -33.924  1.00  0.00    -0.064 N 
HETATM   29  H   UNL     1      -4.997  -0.048 -34.105  1.00  0.00     0.280 HD
HETATM   30  C   UNL     1      -6.203  -0.148 -32.409  1.00  0.00     0.255 C 
HETATM   31  C   UNL     1      -5.705   1.153 -31.749  1.00  0.00     0.150 C 
BRANCH  28  32
HETATM   32  C   UNL     1      -6.500  -1.363 -34.605  1.00  0.00     0.276 C 
BRANCH  32  33
HETATM   33  C   UNL     1      -5.634  -2.564 -34.366  1.00  0.00     0.006 A 
HETATM   34  C   UNL     1      -6.060  -3.822 -34.804  1.00  0.00     0.124 A 
HETATM   35  F   UNL     1      -7.220  -3.917 -35.469  1.00  0.00    -0.206 F 
HETATM   36  C   UNL     1      -5.293  -4.963 -34.602  1.00  0.00     0.043 A 
HETATM   37  C   UNL     1      -4.069  -4.853 -33.944  1.00  0.00     0.003 A 
HETATM   38  C   UNL     1      -3.626  -3.608 -33.498  1.00  0.00     0.001 A 
HETATM   39  C   UNL     1      -4.404  -2.465 -33.703  1.00  0.00     0.012 A 
ENDBRANCH  32  33
ENDBRANCH  28  32
ENDBRANCH   4  25
TORSDOF 10
ENDMDL
MODEL 2
REMARK VINA RESULT:      -8.6      6.081     11.906
REMARK  10 active torsions:
REMARK  status: ('A' for Active; 'I' for Inactive)
REMARK    1  A    between atoms: C_2  and  C_3 
REMARK    2  A    between atoms: C_3  and  O_4 
REMARK    3  A    between atoms: O_4  and  C_5 
REMARK    4  A    between atoms: C_7  and  C_8 
REMARK       I    between atoms: C_8  and  N_9 
REMARK    5  A    between atoms: N_9  and  C_10 
REMARK    6  A    between atoms: C_10  and  N_11 
REMARK    7  A    between atoms: N_11  and  C_12 
REMARK    8  A    between atoms: C_15  and  N_16 
REMARK    9  A    between atoms: N_19  and  C_21 
REMARK   10  A    between atoms: C_21  and  C_22 
ROOT
HETATM    1  C   UNL     1      -0.711   5.560 -31.192  1.00  0.00     0.034 A 
HETATM    2  C   UNL     1      -1.184   6.852 -30.970  1.00  0.00     0.032 A 
HETATM    3  C   UNL     1      -0.776   7.575 -29.841  1.00  0.00     0.031 A 
HETATM    4  C   UNL     1       0.089   7.026 -28.882  1.00  0.00     0.030 A 
HETATM    5  C   UNL     1       0.514   5.708 -29.102  1.00  0.00     0.031 A 
HETATM    6  C   UNL     1       0.117   4.981 -30.236  1.00  0.00     0.032 A 
ENDROOT
BRANCH   1   7
HETATM    7  N   UNL     1      -1.159   4.895 -32.349  1.00  0.00    -0.333 N 
HETATM    8  H   UNL     1      -0.429   4.435 -32.883  1.00  0.00     0.168 HD
BRANCH   7   9
HETATM    9  C   UNL     1      -2.329   5.001 -33.015  1.00  0.00     0.179 C 
HETATM   10  S   UNL     1      -2.446   6.102 -34.271  1.00  0.00    -0.040 SA
BRANCH   9  11
HETATM   11  N   UNL     1      -3.403   4.196 -32.776  1.00  0.00    -0.299 N 
HETATM   12  C   UNL     1      -3.441   2.972 -32.109  1.00  0.00     0.257 C 
HETATM   13  O   UNL     1      -2.710   2.595 -31.204  1.00  0.00    -0.267 OA
HETATM   14  H   UNL     1      -4.110   4.317 -33.490  1.00  0.00     0.171 HD
BRANCH  12  15
HETATM   15  C   UNL     1      -4.567   2.090 -32.512  1.00  0.00     0.035 A 
HETATM   16  C   UNL     1      -4.398   0.703 -32.621  1.00  0.00     0.053 A 
HETATM   17  C   UNL     1      -5.485  -0.089 -32.987  1.00  0.00     0.069 A 
HETATM   18  C   UNL     1      -6.718   0.496 -33.277  1.00  0.00     0.037 A 
HETATM   19  C   UNL     1      -6.892   1.873 -33.143  1.00  0.00     0.004 A 
HETATM   20  C   UNL     1      -5.819   2.672 -32.749  1.00  0.00     0.017 A 
BRANCH  17  21
HETATM   21  O   UNL     1      -5.414  -1.447 -33.133  1.00  0.00    -0.351 OA
BRANCH  21  22
HETATM   22  C   UNL     1      -6.318  -1.975 -34.112  1.00  0.00     0.175 C 
BRANCH  22  23
HETATM   23  C   UNL     1      -5.639  -3.174 -34.769  1.00  0.00     0.022 C 
HETATM   24  C   UNL     1      -6.641  -4.241 -35.169  1.00  0.00     0.007 C 
ENDBRANCH  22  23
ENDBRANCH  21  22
ENDBRANCH  17  21
ENDBRANCH  12  15
ENDBRANCH   9  11
ENDBRANCH   7   9
ENDBRANCH   1   7
BRANCH   4  25
HETATM   25  N   UNL     1       0.536   7.809 -27.813  1.00  0.00    -0.378 N 
HETATM   26  C   UNL     1      -0.143   9.104 -27.617  1.00  0.00     0.150 C 
HETATM   27  C   UNL     1       0.770  10.059 -26.819  1.00  0.00     0.255 C 
HETATM   28  N   UNL     1       1.223   9.422 -25.508  1.00  0.00    -0.064 N 
HETATM   29  H   UNL     1       0.381   9.266 -24.938  1.00  0.00     0.280 HD
HETATM   30  C   UNL     1       1.873   8.061 -25.752  1.00  0.00     0.255 C 
HETATM   31  C   UNL     1       0.945   7.140 -26.567  1.00  0.00     0.150 C 
BRANCH  28  32
HETATM   32  C   UNL     1       2.112  10.357 -24.721  1.00  0.00     0.276 C 
BRANCH  32  33
HETATM   33  C   UNL     1       3.052   9.659 -23.784  1.00  0.00     0.006 A 
HETATM   34  C   UNL     1       2.576   9.173 -22.563  1.00  0.00     0.124 A 
HETATM   35  F   UNL     1       1.273   9.306 -22.276  1.00  0.00    -0.206 F 
HETATM   36  C   UNL     1       3.411   8.523 -21.661  1.00  0.00     0.043 A 
HETATM   37  C   UNL     1       4.757   8.353 -21.981  1.00  0.00     0.003 A 
HETATM   38  C   UNL     1       5.253   8.832 -23.194  1.00  0.00     0.001 A 
HETATM   39  C   UNL     1       4.407   9.486 -24.093  1.00  0.00     0.012 A 
ENDBRANCH  32  33
ENDBRANCH  28  32
ENDBRANCH   4  25
TORSDOF 10
ENDMDL
MODEL 3
REMARK VINA RESULT:      -8.5      1.232      1.557
REMARK  10 active torsions:
REMARK  status: ('A' for Active; 'I' for Inactive)
REMARK    1  A    between atoms: C_2  and  C_3 
REMARK    2  A    between atoms: C_3  and  O_4 
REMARK    3  A    between atoms: O_4  and  C_5 
REMARK    4  A    between atoms: C_7  and  C_8 
REMARK       I    between atoms: C_8  and  N_9 
REMARK    5  A    between atoms: N_9  and  C_10 
REMARK    6  A    between atoms: C_10  and  N_11 
REMARK    7  A    between atoms: N_11  and  C_12 
REMARK    8  A    between atoms: C_15  and  N_16 
REMARK    9  A    between atoms: N_19  and  C_21 
REMARK   10  A    between atoms: C_21  and  C_22 
ROOT
HETATM    1  C   UNL     1      -6.223   5.781 -29.599  1.00  0.00     0.034 A 
HETATM    2  C   UNL     1      -6.443   4.505 -29.081  1.00  0.00     0.032 A 
HETATM    3  C   UNL     1      -6.548   3.399 -29.935  1.00  0.00     0.031 A 
HETATM    4  C   UNL     1      -6.472   3.530 -31.330  1.00  0.00     0.030 A 
HETATM    5  C   UNL     1      -6.299   4.829 -31.830  1.00  0.00     0.031 A 
HETATM    6  C   UNL     1      -6.181   5.941 -30.980  1.00  0.00     0.032 A 
ENDROOT
BRANCH   1   7
HETATM    7  N   UNL     1      -6.122   6.844 -28.683  1.00  0.00    -0.333 N 
HETATM    8  H   UNL     1      -6.955   7.417 -28.604  1.00  0.00     0.168 HD
BRANCH   7   9
HETATM    9  C   UNL     1      -5.030   7.398 -28.111  1.00  0.00     0.179 C 
HETATM   10  S   UNL     1      -5.237   8.431 -26.809  1.00  0.00    -0.040 SA
BRANCH   9  11
HETATM   11  N   UNL     1      -3.754   7.094 -28.482  1.00  0.00    -0.299 N 
HETATM   12  C   UNL     1      -2.825   7.899 -29.139  1.00  0.00     0.257 C 
HETATM   13  O   UNL     1      -2.729   9.117 -29.091  1.00  0.00    -0.267 OA
HETATM   14  H   UNL     1      -3.653   6.101 -28.646  1.00  0.00     0.171 HD
BRANCH  12  15
HETATM   15  C   UNL     1      -1.799   7.146 -29.906  1.00  0.00     0.035 A 
HETATM   16  C   UNL     1      -2.161   6.121 -30.791  1.00  0.00     0.053 A 
HETATM   17  C   UNL     1      -1.167   5.451 -31.503  1.00  0.00     0.069 A 
HETATM   18  C   UNL     1       0.177   5.774 -31.309  1.00  0.00     0.037 A 
HETATM   19  C   UNL     1       0.535   6.811 -30.449  1.00  0.00     0.004 A 
HETATM   20  C   UNL     1      -0.454   7.508 -29.754  1.00  0.00     0.017 A 
BRANCH  17  21
HETATM   21  O   UNL     1      -1.422   4.430 -32.375  1.00  0.00    -0.351 OA
BRANCH  21  22
HETATM   22  C   UNL     1      -2.715   4.497 -32.987  1.00  0.00     0.175 C 
BRANCH  22  23
HETATM   23  C   UNL     1      -2.602   5.400 -34.212  1.00  0.00     0.022 C 
HETATM   24  C   UNL     1      -3.764   5.204 -35.169  1.00  0.00     0.007 C 
ENDBRANCH  22  23
ENDBRANCH  21  22
ENDBRANCH  17  21
ENDBRANCH  12  15
ENDBRANCH   9  11
ENDBRANCH   7   9
ENDBRANCH   1   7
BRANCH   4  25
HETATM   25  N   UNL     1      -6.501   2.392 -32.143  1.00  0.00    -0.378 N 
HETATM   26  C   UNL     1      -5.906   2.527 -33.485  1.00  0.00     0.150 C 
HETATM   27  C   UNL     1      -6.483   1.448 -34.426  1.00  0.00     0.255 C 
HETATM   28  N   UNL     1      -6.306   0.050 -33.837  1.00  0.00    -0.064 N 
HETATM   29  H   UNL     1      -5.295  -0.124 -33.764  1.00  0.00     0.280 HD
HETATM   30  C   UNL     1      -6.890  -0.031 -32.427  1.00  0.00     0.255 C 
HETATM   31  C   UNL     1      -6.309   1.072 -31.519  1.00  0.00     0.150 C 
BRANCH  28  32
HETATM   32  C   UNL     1      -6.865  -1.009 -34.757  1.00  0.00     0.276 C 
BRANCH  32  33
HETATM   33  C   UNL     1      -6.191  -2.342 -34.632  1.00  0.00     0.006 A 
HETATM   34  C   UNL     1      -4.826  -2.402 -34.336  1.00  0.00     0.124 A 
HETATM   35  F   UNL     1      -4.158  -1.258 -34.128  1.00  0.00    -0.206 F 
HETATM   36  C   UNL     1      -4.158  -3.614 -34.214  1.00  0.00     0.043 A 
HETATM   37  C   UNL     1      -4.865  -4.802 -34.392  1.00  0.00     0.003 A 
HETATM   38  C   UNL     1      -6.228  -4.765 -34.690  1.00  0.00     0.001 A 
HETATM   39  C   UNL     1      -6.891  -3.541 -34.813  1.00  0.00     0.012 A 
ENDBRANCH  32  33
ENDBRANCH  28  32
ENDBRANCH   4  25
TORSDOF 10
ENDMDL
MODEL 4
REMARK VINA RESULT:      -8.4      1.506      1.988
REMARK  10 active torsions:
REMARK  status: ('A' for Active; 'I' for Inactive)
REMARK    1  A    between atoms: C_2  and  C_3 
REMARK    2  A    between atoms: C_3  and  O_4 
REMARK    3  A    between atoms: O_4  and  C_5 
REMARK    4  A    between atoms: C_7  and  C_8 
REMARK       I    between atoms: C_8  and  N_9 
REMARK    5  A    between atoms: N_9  and  C_10 
REMARK    6  A    between atoms: C_10  and  N_11 
REMARK    7  A    between atoms: N_11  and  C_12 
REMARK    8  A    between atoms: C_15  and  N_16 
REMARK    9  A    between atoms: N_19  and  C_21 
REMARK   10  A    between atoms: C_21  and  C_22 
ROOT
HETATM    1  C   UNL     1      -7.107   5.836 -29.916  1.00  0.00     0.034 A 
HETATM    2  C   UNL     1      -6.996   4.573 -29.337  1.00  0.00     0.032 A 
HETATM    3  C   UNL     1      -6.996   3.422 -30.136  1.00  0.00     0.031 A 
HETATM    4  C   UNL     1      -7.139   3.487 -31.530  1.00  0.00     0.030 A 
HETATM    5  C   UNL     1      -7.297   4.766 -32.086  1.00  0.00     0.031 A 
HETATM    6  C   UNL     1      -7.287   5.925 -31.293  1.00  0.00     0.032 A 
ENDROOT
BRANCH   1   7
HETATM    7  N   UNL     1      -7.094   6.949 -29.054  1.00  0.00    -0.333 N 
HETATM    8  H   UNL     1      -8.008   7.235 -28.717  1.00  0.00     0.168 HD
BRANCH   7   9
HETATM    9  C   UNL     1      -6.125   7.862 -28.828  1.00  0.00     0.179 C 
HETATM   10  S   UNL     1      -6.436   9.125 -27.773  1.00  0.00    -0.040 SA
BRANCH   9  11
HETATM   11  N   UNL     1      -4.869   7.766 -29.348  1.00  0.00    -0.299 N 
HETATM   12  C   UNL     1      -4.380   8.292 -30.543  1.00  0.00     0.257 C 
HETATM   13  O   UNL     1      -4.752   9.306 -31.117  1.00  0.00    -0.267 OA
HETATM   14  H   UNL     1      -4.412   6.920 -29.033  1.00  0.00     0.171 HD
BRANCH  12  15
HETATM   15  C   UNL     1      -3.219   7.556 -31.106  1.00  0.00     0.035 A 
HETATM   16  C   UNL     1      -3.142   6.159 -31.035  1.00  0.00     0.053 A 
HETATM   17  C   UNL     1      -2.042   5.507 -31.590  1.00  0.00     0.069 A 
HETATM   18  C   UNL     1      -1.010   6.241 -32.177  1.00  0.00     0.037 A 
HETATM   19  C   UNL     1      -1.099   7.629 -32.270  1.00  0.00     0.004 A 
HETATM   20  C   UNL     1      -2.210   8.289 -31.745  1.00  0.00     0.017 A 
BRANCH  17  21
HETATM   21  O   UNL     1      -1.872   4.151 -31.557  1.00  0.00    -0.351 OA
BRANCH  21  22
HETATM   22  C   UNL     1      -2.915   3.418 -32.212  1.00  0.00     0.175 C 
BRANCH  22  23
HETATM   23  C   UNL     1      -3.512   2.452 -31.192  1.00  0.00     0.022 C 
HETATM   24  C   UNL     1      -3.354   1.005 -31.624  1.00  0.00     0.007 C 
ENDBRANCH  22  23
ENDBRANCH  21  22
ENDBRANCH  17  21
ENDBRANCH  12  15
ENDBRANCH   9  11
ENDBRANCH   7   9
ENDBRANCH   1   7
BRANCH   4  25
HETATM   25  N   UNL     1      -7.053   2.321 -32.298  1.00  0.00    -0.378 N 
HETATM   26  C   UNL     1      -6.260   2.409 -33.539  1.00  0.00     0.150 C 
HETATM   27  C   UNL     1      -6.696   1.298 -34.518  1.00  0.00     0.255 C 
HETATM   28  N   UNL     1      -6.620  -0.078 -33.862  1.00  0.00    -0.064 N 
HETATM   29  H   UNL     1      -5.632  -0.251 -33.631  1.00  0.00     0.280 HD
HETATM   30  C   UNL     1      -7.411  -0.109 -32.555  1.00  0.00     0.255 C 
HETATM   31  C   UNL     1      -6.966   1.024 -31.608  1.00  0.00     0.150 C 
BRANCH  28  32
HETATM   32  C   UNL     1      -7.040  -1.168 -34.819  1.00  0.00     0.276 C 
BRANCH  32  33
HETATM   33  C   UNL     1      -6.264  -2.442 -34.670  1.00  0.00     0.006 A 
HETATM   34  C   UNL     1      -4.918  -2.393 -34.294  1.00  0.00     0.124 A 
HETATM   35  F   UNL     1      -4.362  -1.201 -34.033  1.00  0.00    -0.206 F 
HETATM   36  C   UNL     1      -4.160  -3.548 -34.148  1.00  0.00     0.043 A 
HETATM   37  C   UNL     1      -4.753  -4.787 -34.382  1.00  0.00     0.003 A 
HETATM   38  C   UNL     1      -6.094  -4.859 -34.759  1.00  0.00     0.001 A 
HETATM   39  C   UNL     1      -6.849  -3.693 -34.907  1.00  0.00     0.012 A 
ENDBRANCH  32  33
ENDBRANCH  28  32
ENDBRANCH   4  25
TORSDOF 10
ENDMDL
MODEL 5
REMARK VINA RESULT:      -8.3      2.125      3.498
REMARK  10 active torsions:
REMARK  status: ('A' for Active; 'I' for Inactive)
REMARK    1  A    between atoms: C_2  and  C_3 
REMARK    2  A    between atoms: C_3  and  O_4 
REMARK    3  A    between atoms: O_4  and  C_5 
REMARK    4  A    between atoms: C_7  and  C_8 
REMARK       I    between atoms: C_8  and  N_9 
REMARK    5  A    between atoms: N_9  and  C_10 
REMARK    6  A    between atoms: C_10  and  N_11 
REMARK    7  A    between atoms: N_11  and  C_12 
REMARK    8  A    between atoms: C_15  and  N_16 
REMARK    9  A    between atoms: N_19  and  C_21 
REMARK   10  A    between atoms: C_21  and  C_22 
ROOT
HETATM    1  C   UNL     1      -5.335   7.933 -30.530  1.00  0.00     0.034 A 
HETATM    2  C   UNL     1      -5.073   6.879 -29.656  1.00  0.00     0.032 A 
HETATM    3  C   UNL     1      -5.376   5.561 -30.020  1.00  0.00     0.031 A 
HETATM    4  C   UNL     1      -5.979   5.251 -31.248  1.00  0.00     0.030 A 
HETATM    5  C   UNL     1      -6.278   6.332 -32.092  1.00  0.00     0.031 A 
HETATM    6  C   UNL     1      -5.966   7.655 -31.738  1.00  0.00     0.032 A 
ENDROOT
BRANCH   1   7
HETATM    7  N   UNL     1      -4.999   9.231 -30.102  1.00  0.00    -0.333 N 
HETATM    8  H   UNL     1      -5.781   9.875 -30.044  1.00  0.00     0.168 HD
BRANCH   7   9
HETATM    9  C   UNL     1      -3.794   9.838 -30.029  1.00  0.00     0.179 C 
HETATM   10  S   UNL     1      -3.737  11.491 -29.768  1.00  0.00    -0.040 SA
BRANCH   9  11
HETATM   11  N   UNL     1      -2.611   9.162 -30.071  1.00  0.00    -0.299 N 
HETATM   12  C   UNL     1      -1.992   8.561 -31.166  1.00  0.00     0.257 C 
HETATM   13  O   UNL     1      -2.067   8.895 -32.340  1.00  0.00    -0.267 OA
HETATM   14  H   UNL     1      -2.406   8.737 -29.176  1.00  0.00     0.171 HD
BRANCH  12  15
HETATM   15  C   UNL     1      -1.076   7.445 -30.814  1.00  0.00     0.035 A 
HETATM   16  C   UNL     1      -0.556   7.314 -29.519  1.00  0.00     0.053 A 
HETATM   17  C   UNL     1       0.287   6.243 -29.227  1.00  0.00     0.069 A 
HETATM   18  C   UNL     1       0.640   5.332 -30.224  1.00  0.00     0.037 A 
HETATM   19  C   UNL     1       0.102   5.448 -31.505  1.00  0.00     0.004 A 
HETATM   20  C   UNL     1      -0.767   6.499 -31.800  1.00  0.00     0.017 A 
BRANCH  17  21
HETATM   21  O   UNL     1       0.853   6.040 -27.999  1.00  0.00    -0.351 OA
BRANCH  21  22
HETATM   22  C   UNL     1       0.242   6.794 -26.945  1.00  0.00     0.175 C 
BRANCH  22  23
HETATM   23  C   UNL     1       1.336   7.615 -26.269  1.00  0.00     0.022 C 
HETATM   24  C   UNL     1       1.835   8.737 -27.161  1.00  0.00     0.007 C 
ENDBRANCH  22  23
ENDBRANCH  21  22
ENDBRANCH  17  21
ENDBRANCH  12  15
ENDBRANCH   9  11
ENDBRANCH   7   9
ENDBRANCH   1   7
BRANCH   4  25
HETATM   25  N   UNL     1      -6.192   3.916 -31.607  1.00  0.00    -0.378 N 
HETATM   26  C   UNL     1      -5.379   3.398 -32.723  1.00  0.00     0.150 C 
HETATM   27  C   UNL     1      -6.075   2.173 -33.354  1.00  0.00     0.255 C 
HETATM   28  N   UNL     1      -6.384   1.111 -32.302  1.00  0.00    -0.064 N 
HETATM   29  H   UNL     1      -5.484   0.784 -31.925  1.00  0.00     0.280 HD
HETATM   30  C   UNL     1      -7.182   1.702 -31.140  1.00  0.00     0.255 C 
HETATM   31  C   UNL     1      -6.471   2.933 -30.547  1.00  0.00     0.150 C 
BRANCH  28  32
HETATM   32  C   UNL     1      -7.060  -0.092 -32.917  1.00  0.00     0.276 C 
BRANCH  32  33
HETATM   33  C   UNL     1      -6.108  -1.138 -33.415  1.00  0.00     0.006 A 
HETATM   34  C   UNL     1      -6.451  -1.911 -34.528  1.00  0.00     0.124 A 
HETATM   35  F   UNL     1      -7.612  -1.668 -35.153  1.00  0.00    -0.206 F 
HETATM   36  C   UNL     1      -5.602  -2.894 -35.022  1.00  0.00     0.043 A 
HETATM   37  C   UNL     1      -4.378  -3.117 -34.393  1.00  0.00     0.003 A 
HETATM   38  C   UNL     1      -4.017  -2.357 -33.280  1.00  0.00     0.001 A 
HETATM   39  C   UNL     1      -4.878  -1.372 -32.788  1.00  0.00     0.012 A 
ENDBRANCH  32  33
ENDBRANCH  28  32
ENDBRANCH   4  25
TORSDOF 10
ENDMDL
MODEL 6
REMARK VINA RESULT:      -8.2      4.784      9.978
REMARK  10 active torsions:
REMARK  status: ('A' for Active; 'I' for Inactive)
REMARK    1  A    between atoms: C_2  and  C_3 
REMARK    2  A    between atoms: C_3  and  O_4 
REMARK    3  A    between atoms: O_4  and  C_5 
REMARK    4  A    between atoms: C_7  and  C_8 
REMARK       I    between atoms: C_8  and  N_9 
REMARK    5  A    between atoms: N_9  and  C_10 
REMARK    6  A    between atoms: C_10  and  N_11 
REMARK    7  A    between atoms: N_11  and  C_12 
REMARK    8  A    between atoms: C_15  and  N_16 
REMARK    9  A    between atoms: N_19  and  C_21 
REMARK   10  A    between atoms: C_21  and  C_22 
ROOT
HETATM    1  C   UNL     1      -9.195   3.920 -31.125  1.00  0.00     0.034 A 
HETATM    2  C   UNL     1      -9.075   5.306 -31.207  1.00  0.00     0.032 A 
HETATM    3  C   UNL     1      -8.015   5.967 -30.573  1.00  0.00     0.031 A 
HETATM    4  C   UNL     1      -7.060   5.277 -29.812  1.00  0.00     0.030 A 
HETATM    5  C   UNL     1      -7.228   3.888 -29.704  1.00  0.00     0.031 A 
HETATM    6  C   UNL     1      -8.281   3.217 -30.346  1.00  0.00     0.032 A 
ENDROOT
BRANCH   1   7
HETATM    7  N   UNL     1     -10.281   3.321 -31.791  1.00  0.00    -0.333 N 
HETATM    8  H   UNL     1     -11.115   3.209 -31.225  1.00  0.00     0.168 HD
BRANCH   7   9
HETATM    9  C   UNL     1     -10.314   2.622 -32.947  1.00  0.00     0.179 C 
HETATM   10  S   UNL     1     -11.515   2.964 -34.063  1.00  0.00    -0.040 SA
BRANCH   9  11
HETATM   11  N   UNL     1      -9.366   1.706 -33.296  1.00  0.00    -0.299 N 
HETATM   12  C   UNL     1      -9.268   0.369 -32.916  1.00  0.00     0.257 C 
HETATM   13  O   UNL     1     -10.182  -0.394 -32.635  1.00  0.00    -0.267 OA
HETATM   14  H   UNL     1      -8.485   2.160 -33.501  1.00  0.00     0.171 HD
BRANCH  12  15
HETATM   15  C   UNL     1      -7.887  -0.178 -32.954  1.00  0.00     0.035 A 
HETATM   16  C   UNL     1      -7.458  -0.990 -34.013  1.00  0.00     0.053 A 
HETATM   17  C   UNL     1      -6.149  -1.470 -34.017  1.00  0.00     0.069 A 
HETATM   18  C   UNL     1      -5.287  -1.174 -32.960  1.00  0.00     0.037 A 
HETATM   19  C   UNL     1      -5.706  -0.345 -31.921  1.00  0.00     0.004 A 
HETATM   20  C   UNL     1      -7.005   0.165 -31.922  1.00  0.00     0.017 A 
BRANCH  17  21
HETATM   21  O   UNL     1      -5.645  -2.279 -34.997  1.00  0.00    -0.351 OA
BRANCH  21  22
HETATM   22  C   UNL     1      -4.705  -3.251 -34.523  1.00  0.00     0.175 C 
BRANCH  22  23
HETATM   23  C   UNL     1      -5.366  -4.623 -34.628  1.00  0.00     0.022 C 
HETATM   24  C   UNL     1      -6.629  -4.580 -35.468  1.00  0.00     0.007 C 
ENDBRANCH  22  23
ENDBRANCH  21  22
ENDBRANCH  17  21
ENDBRANCH  12  15
ENDBRANCH   9  11
ENDBRANCH   7   9
ENDBRANCH   1   7
BRANCH   4  25
HETATM   25  N   UNL     1      -5.973   5.964 -29.262  1.00  0.00    -0.378 N 
HETATM   26  C   UNL     1      -5.579   5.584 -27.893  1.00  0.00     0.150 C 
HETATM   27  C   UNL     1      -4.792   6.737 -27.234  1.00  0.00     0.255 C 
HETATM   28  N   UNL     1      -3.606   7.160 -28.097  1.00  0.00    -0.064 N 
HETATM   29  H   UNL     1      -2.968   6.354 -28.153  1.00  0.00     0.280 HD
HETATM   30  C   UNL     1      -4.051   7.494 -29.520  1.00  0.00     0.255 C 
HETATM   31  C   UNL     1      -4.850   6.331 -30.141  1.00  0.00     0.150 C 
BRANCH  28  32
HETATM   32  C   UNL     1      -2.831   8.285 -27.453  1.00  0.00     0.276 C 
BRANCH  32  33
HETATM   33  C   UNL     1      -1.353   8.042 -27.379  1.00  0.00     0.006 A 
HETATM   34  C   UNL     1      -0.555   8.279 -28.502  1.00  0.00     0.124 A 
HETATM   35  F   UNL     1      -1.130   8.761 -29.614  1.00  0.00    -0.206 F 
HETATM   36  C   UNL     1       0.817   8.064 -28.480  1.00  0.00     0.043 A 
HETATM   37  C   UNL     1       1.416   7.600 -27.310  1.00  0.00     0.003 A 
HETATM   38  C   UNL     1       0.638   7.356 -26.178  1.00  0.00     0.001 A 
HETATM   39  C   UNL     1      -0.742   7.572 -26.209  1.00  0.00     0.012 A 
ENDBRANCH  32  33
ENDBRANCH  28  32
ENDBRANCH   4  25
TORSDOF 10
ENDMDL
MODEL 7
REMARK VINA RESULT:      -8.2      4.247      9.337
REMARK  10 active torsions:
REMARK  status: ('A' for Active; 'I' for Inactive)
REMARK    1  A    between atoms: C_2  and  C_3 
REMARK    2  A    between atoms: C_3  and  O_4 
REMARK    3  A    between atoms: O_4  and  C_5 
REMARK    4  A    between atoms: C_7  and  C_8 
REMARK       I    between atoms: C_8  and  N_9 
REMARK    5  A    between atoms: N_9  and  C_10 
REMARK    6  A    between atoms: C_10  and  N_11 
REMARK    7  A    between atoms: N_11  and  C_12 
REMARK    8  A    between atoms: C_15  and  N_16 
REMARK    9  A    between atoms: N_19  and  C_21 
REMARK   10  A    between atoms: C_21  and  C_22 
ROOT
HETATM    1  C   UNL     1      -7.566   3.830 -33.572  1.00  0.00     0.034 A 
HETATM    2  C   UNL     1      -7.401   4.557 -32.394  1.00  0.00     0.032 A 
HETATM    3  C   UNL     1      -6.123   4.943 -31.969  1.00  0.00     0.031 A 
HETATM    4  C   UNL     1      -4.967   4.592 -32.682  1.00  0.00     0.030 A 
HETATM    5  C   UNL     1      -5.154   3.819 -33.838  1.00  0.00     0.031 A 
HETATM    6  C   UNL     1      -6.432   3.438 -34.276  1.00  0.00     0.032 A 
ENDROOT
BRANCH   1   7
HETATM    7  N   UNL     1      -8.879   3.482 -33.941  1.00  0.00    -0.333 N 
HETATM    8  H   UNL     1      -9.576   4.193 -33.750  1.00  0.00     0.168 HD
BRANCH   7   9
HETATM    9  C   UNL     1      -9.407   2.275 -34.238  1.00  0.00     0.179 C 
HETATM   10  S   UNL     1     -11.063   2.150 -34.458  1.00  0.00    -0.040 SA
BRANCH   9  11
HETATM   11  N   UNL     1      -8.653   1.160 -34.455  1.00  0.00    -0.299 N 
HETATM   12  C   UNL     1      -8.492   0.045 -33.634  1.00  0.00     0.257 C 
HETATM   13  O   UNL     1      -9.300  -0.417 -32.840  1.00  0.00    -0.267 OA
HETATM   14  H   UNL     1      -7.864   1.369 -35.054  1.00  0.00     0.171 HD
BRANCH  12  15
HETATM   15  C   UNL     1      -7.216  -0.687 -33.838  1.00  0.00     0.035 A 
HETATM   16  C   UNL     1      -5.992  -0.136 -33.436  1.00  0.00     0.053 A 
HETATM   17  C   UNL     1      -4.819  -0.864 -33.632  1.00  0.00     0.069 A 
HETATM   18  C   UNL     1      -4.860  -2.111 -34.256  1.00  0.00     0.037 A 
HETATM   19  C   UNL     1      -6.081  -2.670 -34.632  1.00  0.00     0.004 A 
HETATM   20  C   UNL     1      -7.263  -1.963 -34.413  1.00  0.00     0.017 A 
BRANCH  17  21
HETATM   21  O   UNL     1      -3.578  -0.404 -33.286  1.00  0.00    -0.351 OA
BRANCH  21  22
HETATM   22  C   UNL     1      -3.080  -0.945 -32.057  1.00  0.00     0.175 C 
BRANCH  22  23
HETATM   23  C   UNL     1      -3.416   0.046 -30.946  1.00  0.00     0.022 C 
HETATM   24  C   UNL     1      -3.301   1.484 -31.415  1.00  0.00     0.007 C 
ENDBRANCH  22  23
ENDBRANCH  21  22
ENDBRANCH  17  21
ENDBRANCH  12  15
ENDBRANCH   9  11
ENDBRANCH   7   9
ENDBRANCH   1   7
BRANCH   4  25
HETATM   25  N   UNL     1      -3.718   5.065 -32.268  1.00  0.00    -0.378 N 
HETATM   26  C   UNL     1      -2.694   5.223 -33.318  1.00  0.00     0.150 C 
HETATM   27  C   UNL     1      -1.286   5.200 -32.685  1.00  0.00     0.255 C 
HETATM   28  N   UNL     1      -1.163   6.239 -31.574  1.00  0.00    -0.064 N 
HETATM   29  H   UNL     1      -1.282   7.165 -32.008  1.00  0.00     0.280 HD
HETATM   30  C   UNL     1      -2.273   6.072 -30.537  1.00  0.00     0.255 C 
HETATM   31  C   UNL     1      -3.663   6.079 -31.202  1.00  0.00     0.150 C 
BRANCH  28  32
HETATM   32  C   UNL     1       0.215   6.223 -30.956  1.00  0.00     0.276 C 
BRANCH  32  33
HETATM   33  C   UNL     1       0.266   6.778 -29.564  1.00  0.00     0.006 A 
HETATM   34  C   UNL     1       0.673   5.958 -28.507  1.00  0.00     0.124 A 
HETATM   35  F   UNL     1       1.050   4.699 -28.772  1.00  0.00    -0.206 F 
HETATM   36  C   UNL     1       0.731   6.428 -27.201  1.00  0.00     0.043 A 
HETATM   37  C   UNL     1       0.376   7.750 -26.935  1.00  0.00     0.003 A 
HETATM   38  C   UNL     1      -0.034   8.584 -27.976  1.00  0.00     0.001 A 
HETATM   39  C   UNL     1      -0.093   8.103 -29.286  1.00  0.00     0.012 A 
ENDBRANCH  32  33
ENDBRANCH  28  32
ENDBRANCH   4  25
TORSDOF 10
ENDMDL
MODEL 8
REMARK VINA RESULT:      -8.2      1.583      2.694
REMARK  10 active torsions:
REMARK  status: ('A' for Active; 'I' for Inactive)
REMARK    1  A    between atoms: C_2  and  C_3 
REMARK    2  A    between atoms: C_3  and  O_4 
REMARK    3  A    between atoms: O_4  and  C_5 
REMARK    4  A    between atoms: C_7  and  C_8 
REMARK       I    between atoms: C_8  and  N_9 
REMARK    5  A    between atoms: N_9  and  C_10 
REMARK    6  A    between atoms: C_10  and  N_11 
REMARK    7  A    between atoms: N_11  and  C_12 
REMARK    8  A    between atoms: C_15  and  N_16 
REMARK    9  A    between atoms: N_19  and  C_21 
REMARK   10  A    between atoms: C_21  and  C_22 
ROOT
HETATM    1  C   UNL     1      -7.007   6.407 -31.566  1.00  0.00     0.034 A 
HETATM    2  C   UNL     1      -7.742   5.375 -30.985  1.00  0.00     0.032 A 
HETATM    3  C   UNL     1      -7.683   4.077 -31.509  1.00  0.00     0.031 A 
HETATM    4  C   UNL     1      -6.920   3.771 -32.646  1.00  0.00     0.030 A 
HETATM    5  C   UNL     1      -6.228   4.835 -33.243  1.00  0.00     0.031 A 
HETATM    6  C   UNL     1      -6.273   6.137 -32.716  1.00  0.00     0.032 A 
ENDROOT
BRANCH   1   7
HETATM    7  N   UNL     1      -7.109   7.685 -30.983  1.00  0.00    -0.333 N 
HETATM    8  H   UNL     1      -7.806   8.289 -31.406  1.00  0.00     0.168 HD
BRANCH   7   9
HETATM    9  C   UNL     1      -6.258   8.335 -30.160  1.00  0.00     0.179 C 
HETATM   10  S   UNL     1      -6.888   9.361 -28.995  1.00  0.00    -0.040 SA
BRANCH   9  11
HETATM   11  N   UNL     1      -4.910   8.136 -30.167  1.00  0.00    -0.299 N 
HETATM   12  C   UNL     1      -3.933   8.825 -30.884  1.00  0.00     0.257 C 
HETATM   13  O   UNL     1      -3.959   9.993 -31.245  1.00  0.00    -0.267 OA
HETATM   14  H   UNL     1      -4.686   7.172 -29.955  1.00  0.00     0.171 HD
BRANCH  12  15
HETATM   15  C   UNL     1      -2.698   8.040 -31.145  1.00  0.00     0.035 A 
HETATM   16  C   UNL     1      -1.974   7.459 -30.096  1.00  0.00     0.053 A 
HETATM   17  C   UNL     1      -0.829   6.717 -30.387  1.00  0.00     0.069 A 
HETATM   18  C   UNL     1      -0.390   6.587 -31.705  1.00  0.00     0.037 A 
HETATM   19  C   UNL     1      -1.126   7.143 -32.750  1.00  0.00     0.004 A 
HETATM   20  C   UNL     1      -2.289   7.862 -32.473  1.00  0.00     0.017 A 
BRANCH  17  21
HETATM   21  O   UNL     1      -0.050   6.125 -29.432  1.00  0.00    -0.351 OA
BRANCH  21  22
HETATM   22  C   UNL     1       0.083   6.895 -28.231  1.00  0.00     0.175 C 
BRANCH  22  23
HETATM   23  C   UNL     1       1.118   7.986 -28.494  1.00  0.00     0.022 C 
HETATM   24  C   UNL     1       1.541   8.685 -27.215  1.00  0.00     0.007 C 
ENDBRANCH  22  23
ENDBRANCH  21  22
ENDBRANCH  17  21
ENDBRANCH  12  15
ENDBRANCH   9  11
ENDBRANCH   7   9
ENDBRANCH   1   7
BRANCH   4  25
HETATM   25  N   UNL     1      -6.824   2.448 -33.090  1.00  0.00    -0.378 N 
HETATM   26  C   UNL     1      -6.401   2.253 -34.489  1.00  0.00     0.150 C 
HETATM   27  C   UNL     1      -6.865   0.868 -34.989  1.00  0.00     0.255 C 
HETATM   28  N   UNL     1      -6.380  -0.244 -34.062  1.00  0.00    -0.064 N 
HETATM   29  H   UNL     1      -5.352  -0.241 -34.095  1.00  0.00     0.280 HD
HETATM   30  C   UNL     1      -6.795   0.025 -32.616  1.00  0.00     0.255 C 
HETATM   31  C   UNL     1      -6.335   1.422 -32.155  1.00  0.00     0.150 C 
BRANCH  28  32
HETATM   32  C   UNL     1      -6.828  -1.601 -34.551  1.00  0.00     0.276 C 
BRANCH  32  33
HETATM   33  C   UNL     1      -5.818  -2.688 -34.339  1.00  0.00     0.006 A 
HETATM   34  C   UNL     1      -6.082  -3.979 -34.808  1.00  0.00     0.124 A 
HETATM   35  F   UNL     1      -7.221  -4.204 -35.478  1.00  0.00    -0.206 F 
HETATM   36  C   UNL     1      -5.177  -5.019 -34.630  1.00  0.00     0.043 A 
HETATM   37  C   UNL     1      -3.976  -4.771 -33.967  1.00  0.00     0.003 A 
HETATM   38  C   UNL     1      -3.693  -3.491 -33.490  1.00  0.00     0.001 A 
HETATM   39  C   UNL     1      -4.610  -2.451 -33.670  1.00  0.00     0.012 A 
ENDBRANCH  32  33
ENDBRANCH  28  32
ENDBRANCH   4  25
TORSDOF 10
ENDMDL
MODEL 9
REMARK VINA RESULT:      -8.1      4.555      9.869
REMARK  10 active torsions:
REMARK  status: ('A' for Active; 'I' for Inactive)
REMARK    1  A    between atoms: C_2  and  C_3 
REMARK    2  A    between atoms: C_3  and  O_4 
REMARK    3  A    between atoms: O_4  and  C_5 
REMARK    4  A    between atoms: C_7  and  C_8 
REMARK       I    between atoms: C_8  and  N_9 
REMARK    5  A    between atoms: N_9  and  C_10 
REMARK    6  A    between atoms: C_10  and  N_11 
REMARK    7  A    between atoms: N_11  and  C_12 
REMARK    8  A    between atoms: C_15  and  N_16 
REMARK    9  A    between atoms: N_19  and  C_21 
REMARK   10  A    between atoms: C_21  and  C_22 
ROOT
HETATM    1  C   UNL     1      -7.814   3.897 -33.440  1.00  0.00     0.034 A 
HETATM    2  C   UNL     1      -7.999   4.539 -32.217  1.00  0.00     0.032 A 
HETATM    3  C   UNL     1      -6.936   5.209 -31.597  1.00  0.00     0.031 A 
HETATM    4  C   UNL     1      -5.649   5.235 -32.156  1.00  0.00     0.030 A 
HETATM    5  C   UNL     1      -5.475   4.542 -33.363  1.00  0.00     0.031 A 
HETATM    6  C   UNL     1      -6.538   3.877 -33.996  1.00  0.00     0.032 A 
ENDROOT
BRANCH   1   7
HETATM    7  N   UNL     1      -8.927   3.249 -34.008  1.00  0.00    -0.333 N 
HETATM    8  H   UNL     1      -9.642   3.873 -34.368  1.00  0.00     0.168 HD
BRANCH   7   9
HETATM    9  C   UNL     1      -9.333   1.966 -33.903  1.00  0.00     0.179 C 
HETATM   10  S   UNL     1     -10.954   1.611 -34.129  1.00  0.00    -0.040 SA
BRANCH   9  11
HETATM   11  N   UNL     1      -8.478   0.923 -33.705  1.00  0.00    -0.299 N 
HETATM   12  C   UNL     1      -7.992   0.413 -32.502  1.00  0.00     0.257 C 
HETATM   13  O   UNL     1      -8.548   0.417 -31.413  1.00  0.00    -0.267 OA
HETATM   14  H   UNL     1      -7.863   0.805 -34.500  1.00  0.00     0.171 HD
BRANCH  12  15
HETATM   15  C   UNL     1      -6.685  -0.285 -32.617  1.00  0.00     0.035 A 
HETATM   16  C   UNL     1      -6.414  -1.145 -33.689  1.00  0.00     0.053 A 
HETATM   17  C   UNL     1      -5.169  -1.767 -33.767  1.00  0.00     0.069 A 
HETATM   18  C   UNL     1      -4.216  -1.564 -32.767  1.00  0.00     0.037 A 
HETATM   19  C   UNL     1      -4.477  -0.688 -31.714  1.00  0.00     0.004 A 
HETATM   20  C   UNL     1      -5.709  -0.037 -31.643  1.00  0.00     0.017 A 
BRANCH  17  21
HETATM   21  O   UNL     1      -4.818  -2.632 -34.766  1.00  0.00    -0.351 OA
BRANCH  21  22
HETATM   22  C   UNL     1      -4.229  -3.852 -34.299  1.00  0.00     0.175 C 
BRANCH  22  23
HETATM   23  C   UNL     1      -5.257  -4.964 -34.487  1.00  0.00     0.022 C 
HETATM   24  C   UNL     1      -6.322  -4.585 -35.500  1.00  0.00     0.007 C 
ENDBRANCH  22  23
ENDBRANCH  21  22
ENDBRANCH  17  21
ENDBRANCH  12  15
ENDBRANCH   9  11
ENDBRANCH   7   9
ENDBRANCH   1   7
BRANCH   4  25
HETATM   25  N   UNL     1      -4.636   5.982 -31.547  1.00  0.00    -0.378 N 
HETATM   26  C   UNL     1      -4.595   5.955 -30.073  1.00  0.00     0.150 C 
HETATM   27  C   UNL     1      -3.843   7.197 -29.547  1.00  0.00     0.255 C 
HETATM   28  N   UNL     1      -2.457   7.312 -30.177  1.00  0.00    -0.064 N 
HETATM   29  H   UNL     1      -1.919   6.486 -29.880  1.00  0.00     0.280 HD
HETATM   30  C   UNL     1      -2.542   7.283 -31.702  1.00  0.00     0.255 C 
HETATM   31  C   UNL     1      -3.314   6.043 -32.194  1.00  0.00     0.150 C 
BRANCH  28  32
HETATM   32  C   UNL     1      -1.718   8.522 -29.660  1.00  0.00     0.276 C 
BRANCH  32  33
HETATM   33  C   UNL     1      -0.797   8.230 -28.513  1.00  0.00     0.006 A 
HETATM   34  C   UNL     1      -1.075   8.760 -27.249  1.00  0.00     0.124 A 
HETATM   35  F   UNL     1      -2.190   9.487 -27.084  1.00  0.00    -0.206 F 
HETATM   36  C   UNL     1      -0.248   8.519 -26.159  1.00  0.00     0.043 A 
HETATM   37  C   UNL     1       0.889   7.730 -26.327  1.00  0.00     0.003 A 
HETATM   38  C   UNL     1       1.186   7.192 -27.580  1.00  0.00     0.001 A 
HETATM   39  C   UNL     1       0.351   7.442 -28.672  1.00  0.00     0.012 A 
ENDBRANCH  32  33
ENDBRANCH  28  32
ENDBRANCH   4  25
TORSDOF 10
ENDMDL
MODEL 10
REMARK VINA RESULT:      -8.1      4.313      9.357
REMARK  10 active torsions:
REMARK  status: ('A' for Active; 'I' for Inactive)
REMARK    1  A    between atoms: C_2  and  C_3 
REMARK    2  A    between atoms: C_3  and  O_4 
REMARK    3  A    between atoms: O_4  and  C_5 
REMARK    4  A    between atoms: C_7  and  C_8 
REMARK       I    between atoms: C_8  and  N_9 
REMARK    5  A    between atoms: N_9  and  C_10 
REMARK    6  A    between atoms: C_10  and  N_11 
REMARK    7  A    between atoms: N_11  and  C_12 
REMARK    8  A    between atoms: C_15  and  N_16 
REMARK    9  A    between atoms: N_19  and  C_21 
REMARK   10  A    between atoms: C_21  and  C_22 
ROOT
HETATM    1  C   UNL     1      -7.666   4.931 -33.151  1.00  0.00     0.034 A 
HETATM    2  C   UNL     1      -6.638   4.370 -33.907  1.00  0.00     0.032 A 
HETATM    3  C   UNL     1      -5.301   4.693 -33.640  1.00  0.00     0.031 A 
HETATM    4  C   UNL     1      -4.945   5.607 -32.636  1.00  0.00     0.030 A 
HETATM    5  C   UNL     1      -5.999   6.194 -31.920  1.00  0.00     0.031 A 
HETATM    6  C   UNL     1      -7.341   5.868 -32.175  1.00  0.00     0.032 A 
ENDROOT
BRANCH   1   7
HETATM    7  N   UNL     1      -8.985   4.557 -33.470  1.00  0.00    -0.333 N 
HETATM    8  H   UNL     1      -9.704   5.087 -32.989  1.00  0.00     0.168 HD
BRANCH   7   9
HETATM    9  C   UNL     1      -9.450   3.444 -34.078  1.00  0.00     0.179 C 
HETATM   10  S   UNL     1     -10.831   3.556 -35.020  1.00  0.00    -0.040 SA
BRANCH   9  11
HETATM   11  N   UNL     1      -8.806   2.243 -34.038  1.00  0.00    -0.299 N 
HETATM   12  C   UNL     1      -8.783   1.303 -33.009  1.00  0.00     0.257 C 
HETATM   13  O   UNL     1      -9.657   1.084 -32.181  1.00  0.00    -0.267 OA
HETATM   14  H   UNL     1      -7.982   2.256 -34.626  1.00  0.00     0.171 HD
BRANCH  12  15
HETATM   15  C   UNL     1      -7.581   0.430 -33.004  1.00  0.00     0.035 A 
HETATM   16  C   UNL     1      -7.325  -0.456 -34.059  1.00  0.00     0.053 A 
HETATM   17  C   UNL     1      -6.176  -1.246 -34.023  1.00  0.00     0.069 A 
HETATM   18  C   UNL     1      -5.311  -1.181 -32.930  1.00  0.00     0.037 A 
HETATM   19  C   UNL     1      -5.553  -0.280 -31.893  1.00  0.00     0.004 A 
HETATM   20  C   UNL     1      -6.683   0.536 -31.934  1.00  0.00     0.017 A 
BRANCH  17  21
HETATM   21  O   UNL     1      -5.849  -2.148 -34.996  1.00  0.00    -0.351 OA
BRANCH  21  22
HETATM   22  C   UNL     1      -4.783  -3.034 -34.635  1.00  0.00     0.175 C 
BRANCH  22  23
HETATM   23  C   UNL     1      -5.343  -4.453 -34.624  1.00  0.00     0.022 C 
HETATM   24  C   UNL     1      -6.639  -4.556 -35.407  1.00  0.00     0.007 C 
ENDBRANCH  22  23
ENDBRANCH  21  22
ENDBRANCH  17  21
ENDBRANCH  12  15
ENDBRANCH   9  11
ENDBRANCH   7   9
ENDBRANCH   1   7
BRANCH   4  25
HETATM   25  N   UNL     1      -3.597   5.840 -32.348  1.00  0.00    -0.378 N 
HETATM   26  C   UNL     1      -2.828   4.694 -31.827  1.00  0.00     0.150 C 
HETATM   27  C   UNL     1      -1.590   5.201 -31.055  1.00  0.00     0.255 C 
HETATM   28  N   UNL     1      -0.748   6.138 -31.917  1.00  0.00    -0.064 N 
HETATM   29  H   UNL     1      -0.401   5.588 -32.715  1.00  0.00     0.280 HD
HETATM   30  C   UNL     1      -1.594   7.280 -32.479  1.00  0.00     0.255 C 
HETATM   31  C   UNL     1      -2.831   6.742 -33.225  1.00  0.00     0.150 C 
BRANCH  28  32
HETATM   32  C   UNL     1       0.467   6.630 -31.167  1.00  0.00     0.276 C 
BRANCH  32  33
HETATM   33  C   UNL     1       0.222   6.886 -29.711  1.00  0.00     0.006 A 
HETATM   34  C   UNL     1       0.614   5.933 -28.765  1.00  0.00     0.124 A 
HETATM   35  F   UNL     1       1.242   4.825 -29.185  1.00  0.00    -0.206 F 
HETATM   36  C   UNL     1       0.403   6.125 -27.406  1.00  0.00     0.043 A 
HETATM   37  C   UNL     1      -0.215   7.296 -26.970  1.00  0.00     0.003 A 
HETATM   38  C   UNL     1      -0.615   8.259 -27.897  1.00  0.00     0.001 A 
HETATM   39  C   UNL     1      -0.403   8.057 -29.263  1.00  0.00     0.012 A 
ENDBRANCH  32  33
ENDBRANCH  28  32
ENDBRANCH   4  25
TORSDOF 10
ENDMDL
