MODEL 1
REMARK VINA RESULT:      -8.9      0.000      0.000
REMARK  2 active torsions:
REMARK  status: ('A' for Active; 'I' for Inactive)
REMARK    1  A    between atoms: C_15  and  C_16 
REMARK    2  A    between atoms: C_19  and  O_20 
ROOT
HETATM    1  C   UNL     1      -6.742  -2.683 -34.594  1.00  0.00     0.048 C 
HETATM    2  C   UNL     1      -6.731  -1.194 -34.399  1.00  0.00    -0.061 A 
HETATM    3  C   UNL     1      -5.672  -0.568 -33.714  1.00  0.00     0.021 A 
HETATM    4  C   UNL     1      -5.659   0.836 -33.574  1.00  0.00    -0.000 A 
HETATM    5  C   UNL     1      -6.720   1.569 -34.120  1.00  0.00     0.043 A 
HETATM    6  N   UNL     1      -6.486   2.900 -33.849  1.00  0.00    -0.353 N 
HETATM    7  H   UNL     1      -7.093   3.668 -34.106  1.00  0.00     0.166 HD
HETATM    8  C   UNL     1      -5.281   3.028 -33.232  1.00  0.00     0.066 A 
HETATM    9  C   UNL     1      -4.770   1.773 -32.975  1.00  0.00    -0.017 A 
HETATM   10  C   UNL     1      -3.488   1.591 -32.210  1.00  0.00     0.043 C 
HETATM   11  C   UNL     1      -3.009   2.930 -31.544  1.00  0.00     0.018 C 
HETATM   12  C   UNL     1      -3.131   4.096 -32.547  1.00  0.00     0.065 C 
HETATM   13  C   UNL     1      -4.613   4.211 -32.811  1.00  0.00     0.082 C 
HETATM   14  N   UNL     1      -5.200   5.313 -32.479  1.00  0.00    -0.203 NA
HETATM   15  C   UNL     1      -2.870   5.573 -32.225  1.00  0.00     0.121 C 
HETATM   16  N   UNL     1      -4.226   6.104 -31.949  1.00  0.00    -0.207 NA
HETATM   17  C   UNL     1      -7.785   0.969 -34.799  1.00  0.00     0.031 A 
HETATM   18  C   UNL     1      -7.766  -0.422 -34.934  1.00  0.00     0.009 A 
HETATM   19  H   UNL     1      -4.368   6.196 -30.939  1.00  0.00     0.149 HD
ENDROOT
BRANCH  15  20
HETATM   20  C   UNL     1      -1.799   6.066 -31.278  1.00  0.00    -0.038 A 
HETATM   21  C   UNL     1      -2.186   6.697 -30.080  1.00  0.00     0.011 A 
HETATM   22  C   UNL     1      -1.249   7.284 -29.226  1.00  0.00     0.037 A 
HETATM   23  C   UNL     1       0.104   7.271 -29.546  1.00  0.00     0.068 A 
HETATM   24  C   UNL     1       0.508   6.663 -30.732  1.00  0.00     0.037 A 
HETATM   25  C   UNL     1      -0.436   6.084 -31.597  1.00  0.00     0.011 A 
BRANCH  23  26
HETATM   26  O   UNL     1       0.908   7.899 -28.637  1.00  0.00    -0.356 OA
HETATM   27  C   UNL     1       1.042   7.288 -27.361  1.00  0.00     0.210 C 
ENDBRANCH  23  26
ENDBRANCH  15  20
TORSDOF 2
ENDMDL
MODEL 2
REMARK VINA RESULT:      -8.7      3.131      4.375
REMARK  2 active torsions:
REMARK  status: ('A' for Active; 'I' for Inactive)
REMARK    1  A    between atoms: C_15  and  C_16 
REMARK    2  A    between atoms: C_19  and  O_20 
ROOT
HETATM    1  C   UNL     1      -6.493  -4.633 -35.689  1.00  0.00     0.048 C 
HETATM    2  C   UNL     1      -5.665  -3.726 -34.827  1.00  0.00    -0.061 A 
HETATM    3  C   UNL     1      -6.020  -2.374 -34.660  1.00  0.00     0.021 A 
HETATM    4  C   UNL     1      -5.252  -1.545 -33.814  1.00  0.00    -0.000 A 
HETATM    5  C   UNL     1      -4.140  -2.101 -33.168  1.00  0.00     0.043 A 
HETATM    6  N   UNL     1      -3.558  -1.104 -32.416  1.00  0.00    -0.353 N 
HETATM    7  H   UNL     1      -2.723  -1.204 -31.851  1.00  0.00     0.166 HD
HETATM    8  C   UNL     1      -4.312   0.025 -32.503  1.00  0.00     0.066 A 
HETATM    9  C   UNL     1      -5.327  -0.180 -33.415  1.00  0.00    -0.017 A 
HETATM   10  C   UNL     1      -6.270   0.927 -33.798  1.00  0.00     0.043 C 
HETATM   11  C   UNL     1      -5.782   2.321 -33.267  1.00  0.00     0.018 C 
HETATM   12  C   UNL     1      -5.318   2.199 -31.801  1.00  0.00     0.065 C 
HETATM   13  C   UNL     1      -4.122   1.279 -31.862  1.00  0.00     0.082 C 
HETATM   14  N   UNL     1      -2.979   1.752 -31.486  1.00  0.00    -0.203 NA
HETATM   15  C   UNL     1      -4.666   3.320 -30.981  1.00  0.00     0.121 C 
HETATM   16  N   UNL     1      -3.217   3.042 -31.118  1.00  0.00    -0.207 NA
HETATM   17  C   UNL     1      -3.765  -3.439 -33.323  1.00  0.00     0.031 A 
HETATM   18  C   UNL     1      -4.551  -4.241 -34.156  1.00  0.00     0.009 A 
HETATM   19  H   UNL     1      -2.801   3.678 -31.803  1.00  0.00     0.149 HD
ENDROOT
BRANCH  15  20
HETATM   20  C   UNL     1      -5.036   4.782 -31.087  1.00  0.00    -0.038 A 
HETATM   21  C   UNL     1      -4.021   5.727 -31.335  1.00  0.00     0.011 A 
HETATM   22  C   UNL     1      -4.278   7.100 -31.319  1.00  0.00     0.037 A 
HETATM   23  C   UNL     1      -5.555   7.576 -31.043  1.00  0.00     0.068 A 
HETATM   24  C   UNL     1      -6.572   6.661 -30.783  1.00  0.00     0.037 A 
HETATM   25  C   UNL     1      -6.311   5.280 -30.787  1.00  0.00     0.011 A 
BRANCH  23  26
HETATM   26  O   UNL     1      -5.664   8.938 -31.036  1.00  0.00    -0.356 OA
HETATM   27  C   UNL     1      -4.477   9.681 -30.790  1.00  0.00     0.210 C 
ENDBRANCH  23  26
ENDBRANCH  15  20
TORSDOF 2
ENDMDL
MODEL 3
REMARK VINA RESULT:      -8.6      6.266      8.589
REMARK  2 active torsions:
REMARK  status: ('A' for Active; 'I' for Inactive)
REMARK    1  A    between atoms: C_15  and  C_16 
REMARK    2  A    between atoms: C_19  and  O_20 
ROOT
HETATM    1  C   UNL     1     -15.736   3.094 -32.335  1.00  0.00     0.048 C 
HETATM    2  C   UNL     1     -14.302   3.364 -32.688  1.00  0.00    -0.061 A 
HETATM    3  C   UNL     1     -13.365   2.315 -32.732  1.00  0.00     0.021 A 
HETATM    4  C   UNL     1     -12.030   2.582 -33.103  1.00  0.00    -0.000 A 
HETATM    5  C   UNL     1     -11.675   3.901 -33.411  1.00  0.00     0.043 A 
HETATM    6  N   UNL     1     -10.335   3.905 -33.732  1.00  0.00    -0.353 N 
HETATM    7  H   UNL     1      -9.792   4.723 -33.981  1.00  0.00     0.166 HD
HETATM    8  C   UNL     1      -9.865   2.629 -33.718  1.00  0.00     0.066 A 
HETATM    9  C   UNL     1     -10.858   1.787 -33.263  1.00  0.00    -0.017 A 
HETATM   10  C   UNL     1     -10.604   0.321 -33.045  1.00  0.00     0.043 C 
HETATM   11  C   UNL     1      -9.074  -0.025 -33.126  1.00  0.00     0.018 C 
HETATM   12  C   UNL     1      -8.433   0.680 -34.339  1.00  0.00     0.065 C 
HETATM   13  C   UNL     1      -8.562   2.153 -34.028  1.00  0.00     0.082 C 
HETATM   14  N   UNL     1      -7.473   2.837 -33.898  1.00  0.00    -0.203 NA
HETATM   15  C   UNL     1      -6.937   0.678 -34.677  1.00  0.00     0.121 C 
HETATM   16  N   UNL     1      -6.456   1.954 -34.098  1.00  0.00    -0.207 NA
HETATM   17  C   UNL     1     -12.587   4.960 -33.369  1.00  0.00     0.031 A 
HETATM   18  C   UNL     1     -13.906   4.666 -33.010  1.00  0.00     0.009 A 
HETATM   19  H   UNL     1      -5.974   1.779 -33.212  1.00  0.00     0.149 HD
ENDROOT
BRANCH  15  20
HETATM   20  C   UNL     1      -6.012  -0.498 -34.456  1.00  0.00    -0.038 A 
HETATM   21  C   UNL     1      -6.372  -1.756 -34.977  1.00  0.00     0.011 A 
HETATM   22  C   UNL     1      -5.625  -2.904 -34.701  1.00  0.00     0.037 A 
HETATM   23  C   UNL     1      -4.502  -2.836 -33.885  1.00  0.00     0.068 A 
HETATM   24  C   UNL     1      -4.134  -1.605 -33.348  1.00  0.00     0.037 A 
HETATM   25  C   UNL     1      -4.892  -0.453 -33.616  1.00  0.00     0.011 A 
BRANCH  23  26
HETATM   26  O   UNL     1      -3.878  -4.034 -33.678  1.00  0.00    -0.356 OA
HETATM   27  C   UNL     1      -4.524  -5.196 -34.181  1.00  0.00     0.210 C 
ENDBRANCH  23  26
ENDBRANCH  15  20
TORSDOF 2
ENDMDL
MODEL 4
REMARK VINA RESULT:      -8.6      6.361      8.403
REMARK  2 active torsions:
REMARK  status: ('A' for Active; 'I' for Inactive)
REMARK    1  A    between atoms: C_15  and  C_16 
REMARK    2  A    between atoms: C_19  and  O_20 
ROOT
HETATM    1  C   UNL     1      -3.343  -4.896 -33.940  1.00  0.00     0.048 C 
HETATM    2  C   UNL     1      -3.807  -3.570 -33.412  1.00  0.00    -0.061 A 
HETATM    3  C   UNL     1      -4.897  -2.904 -34.003  1.00  0.00     0.021 A 
HETATM    4  C   UNL     1      -5.343  -1.676 -33.469  1.00  0.00    -0.000 A 
HETATM    5  C   UNL     1      -4.671  -1.149 -32.359  1.00  0.00     0.043 A 
HETATM    6  N   UNL     1      -5.281   0.043 -32.033  1.00  0.00    -0.353 N 
HETATM    7  H   UNL     1      -5.001   0.661 -31.282  1.00  0.00     0.166 HD
HETATM    8  C   UNL     1      -6.357   0.234 -32.843  1.00  0.00     0.066 A 
HETATM    9  C   UNL     1      -6.389  -0.765 -33.793  1.00  0.00    -0.017 A 
HETATM   10  C   UNL     1      -7.414  -0.767 -34.894  1.00  0.00     0.043 C 
HETATM   11  C   UNL     1      -8.196   0.593 -34.966  1.00  0.00     0.018 C 
HETATM   12  C   UNL     1      -8.610   1.044 -33.550  1.00  0.00     0.065 C 
HETATM   13  C   UNL     1      -7.301   1.296 -32.839  1.00  0.00     0.082 C 
HETATM   14  N   UNL     1      -7.061   2.498 -32.430  1.00  0.00    -0.203 NA
HETATM   15  C   UNL     1      -9.284   2.379 -33.206  1.00  0.00     0.121 C 
HETATM   16  N   UNL     1      -8.149   3.235 -32.790  1.00  0.00    -0.207 NA
HETATM   17  C   UNL     1      -3.582  -1.790 -31.759  1.00  0.00     0.031 A 
HETATM   18  C   UNL     1      -3.169  -3.011 -32.300  1.00  0.00     0.009 A 
HETATM   19  H   UNL     1      -7.895   3.875 -33.547  1.00  0.00     0.149 HD
ENDROOT
BRANCH  15  20
HETATM   20  C   UNL     1     -10.304   3.072 -34.082  1.00  0.00    -0.038 A 
HETATM   21  C   UNL     1     -10.049   4.388 -34.513  1.00  0.00     0.011 A 
HETATM   22  C   UNL     1     -11.005   5.125 -35.218  1.00  0.00     0.037 A 
HETATM   23  C   UNL     1     -12.250   4.577 -35.503  1.00  0.00     0.068 A 
HETATM   24  C   UNL     1     -12.528   3.281 -35.075  1.00  0.00     0.037 A 
HETATM   25  C   UNL     1     -11.571   2.544 -34.356  1.00  0.00     0.011 A 
BRANCH  23  26
HETATM   26  O   UNL     1     -13.098   5.411 -36.176  1.00  0.00    -0.356 OA
HETATM   27  C   UNL     1     -13.480   6.613 -35.518  1.00  0.00     0.210 C 
ENDBRANCH  23  26
ENDBRANCH  15  20
TORSDOF 2
ENDMDL
MODEL 5
REMARK VINA RESULT:      -8.6      1.601      2.386
REMARK  2 active torsions:
REMARK  status: ('A' for Active; 'I' for Inactive)
REMARK    1  A    between atoms: C_15  and  C_16 
REMARK    2  A    between atoms: C_19  and  O_20 
ROOT
HETATM    1  C   UNL     1      -4.289  -4.931 -34.282  1.00  0.00     0.048 C 
HETATM    2  C   UNL     1      -4.898  -3.563 -34.171  1.00  0.00    -0.061 A 
HETATM    3  C   UNL     1      -4.235  -2.537 -33.473  1.00  0.00     0.021 A 
HETATM    4  C   UNL     1      -4.804  -1.247 -33.412  1.00  0.00    -0.000 A 
HETATM    5  C   UNL     1      -6.032  -1.031 -34.049  1.00  0.00     0.043 A 
HETATM    6  N   UNL     1      -6.379   0.287 -33.842  1.00  0.00    -0.353 N 
HETATM    7  H   UNL     1      -7.228   0.730 -34.171  1.00  0.00     0.166 HD
HETATM    8  C   UNL     1      -5.375   0.918 -33.177  1.00  0.00     0.066 A 
HETATM    9  C   UNL     1      -4.415  -0.009 -32.825  1.00  0.00    -0.017 A 
HETATM   10  C   UNL     1      -3.225   0.375 -31.990  1.00  0.00     0.043 C 
HETATM   11  C   UNL     1      -3.379   1.813 -31.378  1.00  0.00     0.018 C 
HETATM   12  C   UNL     1      -3.897   2.794 -32.450  1.00  0.00     0.065 C 
HETATM   13  C   UNL     1      -5.276   2.282 -32.791  1.00  0.00     0.082 C 
HETATM   14  N   UNL     1      -6.282   3.058 -32.551  1.00  0.00    -0.203 NA
HETATM   15  C   UNL     1      -4.283   4.257 -32.200  1.00  0.00     0.121 C 
HETATM   16  N   UNL     1      -5.753   4.195 -32.020  1.00  0.00    -0.207 NA
HETATM   17  C   UNL     1      -6.713  -2.036 -34.743  1.00  0.00     0.031 A 
HETATM   18  C   UNL     1      -6.120  -3.301 -34.799  1.00  0.00     0.009 A 
HETATM   19  H   UNL     1      -5.987   4.252 -31.025  1.00  0.00     0.149 HD
ENDROOT
BRANCH  15  20
HETATM   20  C   UNL     1      -3.571   5.176 -31.232  1.00  0.00    -0.038 A 
HETATM   21  C   UNL     1      -4.338   5.977 -30.364  1.00  0.00     0.011 A 
HETATM   22  C   UNL     1      -3.745   6.934 -29.536  1.00  0.00     0.037 A 
HETATM   23  C   UNL     1      -2.369   7.132 -29.558  1.00  0.00     0.068 A 
HETATM   24  C   UNL     1      -1.592   6.359 -30.417  1.00  0.00     0.037 A 
HETATM   25  C   UNL     1      -2.190   5.404 -31.258  1.00  0.00     0.011 A 
BRANCH  23  26
HETATM   26  O   UNL     1      -1.923   8.113 -28.718  1.00  0.00    -0.356 OA
HETATM   27  C   UNL     1      -0.524   8.165 -28.468  1.00  0.00     0.210 C 
ENDBRANCH  23  26
ENDBRANCH  15  20
TORSDOF 2
ENDMDL
MODEL 6
REMARK VINA RESULT:      -8.4      4.347     10.430
REMARK  2 active torsions:
REMARK  status: ('A' for Active; 'I' for Inactive)
REMARK    1  A    between atoms: C_15  and  C_16 
REMARK    2  A    between atoms: C_19  and  O_20 
ROOT
HETATM    1  C   UNL     1       0.327  11.579 -23.005  1.00  0.00     0.048 C 
HETATM    2  C   UNL     1       0.728  10.422 -23.872  1.00  0.00    -0.061 A 
HETATM    3  C   UNL     1       0.031  10.142 -25.063  1.00  0.00     0.021 A 
HETATM    4  C   UNL     1       0.447   9.073 -25.885  1.00  0.00    -0.000 A 
HETATM    5  C   UNL     1       1.549   8.309 -25.478  1.00  0.00     0.043 A 
HETATM    6  N   UNL     1       1.751   7.335 -26.431  1.00  0.00    -0.353 N 
HETATM    7  H   UNL     1       2.468   6.620 -26.399  1.00  0.00     0.166 HD
HETATM    8  C   UNL     1       0.873   7.516 -27.454  1.00  0.00     0.066 A 
HETATM    9  C   UNL     1      -0.000   8.532 -27.124  1.00  0.00    -0.017 A 
HETATM   10  C   UNL     1      -1.151   8.897 -28.021  1.00  0.00     0.043 C 
HETATM   11  C   UNL     1      -1.367   7.836 -29.157  1.00  0.00     0.018 C 
HETATM   12  C   UNL     1      -0.013   7.448 -29.787  1.00  0.00     0.065 C 
HETATM   13  C   UNL     1       0.746   6.781 -28.664  1.00  0.00     0.082 C 
HETATM   14  N   UNL     1       1.077   5.541 -28.816  1.00  0.00    -0.203 NA
HETATM   15  C   UNL     1       0.193   6.356 -30.844  1.00  0.00     0.121 C 
HETATM   16  N   UNL     1       0.604   5.180 -30.041  1.00  0.00    -0.207 NA
HETATM   17  C   UNL     1       2.253   8.565 -24.298  1.00  0.00     0.031 A 
HETATM   18  C   UNL     1       1.827   9.638 -23.508  1.00  0.00     0.009 A 
HETATM   19  H   UNL     1      -0.184   4.537 -29.930  1.00  0.00     0.149 HD
ENDROOT
BRANCH  15  20
HETATM   20  C   UNL     1      -0.785   6.045 -31.954  1.00  0.00    -0.038 A 
HETATM   21  C   UNL     1      -1.141   7.068 -32.855  1.00  0.00     0.011 A 
HETATM   22  C   UNL     1      -2.131   6.879 -33.823  1.00  0.00     0.037 A 
HETATM   23  C   UNL     1      -2.807   5.667 -33.915  1.00  0.00     0.068 A 
HETATM   24  C   UNL     1      -2.480   4.645 -33.027  1.00  0.00     0.037 A 
HETATM   25  C   UNL     1      -1.492   4.840 -32.045  1.00  0.00     0.011 A 
BRANCH  23  26
HETATM   26  O   UNL     1      -3.765   5.624 -34.888  1.00  0.00    -0.356 OA
HETATM   27  C   UNL     1      -4.939   4.873 -34.607  1.00  0.00     0.210 C 
ENDBRANCH  23  26
ENDBRANCH  15  20
TORSDOF 2
ENDMDL
MODEL 7
REMARK VINA RESULT:      -8.3      5.940      7.407
REMARK  2 active torsions:
REMARK  status: ('A' for Active; 'I' for Inactive)
REMARK    1  A    between atoms: C_15  and  C_16 
REMARK    2  A    between atoms: C_19  and  O_20 
ROOT
HETATM    1  C   UNL     1      -6.337  -4.630 -35.578  1.00  0.00     0.048 C 
HETATM    2  C   UNL     1      -6.032  -3.395 -34.782  1.00  0.00    -0.061 A 
HETATM    3  C   UNL     1      -7.049  -2.473 -34.469  1.00  0.00     0.021 A 
HETATM    4  C   UNL     1      -6.751  -1.337 -33.687  1.00  0.00    -0.000 A 
HETATM    5  C   UNL     1      -5.432  -1.157 -33.249  1.00  0.00     0.043 A 
HETATM    6  N   UNL     1      -5.395   0.011 -32.520  1.00  0.00    -0.353 N 
HETATM    7  H   UNL     1      -4.569   0.410 -32.090  1.00  0.00     0.166 HD
HETATM    8  C   UNL     1      -6.652   0.519 -32.416  1.00  0.00     0.066 A 
HETATM    9  C   UNL     1      -7.509  -0.241 -33.185  1.00  0.00    -0.017 A 
HETATM   10  C   UNL     1      -8.956   0.135 -33.348  1.00  0.00     0.043 C 
HETATM   11  C   UNL     1      -9.252   1.574 -32.795  1.00  0.00     0.018 C 
HETATM   12  C   UNL     1      -8.572   1.767 -31.424  1.00  0.00     0.065 C 
HETATM   13  C   UNL     1      -7.095   1.677 -31.722  1.00  0.00     0.082 C 
HETATM   14  N   UNL     1      -6.368   2.719 -31.482  1.00  0.00    -0.203 NA
HETATM   15  C   UNL     1      -8.536   3.079 -30.629  1.00  0.00     0.121 C 
HETATM   16  N   UNL     1      -7.222   3.660 -30.992  1.00  0.00    -0.207 NA
HETATM   17  C   UNL     1      -4.405  -2.057 -33.551  1.00  0.00     0.031 A 
HETATM   18  C   UNL     1      -4.731  -3.180 -34.317  1.00  0.00     0.009 A 
HETATM   19  H   UNL     1      -7.347   4.404 -31.683  1.00  0.00     0.149 HD
ENDROOT
BRANCH  15  20
HETATM   20  C   UNL     1      -9.670   4.078 -30.576  1.00  0.00    -0.038 A 
HETATM   21  C   UNL     1     -10.992   3.604 -30.472  1.00  0.00     0.011 A 
HETATM   22  C   UNL     1     -12.088   4.468 -30.544  1.00  0.00     0.037 A 
HETATM   23  C   UNL     1     -11.900   5.832 -30.734  1.00  0.00     0.068 A 
HETATM   24  C   UNL     1     -10.601   6.322 -30.852  1.00  0.00     0.037 A 
HETATM   25  C   UNL     1      -9.500   5.451 -30.791  1.00  0.00     0.011 A 
BRANCH  23  26
HETATM   26  O   UNL     1     -13.054   6.560 -30.810  1.00  0.00    -0.356 OA
HETATM   27  C   UNL     1     -14.170   6.081 -30.070  1.00  0.00     0.210 C 
ENDBRANCH  23  26
ENDBRANCH  15  20
TORSDOF 2
ENDMDL
MODEL 8
REMARK VINA RESULT:      -8.3      3.093      8.577
REMARK  2 active torsions:
REMARK  status: ('A' for Active; 'I' for Inactive)
REMARK    1  A    between atoms: C_15  and  C_16 
REMARK    2  A    between atoms: C_19  and  O_20 
ROOT
HETATM    1  C   UNL     1       0.432   7.640 -29.021  1.00  0.00     0.048 C 
HETATM    2  C   UNL     1      -0.777   7.444 -29.889  1.00  0.00    -0.061 A 
HETATM    3  C   UNL     1      -1.204   6.151 -30.244  1.00  0.00     0.021 A 
HETATM    4  C   UNL     1      -2.365   5.985 -31.028  1.00  0.00    -0.000 A 
HETATM    5  C   UNL     1      -3.059   7.129 -31.440  1.00  0.00     0.043 A 
HETATM    6  N   UNL     1      -4.138   6.711 -32.189  1.00  0.00    -0.353 N 
HETATM    7  H   UNL     1      -4.814   7.318 -32.637  1.00  0.00     0.166 HD
HETATM    8  C   UNL     1      -4.189   5.352 -32.187  1.00  0.00     0.066 A 
HETATM    9  C   UNL     1      -3.071   4.861 -31.544  1.00  0.00    -0.017 A 
HETATM   10  C   UNL     1      -2.798   3.384 -31.468  1.00  0.00     0.043 C 
HETATM   11  C   UNL     1      -3.748   2.564 -32.412  1.00  0.00     0.018 C 
HETATM   12  C   UNL     1      -5.198   3.071 -32.277  1.00  0.00     0.065 C 
HETATM   13  C   UNL     1      -5.148   4.492 -32.786  1.00  0.00     0.082 C 
HETATM   14  N   UNL     1      -5.850   4.781 -33.832  1.00  0.00    -0.203 NA
HETATM   15  C   UNL     1      -6.386   2.597 -33.125  1.00  0.00     0.121 C 
HETATM   16  N   UNL     1      -6.475   3.625 -34.189  1.00  0.00    -0.207 NA
HETATM   17  C   UNL     1      -2.652   8.424 -31.105  1.00  0.00     0.031 A 
HETATM   18  C   UNL     1      -1.505   8.559 -30.316  1.00  0.00     0.009 A 
HETATM   19  H   UNL     1      -6.069   3.267 -35.057  1.00  0.00     0.149 HD
ENDROOT
BRANCH  15  20
HETATM   20  C   UNL     1      -6.579   1.177 -33.607  1.00  0.00    -0.038 A 
HETATM   21  C   UNL     1      -5.973   0.126 -32.893  1.00  0.00     0.011 A 
HETATM   22  C   UNL     1      -6.009  -1.192 -33.357  1.00  0.00     0.037 A 
HETATM   23  C   UNL     1      -6.642  -1.501 -34.556  1.00  0.00     0.068 A 
HETATM   24  C   UNL     1      -7.239  -0.475 -35.285  1.00  0.00     0.037 A 
HETATM   25  C   UNL     1      -7.191   0.852 -34.824  1.00  0.00     0.011 A 
BRANCH  23  26
HETATM   26  O   UNL     1      -6.585  -2.821 -34.904  1.00  0.00    -0.356 OA
HETATM   27  C   UNL     1      -5.348  -3.491 -34.699  1.00  0.00     0.210 C 
ENDBRANCH  23  26
ENDBRANCH  15  20
TORSDOF 2
ENDMDL
MODEL 9
REMARK VINA RESULT:      -8.2      4.537      5.497
REMARK  2 active torsions:
REMARK  status: ('A' for Active; 'I' for Inactive)
REMARK    1  A    between atoms: C_15  and  C_16 
REMARK    2  A    between atoms: C_19  and  O_20 
ROOT
HETATM    1  C   UNL     1      -6.743  -4.532 -35.588  1.00  0.00     0.048 C 
HETATM    2  C   UNL     1      -6.007  -3.498 -34.786  1.00  0.00    -0.061 A 
HETATM    3  C   UNL     1      -6.687  -2.389 -34.248  1.00  0.00     0.021 A 
HETATM    4  C   UNL     1      -5.986  -1.448 -33.464  1.00  0.00    -0.000 A 
HETATM    5  C   UNL     1      -4.615  -1.645 -33.254  1.00  0.00     0.043 A 
HETATM    6  N   UNL     1      -4.162  -0.603 -32.476  1.00  0.00    -0.353 N 
HETATM    7  H   UNL     1      -3.205  -0.466 -32.174  1.00  0.00     0.166 HD
HETATM    8  C   UNL     1      -5.212   0.187 -32.124  1.00  0.00     0.066 A 
HETATM    9  C   UNL     1      -6.346  -0.255 -32.774  1.00  0.00    -0.017 A 
HETATM   10  C   UNL     1      -7.652   0.482 -32.659  1.00  0.00     0.043 C 
HETATM   11  C   UNL     1      -7.473   1.886 -31.979  1.00  0.00     0.018 C 
HETATM   12  C   UNL     1      -6.563   1.764 -30.739  1.00  0.00     0.065 C 
HETATM   13  C   UNL     1      -5.224   1.342 -31.296  1.00  0.00     0.082 C 
HETATM   14  N   UNL     1      -4.223   2.142 -31.127  1.00  0.00    -0.203 NA
HETATM   15  C   UNL     1      -6.064   2.938 -29.888  1.00  0.00     0.121 C 
HETATM   16  N   UNL     1      -4.716   3.210 -30.441  1.00  0.00    -0.207 NA
HETATM   17  C   UNL     1      -3.917  -2.735 -33.783  1.00  0.00     0.031 A 
HETATM   18  C   UNL     1      -4.639  -3.660 -34.545  1.00  0.00     0.009 A 
HETATM   19  H   UNL     1      -4.748   4.029 -31.055  1.00  0.00     0.149 HD
ENDROOT
BRANCH  15  20
HETATM   20  C   UNL     1      -6.876   4.176 -29.578  1.00  0.00    -0.038 A 
HETATM   21  C   UNL     1      -6.412   5.067 -28.591  1.00  0.00     0.011 A 
HETATM   22  C   UNL     1      -7.176   6.159 -28.172  1.00  0.00     0.037 A 
HETATM   23  C   UNL     1      -8.434   6.391 -28.717  1.00  0.00     0.068 A 
HETATM   24  C   UNL     1      -8.919   5.516 -29.686  1.00  0.00     0.037 A 
HETATM   25  C   UNL     1      -8.155   4.410 -30.098  1.00  0.00     0.011 A 
BRANCH  23  26
HETATM   26  O   UNL     1      -9.084   7.477 -28.203  1.00  0.00    -0.356 OA
HETATM   27  C   UNL     1      -8.452   8.742 -28.357  1.00  0.00     0.210 C 
ENDBRANCH  23  26
ENDBRANCH  15  20
TORSDOF 2
ENDMDL
MODEL 10
REMARK VINA RESULT:      -8.1      3.107      4.361
REMARK  2 active torsions:
REMARK  status: ('A' for Active; 'I' for Inactive)
REMARK    1  A    between atoms: C_15  and  C_16 
REMARK    2  A    between atoms: C_19  and  O_20 
ROOT
HETATM    1  C   UNL     1     -13.522  -0.719 -33.554  1.00  0.00     0.048 C 
HETATM    2  C   UNL     1     -12.708   0.502 -33.869  1.00  0.00    -0.061 A 
HETATM    3  C   UNL     1     -11.418   0.663 -33.330  1.00  0.00     0.021 A 
HETATM    4  C   UNL     1     -10.652   1.799 -33.669  1.00  0.00    -0.000 A 
HETATM    5  C   UNL     1     -11.213   2.746 -34.535  1.00  0.00     0.043 A 
HETATM    6  N   UNL     1     -10.286   3.752 -34.705  1.00  0.00    -0.353 N 
HETATM    7  H   UNL     1     -10.417   4.585 -35.266  1.00  0.00     0.166 HD
HETATM    8  C   UNL     1      -9.141   3.425 -34.047  1.00  0.00     0.066 A 
HETATM    9  C   UNL     1      -9.348   2.263 -33.332  1.00  0.00    -0.017 A 
HETATM   10  C   UNL     1      -8.289   1.704 -32.423  1.00  0.00     0.043 C 
HETATM   11  C   UNL     1      -7.113   2.721 -32.201  1.00  0.00     0.018 C 
HETATM   12  C   UNL     1      -6.698   3.356 -33.543  1.00  0.00     0.065 C 
HETATM   13  C   UNL     1      -7.913   4.137 -33.981  1.00  0.00     0.082 C 
HETATM   14  N   UNL     1      -7.794   5.419 -34.101  1.00  0.00    -0.203 NA
HETATM   15  C   UNL     1      -5.667   4.479 -33.711  1.00  0.00     0.121 C 
HETATM   16  N   UNL     1      -6.503   5.701 -33.770  1.00  0.00    -0.207 NA
HETATM   17  C   UNL     1     -12.494   2.610 -35.079  1.00  0.00     0.031 A 
HETATM   18  C   UNL     1     -13.226   1.469 -34.736  1.00  0.00     0.009 A 
HETATM   19  H   UNL     1      -6.477   6.188 -32.870  1.00  0.00     0.149 HD
ENDROOT
BRANCH  15  20
HETATM   20  C   UNL     1      -4.411   4.619 -32.881  1.00  0.00    -0.038 A 
HETATM   21  C   UNL     1      -4.457   5.382 -31.698  1.00  0.00     0.011 A 
HETATM   22  C   UNL     1      -3.304   5.652 -30.956  1.00  0.00     0.037 A 
HETATM   23  C   UNL     1      -2.066   5.178 -31.376  1.00  0.00     0.068 A 
HETATM   24  C   UNL     1      -1.995   4.431 -32.549  1.00  0.00     0.037 A 
HETATM   25  C   UNL     1      -3.153   4.170 -33.302  1.00  0.00     0.011 A 
BRANCH  23  26
HETATM   26  O   UNL     1      -1.020   5.533 -30.572  1.00  0.00    -0.356 OA
HETATM   27  C   UNL     1      -1.227   6.624 -29.684  1.00  0.00     0.210 C 
ENDBRANCH  23  26
ENDBRANCH  15  20
TORSDOF 2
ENDMDL
