MODEL 1
REMARK VINA RESULT:      -9.5      0.000      0.000
REMARK  7 active torsions:
REMARK  status: ('A' for Active; 'I' for Inactive)
REMARK    1  A    between atoms: C_3  and  C_4 
REMARK    2  A    between atoms: C_4  and  S_5 
REMARK    3  A    between atoms: S_5  and  C_6 
REMARK    4  A    between atoms: C_6  and  C_7 
REMARK    5  A    between atoms: C_16  and  C_17 
REMARK       I    between atoms: C_17  and  N_18 
REMARK    6  A    between atoms: N_18  and  C_19 
REMARK    7  A    between atoms: C_19  and  C_20 
ROOT
HETATM    1  C   UNL     1      -6.390   1.244 -32.638  1.00  0.00     0.162 C 
HETATM    2  N   UNL     1      -6.226   2.644 -33.109  1.00  0.00    -0.277 NA
HETATM    3  C   UNL     1      -4.979   3.207 -32.771  1.00  0.00     0.036 A 
HETATM    4  C   UNL     1      -4.244   2.776 -31.657  1.00  0.00     0.057 A 
HETATM    5  N   UNL     1      -4.735   1.729 -30.868  1.00  0.00    -0.324 N 
HETATM    6  C   UNL     1      -5.858   1.016 -31.209  1.00  0.00     0.240 C 
HETATM    7  O   UNL     1      -6.318   0.172 -30.440  1.00  0.00    -0.271 OA
HETATM    8  C   UNL     1      -4.525   4.318 -33.485  1.00  0.00     0.027 A 
HETATM    9  C   UNL     1      -3.314   4.936 -33.150  1.00  0.00     0.019 A 
HETATM   10  C   UNL     1      -2.562   4.476 -32.060  1.00  0.00     0.034 A 
HETATM   11  C   UNL     1      -3.048   3.400 -31.303  1.00  0.00     0.048 A 
HETATM   12  H   UNL     1      -6.972   3.239 -32.749  1.00  0.00     0.128 HD
HETATM   13  H   UNL     1      -4.296   1.498 -29.985  1.00  0.00     0.169 HD
ENDROOT
BRANCH  10  14
HETATM   14  C   UNL     1      -1.231   5.042 -31.678  1.00  0.00     0.252 C 
HETATM   15  N   UNL     1      -0.915   5.096 -30.339  1.00  0.00    -0.353 N 
HETATM   16  H   UNL     1      -1.450   4.588 -29.654  1.00  0.00     0.163 HD
HETATM   17  O   UNL     1      -0.474   5.453 -32.550  1.00  0.00    -0.268 OA
BRANCH  15  18
HETATM   18  C   UNL     1       0.335   5.674 -29.893  1.00  0.00     0.161 C 
BRANCH  18  19
HETATM   19  C   UNL     1       0.109   6.978 -29.166  1.00  0.00    -0.040 A 
HETATM   20  C   UNL     1      -1.031   7.751 -29.429  1.00  0.00     0.010 A 
HETATM   21  C   UNL     1      -1.259   8.940 -28.729  1.00  0.00     0.024 A 
HETATM   22  C   UNL     1      -0.350   9.359 -27.760  1.00  0.00     0.034 A 
HETATM   23 CL   UNL     1      -0.632  10.821 -26.899  1.00  0.00    -0.084 Cl
HETATM   24  C   UNL     1       0.781   8.597 -27.477  1.00  0.00     0.024 A 
HETATM   25  C   UNL     1       1.005   7.407 -28.173  1.00  0.00     0.010 A 
ENDBRANCH  18  19
ENDBRANCH  15  18
ENDBRANCH  10  14
BRANCH   1  26
HETATM   26  C   UNL     1      -7.856   0.784 -32.722  1.00  0.00     0.103 C 
BRANCH  26  27
HETATM   27  S   UNL     1      -8.168  -0.701 -33.756  1.00  0.00    -0.162 SA
BRANCH  27  28
HETATM   28  C   UNL     1      -6.583  -0.793 -34.647  1.00  0.00     0.112 C 
BRANCH  28  29
HETATM   29  C   UNL     1      -5.955  -2.164 -34.541  1.00  0.00    -0.043 A 
HETATM   30  C   UNL     1      -4.656  -2.361 -34.025  1.00  0.00    -0.055 A 
HETATM   31  C   UNL     1      -3.809  -1.215 -33.538  1.00  0.00     0.049 C 
HETATM   32  C   UNL     1      -4.145  -3.667 -33.933  1.00  0.00     0.007 A 
HETATM   33  C   UNL     1      -4.894  -4.761 -34.363  1.00  0.00     0.001 A 
HETATM   34  C   UNL     1      -6.164  -4.568 -34.893  1.00  0.00     0.001 A 
HETATM   35  C   UNL     1      -6.690  -3.280 -34.983  1.00  0.00     0.008 A 
ENDBRANCH  28  29
ENDBRANCH  27  28
ENDBRANCH  26  27
ENDBRANCH   1  26
TORSDOF 7
ENDMDL
MODEL 2
REMARK VINA RESULT:      -9.3      4.066     10.867
REMARK  7 active torsions:
REMARK  status: ('A' for Active; 'I' for Inactive)
REMARK    1  A    between atoms: C_3  and  C_4 
REMARK    2  A    between atoms: C_4  and  S_5 
REMARK    3  A    between atoms: S_5  and  C_6 
REMARK    4  A    between atoms: C_6  and  C_7 
REMARK    5  A    between atoms: C_16  and  C_17 
REMARK       I    between atoms: C_17  and  N_18 
REMARK    6  A    between atoms: N_18  and  C_19 
REMARK    7  A    between atoms: C_19  and  C_20 
ROOT
HETATM    1  C   UNL     1      -2.974   6.383 -32.240  1.00  0.00     0.162 C 
HETATM    2  N   UNL     1      -4.176   6.448 -33.112  1.00  0.00    -0.277 NA
HETATM    3  C   UNL     1      -4.862   5.221 -33.214  1.00  0.00     0.036 A 
HETATM    4  C   UNL     1      -4.214   3.989 -33.041  1.00  0.00     0.057 A 
HETATM    5  N   UNL     1      -2.852   3.962 -32.721  1.00  0.00    -0.324 N 
HETATM    6  C   UNL     1      -2.139   5.104 -32.447  1.00  0.00     0.240 C 
HETATM    7  O   UNL     1      -0.922   5.052 -32.271  1.00  0.00    -0.271 OA
HETATM    8  C   UNL     1      -6.193   5.226 -33.633  1.00  0.00     0.027 A 
HETATM    9  C   UNL     1      -6.897   4.026 -33.792  1.00  0.00     0.019 A 
HETATM   10  C   UNL     1      -6.257   2.797 -33.579  1.00  0.00     0.034 A 
HETATM   11  C   UNL     1      -4.901   2.788 -33.219  1.00  0.00     0.048 A 
HETATM   12  H   UNL     1      -3.929   6.774 -34.047  1.00  0.00     0.128 HD
HETATM   13  H   UNL     1      -2.336   3.092 -32.732  1.00  0.00     0.169 HD
ENDROOT
BRANCH  10  14
HETATM   14  C   UNL     1      -6.954   1.476 -33.668  1.00  0.00     0.252 C 
HETATM   15  N   UNL     1      -6.656   0.660 -34.736  1.00  0.00    -0.353 N 
HETATM   16  H   UNL     1      -5.854   0.835 -35.320  1.00  0.00     0.163 HD
HETATM   17  O   UNL     1      -7.773   1.164 -32.810  1.00  0.00    -0.268 OA
BRANCH  15  18
HETATM   18  C   UNL     1      -7.327  -0.610 -34.912  1.00  0.00     0.161 C 
BRANCH  18  19
HETATM   19  C   UNL     1      -6.402  -1.766 -34.614  1.00  0.00    -0.040 A 
HETATM   20  C   UNL     1      -6.753  -3.071 -34.985  1.00  0.00     0.010 A 
HETATM   21  C   UNL     1      -5.880  -4.137 -34.742  1.00  0.00     0.024 A 
HETATM   22  C   UNL     1      -4.651  -3.900 -34.130  1.00  0.00     0.034 A 
HETATM   23 CL   UNL     1      -3.579  -5.212 -33.832  1.00  0.00    -0.084 Cl
HETATM   24  C   UNL     1      -4.282  -2.609 -33.765  1.00  0.00     0.024 A 
HETATM   25  C   UNL     1      -5.152  -1.544 -34.013  1.00  0.00     0.010 A 
ENDBRANCH  18  19
ENDBRANCH  15  18
ENDBRANCH  10  14
BRANCH   1  26
HETATM   26  C   UNL     1      -2.076   7.620 -32.418  1.00  0.00     0.103 C 
BRANCH  26  27
HETATM   27  S   UNL     1      -2.279   8.941 -31.159  1.00  0.00    -0.162 SA
BRANCH  27  28
HETATM   28  C   UNL     1      -2.123   7.946 -29.642  1.00  0.00     0.112 C 
BRANCH  28  29
HETATM   29  C   UNL     1      -0.972   8.412 -28.778  1.00  0.00    -0.043 A 
HETATM   30  C   UNL     1       0.302   7.805 -28.827  1.00  0.00    -0.055 A 
HETATM   31  C   UNL     1       0.602   6.655 -29.751  1.00  0.00     0.049 C 
HETATM   32  C   UNL     1       1.332   8.305 -28.013  1.00  0.00     0.007 A 
HETATM   33  C   UNL     1       1.105   9.374 -27.147  1.00  0.00     0.001 A 
HETATM   34  C   UNL     1      -0.154   9.959 -27.080  1.00  0.00     0.001 A 
HETATM   35  C   UNL     1      -1.185   9.480 -27.888  1.00  0.00     0.008 A 
ENDBRANCH  28  29
ENDBRANCH  27  28
ENDBRANCH  26  27
ENDBRANCH   1  26
TORSDOF 7
ENDMDL
MODEL 3
REMARK VINA RESULT:      -9.3      4.390     10.091
REMARK  7 active torsions:
REMARK  status: ('A' for Active; 'I' for Inactive)
REMARK    1  A    between atoms: C_3  and  C_4 
REMARK    2  A    between atoms: C_4  and  S_5 
REMARK    3  A    between atoms: S_5  and  C_6 
REMARK    4  A    between atoms: C_6  and  C_7 
REMARK    5  A    between atoms: C_16  and  C_17 
REMARK       I    between atoms: C_17  and  N_18 
REMARK    6  A    between atoms: N_18  and  C_19 
REMARK    7  A    between atoms: C_19  and  C_20 
ROOT
HETATM    1  C   UNL     1      -4.444   6.825 -28.945  1.00  0.00     0.162 C 
HETATM    2  N   UNL     1      -3.702   6.145 -30.039  1.00  0.00    -0.277 NA
HETATM    3  C   UNL     1      -4.413   5.076 -30.620  1.00  0.00     0.036 A 
HETATM    4  C   UNL     1      -5.387   4.357 -29.912  1.00  0.00     0.057 A 
HETATM    5  N   UNL     1      -5.699   4.724 -28.597  1.00  0.00    -0.324 N 
HETATM    6  C   UNL     1      -5.174   5.846 -28.003  1.00  0.00     0.240 C 
HETATM    7  O   UNL     1      -5.389   6.081 -26.815  1.00  0.00    -0.271 OA
HETATM    8  C   UNL     1      -4.043   4.632 -31.890  1.00  0.00     0.027 A 
HETATM    9  C   UNL     1      -4.693   3.543 -32.484  1.00  0.00     0.019 A 
HETATM   10  C   UNL     1      -5.694   2.851 -31.788  1.00  0.00     0.034 A 
HETATM   11  C   UNL     1      -6.023   3.256 -30.486  1.00  0.00     0.048 A 
HETATM   12  H   UNL     1      -2.797   5.807 -29.708  1.00  0.00     0.128 HD
HETATM   13  H   UNL     1      -6.289   4.136 -28.023  1.00  0.00     0.169 HD
ENDROOT
BRANCH  10  14
HETATM   14  C   UNL     1      -6.476   1.719 -32.375  1.00  0.00     0.252 C 
HETATM   15  N   UNL     1      -6.143   1.294 -33.642  1.00  0.00    -0.353 N 
HETATM   16  H   UNL     1      -5.281   1.576 -34.078  1.00  0.00     0.163 HD
HETATM   17  O   UNL     1      -7.391   1.216 -31.731  1.00  0.00    -0.268 OA
BRANCH  15  18
HETATM   18  C   UNL     1      -6.888   0.236 -34.290  1.00  0.00     0.161 C 
BRANCH  18  19
HETATM   19  C   UNL     1      -6.124  -1.066 -34.271  1.00  0.00    -0.040 A 
HETATM   20  C   UNL     1      -4.853  -1.136 -33.682  1.00  0.00     0.010 A 
HETATM   21  C   UNL     1      -4.161  -2.350 -33.632  1.00  0.00     0.024 A 
HETATM   22  C   UNL     1      -4.738  -3.500 -34.167  1.00  0.00     0.034 A 
HETATM   23 CL   UNL     1      -3.885  -4.993 -34.103  1.00  0.00    -0.084 Cl
HETATM   24  C   UNL     1      -6.003  -3.451 -34.744  1.00  0.00     0.024 A 
HETATM   25  C   UNL     1      -6.697  -2.239 -34.789  1.00  0.00     0.010 A 
ENDBRANCH  18  19
ENDBRANCH  15  18
ENDBRANCH  10  14
BRANCH   1  26
HETATM   26  C   UNL     1      -3.527   7.746 -28.122  1.00  0.00     0.103 C 
BRANCH  26  27
HETATM   27  S   UNL     1      -2.662   9.061 -29.067  1.00  0.00    -0.162 SA
BRANCH  27  28
HETATM   28  C   UNL     1      -0.943   8.707 -28.582  1.00  0.00     0.112 C 
BRANCH  28  29
HETATM   29  C   UNL     1      -0.400   7.483 -29.286  1.00  0.00    -0.043 A 
HETATM   30  C   UNL     1       0.162   6.396 -28.582  1.00  0.00    -0.055 A 
HETATM   31  C   UNL     1       0.252   6.379 -27.079  1.00  0.00     0.049 C 
HETATM   32  C   UNL     1       0.626   5.280 -29.300  1.00  0.00     0.007 A 
HETATM   33  C   UNL     1       0.557   5.245 -30.692  1.00  0.00     0.001 A 
HETATM   34  C   UNL     1       0.024   6.323 -31.388  1.00  0.00     0.001 A 
HETATM   35  C   UNL     1      -0.448   7.435 -30.692  1.00  0.00     0.008 A 
ENDBRANCH  28  29
ENDBRANCH  27  28
ENDBRANCH  26  27
ENDBRANCH   1  26
TORSDOF 7
ENDMDL
MODEL 4
REMARK VINA RESULT:      -9.2      1.819      2.220
REMARK  7 active torsions:
REMARK  status: ('A' for Active; 'I' for Inactive)
REMARK    1  A    between atoms: C_3  and  C_4 
REMARK    2  A    between atoms: C_4  and  S_5 
REMARK    3  A    between atoms: S_5  and  C_6 
REMARK    4  A    between atoms: C_6  and  C_7 
REMARK    5  A    between atoms: C_16  and  C_17 
REMARK       I    between atoms: C_17  and  N_18 
REMARK    6  A    between atoms: N_18  and  C_19 
REMARK    7  A    between atoms: C_19  and  C_20 
ROOT
HETATM    1  C   UNL     1      -6.942   3.289 -33.102  1.00  0.00     0.162 C 
HETATM    2  N   UNL     1      -5.585   2.683 -33.093  1.00  0.00    -0.277 NA
HETATM    3  C   UNL     1      -4.562   3.602 -32.785  1.00  0.00     0.036 A 
HETATM    4  C   UNL     1      -4.690   4.974 -33.043  1.00  0.00     0.057 A 
HETATM    5  N   UNL     1      -5.881   5.466 -33.592  1.00  0.00    -0.324 N 
HETATM    6  C   UNL     1      -6.987   4.673 -33.779  1.00  0.00     0.240 C 
HETATM    7  O   UNL     1      -7.979   5.114 -34.358  1.00  0.00    -0.271 OA
HETATM    8  C   UNL     1      -3.333   3.116 -32.334  1.00  0.00     0.027 A 
HETATM    9  C   UNL     1      -2.275   3.992 -32.061  1.00  0.00     0.019 A 
HETATM   10  C   UNL     1      -2.421   5.369 -32.283  1.00  0.00     0.034 A 
HETATM   11  C   UNL     1      -3.635   5.852 -32.796  1.00  0.00     0.048 A 
HETATM   12  H   UNL     1      -5.379   2.239 -33.989  1.00  0.00     0.128 HD
HETATM   13  H   UNL     1      -5.943   6.423 -33.917  1.00  0.00     0.169 HD
ENDROOT
BRANCH  10  14
HETATM   14  C   UNL     1      -1.363   6.375 -31.958  1.00  0.00     0.252 C 
HETATM   15  N   UNL     1      -0.549   6.128 -30.875  1.00  0.00    -0.353 N 
HETATM   16  H   UNL     1      -0.515   5.219 -30.443  1.00  0.00     0.163 HD
HETATM   17  O   UNL     1      -1.257   7.386 -32.644  1.00  0.00    -0.268 OA
BRANCH  15  18
HETATM   18  C   UNL     1       0.465   7.080 -30.475  1.00  0.00     0.161 C 
BRANCH  18  19
HETATM   19  C   UNL     1       0.176   7.646 -29.106  1.00  0.00    -0.040 A 
HETATM   20  C   UNL     1      -1.117   7.582 -28.567  1.00  0.00     0.010 A 
HETATM   21  C   UNL     1      -1.376   8.074 -27.284  1.00  0.00     0.024 A 
HETATM   22  C   UNL     1      -0.343   8.629 -26.532  1.00  0.00     0.034 A 
HETATM   23 CL   UNL     1      -0.664   9.233 -24.954  1.00  0.00    -0.084 Cl
HETATM   24  C   UNL     1       0.949   8.690 -27.046  1.00  0.00     0.024 A 
HETATM   25  C   UNL     1       1.209   8.193 -28.326  1.00  0.00     0.010 A 
ENDBRANCH  18  19
ENDBRANCH  15  18
ENDBRANCH  10  14
BRANCH   1  26
HETATM   26  C   UNL     1      -7.975   2.358 -33.761  1.00  0.00     0.103 C 
BRANCH  26  27
HETATM   27  S   UNL     1      -7.286   0.972 -34.748  1.00  0.00    -0.162 SA
BRANCH  27  28
HETATM   28  C   UNL     1      -7.360  -0.356 -33.503  1.00  0.00     0.112 C 
BRANCH  28  29
HETATM   29  C   UNL     1      -6.435  -1.503 -33.846  1.00  0.00    -0.043 A 
HETATM   30  C   UNL     1      -5.106  -1.566 -33.375  1.00  0.00    -0.055 A 
HETATM   31  C   UNL     1      -4.520  -0.496 -32.492  1.00  0.00     0.049 C 
HETATM   32  C   UNL     1      -4.311  -2.674 -33.713  1.00  0.00     0.007 A 
HETATM   33  C   UNL     1      -4.810  -3.694 -34.521  1.00  0.00     0.001 A 
HETATM   34  C   UNL     1      -6.111  -3.623 -35.005  1.00  0.00     0.001 A 
HETATM   35  C   UNL     1      -6.917  -2.535 -34.672  1.00  0.00     0.008 A 
ENDBRANCH  28  29
ENDBRANCH  27  28
ENDBRANCH  26  27
ENDBRANCH   1  26
TORSDOF 7
ENDMDL
MODEL 5
REMARK VINA RESULT:      -8.9      5.489      8.788
REMARK  7 active torsions:
REMARK  status: ('A' for Active; 'I' for Inactive)
REMARK    1  A    between atoms: C_3  and  C_4 
REMARK    2  A    between atoms: C_4  and  S_5 
REMARK    3  A    between atoms: S_5  and  C_6 
REMARK    4  A    between atoms: C_6  and  C_7 
REMARK    5  A    between atoms: C_16  and  C_17 
REMARK       I    between atoms: C_17  and  N_18 
REMARK    6  A    between atoms: N_18  and  C_19 
REMARK    7  A    between atoms: C_19  and  C_20 
ROOT
HETATM    1  C   UNL     1      -5.642   0.925 -32.305  1.00  0.00     0.162 C 
HETATM    2  N   UNL     1      -6.928   0.288 -31.920  1.00  0.00    -0.277 NA
HETATM    3  C   UNL     1      -8.053   0.882 -32.529  1.00  0.00     0.036 A 
HETATM    4  C   UNL     1      -8.055   2.222 -32.940  1.00  0.00     0.057 A 
HETATM    5  N   UNL     1      -6.900   2.997 -32.781  1.00  0.00    -0.324 N 
HETATM    6  C   UNL     1      -5.712   2.464 -32.345  1.00  0.00     0.240 C 
HETATM    7  O   UNL     1      -4.747   3.194 -32.119  1.00  0.00    -0.271 OA
HETATM    8  C   UNL     1      -9.242   0.155 -32.601  1.00  0.00     0.027 A 
HETATM    9  C   UNL     1     -10.395   0.726 -33.155  1.00  0.00     0.019 A 
HETATM   10  C   UNL     1     -10.383   2.054 -33.602  1.00  0.00     0.034 A 
HETATM   11  C   UNL     1      -9.205   2.806 -33.472  1.00  0.00     0.048 A 
HETATM   12  H   UNL     1      -7.050   0.297 -30.907  1.00  0.00     0.128 HD
HETATM   13  H   UNL     1      -6.924   3.997 -32.937  1.00  0.00     0.169 HD
ENDROOT
BRANCH  10  14
HETATM   14  C   UNL     1     -11.552   2.715 -34.261  1.00  0.00     0.252 C 
HETATM   15  N   UNL     1     -11.957   3.939 -33.779  1.00  0.00    -0.353 N 
HETATM   16  H   UNL     1     -11.374   4.474 -33.156  1.00  0.00     0.163 HD
HETATM   17  O   UNL     1     -12.122   2.152 -35.190  1.00  0.00    -0.268 OA
BRANCH  15  18
HETATM   18  C   UNL     1     -13.110   4.614 -34.337  1.00  0.00     0.161 C 
BRANCH  18  19
HETATM   19  C   UNL     1     -12.703   5.837 -35.122  1.00  0.00    -0.040 A 
HETATM   20  C   UNL     1     -11.416   6.376 -34.984  1.00  0.00     0.010 A 
HETATM   21  C   UNL     1     -11.028   7.487 -35.739  1.00  0.00     0.024 A 
HETATM   22  C   UNL     1     -11.923   8.063 -36.638  1.00  0.00     0.034 A 
HETATM   23 CL   UNL     1     -11.444   9.429 -37.566  1.00  0.00    -0.084 Cl
HETATM   24  C   UNL     1     -13.201   7.533 -36.796  1.00  0.00     0.024 A 
HETATM   25  C   UNL     1     -13.587   6.420 -36.046  1.00  0.00     0.010 A 
ENDBRANCH  18  19
ENDBRANCH  15  18
ENDBRANCH  10  14
BRANCH   1  26
HETATM   26  C   UNL     1      -4.492   0.484 -31.382  1.00  0.00     0.103 C 
BRANCH  26  27
HETATM   27  S   UNL     1      -3.684  -1.106 -31.817  1.00  0.00    -0.162 SA
BRANCH  27  28
HETATM   28  C   UNL     1      -4.036  -1.150 -33.603  1.00  0.00     0.112 C 
BRANCH  28  29
HETATM   29  C   UNL     1      -4.638  -2.472 -34.027  1.00  0.00    -0.043 A 
HETATM   30  C   UNL     1      -5.878  -2.555 -34.696  1.00  0.00    -0.055 A 
HETATM   31  C   UNL     1      -6.684  -1.330 -35.040  1.00  0.00     0.049 C 
HETATM   32  C   UNL     1      -6.366  -3.815 -35.083  1.00  0.00     0.007 A 
HETATM   33  C   UNL     1      -5.652  -4.978 -34.795  1.00  0.00     0.001 A 
HETATM   34  C   UNL     1      -4.442  -4.900 -34.117  1.00  0.00     0.001 A 
HETATM   35  C   UNL     1      -3.940  -3.657 -33.733  1.00  0.00     0.008 A 
ENDBRANCH  28  29
ENDBRANCH  27  28
ENDBRANCH  26  27
ENDBRANCH   1  26
TORSDOF 7
ENDMDL
MODEL 6
REMARK VINA RESULT:      -8.8      4.426     10.056
REMARK  7 active torsions:
REMARK  status: ('A' for Active; 'I' for Inactive)
REMARK    1  A    between atoms: C_3  and  C_4 
REMARK    2  A    between atoms: C_4  and  S_5 
REMARK    3  A    between atoms: S_5  and  C_6 
REMARK    4  A    between atoms: C_6  and  C_7 
REMARK    5  A    between atoms: C_16  and  C_17 
REMARK       I    between atoms: C_17  and  N_18 
REMARK    6  A    between atoms: N_18  and  C_19 
REMARK    7  A    between atoms: C_19  and  C_20 
ROOT
HETATM    1  C   UNL     1      -4.321   6.836 -29.659  1.00  0.00     0.162 C 
HETATM    2  N   UNL     1      -4.989   5.602 -29.170  1.00  0.00    -0.277 NA
HETATM    3  C   UNL     1      -5.341   4.708 -30.201  1.00  0.00     0.036 A 
HETATM    4  C   UNL     1      -5.593   5.143 -31.510  1.00  0.00     0.057 A 
HETATM    5  N   UNL     1      -5.461   6.500 -31.826  1.00  0.00    -0.324 N 
HETATM    6  C   UNL     1      -4.972   7.419 -30.929  1.00  0.00     0.240 C 
HETATM    7  O   UNL     1      -4.967   8.618 -31.206  1.00  0.00    -0.271 OA
HETATM    8  C   UNL     1      -5.576   3.370 -29.881  1.00  0.00     0.027 A 
HETATM    9  C   UNL     1      -5.974   2.459 -30.868  1.00  0.00     0.019 A 
HETATM   10  C   UNL     1      -6.187   2.890 -32.185  1.00  0.00     0.034 A 
HETATM   11  C   UNL     1      -6.011   4.247 -32.494  1.00  0.00     0.048 A 
HETATM   12  H   UNL     1      -5.821   5.831 -28.624  1.00  0.00     0.128 HD
HETATM   13  H   UNL     1      -5.774   6.855 -32.720  1.00  0.00     0.169 HD
ENDROOT
BRANCH  10  14
HETATM   14  C   UNL     1      -6.551   1.970 -33.306  1.00  0.00     0.252 C 
HETATM   15  N   UNL     1      -7.012   0.713 -32.985  1.00  0.00    -0.353 N 
HETATM   16  H   UNL     1      -7.299   0.485 -32.047  1.00  0.00     0.163 HD
HETATM   17  O   UNL     1      -6.416   2.345 -34.466  1.00  0.00    -0.268 OA
BRANCH  15  18
HETATM   18  C   UNL     1      -7.338  -0.246 -34.019  1.00  0.00     0.161 C 
BRANCH  18  19
HETATM   19  C   UNL     1      -6.360  -1.396 -34.029  1.00  0.00    -0.040 A 
HETATM   20  C   UNL     1      -6.689  -2.604 -34.661  1.00  0.00     0.010 A 
HETATM   21  C   UNL     1      -5.769  -3.657 -34.702  1.00  0.00     0.024 A 
HETATM   22  C   UNL     1      -4.515  -3.505 -34.114  1.00  0.00     0.034 A 
HETATM   23 CL   UNL     1      -3.384  -4.801 -34.166  1.00  0.00    -0.084 Cl
HETATM   24  C   UNL     1      -4.167  -2.309 -33.493  1.00  0.00     0.024 A 
HETATM   25  C   UNL     1      -5.084  -1.255 -33.458  1.00  0.00     0.010 A 
ENDBRANCH  18  19
ENDBRANCH  15  18
ENDBRANCH  10  14
BRANCH   1  26
HETATM   26  C   UNL     1      -4.258   7.919 -28.568  1.00  0.00     0.103 C 
BRANCH  26  27
HETATM   27  S   UNL     1      -2.597   8.241 -27.857  1.00  0.00    -0.162 SA
BRANCH  27  28
HETATM   28  C   UNL     1      -1.676   8.610 -29.384  1.00  0.00     0.112 C 
BRANCH  28  29
HETATM   29  C   UNL     1      -0.880   7.417 -29.864  1.00  0.00    -0.043 A 
HETATM   30  C   UNL     1      -0.780   7.078 -31.231  1.00  0.00    -0.055 A 
HETATM   31  C   UNL     1      -1.456   7.888 -32.306  1.00  0.00     0.049 C 
HETATM   32  C   UNL     1      -0.002   5.970 -31.608  1.00  0.00     0.007 A 
HETATM   33  C   UNL     1       0.651   5.195 -30.651  1.00  0.00     0.001 A 
HETATM   34  C   UNL     1       0.536   5.513 -29.303  1.00  0.00     0.001 A 
HETATM   35  C   UNL     1      -0.225   6.614 -28.912  1.00  0.00     0.008 A 
ENDBRANCH  28  29
ENDBRANCH  27  28
ENDBRANCH  26  27
ENDBRANCH   1  26
TORSDOF 7
ENDMDL
MODEL 7
REMARK VINA RESULT:      -8.8      4.455     10.731
REMARK  7 active torsions:
REMARK  status: ('A' for Active; 'I' for Inactive)
REMARK    1  A    between atoms: C_3  and  C_4 
REMARK    2  A    between atoms: C_4  and  S_5 
REMARK    3  A    between atoms: S_5  and  C_6 
REMARK    4  A    between atoms: C_6  and  C_7 
REMARK    5  A    between atoms: C_16  and  C_17 
REMARK       I    between atoms: C_17  and  N_18 
REMARK    6  A    between atoms: N_18  and  C_19 
REMARK    7  A    between atoms: C_19  and  C_20 
ROOT
HETATM    1  C   UNL     1      -4.205   6.877 -28.648  1.00  0.00     0.162 C 
HETATM    2  N   UNL     1      -3.373   6.393 -29.780  1.00  0.00    -0.277 NA
HETATM    3  C   UNL     1      -4.052   5.502 -30.635  1.00  0.00     0.036 A 
HETATM    4  C   UNL     1      -5.118   4.708 -30.188  1.00  0.00     0.057 A 
HETATM    5  N   UNL     1      -5.555   4.819 -28.863  1.00  0.00    -0.324 N 
HETATM    6  C   UNL     1      -5.061   5.769 -28.003  1.00  0.00     0.240 C 
HETATM    7  O   UNL     1      -5.393   5.771 -26.818  1.00  0.00    -0.271 OA
HETATM    8  C   UNL     1      -3.564   5.304 -31.928  1.00  0.00     0.027 A 
HETATM    9  C   UNL     1      -4.182   4.392 -32.793  1.00  0.00     0.019 A 
HETATM   10  C   UNL     1      -5.273   3.629 -32.355  1.00  0.00     0.034 A 
HETATM   11  C   UNL     1      -5.725   3.781 -31.035  1.00  0.00     0.048 A 
HETATM   12  H   UNL     1      -2.520   5.948 -29.440  1.00  0.00     0.128 HD
HETATM   13  H   UNL     1      -6.222   4.159 -28.482  1.00  0.00     0.169 HD
ENDROOT
BRANCH  10  14
HETATM   14  C   UNL     1      -6.025   2.681 -33.235  1.00  0.00     0.252 C 
HETATM   15  N   UNL     1      -5.889   1.332 -32.995  1.00  0.00    -0.353 N 
HETATM   16  H   UNL     1      -5.479   0.992 -32.140  1.00  0.00     0.163 HD
HETATM   17  O   UNL     1      -6.720   3.121 -34.145  1.00  0.00    -0.268 OA
BRANCH  15  18
HETATM   18  C   UNL     1      -6.549   0.357 -33.837  1.00  0.00     0.161 C 
BRANCH  18  19
HETATM   19  C   UNL     1      -5.787  -0.946 -33.869  1.00  0.00    -0.040 A 
HETATM   20  C   UNL     1      -6.176  -1.976 -34.737  1.00  0.00     0.010 A 
HETATM   21  C   UNL     1      -5.448  -3.169 -34.793  1.00  0.00     0.024 A 
HETATM   22  C   UNL     1      -4.326  -3.336 -33.983  1.00  0.00     0.034 A 
HETATM   23 CL   UNL     1      -3.432  -4.803 -34.053  1.00  0.00    -0.084 Cl
HETATM   24  C   UNL     1      -3.920  -2.319 -33.124  1.00  0.00     0.024 A 
HETATM   25  C   UNL     1      -4.643  -1.125 -33.073  1.00  0.00     0.010 A 
ENDBRANCH  18  19
ENDBRANCH  15  18
ENDBRANCH  10  14
BRANCH   1  26
HETATM   26  C   UNL     1      -3.351   7.564 -27.568  1.00  0.00     0.103 C 
BRANCH  26  27
HETATM   27  S   UNL     1      -3.167   9.383 -27.733  1.00  0.00    -0.162 SA
BRANCH  27  28
HETATM   28  C   UNL     1      -1.574   9.451 -28.613  1.00  0.00     0.112 C 
BRANCH  28  29
HETATM   29  C   UNL     1      -0.436   8.935 -27.761  1.00  0.00    -0.043 A 
HETATM   30  C   UNL     1       0.400   7.878 -28.181  1.00  0.00    -0.055 A 
HETATM   31  C   UNL     1       0.218   7.196 -29.511  1.00  0.00     0.049 C 
HETATM   32  C   UNL     1       1.454   7.465 -27.348  1.00  0.00     0.007 A 
HETATM   33  C   UNL     1       1.669   8.071 -26.111  1.00  0.00     0.001 A 
HETATM   34  C   UNL     1       0.833   9.097 -25.685  1.00  0.00     0.001 A 
HETATM   35  C   UNL     1      -0.213   9.524 -26.503  1.00  0.00     0.008 A 
ENDBRANCH  28  29
ENDBRANCH  27  28
ENDBRANCH  26  27
ENDBRANCH   1  26
TORSDOF 7
ENDMDL
MODEL 8
REMARK VINA RESULT:      -8.8      1.821      2.143
REMARK  7 active torsions:
REMARK  status: ('A' for Active; 'I' for Inactive)
REMARK    1  A    between atoms: C_3  and  C_4 
REMARK    2  A    between atoms: C_4  and  S_5 
REMARK    3  A    between atoms: S_5  and  C_6 
REMARK    4  A    between atoms: C_6  and  C_7 
REMARK    5  A    between atoms: C_16  and  C_17 
REMARK       I    between atoms: C_17  and  N_18 
REMARK    6  A    between atoms: N_18  and  C_19 
REMARK    7  A    between atoms: C_19  and  C_20 
ROOT
HETATM    1  C   UNL     1      -5.825   1.071 -31.685  1.00  0.00     0.162 C 
HETATM    2  N   UNL     1      -6.345   2.164 -32.548  1.00  0.00    -0.277 NA
HETATM    3  C   UNL     1      -5.801   3.428 -32.242  1.00  0.00     0.036 A 
HETATM    4  C   UNL     1      -5.323   3.743 -30.962  1.00  0.00     0.057 A 
HETATM    5  N   UNL     1      -5.347   2.770 -29.955  1.00  0.00    -0.324 N 
HETATM    6  C   UNL     1      -5.711   1.468 -30.200  1.00  0.00     0.240 C 
HETATM    7  O   UNL     1      -5.820   0.667 -29.273  1.00  0.00    -0.271 OA
HETATM    8  C   UNL     1      -5.864   4.439 -33.202  1.00  0.00     0.027 A 
HETATM    9  C   UNL     1      -5.377   5.722 -32.922  1.00  0.00     0.019 A 
HETATM   10  C   UNL     1      -4.862   6.022 -31.653  1.00  0.00     0.034 A 
HETATM   11  C   UNL     1      -4.857   5.024 -30.666  1.00  0.00     0.048 A 
HETATM   12  H   UNL     1      -7.363   2.215 -32.495  1.00  0.00     0.128 HD
HETATM   13  H   UNL     1      -5.142   3.016 -28.995  1.00  0.00     0.169 HD
ENDROOT
BRANCH  10  14
HETATM   14  C   UNL     1      -4.268   7.347 -31.295  1.00  0.00     0.252 C 
HETATM   15  N   UNL     1      -2.916   7.399 -31.039  1.00  0.00    -0.353 N 
HETATM   16  H   UNL     1      -2.307   6.636 -31.285  1.00  0.00     0.163 HD
HETATM   17  O   UNL     1      -4.990   8.336 -31.223  1.00  0.00    -0.268 OA
BRANCH  15  18
HETATM   18  C   UNL     1      -2.282   8.638 -30.640  1.00  0.00     0.161 C 
BRANCH  18  19
HETATM   19  C   UNL     1      -1.259   8.407 -29.554  1.00  0.00    -0.040 A 
HETATM   20  C   UNL     1      -0.248   7.450 -29.722  1.00  0.00     0.010 A 
HETATM   21  C   UNL     1       0.721   7.262 -28.731  1.00  0.00     0.024 A 
HETATM   22  C   UNL     1       0.686   8.033 -27.571  1.00  0.00     0.034 A 
HETATM   23 CL   UNL     1       1.879   7.800 -26.354  1.00  0.00    -0.084 Cl
HETATM   24  C   UNL     1      -0.304   8.995 -27.394  1.00  0.00     0.024 A 
HETATM   25  C   UNL     1      -1.268   9.187 -28.386  1.00  0.00     0.010 A 
ENDBRANCH  18  19
ENDBRANCH  15  18
ENDBRANCH  10  14
BRANCH   1  26
HETATM   26  C   UNL     1      -6.672  -0.207 -31.815  1.00  0.00     0.103 C 
BRANCH  26  27
HETATM   27  S   UNL     1      -7.681  -0.344 -33.342  1.00  0.00    -0.162 SA
BRANCH  27  28
HETATM   28  C   UNL     1      -6.360  -0.661 -34.555  1.00  0.00     0.112 C 
BRANCH  28  29
HETATM   29  C   UNL     1      -5.887  -2.097 -34.511  1.00  0.00    -0.043 A 
HETATM   30  C   UNL     1      -4.619  -2.459 -34.008  1.00  0.00    -0.055 A 
HETATM   31  C   UNL     1      -3.652  -1.437 -33.473  1.00  0.00     0.049 C 
HETATM   32  C   UNL     1      -4.255  -3.816 -33.975  1.00  0.00     0.007 A 
HETATM   33  C   UNL     1      -5.120  -4.801 -34.452  1.00  0.00     0.001 A 
HETATM   34  C   UNL     1      -6.360  -4.445 -34.969  1.00  0.00     0.001 A 
HETATM   35  C   UNL     1      -6.740  -3.104 -35.000  1.00  0.00     0.008 A 
ENDBRANCH  28  29
ENDBRANCH  27  28
ENDBRANCH  26  27
ENDBRANCH   1  26
TORSDOF 7
ENDMDL
MODEL 9
REMARK VINA RESULT:      -8.4      4.374     11.566
REMARK  7 active torsions:
REMARK  status: ('A' for Active; 'I' for Inactive)
REMARK    1  A    between atoms: C_3  and  C_4 
REMARK    2  A    between atoms: C_4  and  S_5 
REMARK    3  A    between atoms: S_5  and  C_6 
REMARK    4  A    between atoms: C_6  and  C_7 
REMARK    5  A    between atoms: C_16  and  C_17 
REMARK       I    between atoms: C_17  and  N_18 
REMARK    6  A    between atoms: N_18  and  C_19 
REMARK    7  A    between atoms: C_19  and  C_20 
ROOT
HETATM    1  C   UNL     1      -2.225   7.363 -30.217  1.00  0.00     0.162 C 
HETATM    2  N   UNL     1      -1.703   6.112 -30.826  1.00  0.00    -0.277 NA
HETATM    3  C   UNL     1      -2.716   5.216 -31.225  1.00  0.00     0.036 A 
HETATM    4  C   UNL     1      -3.977   5.198 -30.611  1.00  0.00     0.057 A 
HETATM    5  N   UNL     1      -4.265   6.115 -29.593  1.00  0.00    -0.324 N 
HETATM    6  C   UNL     1      -3.399   7.124 -29.247  1.00  0.00     0.240 C 
HETATM    7  O   UNL     1      -3.640   7.847 -28.281  1.00  0.00    -0.271 OA
HETATM    8  C   UNL     1      -2.413   4.230 -32.164  1.00  0.00     0.027 A 
HETATM    9  C   UNL     1      -3.377   3.292 -32.552  1.00  0.00     0.019 A 
HETATM   10  C   UNL     1      -4.650   3.301 -31.965  1.00  0.00     0.034 A 
HETATM   11  C   UNL     1      -4.936   4.253 -30.975  1.00  0.00     0.048 A 
HETATM   12  H   UNL     1      -1.065   5.635 -30.188  1.00  0.00     0.128 HD
HETATM   13  H   UNL     1      -5.110   6.027 -29.043  1.00  0.00     0.169 HD
ENDROOT
BRANCH  10  14
HETATM   14  C   UNL     1      -5.752   2.374 -32.368  1.00  0.00     0.252 C 
HETATM   15  N   UNL     1      -5.512   1.499 -33.404  1.00  0.00    -0.353 N 
HETATM   16  H   UNL     1      -4.578   1.331 -33.741  1.00  0.00     0.163 HD
HETATM   17  O   UNL     1      -6.831   2.426 -31.787  1.00  0.00    -0.268 OA
BRANCH  15  18
HETATM   18  C   UNL     1      -6.549   0.607 -33.878  1.00  0.00     0.161 C 
BRANCH  18  19
HETATM   19  C   UNL     1      -6.044  -0.812 -33.990  1.00  0.00    -0.040 A 
HETATM   20  C   UNL     1      -6.824  -1.798 -34.610  1.00  0.00     0.010 A 
HETATM   21  C   UNL     1      -6.341  -3.103 -34.746  1.00  0.00     0.024 A 
HETATM   22  C   UNL     1      -5.073  -3.427 -34.266  1.00  0.00     0.034 A 
HETATM   23 CL   UNL     1      -4.480  -5.033 -34.434  1.00  0.00    -0.084 Cl
HETATM   24  C   UNL     1      -4.281  -2.457 -33.659  1.00  0.00     0.024 A 
HETATM   25  C   UNL     1      -4.761  -1.152 -33.528  1.00  0.00     0.010 A 
ENDBRANCH  18  19
ENDBRANCH  15  18
ENDBRANCH  10  14
BRANCH   1  26
HETATM   26  C   UNL     1      -1.115   8.151 -29.499  1.00  0.00     0.103 C 
BRANCH  26  27
HETATM   27  S   UNL     1      -0.060   7.178 -28.353  1.00  0.00    -0.162 SA
BRANCH  27  28
HETATM   28  C   UNL     1       1.307   8.359 -28.119  1.00  0.00     0.112 C 
BRANCH  28  29
HETATM   29  C   UNL     1       1.363   8.883 -26.702  1.00  0.00    -0.043 A 
HETATM   30  C   UNL     1       0.600   9.994 -26.278  1.00  0.00    -0.055 A 
HETATM   31  C   UNL     1      -0.328  10.727 -27.210  1.00  0.00     0.049 C 
HETATM   32  C   UNL     1       0.683  10.412 -24.939  1.00  0.00     0.007 A 
HETATM   33  C   UNL     1       1.521   9.760 -24.036  1.00  0.00     0.001 A 
HETATM   34  C   UNL     1       2.290   8.681 -24.456  1.00  0.00     0.001 A 
HETATM   35  C   UNL     1       2.213   8.247 -25.779  1.00  0.00     0.008 A 
ENDBRANCH  28  29
ENDBRANCH  27  28
ENDBRANCH  26  27
ENDBRANCH   1  26
TORSDOF 7
ENDMDL
MODEL 10
REMARK VINA RESULT:      -8.4      5.732      9.189
REMARK  7 active torsions:
REMARK  status: ('A' for Active; 'I' for Inactive)
REMARK    1  A    between atoms: C_3  and  C_4 
REMARK    2  A    between atoms: C_4  and  S_5 
REMARK    3  A    between atoms: S_5  and  C_6 
REMARK    4  A    between atoms: C_6  and  C_7 
REMARK    5  A    between atoms: C_16  and  C_17 
REMARK       I    between atoms: C_17  and  N_18 
REMARK    6  A    between atoms: N_18  and  C_19 
REMARK    7  A    between atoms: C_19  and  C_20 
ROOT
HETATM    1  C   UNL     1      -5.737   0.616 -32.115  1.00  0.00     0.162 C 
HETATM    2  N   UNL     1      -7.076   0.040 -31.826  1.00  0.00    -0.277 NA
HETATM    3  C   UNL     1      -8.133   0.738 -32.444  1.00  0.00     0.036 A 
HETATM    4  C   UNL     1      -8.035   2.099 -32.772  1.00  0.00     0.057 A 
HETATM    5  N   UNL     1      -6.844   2.788 -32.516  1.00  0.00    -0.324 N 
HETATM    6  C   UNL     1      -5.712   2.156 -32.063  1.00  0.00     0.240 C 
HETATM    7  O   UNL     1      -4.717   2.809 -31.751  1.00  0.00    -0.271 OA
HETATM    8  C   UNL     1      -9.360   0.094 -32.613  1.00  0.00     0.027 A 
HETATM    9  C   UNL     1     -10.448   0.768 -33.179  1.00  0.00     0.019 A 
HETATM   10  C   UNL     1     -10.335   2.117 -33.543  1.00  0.00     0.034 A 
HETATM   11  C   UNL     1      -9.121   2.784 -33.316  1.00  0.00     0.048 A 
HETATM   12  H   UNL     1      -7.244  -0.003 -30.821  1.00  0.00     0.128 HD
HETATM   13  H   UNL     1      -6.800   3.795 -32.611  1.00  0.00     0.169 HD
ENDROOT
BRANCH  10  14
HETATM   14  C   UNL     1     -11.430   2.888 -34.209  1.00  0.00     0.252 C 
HETATM   15  N   UNL     1     -11.604   4.205 -33.847  1.00  0.00    -0.353 N 
HETATM   16  H   UNL     1     -10.902   4.699 -33.321  1.00  0.00     0.163 HD
HETATM   17  O   UNL     1     -12.145   2.333 -35.037  1.00  0.00    -0.268 OA
BRANCH  15  18
HETATM   18  C   UNL     1     -12.673   4.997 -34.416  1.00  0.00     0.161 C 
BRANCH  18  19
HETATM   19  C   UNL     1     -13.773   5.237 -33.411  1.00  0.00    -0.040 A 
HETATM   20  C   UNL     1     -13.891   4.421 -32.277  1.00  0.00     0.010 A 
HETATM   21  C   UNL     1     -14.888   4.667 -31.327  1.00  0.00     0.024 A 
HETATM   22  C   UNL     1     -15.769   5.732 -31.505  1.00  0.00     0.034 A 
HETATM   23 CL   UNL     1     -16.993   6.032 -30.335  1.00  0.00    -0.084 Cl
HETATM   24  C   UNL     1     -15.658   6.559 -32.619  1.00  0.00     0.024 A 
HETATM   25  C   UNL     1     -14.659   6.317 -33.564  1.00  0.00     0.010 A 
ENDBRANCH  18  19
ENDBRANCH  15  18
ENDBRANCH  10  14
BRANCH   1  26
HETATM   26  C   UNL     1      -4.660   0.050 -31.173  1.00  0.00     0.103 C 
BRANCH  26  27
HETATM   27  S   UNL     1      -3.549  -1.217 -31.901  1.00  0.00    -0.162 SA
BRANCH  27  28
HETATM   28  C   UNL     1      -4.116  -1.165 -33.630  1.00  0.00     0.112 C 
BRANCH  28  29
HETATM   29  C   UNL     1      -4.710  -2.485 -34.069  1.00  0.00    -0.043 A 
HETATM   30  C   UNL     1      -5.972  -2.571 -34.697  1.00  0.00    -0.055 A 
HETATM   31  C   UNL     1      -6.809  -1.351 -34.978  1.00  0.00     0.049 C 
HETATM   32  C   UNL     1      -6.452  -3.828 -35.101  1.00  0.00     0.007 A 
HETATM   33  C   UNL     1      -5.711  -4.986 -34.871  1.00  0.00     0.001 A 
HETATM   34  C   UNL     1      -4.478  -4.906 -34.233  1.00  0.00     0.001 A 
HETATM   35  C   UNL     1      -3.983  -3.666 -33.833  1.00  0.00     0.008 A 
ENDBRANCH  28  29
ENDBRANCH  27  28
ENDBRANCH  26  27
ENDBRANCH   1  26
TORSDOF 7
ENDMDL
