MODEL 1
REMARK VINA RESULT:      -9.7      0.000      0.000
REMARK  7 active torsions:
REMARK  status: ('A' for Active; 'I' for Inactive)
REMARK    1  A    between atoms: C_2  and  N_3 
REMARK    2  A    between atoms: N_3  and  C_4 
REMARK    3  A    between atoms: C_4  and  N_5 
REMARK    4  A    between atoms: N_5  and  N_6 
REMARK    5  A    between atoms: N_6  and  C_7 
REMARK    6  A    between atoms: N_8  and  C_9 
REMARK    7  A    between atoms: C_10  and  O_11 
ROOT
HETATM    1  C   UNL     1      -4.314   2.415 -32.104  1.00  0.00     0.729 C 
HETATM    2  N   UNL     1      -5.431   3.239 -32.082  1.00  0.00    -0.105 N 
HETATM    3  C   UNL     1      -6.693   2.704 -32.292  1.00  0.00     0.276 C 
HETATM    4  O   UNL     1      -7.728   3.206 -31.852  1.00  0.00    -0.266 OA
HETATM    5  C   UNL     1      -6.740   1.390 -32.991  1.00  0.00     0.050 C 
HETATM    6  C   UNL     1      -5.580   0.704 -32.998  1.00  0.00     0.099 C 
HETATM    7  C   UNL     1      -5.568  -0.676 -33.556  1.00  0.00     0.000 A 
HETATM    8  C   UNL     1      -6.633  -1.125 -34.350  1.00  0.00    -0.044 A 
HETATM    9  C   UNL     1      -6.614  -2.417 -34.899  1.00  0.00     0.008 A 
HETATM   10  C   UNL     1      -5.548  -3.274 -34.643  1.00  0.00     0.001 A 
HETATM   11  C   UNL     1      -4.491  -2.845 -33.847  1.00  0.00     0.001 A 
HETATM   12  C   UNL     1      -4.501  -1.554 -33.311  1.00  0.00     0.014 A 
HETATM   13  C   UNL     1      -7.755  -0.180 -34.681  1.00  0.00     0.054 C 
HETATM   14  C   UNL     1      -8.070   0.853 -33.553  1.00  0.00    -0.002 C 
HETATM   15  C   UNL     1      -8.850   0.181 -32.386  1.00  0.00     0.015 C 
HETATM   16  C   UNL     1     -10.259  -0.288 -32.759  1.00  0.00     0.001 C 
HETATM   17  C   UNL     1     -11.080   0.822 -33.403  1.00  0.00     0.000 C 
HETATM   18  C   UNL     1     -10.362   1.444 -34.596  1.00  0.00     0.001 C 
HETATM   19  C   UNL     1      -8.968   1.949 -34.208  1.00  0.00     0.015 C 
HETATM   20  N   UNL     1      -4.390   1.175 -32.502  1.00  0.00    -0.061 NA
ENDROOT
BRANCH   1  21
HETATM   21  N   UNL     1      -3.089   2.928 -31.709  1.00  0.00    -0.127 N 
HETATM   22  H   UNL     1      -3.019   3.256 -30.745  1.00  0.00     0.205 HD
BRANCH  21  23
HETATM   23  N   UNL     1      -2.418   3.744 -32.634  1.00  0.00    -0.262 N 
HETATM   24  H   UNL     1      -2.868   3.763 -33.547  1.00  0.00     0.190 HD
BRANCH  23  25
HETATM   25  C   UNL     1      -1.692   4.820 -32.190  1.00  0.00     0.186 C 
HETATM   26  S   UNL     1      -1.116   6.061 -33.157  1.00  0.00    -0.040 SA
BRANCH  25  27
HETATM   27  N   UNL     1      -1.485   4.905 -30.846  1.00  0.00    -0.366 N 
HETATM   28  H   UNL     1      -1.950   4.177 -30.316  1.00  0.00     0.161 HD
BRANCH  27  29
HETATM   29  C   UNL     1      -0.466   5.673 -30.150  1.00  0.00     0.117 C 
HETATM   30  C   UNL     1       0.759   4.830 -29.838  1.00  0.00     0.026 C 
ENDBRANCH  27  29
ENDBRANCH  25  27
ENDBRANCH  23  25
ENDBRANCH  21  23
ENDBRANCH   1  21
BRANCH   2  31
HETATM   31  C   UNL     1      -5.371   4.577 -31.585  1.00  0.00     0.094 A 
HETATM   32  C   UNL     1      -5.527   5.660 -32.474  1.00  0.00     0.096 A 
HETATM   33  C   UNL     1      -5.457   6.965 -31.976  1.00  0.00     0.039 A 
HETATM   34  C   UNL     1      -5.237   7.192 -30.613  1.00  0.00     0.003 A 
HETATM   35  C   UNL     1      -5.084   6.120 -29.737  1.00  0.00     0.002 A 
HETATM   36  C   UNL     1      -5.151   4.816 -30.218  1.00  0.00     0.034 A 
BRANCH  32  37
HETATM   37  O   UNL     1      -5.673   5.338 -33.800  1.00  0.00    -0.354 OA
HETATM   38  C   UNL     1      -4.491   5.224 -34.581  1.00  0.00     0.210 C 
ENDBRANCH  32  37
ENDBRANCH   2  31
TORSDOF 7
ENDMDL
MODEL 2
REMARK VINA RESULT:      -9.7      1.198      1.640
REMARK  7 active torsions:
REMARK  status: ('A' for Active; 'I' for Inactive)
REMARK    1  A    between atoms: C_2  and  N_3 
REMARK    2  A    between atoms: N_3  and  C_4 
REMARK    3  A    between atoms: C_4  and  N_5 
REMARK    4  A    between atoms: N_5  and  N_6 
REMARK    5  A    between atoms: N_6  and  C_7 
REMARK    6  A    between atoms: N_8  and  C_9 
REMARK    7  A    between atoms: C_10  and  O_11 
ROOT
HETATM    1  C   UNL     1      -4.802   2.525 -31.456  1.00  0.00     0.729 C 
HETATM    2  N   UNL     1      -5.975   3.263 -31.385  1.00  0.00    -0.105 N 
HETATM    3  C   UNL     1      -7.182   2.685 -31.745  1.00  0.00     0.276 C 
HETATM    4  O   UNL     1      -8.272   3.050 -31.302  1.00  0.00    -0.266 OA
HETATM    5  C   UNL     1      -7.099   1.488 -32.627  1.00  0.00     0.050 C 
HETATM    6  C   UNL     1      -5.893   0.885 -32.661  1.00  0.00     0.099 C 
HETATM    7  C   UNL     1      -5.754  -0.394 -33.408  1.00  0.00     0.000 A 
HETATM    8  C   UNL     1      -6.742  -0.789 -34.322  1.00  0.00    -0.044 A 
HETATM    9  C   UNL     1      -6.602  -1.983 -35.047  1.00  0.00     0.008 A 
HETATM   10  C   UNL     1      -5.491  -2.799 -34.852  1.00  0.00     0.001 A 
HETATM   11  C   UNL     1      -4.509  -2.424 -33.940  1.00  0.00     0.001 A 
HETATM   12  C   UNL     1      -4.640  -1.229 -33.227  1.00  0.00     0.014 A 
HETATM   13  C   UNL     1      -7.911   0.120 -34.582  1.00  0.00     0.054 C 
HETATM   14  C   UNL     1      -8.356   0.954 -33.339  1.00  0.00    -0.002 C 
HETATM   15  C   UNL     1      -9.144   0.070 -32.330  1.00  0.00     0.015 C 
HETATM   16  C   UNL     1     -10.494  -0.429 -32.851  1.00  0.00     0.001 C 
HETATM   17  C   UNL     1     -11.360   0.709 -33.378  1.00  0.00     0.000 C 
HETATM   18  C   UNL     1     -10.629   1.544 -34.424  1.00  0.00     0.001 C 
HETATM   19  C   UNL     1      -9.297   2.075 -33.884  1.00  0.00     0.015 C 
HETATM   20  N   UNL     1      -4.767   1.353 -32.031  1.00  0.00    -0.061 NA
ENDROOT
BRANCH   1  21
HETATM   21  N   UNL     1      -3.638   3.051 -30.919  1.00  0.00    -0.127 N 
HETATM   22  H   UNL     1      -3.745   3.682 -30.124  1.00  0.00     0.205 HD
BRANCH  21  23
HETATM   23  N   UNL     1      -2.647   3.453 -31.829  1.00  0.00    -0.262 N 
HETATM   24  H   UNL     1      -2.577   2.838 -32.638  1.00  0.00     0.190 HD
BRANCH  23  25
HETATM   25  C   UNL     1      -2.313   4.779 -31.929  1.00  0.00     0.186 C 
HETATM   26  S   UNL     1      -1.158   5.557 -30.998  1.00  0.00    -0.040 SA
BRANCH  25  27
HETATM   27  N   UNL     1      -2.933   5.494 -32.911  1.00  0.00    -0.366 N 
HETATM   28  H   UNL     1      -3.291   6.389 -32.597  1.00  0.00     0.161 HD
BRANCH  27  29
HETATM   29  C   UNL     1      -2.857   5.284 -34.347  1.00  0.00     0.117 C 
HETATM   30  C   UNL     1      -1.425   5.347 -34.848  1.00  0.00     0.026 C 
ENDBRANCH  27  29
ENDBRANCH  25  27
ENDBRANCH  23  25
ENDBRANCH  21  23
ENDBRANCH   1  21
BRANCH   2  31
HETATM   31  C   UNL     1      -6.037   4.515 -30.699  1.00  0.00     0.094 A 
HETATM   32  C   UNL     1      -6.102   5.714 -31.439  1.00  0.00     0.096 A 
HETATM   33  C   UNL     1      -6.153   6.932 -30.755  1.00  0.00     0.039 A 
HETATM   34  C   UNL     1      -6.141   6.961 -29.357  1.00  0.00     0.003 A 
HETATM   35  C   UNL     1      -6.077   5.776 -28.629  1.00  0.00     0.002 A 
HETATM   36  C   UNL     1      -6.026   4.555 -29.296  1.00  0.00     0.034 A 
BRANCH  32  37
HETATM   37  O   UNL     1      -6.044   5.586 -32.804  1.00  0.00    -0.354 OA
HETATM   38  C   UNL     1      -7.266   5.682 -33.524  1.00  0.00     0.210 C 
ENDBRANCH  32  37
ENDBRANCH   2  31
TORSDOF 7
ENDMDL
MODEL 3
REMARK VINA RESULT:      -9.3      2.602      8.129
REMARK  7 active torsions:
REMARK  status: ('A' for Active; 'I' for Inactive)
REMARK    1  A    between atoms: C_2  and  N_3 
REMARK    2  A    between atoms: N_3  and  C_4 
REMARK    3  A    between atoms: C_4  and  N_5 
REMARK    4  A    between atoms: N_5  and  N_6 
REMARK    5  A    between atoms: N_6  and  C_7 
REMARK    6  A    between atoms: N_8  and  C_9 
REMARK    7  A    between atoms: C_10  and  O_11 
ROOT
HETATM    1  C   UNL     1      -6.944   2.226 -31.057  1.00  0.00     0.729 C 
HETATM    2  N   UNL     1      -6.265   2.024 -32.251  1.00  0.00    -0.105 N 
HETATM    3  C   UNL     1      -5.086   2.708 -32.504  1.00  0.00     0.276 C 
HETATM    4  O   UNL     1      -4.203   2.290 -33.254  1.00  0.00    -0.266 OA
HETATM    5  C   UNL     1      -4.868   3.952 -31.715  1.00  0.00     0.050 C 
HETATM    6  C   UNL     1      -5.625   4.066 -30.606  1.00  0.00     0.099 C 
HETATM    7  C   UNL     1      -5.379   5.211 -29.687  1.00  0.00     0.000 A 
HETATM    8  C   UNL     1      -4.626   6.313 -30.118  1.00  0.00    -0.044 A 
HETATM    9  C   UNL     1      -4.413   7.405 -29.262  1.00  0.00     0.008 A 
HETATM   10  C   UNL     1      -4.929   7.398 -27.969  1.00  0.00     0.001 A 
HETATM   11  C   UNL     1      -5.667   6.306 -27.526  1.00  0.00     0.001 A 
HETATM   12  C   UNL     1      -5.892   5.223 -28.380  1.00  0.00     0.014 A 
HETATM   13  C   UNL     1      -4.123   6.353 -31.533  1.00  0.00     0.054 C 
HETATM   14  C   UNL     1      -3.768   4.951 -32.122  1.00  0.00    -0.002 C 
HETATM   15  C   UNL     1      -2.414   4.436 -31.553  1.00  0.00     0.015 C 
HETATM   16  C   UNL     1      -1.196   5.256 -31.986  1.00  0.00     0.001 C 
HETATM   17  C   UNL     1      -1.129   5.423 -33.499  1.00  0.00     0.000 C 
HETATM   18  C   UNL     1      -2.422   5.997 -34.068  1.00  0.00     0.001 C 
HETATM   19  C   UNL     1      -3.634   5.149 -33.665  1.00  0.00     0.015 C 
HETATM   20  N   UNL     1      -6.608   3.184 -30.236  1.00  0.00    -0.061 NA
ENDROOT
BRANCH   1  21
HETATM   21  N   UNL     1      -8.012   1.402 -30.739  1.00  0.00    -0.127 N 
HETATM   22  H   UNL     1      -7.984   0.452 -31.111  1.00  0.00     0.205 HD
BRANCH  21  23
HETATM   23  N   UNL     1      -9.289   1.984 -30.771  1.00  0.00    -0.262 N 
HETATM   24  H   UNL     1      -9.485   2.560 -29.954  1.00  0.00     0.190 HD
BRANCH  23  25
HETATM   25  C   UNL     1      -9.882   2.258 -31.977  1.00  0.00     0.186 C 
HETATM   26  S   UNL     1      -9.891   3.753 -32.730  1.00  0.00    -0.040 SA
BRANCH  25  27
HETATM   27  N   UNL     1     -10.451   1.206 -32.631  1.00  0.00    -0.366 N 
HETATM   28  H   UNL     1     -10.556   0.378 -32.055  1.00  0.00     0.161 HD
BRANCH  27  29
HETATM   29  C   UNL     1     -11.186   1.231 -33.885  1.00  0.00     0.117 C 
HETATM   30  C   UNL     1     -12.582   0.653 -33.731  1.00  0.00     0.026 C 
ENDBRANCH  27  29
ENDBRANCH  25  27
ENDBRANCH  23  25
ENDBRANCH  21  23
ENDBRANCH   1  21
BRANCH   2  31
HETATM   31  C   UNL     1      -6.582   0.938 -33.123  1.00  0.00     0.094 A 
HETATM   32  C   UNL     1      -6.203  -0.374 -32.770  1.00  0.00     0.096 A 
HETATM   33  C   UNL     1      -6.512  -1.427 -33.637  1.00  0.00     0.039 A 
HETATM   34  C   UNL     1      -7.188  -1.182 -34.837  1.00  0.00     0.003 A 
HETATM   35  C   UNL     1      -7.562   0.114 -35.182  1.00  0.00     0.002 A 
HETATM   36  C   UNL     1      -7.261   1.173 -34.329  1.00  0.00     0.034 A 
BRANCH  32  37
HETATM   37  O   UNL     1      -5.488  -0.505 -31.606  1.00  0.00    -0.354 OA
HETATM   38  C   UNL     1      -4.130  -0.913 -31.715  1.00  0.00     0.210 C 
ENDBRANCH  32  37
ENDBRANCH   2  31
TORSDOF 7
ENDMDL
MODEL 4
REMARK VINA RESULT:      -9.0     16.202     18.818
REMARK  7 active torsions:
REMARK  status: ('A' for Active; 'I' for Inactive)
REMARK    1  A    between atoms: C_2  and  N_3 
REMARK    2  A    between atoms: N_3  and  C_4 
REMARK    3  A    between atoms: C_4  and  N_5 
REMARK    4  A    between atoms: N_5  and  N_6 
REMARK    5  A    between atoms: N_6  and  C_7 
REMARK    6  A    between atoms: N_8  and  C_9 
REMARK    7  A    between atoms: C_10  and  O_11 
ROOT
HETATM    1  C   UNL     1      -5.930 -13.085 -38.519  1.00  0.00     0.729 C 
HETATM    2  N   UNL     1      -6.677 -13.403 -39.645  1.00  0.00    -0.105 N 
HETATM    3  C   UNL     1      -6.130 -14.199 -40.639  1.00  0.00     0.276 C 
HETATM    4  O   UNL     1      -6.802 -14.898 -41.399  1.00  0.00    -0.266 OA
HETATM    5  C   UNL     1      -4.643 -14.273 -40.676  1.00  0.00     0.050 C 
HETATM    6  C   UNL     1      -4.023 -13.885 -39.544  1.00  0.00     0.099 C 
HETATM    7  C   UNL     1      -2.547 -14.052 -39.444  1.00  0.00     0.000 A 
HETATM    8  C   UNL     1      -1.783 -14.287 -40.597  1.00  0.00    -0.044 A 
HETATM    9  C   UNL     1      -0.389 -14.420 -40.509  1.00  0.00     0.008 A 
HETATM   10  C   UNL     1       0.250 -14.342 -39.275  1.00  0.00     0.001 A 
HETATM   11  C   UNL     1      -0.498 -14.121 -38.123  1.00  0.00     0.001 A 
HETATM   12  C   UNL     1      -1.885 -13.974 -38.209  1.00  0.00     0.014 A 
HETATM   13  C   UNL     1      -2.462 -14.308 -41.938  1.00  0.00     0.054 C 
HETATM   14  C   UNL     1      -3.922 -14.861 -41.904  1.00  0.00    -0.002 C 
HETATM   15  C   UNL     1      -3.926 -16.411 -41.769  1.00  0.00     0.015 C 
HETATM   16  C   UNL     1      -3.358 -17.150 -42.984  1.00  0.00     0.001 C 
HETATM   17  C   UNL     1      -4.021 -16.709 -44.282  1.00  0.00     0.000 C 
HETATM   18  C   UNL     1      -3.962 -15.196 -44.468  1.00  0.00     0.001 C 
HETATM   19  C   UNL     1      -4.568 -14.462 -43.268  1.00  0.00     0.015 C 
HETATM   20  N   UNL     1      -4.656 -13.358 -38.446  1.00  0.00    -0.061 NA
ENDROOT
BRANCH   1  21
HETATM   21  N   UNL     1      -6.550 -12.449 -37.454  1.00  0.00    -0.127 N 
HETATM   22  H   UNL     1      -6.128 -11.577 -37.134  1.00  0.00     0.205 HD
BRANCH  21  23
HETATM   23  N   UNL     1      -7.013 -13.269 -36.413  1.00  0.00    -0.262 N 
HETATM   24  H   UNL     1      -7.949 -13.634 -36.580  1.00  0.00     0.190 HD
BRANCH  23  25
HETATM   25  C   UNL     1      -6.116 -13.970 -35.648  1.00  0.00     0.186 C 
HETATM   26  S   UNL     1      -5.887 -15.628 -35.706  1.00  0.00    -0.040 SA
BRANCH  25  27
HETATM   27  N   UNL     1      -5.311 -13.239 -34.826  1.00  0.00    -0.366 N 
HETATM   28  H   UNL     1      -4.509 -12.835 -35.297  1.00  0.00     0.161 HD
BRANCH  27  29
HETATM   29  C   UNL     1      -5.624 -12.723 -33.503  1.00  0.00     0.117 C 
HETATM   30  C   UNL     1      -5.597 -13.819 -32.452  1.00  0.00     0.026 C 
ENDBRANCH  27  29
ENDBRANCH  25  27
ENDBRANCH  23  25
ENDBRANCH  21  23
ENDBRANCH   1  21
BRANCH   2  31
HETATM   31  C   UNL     1      -8.085 -13.168 -39.706  1.00  0.00     0.094 A 
HETATM   32  C   UNL     1      -8.968 -14.047 -39.045  1.00  0.00     0.096 A 
HETATM   33  C   UNL     1     -10.344 -13.811 -39.120  1.00  0.00     0.039 A 
HETATM   34  C   UNL     1     -10.838 -12.717 -39.840  1.00  0.00     0.003 A 
HETATM   35  C   UNL     1      -9.963 -11.851 -40.491  1.00  0.00     0.002 A 
HETATM   36  C   UNL     1      -8.590 -12.073 -40.425  1.00  0.00     0.034 A 
BRANCH  32  37
HETATM   37  O   UNL     1      -8.394 -15.125 -38.420  1.00  0.00    -0.354 OA
HETATM   38  C   UNL     1      -8.914 -16.412 -38.726  1.00  0.00     0.210 C 
ENDBRANCH  32  37
ENDBRANCH   2  31
TORSDOF 7
ENDMDL
MODEL 5
REMARK VINA RESULT:      -8.9      2.560      8.302
REMARK  7 active torsions:
REMARK  status: ('A' for Active; 'I' for Inactive)
REMARK    1  A    between atoms: C_2  and  N_3 
REMARK    2  A    between atoms: N_3  and  C_4 
REMARK    3  A    between atoms: C_4  and  N_5 
REMARK    4  A    between atoms: N_5  and  N_6 
REMARK    5  A    between atoms: N_6  and  C_7 
REMARK    6  A    between atoms: N_8  and  C_9 
REMARK    7  A    between atoms: C_10  and  O_11 
ROOT
HETATM    1  C   UNL     1      -5.732   3.203 -30.132  1.00  0.00     0.729 C 
HETATM    2  N   UNL     1      -4.758   2.869 -31.063  1.00  0.00    -0.105 N 
HETATM    3  C   UNL     1      -3.701   3.732 -31.303  1.00  0.00     0.276 C 
HETATM    4  O   UNL     1      -2.600   3.365 -31.716  1.00  0.00    -0.266 OA
HETATM    5  C   UNL     1      -3.916   5.155 -30.916  1.00  0.00     0.050 C 
HETATM    6  C   UNL     1      -4.927   5.365 -30.051  1.00  0.00     0.099 C 
HETATM    7  C   UNL     1      -5.128   6.736 -29.506  1.00  0.00     0.000 A 
HETATM    8  C   UNL     1      -4.511   7.837 -30.119  1.00  0.00    -0.044 A 
HETATM    9  C   UNL     1      -4.718   9.133 -29.623  1.00  0.00     0.008 A 
HETATM   10  C   UNL     1      -5.523   9.339 -28.505  1.00  0.00     0.001 A 
HETATM   11  C   UNL     1      -6.131   8.255 -27.882  1.00  0.00     0.001 A 
HETATM   12  C   UNL     1      -5.937   6.964 -28.382  1.00  0.00     0.014 A 
HETATM   13  C   UNL     1      -3.695   7.625 -31.363  1.00  0.00     0.054 C 
HETATM   14  C   UNL     1      -2.954   6.251 -31.412  1.00  0.00    -0.002 C 
HETATM   15  C   UNL     1      -1.708   6.258 -30.479  1.00  0.00     0.015 C 
HETATM   16  C   UNL     1      -0.595   7.211 -30.923  1.00  0.00     0.001 C 
HETATM   17  C   UNL     1      -0.194   6.984 -32.375  1.00  0.00     0.000 C 
HETATM   18  C   UNL     1      -1.393   7.047 -33.315  1.00  0.00     0.001 C 
HETATM   19  C   UNL     1      -2.488   6.062 -32.890  1.00  0.00     0.015 C 
HETATM   20  N   UNL     1      -5.790   4.396 -29.605  1.00  0.00    -0.061 NA
ENDROOT
BRANCH   1  21
HETATM   21  N   UNL     1      -6.674   2.254 -29.768  1.00  0.00    -0.127 N 
HETATM   22  H   UNL     1      -6.560   1.320 -30.164  1.00  0.00     0.205 HD
BRANCH  21  23
HETATM   23  N   UNL     1      -8.010   2.681 -29.705  1.00  0.00    -0.262 N 
HETATM   24  H   UNL     1      -8.160   3.418 -29.017  1.00  0.00     0.190 HD
BRANCH  23  25
HETATM   25  C   UNL     1      -8.806   2.592 -30.818  1.00  0.00     0.186 C 
HETATM   26  S   UNL     1      -9.027   3.809 -31.947  1.00  0.00    -0.040 SA
BRANCH  25  27
HETATM   27  N   UNL     1      -9.410   1.390 -31.043  1.00  0.00    -0.366 N 
HETATM   28  H   UNL     1     -10.328   1.311 -30.620  1.00  0.00     0.161 HD
BRANCH  27  29
HETATM   29  C   UNL     1      -9.057   0.391 -32.037  1.00  0.00     0.117 C 
HETATM   30  C   UNL     1     -10.175   0.178 -33.042  1.00  0.00     0.026 C 
ENDBRANCH  27  29
ENDBRANCH  25  27
ENDBRANCH  23  25
ENDBRANCH  21  23
ENDBRANCH   1  21
BRANCH   2  31
HETATM   31  C   UNL     1      -4.647   1.547 -31.594  1.00  0.00     0.094 A 
HETATM   32  C   UNL     1      -5.309   1.219 -32.795  1.00  0.00     0.096 A 
HETATM   33  C   UNL     1      -5.199  -0.080 -33.299  1.00  0.00     0.039 A 
HETATM   34  C   UNL     1      -4.440  -1.041 -32.622  1.00  0.00     0.003 A 
HETATM   35  C   UNL     1      -3.786  -0.714 -31.437  1.00  0.00     0.002 A 
HETATM   36  C   UNL     1      -3.887   0.576 -30.922  1.00  0.00     0.034 A 
BRANCH  32  37
HETATM   37  O   UNL     1      -6.081   2.209 -33.350  1.00  0.00    -0.354 OA
HETATM   38  C   UNL     1      -6.818   1.885 -34.521  1.00  0.00     0.210 C 
ENDBRANCH  32  37
ENDBRANCH   2  31
TORSDOF 7
ENDMDL
MODEL 6
REMARK VINA RESULT:      -8.5      3.822      7.291
REMARK  7 active torsions:
REMARK  status: ('A' for Active; 'I' for Inactive)
REMARK    1  A    between atoms: C_2  and  N_3 
REMARK    2  A    between atoms: N_3  and  C_4 
REMARK    3  A    between atoms: C_4  and  N_5 
REMARK    4  A    between atoms: N_5  and  N_6 
REMARK    5  A    between atoms: N_6  and  C_7 
REMARK    6  A    between atoms: N_8  and  C_9 
REMARK    7  A    between atoms: C_10  and  O_11 
ROOT
HETATM    1  C   UNL     1      -8.724   2.583 -34.114  1.00  0.00     0.729 C 
HETATM    2  N   UNL     1      -8.528   3.906 -33.743  1.00  0.00    -0.105 N 
HETATM    3  C   UNL     1      -7.253   4.364 -33.449  1.00  0.00     0.276 C 
HETATM    4  O   UNL     1      -6.905   5.539 -33.568  1.00  0.00    -0.266 OA
HETATM    5  C   UNL     1      -6.251   3.323 -33.084  1.00  0.00     0.050 C 
HETATM    6  C   UNL     1      -6.576   2.066 -33.445  1.00  0.00     0.099 C 
HETATM    7  C   UNL     1      -5.575   0.983 -33.242  1.00  0.00     0.000 A 
HETATM    8  C   UNL     1      -4.471   1.190 -32.403  1.00  0.00    -0.044 A 
HETATM    9  C   UNL     1      -3.538   0.163 -32.189  1.00  0.00     0.008 A 
HETATM   10  C   UNL     1      -3.689  -1.067 -32.824  1.00  0.00     0.001 A 
HETATM   11  C   UNL     1      -4.773  -1.282 -33.668  1.00  0.00     0.001 A 
HETATM   12  C   UNL     1      -5.710  -0.264 -33.872  1.00  0.00     0.014 A 
HETATM   13  C   UNL     1      -4.340   2.494 -31.666  1.00  0.00     0.054 C 
HETATM   14  C   UNL     1      -4.909   3.724 -32.442  1.00  0.00    -0.002 C 
HETATM   15  C   UNL     1      -3.940   4.158 -33.580  1.00  0.00     0.015 C 
HETATM   16  C   UNL     1      -2.601   4.713 -33.088  1.00  0.00     0.001 C 
HETATM   17  C   UNL     1      -2.784   5.827 -32.066  1.00  0.00     0.000 C 
HETATM   18  C   UNL     1      -3.672   5.395 -30.904  1.00  0.00     0.001 C 
HETATM   19  C   UNL     1      -5.028   4.878 -31.399  1.00  0.00     0.015 C 
HETATM   20  N   UNL     1      -7.769   1.699 -34.016  1.00  0.00    -0.061 NA
ENDROOT
BRANCH   1  21
HETATM   21  N   UNL     1      -9.967   2.190 -34.584  1.00  0.00    -0.127 N 
HETATM   22  H   UNL     1     -10.347   2.718 -35.371  1.00  0.00     0.205 HD
BRANCH  21  23
HETATM   23  N   UNL     1     -10.927   1.845 -33.620  1.00  0.00    -0.262 N 
HETATM   24  H   UNL     1     -10.525   1.691 -32.696  1.00  0.00     0.190 HD
BRANCH  23  25
HETATM   25  C   UNL     1     -12.217   2.288 -33.755  1.00  0.00     0.186 C 
HETATM   26  S   UNL     1     -12.825   3.099 -35.089  1.00  0.00    -0.040 SA
BRANCH  25  27
HETATM   27  N   UNL     1     -13.078   1.983 -32.742  1.00  0.00    -0.366 N 
HETATM   28  H   UNL     1     -12.751   1.233 -32.144  1.00  0.00     0.161 HD
BRANCH  27  29
HETATM   29  C   UNL     1     -14.188   2.780 -32.249  1.00  0.00     0.117 C 
HETATM   30  C   UNL     1     -15.507   2.033 -32.354  1.00  0.00     0.026 C 
ENDBRANCH  27  29
ENDBRANCH  25  27
ENDBRANCH  23  25
ENDBRANCH  21  23
ENDBRANCH   1  21
BRANCH   2  31
HETATM   31  C   UNL     1      -9.546   4.894 -33.911  1.00  0.00     0.094 A 
HETATM   32  C   UNL     1     -10.306   5.310 -32.798  1.00  0.00     0.096 A 
HETATM   33  C   UNL     1     -11.305   6.271 -32.977  1.00  0.00     0.039 A 
HETATM   34  C   UNL     1     -11.546   6.815 -34.244  1.00  0.00     0.003 A 
HETATM   35  C   UNL     1     -10.794   6.403 -35.341  1.00  0.00     0.002 A 
HETATM   36  C   UNL     1      -9.795   5.446 -35.178  1.00  0.00     0.034 A 
BRANCH  32  37
HETATM   37  O   UNL     1     -10.039   4.673 -31.612  1.00  0.00    -0.354 OA
HETATM   38  C   UNL     1     -11.142   4.370 -30.768  1.00  0.00     0.210 C 
ENDBRANCH  32  37
ENDBRANCH   2  31
TORSDOF 7
ENDMDL
MODEL 7
REMARK VINA RESULT:      -8.5     16.804     18.502
REMARK  7 active torsions:
REMARK  status: ('A' for Active; 'I' for Inactive)
REMARK    1  A    between atoms: C_2  and  N_3 
REMARK    2  A    between atoms: N_3  and  C_4 
REMARK    3  A    between atoms: C_4  and  N_5 
REMARK    4  A    between atoms: N_5  and  N_6 
REMARK    5  A    between atoms: N_6  and  C_7 
REMARK    6  A    between atoms: N_8  and  C_9 
REMARK    7  A    between atoms: C_10  and  O_11 
ROOT
HETATM    1  C   UNL     1      -6.126 -13.159 -39.664  1.00  0.00     0.729 C 
HETATM    2  N   UNL     1      -7.268 -13.484 -38.945  1.00  0.00    -0.105 N 
HETATM    3  C   UNL     1      -7.187 -13.711 -37.580  1.00  0.00     0.276 C 
HETATM    4  O   UNL     1      -8.130 -13.545 -36.804  1.00  0.00    -0.266 OA
HETATM    5  C   UNL     1      -5.840 -14.061 -37.052  1.00  0.00     0.050 C 
HETATM    6  C   UNL     1      -4.809 -13.750 -37.863  1.00  0.00     0.099 C 
HETATM    7  C   UNL     1      -3.421 -13.939 -37.361  1.00  0.00     0.000 A 
HETATM    8  C   UNL     1      -3.183 -14.725 -36.223  1.00  0.00    -0.044 A 
HETATM    9  C   UNL     1      -1.873 -14.926 -35.761  1.00  0.00     0.008 A 
HETATM   10  C   UNL     1      -0.797 -14.332 -36.415  1.00  0.00     0.001 A 
HETATM   11  C   UNL     1      -1.020 -13.542 -37.537  1.00  0.00     0.001 A 
HETATM   12  C   UNL     1      -2.323 -13.350 -38.007  1.00  0.00     0.014 A 
HETATM   13  C   UNL     1      -4.336 -15.419 -35.553  1.00  0.00     0.054 C 
HETATM   14  C   UNL     1      -5.684 -14.634 -35.630  1.00  0.00    -0.002 C 
HETATM   15  C   UNL     1      -5.691 -13.444 -34.627  1.00  0.00     0.015 C 
HETATM   16  C   UNL     1      -5.677 -13.863 -33.155  1.00  0.00     0.001 C 
HETATM   17  C   UNL     1      -6.781 -14.861 -32.833  1.00  0.00     0.000 C 
HETATM   18  C   UNL     1      -6.744 -16.072 -33.760  1.00  0.00     0.001 C 
HETATM   19  C   UNL     1      -6.800 -15.649 -35.232  1.00  0.00     0.015 C 
HETATM   20  N   UNL     1      -4.938 -13.241 -39.131  1.00  0.00    -0.061 NA
ENDROOT
BRANCH   1  21
HETATM   21  N   UNL     1      -6.252 -12.753 -40.984  1.00  0.00    -0.127 N 
HETATM   22  H   UNL     1      -6.967 -12.053 -41.182  1.00  0.00     0.205 HD
BRANCH  21  23
HETATM   23  N   UNL     1      -6.154 -13.753 -41.964  1.00  0.00    -0.262 N 
HETATM   24  H   UNL     1      -6.992 -13.832 -42.537  1.00  0.00     0.190 HD
BRANCH  23  25
HETATM   25  C   UNL     1      -4.926 -14.089 -42.473  1.00  0.00     0.186 C 
HETATM   26  S   UNL     1      -4.668 -14.935 -43.896  1.00  0.00    -0.040 SA
BRANCH  25  27
HETATM   27  N   UNL     1      -3.836 -13.637 -41.789  1.00  0.00    -0.366 N 
HETATM   28  H   UNL     1      -4.044 -12.877 -41.151  1.00  0.00     0.161 HD
BRANCH  27  29
HETATM   29  C   UNL     1      -2.550 -14.295 -41.631  1.00  0.00     0.117 C 
HETATM   30  C   UNL     1      -2.666 -15.562 -40.801  1.00  0.00     0.026 C 
ENDBRANCH  27  29
ENDBRANCH  25  27
ENDBRANCH  23  25
ENDBRANCH  21  23
ENDBRANCH   1  21
BRANCH   2  31
HETATM   31  C   UNL     1      -8.576 -13.333 -39.499  1.00  0.00     0.094 A 
HETATM   32  C   UNL     1      -9.274 -14.468 -39.962  1.00  0.00     0.096 A 
HETATM   33  C   UNL     1     -10.550 -14.305 -40.510  1.00  0.00     0.039 A 
HETATM   34  C   UNL     1     -11.127 -13.033 -40.597  1.00  0.00     0.003 A 
HETATM   35  C   UNL     1     -10.435 -11.914 -40.138  1.00  0.00     0.002 A 
HETATM   36  C   UNL     1      -9.164 -12.061 -39.590  1.00  0.00     0.034 A 
BRANCH  32  37
HETATM   37  O   UNL     1      -8.600 -15.662 -39.893  1.00  0.00    -0.354 OA
HETATM   38  C   UNL     1      -8.588 -16.475 -41.059  1.00  0.00     0.210 C 
ENDBRANCH  32  37
ENDBRANCH   2  31
TORSDOF 7
ENDMDL
MODEL 8
REMARK VINA RESULT:      -8.5      3.345      6.851
REMARK  7 active torsions:
REMARK  status: ('A' for Active; 'I' for Inactive)
REMARK    1  A    between atoms: C_2  and  N_3 
REMARK    2  A    between atoms: N_3  and  C_4 
REMARK    3  A    between atoms: C_4  and  N_5 
REMARK    4  A    between atoms: N_5  and  N_6 
REMARK    5  A    between atoms: N_6  and  C_7 
REMARK    6  A    between atoms: N_8  and  C_9 
REMARK    7  A    between atoms: C_10  and  O_11 
ROOT
HETATM    1  C   UNL     1      -8.349   2.959 -31.571  1.00  0.00     0.729 C 
HETATM    2  N   UNL     1      -7.825   4.217 -31.306  1.00  0.00    -0.105 N 
HETATM    3  C   UNL     1      -6.534   4.529 -31.702  1.00  0.00     0.276 C 
HETATM    4  O   UNL     1      -6.151   5.675 -31.939  1.00  0.00    -0.266 OA
HETATM    5  C   UNL     1      -5.628   3.373 -31.955  1.00  0.00     0.050 C 
HETATM    6  C   UNL     1      -6.249   2.191 -32.142  1.00  0.00     0.099 C 
HETATM    7  C   UNL     1      -5.433   1.010 -32.533  1.00  0.00     0.000 A 
HETATM    8  C   UNL     1      -4.038   1.035 -32.386  1.00  0.00    -0.044 A 
HETATM    9  C   UNL     1      -3.267  -0.086 -32.731  1.00  0.00     0.008 A 
HETATM   10  C   UNL     1      -3.877  -1.229 -33.242  1.00  0.00     0.001 A 
HETATM   11  C   UNL     1      -5.258  -1.263 -33.403  1.00  0.00     0.001 A 
HETATM   12  C   UNL     1      -6.029  -0.152 -33.048  1.00  0.00     0.014 A 
HETATM   13  C   UNL     1      -3.383   2.242 -31.776  1.00  0.00     0.054 C 
HETATM   14  C   UNL     1      -4.109   3.588 -32.093  1.00  0.00    -0.002 C 
HETATM   15  C   UNL     1      -3.817   4.047 -33.551  1.00  0.00     0.015 C 
HETATM   16  C   UNL     1      -2.358   4.430 -33.809  1.00  0.00     0.001 C 
HETATM   17  C   UNL     1      -1.846   5.449 -32.799  1.00  0.00     0.000 C 
HETATM   18  C   UNL     1      -2.057   4.983 -31.362  1.00  0.00     0.001 C 
HETATM   19  C   UNL     1      -3.527   4.640 -31.097  1.00  0.00     0.015 C 
HETATM   20  N   UNL     1      -7.601   1.989 -32.020  1.00  0.00    -0.061 NA
ENDROOT
BRANCH   1  21
HETATM   21  N   UNL     1      -9.696   2.726 -31.338  1.00  0.00    -0.127 N 
HETATM   22  H   UNL     1      -9.974   2.578 -30.367  1.00  0.00     0.205 HD
BRANCH  21  23
HETATM   23  N   UNL     1     -10.358   1.888 -32.250  1.00  0.00    -0.262 N 
HETATM   24  H   UNL     1     -10.476   0.938 -31.903  1.00  0.00     0.190 HD
BRANCH  23  25
HETATM   25  C   UNL     1     -11.254   2.424 -33.139  1.00  0.00     0.186 C 
HETATM   26  S   UNL     1     -10.850   3.330 -34.489  1.00  0.00    -0.040 SA
BRANCH  25  27
HETATM   27  N   UNL     1     -12.570   2.136 -32.930  1.00  0.00    -0.366 N 
HETATM   28  H   UNL     1     -12.983   2.656 -32.164  1.00  0.00     0.161 HD
BRANCH  27  29
HETATM   29  C   UNL     1     -13.485   1.456 -33.831  1.00  0.00     0.117 C 
HETATM   30  C   UNL     1     -13.379  -0.054 -33.707  1.00  0.00     0.026 C 
ENDBRANCH  27  29
ENDBRANCH  25  27
ENDBRANCH  23  25
ENDBRANCH  21  23
ENDBRANCH   1  21
BRANCH   2  31
HETATM   31  C   UNL     1      -8.650   5.302 -30.878  1.00  0.00     0.094 A 
HETATM   32  C   UNL     1      -8.580   5.749 -29.543  1.00  0.00     0.096 A 
HETATM   33  C   UNL     1      -9.399   6.806 -29.136  1.00  0.00     0.039 A 
HETATM   34  C   UNL     1     -10.275   7.414 -30.042  1.00  0.00     0.003 A 
HETATM   35  C   UNL     1     -10.341   6.972 -31.361  1.00  0.00     0.002 A 
HETATM   36  C   UNL     1      -9.531   5.920 -31.781  1.00  0.00     0.034 A 
BRANCH  32  37
HETATM   37  O   UNL     1      -7.739   5.048 -28.714  1.00  0.00    -0.354 OA
HETATM   38  C   UNL     1      -6.653   5.757 -28.133  1.00  0.00     0.210 C 
ENDBRANCH  32  37
ENDBRANCH   2  31
TORSDOF 7
ENDMDL
MODEL 9
REMARK VINA RESULT:      -8.4      2.708      5.426
REMARK  7 active torsions:
REMARK  status: ('A' for Active; 'I' for Inactive)
REMARK    1  A    between atoms: C_2  and  N_3 
REMARK    2  A    between atoms: N_3  and  C_4 
REMARK    3  A    between atoms: C_4  and  N_5 
REMARK    4  A    between atoms: N_5  and  N_6 
REMARK    5  A    between atoms: N_6  and  C_7 
REMARK    6  A    between atoms: N_8  and  C_9 
REMARK    7  A    between atoms: C_10  and  O_11 
ROOT
HETATM    1  C   UNL     1      -6.966   5.279 -33.157  1.00  0.00     0.729 C 
HETATM    2  N   UNL     1      -5.776   4.605 -32.924  1.00  0.00    -0.105 N 
HETATM    3  C   UNL     1      -5.679   3.250 -33.199  1.00  0.00     0.276 C 
HETATM    4  O   UNL     1      -4.620   2.683 -33.472  1.00  0.00    -0.266 OA
HETATM    5  C   UNL     1      -6.965   2.502 -33.270  1.00  0.00     0.050 C 
HETATM    6  C   UNL     1      -8.062   3.267 -33.441  1.00  0.00     0.099 C 
HETATM    7  C   UNL     1      -9.373   2.597 -33.658  1.00  0.00     0.000 A 
HETATM    8  C   UNL     1      -9.528   1.235 -33.363  1.00  0.00    -0.044 A 
HETATM    9  C   UNL     1     -10.770   0.606 -33.543  1.00  0.00     0.008 A 
HETATM   10  C   UNL     1     -11.857   1.323 -34.036  1.00  0.00     0.001 A 
HETATM   11  C   UNL     1     -11.714   2.672 -34.344  1.00  0.00     0.001 A 
HETATM   12  C   UNL     1     -10.481   3.303 -34.153  1.00  0.00     0.014 A 
HETATM   13  C   UNL     1      -8.376   0.474 -32.770  1.00  0.00     0.054 C 
HETATM   14  C   UNL     1      -6.974   0.962 -33.256  1.00  0.00    -0.002 C 
HETATM   15  C   UNL     1      -6.684   0.464 -34.702  1.00  0.00     0.015 C 
HETATM   16  C   UNL     1      -6.529  -1.053 -34.827  1.00  0.00     0.001 C 
HETATM   17  C   UNL     1      -5.509  -1.607 -33.840  1.00  0.00     0.000 C 
HETATM   18  C   UNL     1      -5.818  -1.190 -32.405  1.00  0.00     0.001 C 
HETATM   19  C   UNL     1      -5.932   0.333 -32.279  1.00  0.00     0.015 C 
HETATM   20  N   UNL     1      -8.065   4.639 -33.453  1.00  0.00    -0.061 NA
ENDROOT
BRANCH   1  21
HETATM   21  N   UNL     1      -6.992   6.661 -33.056  1.00  0.00    -0.127 N 
HETATM   22  H   UNL     1      -6.205   7.100 -32.576  1.00  0.00     0.205 HD
BRANCH  21  23
HETATM   23  N   UNL     1      -8.232   7.250 -32.764  1.00  0.00    -0.262 N 
HETATM   24  H   UNL     1      -8.896   7.182 -33.533  1.00  0.00     0.190 HD
BRANCH  23  25
HETATM   25  C   UNL     1      -8.670   7.304 -31.465  1.00  0.00     0.186 C 
HETATM   26  S   UNL     1      -8.279   8.503 -30.364  1.00  0.00    -0.040 SA
BRANCH  25  27
HETATM   27  N   UNL     1      -9.542   6.332 -31.073  1.00  0.00    -0.366 N 
HETATM   28  H   UNL     1     -10.336   6.224 -31.695  1.00  0.00     0.161 HD
BRANCH  27  29
HETATM   29  C   UNL     1      -9.314   5.269 -30.109  1.00  0.00     0.117 C 
HETATM   30  C   UNL     1     -10.140   4.035 -30.427  1.00  0.00     0.026 C 
ENDBRANCH  27  29
ENDBRANCH  25  27
ENDBRANCH  23  25
ENDBRANCH  21  23
ENDBRANCH   1  21
BRANCH   2  31
HETATM   31  C   UNL     1      -4.555   5.300 -32.666  1.00  0.00     0.094 A 
HETATM   32  C   UNL     1      -4.103   5.450 -31.338  1.00  0.00     0.096 A 
HETATM   33  C   UNL     1      -2.912   6.140 -31.098  1.00  0.00     0.039 A 
HETATM   34  C   UNL     1      -2.176   6.674 -32.162  1.00  0.00     0.003 A 
HETATM   35  C   UNL     1      -2.623   6.524 -33.472  1.00  0.00     0.002 A 
HETATM   36  C   UNL     1      -3.808   5.839 -33.726  1.00  0.00     0.034 A 
BRANCH  32  37
HETATM   37  O   UNL     1      -4.926   4.949 -30.360  1.00  0.00    -0.354 OA
HETATM   38  C   UNL     1      -5.562   5.882 -29.498  1.00  0.00     0.210 C 
ENDBRANCH  32  37
ENDBRANCH   2  31
TORSDOF 7
ENDMDL
MODEL 10
REMARK VINA RESULT:      -8.4      2.511      4.825
REMARK  7 active torsions:
REMARK  status: ('A' for Active; 'I' for Inactive)
REMARK    1  A    between atoms: C_2  and  N_3 
REMARK    2  A    between atoms: N_3  and  C_4 
REMARK    3  A    between atoms: C_4  and  N_5 
REMARK    4  A    between atoms: N_5  and  N_6 
REMARK    5  A    between atoms: N_6  and  C_7 
REMARK    6  A    between atoms: N_8  and  C_9 
REMARK    7  A    between atoms: C_10  and  O_11 
ROOT
HETATM    1  C   UNL     1      -6.711   5.329 -32.686  1.00  0.00     0.729 C 
HETATM    2  N   UNL     1      -5.488   4.772 -32.339  1.00  0.00    -0.105 N 
HETATM    3  C   UNL     1      -5.261   3.419 -32.536  1.00  0.00     0.276 C 
HETATM    4  O   UNL     1      -4.141   2.933 -32.708  1.00  0.00    -0.266 OA
HETATM    5  C   UNL     1      -6.472   2.561 -32.656  1.00  0.00     0.050 C 
HETATM    6  C   UNL     1      -7.613   3.220 -32.939  1.00  0.00     0.099 C 
HETATM    7  C   UNL     1      -8.846   2.431 -33.209  1.00  0.00     0.000 A 
HETATM    8  C   UNL     1      -8.909   1.075 -32.855  1.00  0.00    -0.044 A 
HETATM    9  C   UNL     1     -10.078   0.334 -33.085  1.00  0.00     0.008 A 
HETATM   10  C   UNL     1     -11.183   0.932 -33.687  1.00  0.00     0.001 A 
HETATM   11  C   UNL     1     -11.129   2.272 -34.054  1.00  0.00     0.001 A 
HETATM   12  C   UNL     1      -9.970   3.015 -33.814  1.00  0.00     0.014 A 
HETATM   13  C   UNL     1      -7.742   0.444 -32.147  1.00  0.00     0.054 C 
HETATM   14  C   UNL     1      -6.354   1.028 -32.563  1.00  0.00    -0.002 C 
HETATM   15  C   UNL     1      -5.922   0.491 -33.958  1.00  0.00     0.015 C 
HETATM   16  C   UNL     1      -5.634  -1.012 -33.993  1.00  0.00     0.001 C 
HETATM   17  C   UNL     1      -4.645  -1.429 -32.912  1.00  0.00     0.000 C 
HETATM   18  C   UNL     1      -5.089  -0.975 -31.525  1.00  0.00     0.001 C 
HETATM   19  C   UNL     1      -5.337   0.536 -31.486  1.00  0.00     0.015 C 
HETATM   20  N   UNL     1      -7.728   4.585 -33.023  1.00  0.00    -0.061 NA
ENDROOT
BRANCH   1  21
HETATM   21  N   UNL     1      -6.857   6.707 -32.660  1.00  0.00    -0.127 N 
HETATM   22  H   UNL     1      -6.001   7.260 -32.707  1.00  0.00     0.205 HD
BRANCH  21  23
HETATM   23  N   UNL     1      -7.814   7.223 -31.771  1.00  0.00    -0.262 N 
HETATM   24  H   UNL     1      -8.753   7.244 -32.165  1.00  0.00     0.190 HD
BRANCH  23  25
HETATM   25  C   UNL     1      -7.627   7.093 -30.419  1.00  0.00     0.186 C 
HETATM   26  S   UNL     1      -8.499   6.071 -29.418  1.00  0.00    -0.040 SA
BRANCH  25  27
HETATM   27  N   UNL     1      -6.605   7.810 -29.871  1.00  0.00    -0.366 N 
HETATM   28  H   UNL     1      -5.864   7.234 -29.488  1.00  0.00     0.161 HD
BRANCH  27  29
HETATM   29  C   UNL     1      -6.312   9.222 -30.054  1.00  0.00     0.117 C 
HETATM   30  C   UNL     1      -5.080   9.433 -30.916  1.00  0.00     0.026 C 
ENDBRANCH  27  29
ENDBRANCH  25  27
ENDBRANCH  23  25
ENDBRANCH  21  23
ENDBRANCH   1  21
BRANCH   2  31
HETATM   31  C   UNL     1      -4.350   5.581 -32.036  1.00  0.00     0.094 A 
HETATM   32  C   UNL     1      -3.663   6.238 -33.076  1.00  0.00     0.096 A 
HETATM   33  C   UNL     1      -2.546   7.020 -32.766  1.00  0.00     0.039 A 
HETATM   34  C   UNL     1      -2.117   7.149 -31.441  1.00  0.00     0.003 A 
HETATM   35  C   UNL     1      -2.799   6.499 -30.414  1.00  0.00     0.002 A 
HETATM   36  C   UNL     1      -3.913   5.717 -30.708  1.00  0.00     0.034 A 
BRANCH  32  37
HETATM   37  O   UNL     1      -4.119   5.999 -34.349  1.00  0.00    -0.354 OA
HETATM   38  C   UNL     1      -3.288   5.231 -35.209  1.00  0.00     0.210 C 
ENDBRANCH  32  37
ENDBRANCH   2  31
TORSDOF 7
ENDMDL
