MODEL 1
REMARK VINA RESULT:      -9.4      0.000      0.000
REMARK  8 active torsions:
REMARK  status: ('A' for Active; 'I' for Inactive)
REMARK    1  A    between atoms: C_2  and  C_3 
REMARK    2  A    between atoms: C_3  and  C_4 
REMARK    3  A    between atoms: C_4  and  N_5 
REMARK       I    between atoms: N_5  and  C_6 
REMARK    4  A    between atoms: C_6  and  C_7 
REMARK    5  A    between atoms: C_14  and  S_15 
REMARK    6  A    between atoms: S_15  and  N_16 
REMARK    7  A    between atoms: N_16  and  C_17 
REMARK    8  A    between atoms: C_19  and  O_20 
ROOT
HETATM    1  C   UNL     1      -2.590   4.773 -32.175  1.00  0.00     0.098 C 
HETATM    2  C   UNL     1      -3.203   3.435 -31.943  1.00  0.00     0.201 C 
HETATM    3  O   UNL     1      -2.678   2.603 -31.205  1.00  0.00    -0.286 OA
HETATM    4  C   UNL     1      -4.474   3.119 -32.651  1.00  0.00     0.043 A 
HETATM    5  C   UNL     1      -5.093   4.130 -33.411  1.00  0.00     0.046 A 
HETATM    6  N   UNL     1      -4.543   5.418 -33.442  1.00  0.00    -0.364 N 
HETATM    7  C   UNL     1      -5.026   1.834 -32.580  1.00  0.00     0.043 A 
HETATM    8  C   UNL     1      -6.220   1.574 -33.256  1.00  0.00     0.081 A 
HETATM    9  C   UNL     1      -6.853   2.574 -34.004  1.00  0.00     0.027 A 
HETATM   10  C   UNL     1      -6.296   3.854 -34.066  1.00  0.00     0.032 A 
HETATM   11  C   UNL     1      -3.301   5.649 -32.904  1.00  0.00     0.109 C 
HETATM   12  H   UNL     1      -4.864   6.061 -34.160  1.00  0.00     0.165 HD
ENDROOT
BRANCH   8  13
HETATM   13  S   UNL     1      -6.931  -0.060 -33.224  1.00  0.00     0.263 S 
HETATM   14  O   UNL     1      -6.396  -0.728 -32.056  1.00  0.00    -0.200 OA
HETATM   15  O   UNL     1      -8.356   0.065 -33.432  1.00  0.00    -0.200 OA
BRANCH  13  16
HETATM   16  N   UNL     1      -6.218  -0.804 -34.561  1.00  0.00    -0.281 N 
HETATM   17  H   UNL     1      -6.591  -0.463 -35.445  1.00  0.00     0.179 HD
BRANCH  16  18
HETATM   18  C   UNL     1      -5.867  -2.178 -34.471  1.00  0.00     0.045 A 
HETATM   19  C   UNL     1      -4.672  -2.550 -33.851  1.00  0.00     0.066 A 
HETATM   20  C   UNL     1      -4.302  -3.896 -33.822  1.00  0.00     0.070 A 
HETATM   21  C   UNL     1      -5.151  -4.860 -34.370  1.00  0.00     0.037 A 
HETATM   22  C   UNL     1      -6.341  -4.483 -34.993  1.00  0.00     0.005 A 
HETATM   23  C   UNL     1      -6.692  -3.137 -35.058  1.00  0.00     0.030 A 
BRANCH  20  24
HETATM   24  O   UNL     1      -3.153  -4.381 -33.261  1.00  0.00    -0.356 OA
HETATM   25  C   UNL     1      -2.835  -3.865 -31.972  1.00  0.00     0.210 C 
ENDBRANCH  20  24
ENDBRANCH  16  18
ENDBRANCH  13  16
ENDBRANCH   8  13
BRANCH   1  26
HETATM   26  C   UNL     1      -1.241   5.188 -31.698  1.00  0.00     0.257 C 
HETATM   27  N   UNL     1      -1.020   5.035 -30.352  1.00  0.00    -0.357 N 
HETATM   28  H   UNL     1      -1.753   4.597 -29.794  1.00  0.00     0.162 HD
HETATM   29  O   UNL     1      -0.393   5.617 -32.476  1.00  0.00    -0.267 OA
BRANCH  27  30
HETATM   30  C   UNL     1       0.285   5.217 -29.749  1.00  0.00     0.123 C 
BRANCH  30  31
HETATM   31  C   UNL     1       0.254   6.126 -28.519  1.00  0.00     0.023 C 
BRANCH  31  32
HETATM   32  C   UNL     1       0.509   7.605 -28.866  1.00  0.00    -0.021 C 
HETATM   33  C   UNL     1       1.420   8.286 -27.843  1.00  0.00     0.009 C 
HETATM   34  C   UNL     1      -0.818   8.362 -28.958  1.00  0.00     0.009 C 
ENDBRANCH  31  32
ENDBRANCH  30  31
ENDBRANCH  27  30
ENDBRANCH   1  26
TORSDOF 8
ENDMDL
MODEL 2
REMARK VINA RESULT:      -8.8      2.536     10.368
REMARK  8 active torsions:
REMARK  status: ('A' for Active; 'I' for Inactive)
REMARK    1  A    between atoms: C_2  and  C_3 
REMARK    2  A    between atoms: C_3  and  C_4 
REMARK    3  A    between atoms: C_4  and  N_5 
REMARK       I    between atoms: N_5  and  C_6 
REMARK    4  A    between atoms: C_6  and  C_7 
REMARK    5  A    between atoms: C_14  and  S_15 
REMARK    6  A    between atoms: S_15  and  N_16 
REMARK    7  A    between atoms: N_16  and  C_17 
REMARK    8  A    between atoms: C_19  and  O_20 
ROOT
HETATM    1  C   UNL     1      -5.350   2.963 -33.287  1.00  0.00     0.098 C 
HETATM    2  C   UNL     1      -4.048   2.961 -32.562  1.00  0.00     0.201 C 
HETATM    3  O   UNL     1      -3.663   1.981 -31.928  1.00  0.00    -0.286 OA
HETATM    4  C   UNL     1      -3.223   4.201 -32.610  1.00  0.00     0.043 A 
HETATM    5  C   UNL     1      -3.653   5.266 -33.424  1.00  0.00     0.046 A 
HETATM    6  N   UNL     1      -4.803   5.126 -34.211  1.00  0.00    -0.364 N 
HETATM    7  C   UNL     1      -2.058   4.308 -31.840  1.00  0.00     0.043 A 
HETATM    8  C   UNL     1      -1.309   5.485 -31.911  1.00  0.00     0.081 A 
HETATM    9  C   UNL     1      -1.718   6.547 -32.726  1.00  0.00     0.027 A 
HETATM   10  C   UNL     1      -2.880   6.428 -33.493  1.00  0.00     0.032 A 
HETATM   11  C   UNL     1      -5.624   4.038 -34.044  1.00  0.00     0.109 C 
HETATM   12  H   UNL     1      -5.220   5.964 -34.608  1.00  0.00     0.165 HD
ENDROOT
BRANCH   8  13
HETATM   13  S   UNL     1       0.156   5.676 -30.915  1.00  0.00     0.263 S 
HETATM   14  O   UNL     1       0.867   4.416 -30.968  1.00  0.00    -0.200 OA
HETATM   15  O   UNL     1       0.796   6.917 -31.290  1.00  0.00    -0.200 OA
BRANCH  13  16
HETATM   16  N   UNL     1      -0.468   5.800 -29.351  1.00  0.00    -0.281 N 
HETATM   17  H   UNL     1      -1.418   5.440 -29.279  1.00  0.00     0.179 HD
BRANCH  16  18
HETATM   18  C   UNL     1      -0.122   6.933 -28.567  1.00  0.00     0.045 A 
HETATM   19  C   UNL     1       0.954   6.861 -27.679  1.00  0.00     0.066 A 
HETATM   20  C   UNL     1       1.249   7.956 -26.865  1.00  0.00     0.070 A 
HETATM   21  C   UNL     1       0.497   9.127 -26.979  1.00  0.00     0.037 A 
HETATM   22  C   UNL     1      -0.581   9.192 -27.862  1.00  0.00     0.005 A 
HETATM   23  C   UNL     1      -0.901   8.087 -28.646  1.00  0.00     0.030 A 
BRANCH  20  24
HETATM   24  O   UNL     1       2.264   8.000 -25.949  1.00  0.00    -0.356 OA
HETATM   25  C   UNL     1       2.290   9.157 -25.118  1.00  0.00     0.210 C 
ENDBRANCH  20  24
ENDBRANCH  16  18
ENDBRANCH  13  16
ENDBRANCH   8  13
BRANCH   1  26
HETATM   26  C   UNL     1      -6.376   1.886 -33.199  1.00  0.00     0.257 C 
HETATM   27  N   UNL     1      -5.989   0.662 -33.683  1.00  0.00    -0.357 N 
HETATM   28  H   UNL     1      -5.026   0.558 -34.002  1.00  0.00     0.162 HD
HETATM   29  O   UNL     1      -7.481   2.098 -32.705  1.00  0.00    -0.267 OA
BRANCH  27  30
HETATM   30  C   UNL     1      -6.790  -0.534 -33.513  1.00  0.00     0.123 C 
BRANCH  30  31
HETATM   31  C   UNL     1      -6.690  -1.493 -34.701  1.00  0.00     0.023 C 
BRANCH  31  32
HETATM   32  C   UNL     1      -6.036  -2.837 -34.327  1.00  0.00    -0.021 C 
HETATM   33  C   UNL     1      -4.548  -2.868 -34.676  1.00  0.00     0.009 C 
HETATM   34  C   UNL     1      -6.756  -3.988 -35.034  1.00  0.00     0.009 C 
ENDBRANCH  31  32
ENDBRANCH  30  31
ENDBRANCH  27  30
ENDBRANCH   1  26
TORSDOF 8
ENDMDL
MODEL 3
REMARK VINA RESULT:      -8.7      2.490     10.517
REMARK  8 active torsions:
REMARK  status: ('A' for Active; 'I' for Inactive)
REMARK    1  A    between atoms: C_2  and  C_3 
REMARK    2  A    between atoms: C_3  and  C_4 
REMARK    3  A    between atoms: C_4  and  N_5 
REMARK       I    between atoms: N_5  and  C_6 
REMARK    4  A    between atoms: C_6  and  C_7 
REMARK    5  A    between atoms: C_14  and  S_15 
REMARK    6  A    between atoms: S_15  and  N_16 
REMARK    7  A    between atoms: N_16  and  C_17 
REMARK    8  A    between atoms: C_19  and  O_20 
ROOT
HETATM    1  C   UNL     1      -5.138   2.493 -32.901  1.00  0.00     0.098 C 
HETATM    2  C   UNL     1      -3.782   2.617 -32.297  1.00  0.00     0.201 C 
HETATM    3  O   UNL     1      -3.202   1.650 -31.807  1.00  0.00    -0.286 OA
HETATM    4  C   UNL     1      -3.146   3.963 -32.282  1.00  0.00     0.043 A 
HETATM    5  C   UNL     1      -3.799   5.025 -32.937  1.00  0.00     0.046 A 
HETATM    6  N   UNL     1      -4.993   4.791 -33.632  1.00  0.00    -0.364 N 
HETATM    7  C   UNL     1      -1.935   4.169 -31.610  1.00  0.00     0.043 A 
HETATM    8  C   UNL     1      -1.367   5.446 -31.619  1.00  0.00     0.081 A 
HETATM    9  C   UNL     1      -2.000   6.507 -32.277  1.00  0.00     0.027 A 
HETATM   10  C   UNL     1      -3.205   6.290 -32.948  1.00  0.00     0.032 A 
HETATM   11  C   UNL     1      -5.633   3.582 -33.513  1.00  0.00     0.109 C 
HETATM   12  H   UNL     1      -5.559   5.591 -33.899  1.00  0.00     0.165 HD
ENDROOT
BRANCH   8  13
HETATM   13  S   UNL     1       0.151   5.757 -30.738  1.00  0.00     0.263 S 
HETATM   14  O   UNL     1       0.932   4.540 -30.804  1.00  0.00    -0.200 OA
HETATM   15  O   UNL     1       0.685   7.019 -31.196  1.00  0.00    -0.200 OA
BRANCH  13  16
HETATM   16  N   UNL     1      -0.368   5.899 -29.138  1.00  0.00    -0.281 N 
HETATM   17  H   UNL     1      -1.263   5.442 -28.974  1.00  0.00     0.179 HD
BRANCH  16  18
HETATM   18  C   UNL     1      -0.095   7.104 -28.437  1.00  0.00     0.045 A 
HETATM   19  C   UNL     1      -1.002   8.165 -28.501  1.00  0.00     0.066 A 
HETATM   20  C   UNL     1      -0.698   9.369 -27.863  1.00  0.00     0.070 A 
HETATM   21  C   UNL     1       0.484   9.485 -27.129  1.00  0.00     0.037 A 
HETATM   22  C   UNL     1       1.389   8.426 -27.072  1.00  0.00     0.005 A 
HETATM   23  C   UNL     1       1.106   7.238 -27.742  1.00  0.00     0.030 A 
BRANCH  20  24
HETATM   24  O   UNL     1      -1.495  10.481 -27.867  1.00  0.00    -0.356 OA
HETATM   25  C   UNL     1      -2.139  10.779 -26.632  1.00  0.00     0.210 C 
ENDBRANCH  20  24
ENDBRANCH  16  18
ENDBRANCH  13  16
ENDBRANCH   8  13
BRANCH   1  26
HETATM   26  C   UNL     1      -5.992   1.273 -32.841  1.00  0.00     0.257 C 
HETATM   27  N   UNL     1      -5.443   0.143 -33.392  1.00  0.00    -0.357 N 
HETATM   28  H   UNL     1      -4.485   0.197 -33.739  1.00  0.00     0.162 HD
HETATM   29  O   UNL     1      -7.100   1.296 -32.311  1.00  0.00    -0.267 OA
BRANCH  27  30
HETATM   30  C   UNL     1      -6.053  -1.165 -33.260  1.00  0.00     0.123 C 
BRANCH  30  31
HETATM   31  C   UNL     1      -6.589  -1.710 -34.586  1.00  0.00     0.023 C 
BRANCH  31  32
HETATM   32  C   UNL     1      -5.813  -2.946 -35.078  1.00  0.00    -0.021 C 
HETATM   33  C   UNL     1      -6.654  -4.221 -35.003  1.00  0.00     0.009 C 
HETATM   34  C   UNL     1      -4.532  -3.125 -34.260  1.00  0.00     0.009 C 
ENDBRANCH  31  32
ENDBRANCH  30  31
ENDBRANCH  27  30
ENDBRANCH   1  26
TORSDOF 8
ENDMDL
MODEL 4
REMARK VINA RESULT:      -8.3      2.622      3.273
REMARK  8 active torsions:
REMARK  status: ('A' for Active; 'I' for Inactive)
REMARK    1  A    between atoms: C_2  and  C_3 
REMARK    2  A    between atoms: C_3  and  C_4 
REMARK    3  A    between atoms: C_4  and  N_5 
REMARK       I    between atoms: N_5  and  C_6 
REMARK    4  A    between atoms: C_6  and  C_7 
REMARK    5  A    between atoms: C_14  and  S_15 
REMARK    6  A    between atoms: S_15  and  N_16 
REMARK    7  A    between atoms: N_16  and  C_17 
REMARK    8  A    between atoms: C_19  and  O_20 
ROOT
HETATM    1  C   UNL     1      -5.017   5.280 -30.166  1.00  0.00     0.098 C 
HETATM    2  C   UNL     1      -5.143   4.346 -31.319  1.00  0.00     0.201 C 
HETATM    3  O   UNL     1      -4.275   4.268 -32.186  1.00  0.00    -0.286 OA
HETATM    4  C   UNL     1      -6.373   3.510 -31.407  1.00  0.00     0.043 A 
HETATM    5  C   UNL     1      -7.298   3.558 -30.347  1.00  0.00     0.046 A 
HETATM    6  N   UNL     1      -7.025   4.335 -29.213  1.00  0.00    -0.364 N 
HETATM    7  C   UNL     1      -6.611   2.714 -32.534  1.00  0.00     0.043 A 
HETATM    8  C   UNL     1      -7.775   1.943 -32.581  1.00  0.00     0.081 A 
HETATM    9  C   UNL     1      -8.697   1.971 -31.528  1.00  0.00     0.027 A 
HETATM   10  C   UNL     1      -8.448   2.766 -30.407  1.00  0.00     0.032 A 
HETATM   11  C   UNL     1      -5.962   5.204 -29.214  1.00  0.00     0.109 C 
HETATM   12  H   UNL     1      -7.788   4.536 -28.572  1.00  0.00     0.165 HD
ENDROOT
BRANCH   8  13
HETATM   13  S   UNL     1      -8.135   0.950 -34.017  1.00  0.00     0.263 S 
HETATM   14  O   UNL     1      -9.538   1.140 -34.318  1.00  0.00    -0.200 OA
HETATM   15  O   UNL     1      -7.112   1.203 -35.006  1.00  0.00    -0.200 OA
BRANCH  13  16
HETATM   16  N   UNL     1      -7.987  -0.625 -33.428  1.00  0.00    -0.281 N 
HETATM   17  H   UNL     1      -8.466  -0.758 -32.539  1.00  0.00     0.179 HD
BRANCH  16  18
HETATM   18  C   UNL     1      -6.767  -1.321 -33.639  1.00  0.00     0.045 A 
HETATM   19  C   UNL     1      -5.658  -1.038 -32.838  1.00  0.00     0.066 A 
HETATM   20  C   UNL     1      -4.444  -1.678 -33.091  1.00  0.00     0.070 A 
HETATM   21  C   UNL     1      -4.362  -2.629 -34.110  1.00  0.00     0.037 A 
HETATM   22  C   UNL     1      -5.469  -2.905 -34.911  1.00  0.00     0.005 A 
HETATM   23  C   UNL     1      -6.670  -2.237 -34.685  1.00  0.00     0.030 A 
BRANCH  20  24
HETATM   24  O   UNL     1      -3.288  -1.473 -32.389  1.00  0.00    -0.356 OA
HETATM   25  C   UNL     1      -3.337  -0.432 -31.418  1.00  0.00     0.210 C 
ENDBRANCH  20  24
ENDBRANCH  16  18
ENDBRANCH  13  16
ENDBRANCH   8  13
BRANCH   1  26
HETATM   26  C   UNL     1      -3.951   6.311 -30.016  1.00  0.00     0.257 C 
HETATM   27  N   UNL     1      -2.667   5.861 -30.195  1.00  0.00    -0.357 N 
HETATM   28  H   UNL     1      -2.537   4.889 -30.477  1.00  0.00     0.162 HD
HETATM   29  O   UNL     1      -4.227   7.482 -29.766  1.00  0.00    -0.267 OA
BRANCH  27  30
HETATM   30  C   UNL     1      -1.529   6.755 -30.265  1.00  0.00     0.123 C 
BRANCH  30  31
HETATM   31  C   UNL     1      -0.452   6.276 -31.241  1.00  0.00     0.023 C 
BRANCH  31  32
HETATM   32  C   UNL     1      -0.750   6.675 -32.698  1.00  0.00    -0.021 C 
HETATM   33  C   UNL     1      -1.703   7.868 -32.783  1.00  0.00     0.009 C 
HETATM   34  C   UNL     1      -1.342   5.487 -33.460  1.00  0.00     0.009 C 
ENDBRANCH  31  32
ENDBRANCH  30  31
ENDBRANCH  27  30
ENDBRANCH   1  26
TORSDOF 8
ENDMDL
MODEL 5
REMARK VINA RESULT:      -8.1      2.258      3.154
REMARK  8 active torsions:
REMARK  status: ('A' for Active; 'I' for Inactive)
REMARK    1  A    between atoms: C_2  and  C_3 
REMARK    2  A    between atoms: C_3  and  C_4 
REMARK    3  A    between atoms: C_4  and  N_5 
REMARK       I    between atoms: N_5  and  C_6 
REMARK    4  A    between atoms: C_6  and  C_7 
REMARK    5  A    between atoms: C_14  and  S_15 
REMARK    6  A    between atoms: S_15  and  N_16 
REMARK    7  A    between atoms: N_16  and  C_17 
REMARK    8  A    between atoms: C_19  and  O_20 
ROOT
HETATM    1  C   UNL     1      -4.001   6.344 -31.217  1.00  0.00     0.098 C 
HETATM    2  C   UNL     1      -5.069   5.401 -30.781  1.00  0.00     0.201 C 
HETATM    3  O   UNL     1      -5.470   5.371 -29.620  1.00  0.00    -0.286 OA
HETATM    4  C   UNL     1      -5.634   4.471 -31.798  1.00  0.00     0.043 A 
HETATM    5  C   UNL     1      -5.218   4.601 -33.137  1.00  0.00     0.046 A 
HETATM    6  N   UNL     1      -4.335   5.627 -33.499  1.00  0.00    -0.364 N 
HETATM    7  C   UNL     1      -6.541   3.474 -31.421  1.00  0.00     0.043 A 
HETATM    8  C   UNL     1      -7.051   2.620 -32.403  1.00  0.00     0.081 A 
HETATM    9  C   UNL     1      -6.656   2.747 -33.740  1.00  0.00     0.027 A 
HETATM   10  C   UNL     1      -5.753   3.748 -34.106  1.00  0.00     0.032 A 
HETATM   11  C   UNL     1      -3.718   6.379 -32.530  1.00  0.00     0.109 C 
HETATM   12  H   UNL     1      -3.875   5.570 -34.404  1.00  0.00     0.165 HD
ENDROOT
BRANCH   8  13
HETATM   13  S   UNL     1      -8.175   1.311 -31.956  1.00  0.00     0.263 S 
HETATM   14  O   UNL     1      -9.182   1.897 -31.096  1.00  0.00    -0.200 OA
HETATM   15  O   UNL     1      -8.537   0.598 -33.160  1.00  0.00    -0.200 OA
BRANCH  13  16
HETATM   16  N   UNL     1      -7.227   0.325 -30.967  1.00  0.00    -0.281 N 
HETATM   17  H   UNL     1      -7.346   0.531 -29.977  1.00  0.00     0.179 HD
BRANCH  16  18
HETATM   18  C   UNL     1      -5.933  -0.052 -31.419  1.00  0.00     0.045 A 
HETATM   19  C   UNL     1      -5.800  -0.846 -32.560  1.00  0.00     0.066 A 
HETATM   20  C   UNL     1      -4.531  -1.267 -32.962  1.00  0.00     0.070 A 
HETATM   21  C   UNL     1      -3.405  -0.849 -32.249  1.00  0.00     0.037 A 
HETATM   22  C   UNL     1      -3.543  -0.061 -31.107  1.00  0.00     0.005 A 
HETATM   23  C   UNL     1      -4.811   0.325 -30.682  1.00  0.00     0.030 A 
BRANCH  20  24
HETATM   24  O   UNL     1      -4.275  -2.057 -34.049  1.00  0.00    -0.356 OA
HETATM   25  C   UNL     1      -5.404  -2.729 -34.598  1.00  0.00     0.210 C 
ENDBRANCH  20  24
ENDBRANCH  16  18
ENDBRANCH  13  16
ENDBRANCH   8  13
BRANCH   1  26
HETATM   26  C   UNL     1      -3.203   7.210 -30.304  1.00  0.00     0.257 C 
HETATM   27  N   UNL     1      -2.535   6.552 -29.302  1.00  0.00    -0.357 N 
HETATM   28  H   UNL     1      -2.576   5.533 -29.290  1.00  0.00     0.162 HD
HETATM   29  O   UNL     1      -3.146   8.426 -30.466  1.00  0.00    -0.267 OA
BRANCH  27  30
HETATM   30  C   UNL     1      -1.575   7.211 -28.440  1.00  0.00     0.123 C 
BRANCH  30  31
HETATM   31  C   UNL     1      -0.124   6.905 -28.818  1.00  0.00     0.023 C 
BRANCH  31  32
HETATM   32  C   UNL     1      -0.012   5.960 -30.029  1.00  0.00    -0.021 C 
HETATM   33  C   UNL     1       0.888   4.758 -29.738  1.00  0.00     0.009 C 
HETATM   34  C   UNL     1       0.521   6.721 -31.245  1.00  0.00     0.009 C 
ENDBRANCH  31  32
ENDBRANCH  30  31
ENDBRANCH  27  30
ENDBRANCH   1  26
TORSDOF 8
ENDMDL
MODEL 6
REMARK VINA RESULT:      -8.1      2.268      2.665
REMARK  8 active torsions:
REMARK  status: ('A' for Active; 'I' for Inactive)
REMARK    1  A    between atoms: C_2  and  C_3 
REMARK    2  A    between atoms: C_3  and  C_4 
REMARK    3  A    between atoms: C_4  and  N_5 
REMARK       I    between atoms: N_5  and  C_6 
REMARK    4  A    between atoms: C_6  and  C_7 
REMARK    5  A    between atoms: C_14  and  S_15 
REMARK    6  A    between atoms: S_15  and  N_16 
REMARK    7  A    between atoms: N_16  and  C_17 
REMARK    8  A    between atoms: C_19  and  O_20 
ROOT
HETATM    1  C   UNL     1      -3.242   5.501 -31.605  1.00  0.00     0.098 C 
HETATM    2  C   UNL     1      -4.517   4.980 -31.037  1.00  0.00     0.201 C 
HETATM    3  O   UNL     1      -4.790   5.101 -29.845  1.00  0.00    -0.286 OA
HETATM    4  C   UNL     1      -5.455   4.281 -31.959  1.00  0.00     0.043 A 
HETATM    5  C   UNL     1      -5.151   4.246 -33.333  1.00  0.00     0.046 A 
HETATM    6  N   UNL     1      -4.015   4.909 -33.816  1.00  0.00    -0.364 N 
HETATM    7  C   UNL     1      -6.603   3.653 -31.461  1.00  0.00     0.043 A 
HETATM    8  C   UNL     1      -7.461   3.008 -32.355  1.00  0.00     0.081 A 
HETATM    9  C   UNL     1      -7.178   2.978 -33.726  1.00  0.00     0.027 A 
HETATM   10  C   UNL     1      -6.032   3.610 -34.213  1.00  0.00     0.032 A 
HETATM   11  C   UNL     1      -3.092   5.421 -32.938  1.00  0.00     0.109 C 
HETATM   12  H   UNL     1      -3.691   4.689 -34.753  1.00  0.00     0.165 HD
ENDROOT
BRANCH   8  13
HETATM   13  S   UNL     1      -8.910   2.161 -31.754  1.00  0.00     0.263 S 
HETATM   14  O   UNL     1      -9.324   2.842 -30.545  1.00  0.00    -0.200 OA
HETATM   15  O   UNL     1      -9.817   1.980 -32.864  1.00  0.00    -0.200 OA
BRANCH  13  16
HETATM   16  N   UNL     1      -8.293   0.667 -31.266  1.00  0.00    -0.281 N 
HETATM   17  H   UNL     1      -8.105   0.629 -30.266  1.00  0.00     0.179 HD
BRANCH  16  18
HETATM   18  C   UNL     1      -7.411  -0.024 -32.139  1.00  0.00     0.045 A 
HETATM   19  C   UNL     1      -6.055  -0.127 -31.818  1.00  0.00     0.066 A 
HETATM   20  C   UNL     1      -5.182  -0.752 -32.710  1.00  0.00     0.070 A 
HETATM   21  C   UNL     1      -5.679  -1.309 -33.890  1.00  0.00     0.037 A 
HETATM   22  C   UNL     1      -7.032  -1.200 -34.209  1.00  0.00     0.005 A 
HETATM   23  C   UNL     1      -7.897  -0.542 -33.339  1.00  0.00     0.030 A 
BRANCH  20  24
HETATM   24  O   UNL     1      -3.836  -0.899 -32.516  1.00  0.00    -0.356 OA
HETATM   25  C   UNL     1      -3.328  -0.351 -31.303  1.00  0.00     0.210 C 
ENDBRANCH  20  24
ENDBRANCH  16  18
ENDBRANCH  13  16
ENDBRANCH   8  13
BRANCH   1  26
HETATM   26  C   UNL     1      -2.116   6.059 -30.804  1.00  0.00     0.257 C 
HETATM   27  N   UNL     1      -0.900   5.454 -30.996  1.00  0.00    -0.357 N 
HETATM   28  H   UNL     1      -0.836   4.723 -31.705  1.00  0.00     0.162 HD
HETATM   29  O   UNL     1      -2.284   7.009 -30.044  1.00  0.00    -0.267 OA
BRANCH  27  30
HETATM   30  C   UNL     1       0.331   5.980 -30.440  1.00  0.00     0.123 C 
BRANCH  30  31
HETATM   31  C   UNL     1       0.664   5.394 -29.066  1.00  0.00     0.023 C 
BRANCH  31  32
HETATM   32  C   UNL     1       0.769   6.471 -27.970  1.00  0.00    -0.021 C 
HETATM   33  C   UNL     1      -0.382   6.383 -26.967  1.00  0.00     0.009 C 
HETATM   34  C   UNL     1       0.797   7.865 -28.601  1.00  0.00     0.009 C 
ENDBRANCH  31  32
ENDBRANCH  30  31
ENDBRANCH  27  30
ENDBRANCH   1  26
TORSDOF 8
ENDMDL
MODEL 7
REMARK VINA RESULT:      -8.1      2.934      3.646
REMARK  8 active torsions:
REMARK  status: ('A' for Active; 'I' for Inactive)
REMARK    1  A    between atoms: C_2  and  C_3 
REMARK    2  A    between atoms: C_3  and  C_4 
REMARK    3  A    between atoms: C_4  and  N_5 
REMARK       I    between atoms: N_5  and  C_6 
REMARK    4  A    between atoms: C_6  and  C_7 
REMARK    5  A    between atoms: C_14  and  S_15 
REMARK    6  A    between atoms: S_15  and  N_16 
REMARK    7  A    between atoms: N_16  and  C_17 
REMARK    8  A    between atoms: C_19  and  O_20 
ROOT
HETATM    1  C   UNL     1      -1.112   6.268 -31.562  1.00  0.00     0.098 C 
HETATM    2  C   UNL     1      -2.565   6.001 -31.368  1.00  0.00     0.201 C 
HETATM    3  O   UNL     1      -3.093   6.075 -30.261  1.00  0.00    -0.286 OA
HETATM    4  C   UNL     1      -3.369   5.619 -32.562  1.00  0.00     0.043 A 
HETATM    5  C   UNL     1      -2.749   5.638 -33.827  1.00  0.00     0.046 A 
HETATM    6  N   UNL     1      -1.421   6.067 -33.949  1.00  0.00    -0.364 N 
HETATM    7  C   UNL     1      -4.705   5.225 -32.422  1.00  0.00     0.043 A 
HETATM    8  C   UNL     1      -5.428   4.874 -33.565  1.00  0.00     0.081 A 
HETATM    9  C   UNL     1      -4.828   4.902 -34.830  1.00  0.00     0.027 A 
HETATM   10  C   UNL     1      -3.496   5.300 -34.959  1.00  0.00     0.032 A 
HETATM   11  C   UNL     1      -0.659   6.276 -32.827  1.00  0.00     0.109 C 
HETATM   12  H   UNL     1      -0.927   5.863 -34.814  1.00  0.00     0.165 HD
ENDROOT
BRANCH   8  13
HETATM   13  S   UNL     1      -7.118   4.327 -33.423  1.00  0.00     0.263 S 
HETATM   14  O   UNL     1      -7.446   4.337 -32.013  1.00  0.00    -0.200 OA
HETATM   15  O   UNL     1      -7.910   5.061 -34.384  1.00  0.00    -0.200 OA
BRANCH  13  16
HETATM   16  N   UNL     1      -7.025   2.703 -33.875  1.00  0.00    -0.281 N 
HETATM   17  H   UNL     1      -7.774   2.428 -34.507  1.00  0.00     0.179 HD
BRANCH  16  18
HETATM   18  C   UNL     1      -6.578   1.754 -32.917  1.00  0.00     0.045 A 
HETATM   19  C   UNL     1      -5.210   1.533 -32.743  1.00  0.00     0.066 A 
HETATM   20  C   UNL     1      -4.780   0.553 -31.846  1.00  0.00     0.070 A 
HETATM   21  C   UNL     1      -5.718  -0.162 -31.098  1.00  0.00     0.037 A 
HETATM   22  C   UNL     1      -7.083   0.058 -31.279  1.00  0.00     0.005 A 
HETATM   23  C   UNL     1      -7.515   1.007 -32.202  1.00  0.00     0.030 A 
BRANCH  20  24
HETATM   24  O   UNL     1      -3.472   0.234 -31.602  1.00  0.00    -0.356 OA
HETATM   25  C   UNL     1      -3.070  -1.067 -32.019  1.00  0.00     0.210 C 
ENDBRANCH  20  24
ENDBRANCH  16  18
ENDBRANCH  13  16
ENDBRANCH   8  13
BRANCH   1  26
HETATM   26  C   UNL     1      -0.130   6.483 -30.463  1.00  0.00     0.257 C 
HETATM   27  N   UNL     1      -0.424   5.855 -29.279  1.00  0.00    -0.357 N 
HETATM   28  H   UNL     1      -1.241   5.244 -29.253  1.00  0.00     0.162 HD
HETATM   29  O   UNL     1       0.877   7.166 -30.632  1.00  0.00    -0.267 OA
BRANCH  27  30
HETATM   30  C   UNL     1       0.505   5.807 -28.168  1.00  0.00     0.123 C 
BRANCH  30  31
HETATM   31  C   UNL     1       0.325   6.967 -27.188  1.00  0.00     0.023 C 
BRANCH  31  32
HETATM   32  C   UNL     1       1.619   7.776 -26.979  1.00  0.00    -0.021 C 
HETATM   33  C   UNL     1       1.822   8.168 -25.515  1.00  0.00     0.009 C 
HETATM   34  C   UNL     1       1.601   9.034 -27.851  1.00  0.00     0.009 C 
ENDBRANCH  31  32
ENDBRANCH  30  31
ENDBRANCH  27  30
ENDBRANCH   1  26
TORSDOF 8
ENDMDL
MODEL 8
REMARK VINA RESULT:      -8.1      3.470     10.108
REMARK  8 active torsions:
REMARK  status: ('A' for Active; 'I' for Inactive)
REMARK    1  A    between atoms: C_2  and  C_3 
REMARK    2  A    between atoms: C_3  and  C_4 
REMARK    3  A    between atoms: C_4  and  N_5 
REMARK       I    between atoms: N_5  and  C_6 
REMARK    4  A    between atoms: C_6  and  C_7 
REMARK    5  A    between atoms: C_14  and  S_15 
REMARK    6  A    between atoms: S_15  and  N_16 
REMARK    7  A    between atoms: N_16  and  C_17 
REMARK    8  A    between atoms: C_19  and  O_20 
ROOT
HETATM    1  C   UNL     1      -5.346   3.681 -33.440  1.00  0.00     0.098 C 
HETATM    2  C   UNL     1      -4.170   3.604 -32.528  1.00  0.00     0.201 C 
HETATM    3  O   UNL     1      -4.120   2.795 -31.605  1.00  0.00    -0.286 OA
HETATM    4  C   UNL     1      -3.050   4.560 -32.756  1.00  0.00     0.043 A 
HETATM    5  C   UNL     1      -3.102   5.406 -33.880  1.00  0.00     0.046 A 
HETATM    6  N   UNL     1      -4.163   5.298 -34.788  1.00  0.00    -0.364 N 
HETATM    7  C   UNL     1      -1.981   4.628 -31.854  1.00  0.00     0.043 A 
HETATM    8  C   UNL     1      -0.948   5.535 -32.100  1.00  0.00     0.081 A 
HETATM    9  C   UNL     1      -0.980   6.373 -33.221  1.00  0.00     0.027 A 
HETATM   10  C   UNL     1      -2.049   6.294 -34.117  1.00  0.00     0.032 A 
HETATM   11  C   UNL     1      -5.251   4.518 -34.487  1.00  0.00     0.109 C 
HETATM   12  H   UNL     1      -4.304   6.052 -35.455  1.00  0.00     0.165 HD
ENDROOT
BRANCH   8  13
HETATM   13  S   UNL     1       0.408   5.681 -30.952  1.00  0.00     0.263 S 
HETATM   14  O   UNL     1       1.109   4.414 -30.966  1.00  0.00    -0.200 OA
HETATM   15  O   UNL     1       1.096   6.923 -31.225  1.00  0.00    -0.200 OA
BRANCH  13  16
HETATM   16  N   UNL     1      -0.374   5.773 -29.459  1.00  0.00    -0.281 N 
HETATM   17  H   UNL     1      -1.187   5.162 -29.404  1.00  0.00     0.179 HD
BRANCH  16  18
HETATM   18  C   UNL     1      -0.436   7.028 -28.797  1.00  0.00     0.045 A 
HETATM   19  C   UNL     1      -1.488   7.906 -29.070  1.00  0.00     0.066 A 
HETATM   20  C   UNL     1      -1.510   9.164 -28.465  1.00  0.00     0.070 A 
HETATM   21  C   UNL     1      -0.506   9.514 -27.559  1.00  0.00     0.037 A 
HETATM   22  C   UNL     1       0.545   8.637 -27.294  1.00  0.00     0.005 A 
HETATM   23  C   UNL     1       0.589   7.398 -27.927  1.00  0.00     0.030 A 
BRANCH  20  24
HETATM   24  O   UNL     1      -2.474  10.113 -28.664  1.00  0.00    -0.356 OA
HETATM   25  C   UNL     1      -2.456  10.747 -29.939  1.00  0.00     0.210 C 
ENDBRANCH  20  24
ENDBRANCH  16  18
ENDBRANCH  13  16
ENDBRANCH   8  13
BRANCH   1  26
HETATM   26  C   UNL     1      -6.621   2.934 -33.251  1.00  0.00     0.257 C 
HETATM   27  N   UNL     1      -6.985   2.709 -31.947  1.00  0.00    -0.357 N 
HETATM   28  H   UNL     1      -6.405   3.116 -31.213  1.00  0.00     0.162 HD
HETATM   29  O   UNL     1      -7.296   2.570 -34.211  1.00  0.00    -0.267 OA
BRANCH  27  30
HETATM   30  C   UNL     1      -8.275   2.162 -31.579  1.00  0.00     0.123 C 
BRANCH  30  31
HETATM   31  C   UNL     1      -8.258   0.639 -31.430  1.00  0.00     0.023 C 
BRANCH  31  32
HETATM   32  C   UNL     1      -9.037  -0.076 -32.550  1.00  0.00    -0.021 C 
HETATM   33  C   UNL     1      -8.115  -0.570 -33.666  1.00  0.00     0.009 C 
HETATM   34  C   UNL     1     -10.098   0.859 -33.134  1.00  0.00     0.009 C 
ENDBRANCH  31  32
ENDBRANCH  30  31
ENDBRANCH  27  30
ENDBRANCH   1  26
TORSDOF 8
ENDMDL
MODEL 9
REMARK VINA RESULT:      -8.0      5.235      9.010
REMARK  8 active torsions:
REMARK  status: ('A' for Active; 'I' for Inactive)
REMARK    1  A    between atoms: C_2  and  C_3 
REMARK    2  A    between atoms: C_3  and  C_4 
REMARK    3  A    between atoms: C_4  and  N_5 
REMARK       I    between atoms: N_5  and  C_6 
REMARK    4  A    between atoms: C_6  and  C_7 
REMARK    5  A    between atoms: C_14  and  S_15 
REMARK    6  A    between atoms: S_15  and  N_16 
REMARK    7  A    between atoms: N_16  and  C_17 
REMARK    8  A    between atoms: C_19  and  O_20 
ROOT
HETATM    1  C   UNL     1      -6.358   0.919 -32.334  1.00  0.00     0.098 C 
HETATM    2  C   UNL     1      -7.126   1.608 -33.409  1.00  0.00     0.201 C 
HETATM    3  O   UNL     1      -6.897   1.404 -34.599  1.00  0.00    -0.286 OA
HETATM    4  C   UNL     1      -8.180   2.578 -33.000  1.00  0.00     0.043 A 
HETATM    5  C   UNL     1      -8.478   2.712 -31.630  1.00  0.00     0.046 A 
HETATM    6  N   UNL     1      -7.829   1.902 -30.689  1.00  0.00    -0.364 N 
HETATM    7  C   UNL     1      -8.841   3.355 -33.959  1.00  0.00     0.043 A 
HETATM    8  C   UNL     1      -9.824   4.253 -33.538  1.00  0.00     0.081 A 
HETATM    9  C   UNL     1     -10.140   4.387 -32.181  1.00  0.00     0.027 A 
HETATM   10  C   UNL     1      -9.477   3.605 -31.232  1.00  0.00     0.032 A 
HETATM   11  C   UNL     1      -6.765   1.122 -31.070  1.00  0.00     0.109 C 
HETATM   12  H   UNL     1      -7.885   2.163 -29.709  1.00  0.00     0.165 HD
ENDROOT
BRANCH   8  13
HETATM   13  S   UNL     1     -10.658   5.290 -34.724  1.00  0.00     0.263 S 
HETATM   14  O   UNL     1     -11.566   6.136 -33.978  1.00  0.00    -0.200 OA
HETATM   15  O   UNL     1      -9.662   5.851 -35.609  1.00  0.00    -0.200 OA
BRANCH  13  16
HETATM   16  N   UNL     1     -11.623   4.191 -35.568  1.00  0.00    -0.281 N 
HETATM   17  H   UNL     1     -12.066   4.605 -36.386  1.00  0.00     0.179 HD
BRANCH  16  18
HETATM   18  C   UNL     1     -12.355   3.221 -34.832  1.00  0.00     0.045 A 
HETATM   19  C   UNL     1     -13.247   3.630 -33.839  1.00  0.00     0.066 A 
HETATM   20  C   UNL     1     -13.915   2.670 -33.076  1.00  0.00     0.070 A 
HETATM   21  C   UNL     1     -13.721   1.314 -33.345  1.00  0.00     0.037 A 
HETATM   22  C   UNL     1     -12.825   0.909 -34.334  1.00  0.00     0.005 A 
HETATM   23  C   UNL     1     -12.128   1.865 -35.068  1.00  0.00     0.030 A 
BRANCH  20  24
HETATM   24  O   UNL     1     -14.798   2.946 -32.068  1.00  0.00    -0.356 OA
HETATM   25  C   UNL     1     -16.013   2.203 -32.097  1.00  0.00     0.210 C 
ENDBRANCH  20  24
ENDBRANCH  16  18
ENDBRANCH  13  16
ENDBRANCH   8  13
BRANCH   1  26
HETATM   26  C   UNL     1      -5.159   0.063 -32.557  1.00  0.00     0.257 C 
HETATM   27  N   UNL     1      -5.401  -1.143 -33.164  1.00  0.00    -0.357 N 
HETATM   28  H   UNL     1      -6.353  -1.339 -33.474  1.00  0.00     0.162 HD
HETATM   29  O   UNL     1      -4.037   0.440 -32.228  1.00  0.00    -0.267 OA
BRANCH  27  30
HETATM   30  C   UNL     1      -4.337  -2.016 -33.618  1.00  0.00     0.123 C 
BRANCH  30  31
HETATM   31  C   UNL     1      -4.730  -2.850 -34.840  1.00  0.00     0.023 C 
BRANCH  31  32
HETATM   32  C   UNL     1      -5.444  -4.161 -34.460  1.00  0.00    -0.021 C 
HETATM   33  C   UNL     1      -4.457  -5.254 -34.047  1.00  0.00     0.009 C 
HETATM   34  C   UNL     1      -6.299  -4.654 -35.630  1.00  0.00     0.009 C 
ENDBRANCH  31  32
ENDBRANCH  30  31
ENDBRANCH  27  30
ENDBRANCH   1  26
TORSDOF 8
ENDMDL
MODEL 10
REMARK VINA RESULT:      -7.9      4.885      8.427
REMARK  8 active torsions:
REMARK  status: ('A' for Active; 'I' for Inactive)
REMARK    1  A    between atoms: C_2  and  C_3 
REMARK    2  A    between atoms: C_3  and  C_4 
REMARK    3  A    between atoms: C_4  and  N_5 
REMARK       I    between atoms: N_5  and  C_6 
REMARK    4  A    between atoms: C_6  and  C_7 
REMARK    5  A    between atoms: C_14  and  S_15 
REMARK    6  A    between atoms: S_15  and  N_16 
REMARK    7  A    between atoms: N_16  and  C_17 
REMARK    8  A    between atoms: C_19  and  O_20 
ROOT
HETATM    1  C   UNL     1      -5.379   0.441 -31.459  1.00  0.00     0.098 C 
HETATM    2  C   UNL     1      -6.136   1.304 -32.409  1.00  0.00     0.201 C 
HETATM    3  O   UNL     1      -6.061   1.145 -33.626  1.00  0.00    -0.286 OA
HETATM    4  C   UNL     1      -6.982   2.389 -31.842  1.00  0.00     0.043 A 
HETATM    5  C   UNL     1      -7.118   2.478 -30.443  1.00  0.00     0.046 A 
HETATM    6  N   UNL     1      -6.510   1.522 -29.619  1.00  0.00    -0.364 N 
HETATM    7  C   UNL     1      -7.609   3.315 -32.684  1.00  0.00     0.043 A 
HETATM    8  C   UNL     1      -8.397   4.320 -32.116  1.00  0.00     0.081 A 
HETATM    9  C   UNL     1      -8.550   4.411 -30.728  1.00  0.00     0.027 A 
HETATM   10  C   UNL     1      -7.924   3.480 -29.896  1.00  0.00     0.032 A 
HETATM   11  C   UNL     1      -5.621   0.620 -30.150  1.00  0.00     0.109 C 
HETATM   12  H   UNL     1      -6.427   1.725 -28.626  1.00  0.00     0.165 HD
ENDROOT
BRANCH   8  13
HETATM   13  S   UNL     1      -9.176   5.542 -33.153  1.00  0.00     0.263 S 
HETATM   14  O   UNL     1      -8.971   6.826 -32.516  1.00  0.00    -0.200 OA
HETATM   15  O   UNL     1      -8.761   5.305 -34.517  1.00  0.00    -0.200 OA
BRANCH  13  16
HETATM   16  N   UNL     1     -10.817   5.187 -32.981  1.00  0.00    -0.281 N 
HETATM   17  H   UNL     1     -11.146   5.306 -32.025  1.00  0.00     0.179 HD
BRANCH  16  18
HETATM   18  C   UNL     1     -11.370   4.127 -33.749  1.00  0.00     0.045 A 
HETATM   19  C   UNL     1     -11.434   2.839 -33.212  1.00  0.00     0.066 A 
HETATM   20  C   UNL     1     -11.919   1.790 -33.996  1.00  0.00     0.070 A 
HETATM   21  C   UNL     1     -12.379   2.047 -35.289  1.00  0.00     0.037 A 
HETATM   22  C   UNL     1     -12.309   3.333 -35.823  1.00  0.00     0.005 A 
HETATM   23  C   UNL     1     -11.788   4.373 -35.057  1.00  0.00     0.030 A 
BRANCH  20  24
HETATM   24  O   UNL     1     -12.014   0.488 -33.589  1.00  0.00    -0.356 OA
HETATM   25  C   UNL     1     -13.309  -0.095 -33.697  1.00  0.00     0.210 C 
ENDBRANCH  20  24
ENDBRANCH  16  18
ENDBRANCH  13  16
ENDBRANCH   8  13
BRANCH   1  26
HETATM   26  C   UNL     1      -4.353  -0.566 -31.852  1.00  0.00     0.257 C 
HETATM   27  N   UNL     1      -4.787  -1.545 -32.710  1.00  0.00    -0.357 N 
HETATM   28  H   UNL     1      -5.742  -1.481 -33.063  1.00  0.00     0.162 HD
HETATM   29  O   UNL     1      -3.199  -0.494 -31.439  1.00  0.00    -0.267 OA
BRANCH  27  30
HETATM   30  C   UNL     1      -3.886  -2.493 -33.333  1.00  0.00     0.123 C 
BRANCH  30  31
HETATM   31  C   UNL     1      -4.608  -3.712 -33.911  1.00  0.00     0.023 C 
BRANCH  31  32
HETATM   32  C   UNL     1      -5.642  -3.335 -34.989  1.00  0.00    -0.021 C 
HETATM   33  C   UNL     1      -6.736  -2.418 -34.440  1.00  0.00     0.009 C 
HETATM   34  C   UNL     1      -6.275  -4.598 -35.578  1.00  0.00     0.009 C 
ENDBRANCH  31  32
ENDBRANCH  30  31
ENDBRANCH  27  30
ENDBRANCH   1  26
TORSDOF 8
ENDMDL
