MODEL 1
REMARK VINA RESULT:      -9.7      0.000      0.000
REMARK  3 active torsions:
REMARK  status: ('A' for Active; 'I' for Inactive)
REMARK    1  A    between atoms: C_6  and  N_7 
REMARK       I    between atoms: N_7  and  C_8 
REMARK    2  A    between atoms: C_8  and  C_9 
REMARK    3  A    between atoms: C_9  and  N_10 
ROOT
HETATM    1  N   UNL     1      -6.088   3.161 -32.335  1.00  0.00    -0.224 N 
HETATM    2  N   UNL     1      -5.190   2.795 -31.308  1.00  0.00    -0.180 NA
HETATM    3  C   UNL     1      -4.072   3.450 -31.167  1.00  0.00     0.153 A 
HETATM    4  C   UNL     1      -3.734   4.529 -32.048  1.00  0.00     0.028 A 
HETATM    5  C   UNL     1      -4.595   4.844 -33.067  1.00  0.00     0.116 A 
HETATM    6  N   UNL     1      -4.063   5.884 -33.775  1.00  0.00    -0.350 N 
HETATM    7  H   UNL     1      -4.493   6.312 -34.585  1.00  0.00     0.166 HD
HETATM    8  C   UNL     1      -2.857   6.254 -33.215  1.00  0.00     0.044 A 
HETATM    9  C   UNL     1      -2.625   5.409 -32.121  1.00  0.00     0.005 A 
HETATM   10  C   UNL     1      -1.960   7.259 -33.591  1.00  0.00     0.030 A 
HETATM   11  C   UNL     1      -0.795   7.407 -32.833  1.00  0.00     0.002 A 
HETATM   12  C   UNL     1      -0.537   6.580 -31.742  1.00  0.00     0.001 A 
HETATM   13  C   UNL     1      -1.442   5.578 -31.374  1.00  0.00     0.014 A 
HETATM   14  C   UNL     1      -5.826   4.150 -33.303  1.00  0.00     0.291 A 
HETATM   15  O   UNL     1      -6.562   4.407 -34.250  1.00  0.00    -0.264 OA
ENDROOT
BRANCH   1  16
HETATM   16  C   UNL     1      -7.246   2.297 -32.523  1.00  0.00     0.258 C 
BRANCH  16  17
HETATM   17  C   UNL     1      -6.975   0.779 -32.590  1.00  0.00     0.244 C 
HETATM   18  N   UNL     1      -6.563   0.215 -33.812  1.00  0.00    -0.321 N 
HETATM   19  C   UNL     1      -6.793   0.934 -35.066  1.00  0.00     0.159 C 
HETATM   20  O   UNL     1      -7.242   0.126 -31.576  1.00  0.00    -0.271 OA
BRANCH  18  21
HETATM   21  C   UNL     1      -5.973  -1.106 -33.917  1.00  0.00     0.037 A 
HETATM   22  C   UNL     1      -6.597  -2.181 -34.566  1.00  0.00     0.037 A 
HETATM   23  C   UNL     1      -6.001  -3.458 -34.671  1.00  0.00    -0.054 A 
HETATM   24  C   UNL     1      -4.728  -3.677 -34.122  1.00  0.00    -0.056 A 
HETATM   25  C   UNL     1      -6.730  -4.535 -35.429  1.00  0.00     0.049 C 
HETATM   26  C   UNL     1      -4.040  -5.010 -34.213  1.00  0.00     0.049 C 
HETATM   27  C   UNL     1      -4.108  -2.628 -33.439  1.00  0.00     0.009 A 
HETATM   28  C   UNL     1      -4.719  -1.371 -33.341  1.00  0.00     0.030 A 
ENDBRANCH  18  21
ENDBRANCH  16  17
ENDBRANCH   1  16
TORSDOF 3
ENDMDL
MODEL 2
REMARK VINA RESULT:      -9.5      1.135      1.724
REMARK  3 active torsions:
REMARK  status: ('A' for Active; 'I' for Inactive)
REMARK    1  A    between atoms: C_6  and  N_7 
REMARK       I    between atoms: N_7  and  C_8 
REMARK    2  A    between atoms: C_8  and  C_9 
REMARK    3  A    between atoms: C_9  and  N_10 
ROOT
HETATM    1  N   UNL     1      -6.012   3.115 -32.669  1.00  0.00    -0.224 N 
HETATM    2  N   UNL     1      -5.979   3.955 -33.804  1.00  0.00    -0.180 NA
HETATM    3  C   UNL     1      -5.042   4.854 -33.911  1.00  0.00     0.153 A 
HETATM    4  C   UNL     1      -4.051   5.012 -32.887  1.00  0.00     0.028 A 
HETATM    5  C   UNL     1      -4.122   4.218 -31.771  1.00  0.00     0.116 A 
HETATM    6  N   UNL     1      -3.093   4.554 -30.939  1.00  0.00    -0.350 N 
HETATM    7  H   UNL     1      -2.913   4.124 -30.040  1.00  0.00     0.166 HD
HETATM    8  C   UNL     1      -2.344   5.562 -31.513  1.00  0.00     0.044 A 
HETATM    9  C   UNL     1      -2.932   5.872 -32.746  1.00  0.00     0.005 A 
HETATM   10  C   UNL     1      -1.204   6.219 -31.037  1.00  0.00     0.030 A 
HETATM   11  C   UNL     1      -0.650   7.221 -31.840  1.00  0.00     0.002 A 
HETATM   12  C   UNL     1      -1.215   7.551 -33.070  1.00  0.00     0.001 A 
HETATM   13  C   UNL     1      -2.355   6.886 -33.536  1.00  0.00     0.014 A 
HETATM   14  C   UNL     1      -5.140   3.231 -31.569  1.00  0.00     0.291 A 
HETATM   15  O   UNL     1      -5.223   2.565 -30.543  1.00  0.00    -0.264 OA
ENDROOT
BRANCH   1  16
HETATM   16  C   UNL     1      -7.167   2.233 -32.547  1.00  0.00     0.258 C 
BRANCH  16  17
HETATM   17  C   UNL     1      -6.888   0.717 -32.590  1.00  0.00     0.244 C 
HETATM   18  N   UNL     1      -6.569   0.118 -33.823  1.00  0.00    -0.321 N 
HETATM   19  C   UNL     1      -6.904   0.797 -35.076  1.00  0.00     0.159 C 
HETATM   20  O   UNL     1      -7.068   0.093 -31.538  1.00  0.00    -0.271 OA
BRANCH  18  21
HETATM   21  C   UNL     1      -5.978  -1.202 -33.935  1.00  0.00     0.037 A 
HETATM   22  C   UNL     1      -6.602  -2.275 -34.586  1.00  0.00     0.037 A 
HETATM   23  C   UNL     1      -6.005  -3.551 -34.698  1.00  0.00    -0.054 A 
HETATM   24  C   UNL     1      -4.731  -3.770 -34.154  1.00  0.00    -0.056 A 
HETATM   25  C   UNL     1      -6.735  -4.626 -35.459  1.00  0.00     0.049 C 
HETATM   26  C   UNL     1      -4.041  -5.102 -34.253  1.00  0.00     0.049 C 
HETATM   27  C   UNL     1      -4.110  -2.723 -33.469  1.00  0.00     0.009 A 
HETATM   28  C   UNL     1      -4.722  -1.467 -33.364  1.00  0.00     0.030 A 
ENDBRANCH  18  21
ENDBRANCH  16  17
ENDBRANCH   1  16
TORSDOF 3
ENDMDL
MODEL 3
REMARK VINA RESULT:      -9.4      1.490      8.491
REMARK  3 active torsions:
REMARK  status: ('A' for Active; 'I' for Inactive)
REMARK    1  A    between atoms: C_6  and  N_7 
REMARK       I    between atoms: N_7  and  C_8 
REMARK    2  A    between atoms: C_8  and  C_9 
REMARK    3  A    between atoms: C_9  and  N_10 
ROOT
HETATM    1  N   UNL     1      -5.847   1.634 -33.360  1.00  0.00    -0.224 N 
HETATM    2  N   UNL     1      -4.640   1.157 -32.802  1.00  0.00    -0.180 NA
HETATM    3  C   UNL     1      -4.318  -0.098 -32.944  1.00  0.00     0.153 A 
HETATM    4  C   UNL     1      -5.177  -1.005 -33.646  1.00  0.00     0.028 A 
HETATM    5  C   UNL     1      -6.367  -0.537 -34.143  1.00  0.00     0.116 A 
HETATM    6  N   UNL     1      -7.015  -1.573 -34.753  1.00  0.00    -0.350 N 
HETATM    7  H   UNL     1      -7.920  -1.503 -35.202  1.00  0.00     0.166 HD
HETATM    8  C   UNL     1      -6.248  -2.716 -34.662  1.00  0.00     0.044 A 
HETATM    9  C   UNL     1      -5.080  -2.384 -33.962  1.00  0.00     0.005 A 
HETATM   10  C   UNL     1      -6.498  -4.008 -35.136  1.00  0.00     0.030 A 
HETATM   11  C   UNL     1      -5.532  -4.988 -34.890  1.00  0.00     0.002 A 
HETATM   12  C   UNL     1      -4.362  -4.687 -34.196  1.00  0.00     0.001 A 
HETATM   13  C   UNL     1      -4.122  -3.390 -33.727  1.00  0.00     0.014 A 
HETATM   14  C   UNL     1      -6.802   0.820 -34.000  1.00  0.00     0.291 A 
HETATM   15  O   UNL     1      -7.891   1.213 -34.403  1.00  0.00    -0.264 OA
ENDROOT
BRANCH   1  16
HETATM   16  C   UNL     1      -6.211   3.009 -33.040  1.00  0.00     0.258 C 
BRANCH  16  17
HETATM   17  C   UNL     1      -5.061   4.035 -32.987  1.00  0.00     0.244 C 
HETATM   18  N   UNL     1      -4.514   4.381 -31.736  1.00  0.00    -0.321 N 
HETATM   19  C   UNL     1      -5.270   4.122 -30.510  1.00  0.00     0.159 C 
HETATM   20  O   UNL     1      -4.755   4.578 -34.055  1.00  0.00    -0.271 OA
BRANCH  18  21
HETATM   21  C   UNL     1      -3.244   5.065 -31.587  1.00  0.00     0.037 A 
HETATM   22  C   UNL     1      -3.109   6.319 -30.976  1.00  0.00     0.037 A 
HETATM   23  C   UNL     1      -1.861   6.965 -30.826  1.00  0.00    -0.054 A 
HETATM   24  C   UNL     1      -0.695   6.336 -31.289  1.00  0.00    -0.056 A 
HETATM   25  C   UNL     1      -1.813   8.289 -30.113  1.00  0.00     0.049 C 
HETATM   26  C   UNL     1       0.661   6.968 -31.147  1.00  0.00     0.049 C 
HETATM   27  C   UNL     1      -0.815   5.102 -31.935  1.00  0.00     0.009 A 
HETATM   28  C   UNL     1      -2.063   4.482 -32.079  1.00  0.00     0.030 A 
ENDBRANCH  18  21
ENDBRANCH  16  17
ENDBRANCH   1  16
TORSDOF 3
ENDMDL
MODEL 4
REMARK VINA RESULT:      -9.2      1.548      1.795
REMARK  3 active torsions:
REMARK  status: ('A' for Active; 'I' for Inactive)
REMARK    1  A    between atoms: C_6  and  N_7 
REMARK       I    between atoms: N_7  and  C_8 
REMARK    2  A    between atoms: C_8  and  C_9 
REMARK    3  A    between atoms: C_9  and  N_10 
ROOT
HETATM    1  N   UNL     1      -5.096   3.106 -31.861  1.00  0.00    -0.224 N 
HETATM    2  N   UNL     1      -3.966   2.765 -32.637  1.00  0.00    -0.180 NA
HETATM    3  C   UNL     1      -2.868   3.456 -32.513  1.00  0.00     0.153 A 
HETATM    4  C   UNL     1      -2.795   4.567 -31.610  1.00  0.00     0.028 A 
HETATM    5  C   UNL     1      -3.913   4.913 -30.896  1.00  0.00     0.116 A 
HETATM    6  N   UNL     1      -3.611   5.997 -30.122  1.00  0.00    -0.350 N 
HETATM    7  H   UNL     1      -4.260   6.460 -29.498  1.00  0.00     0.166 HD
HETATM    8  C   UNL     1      -2.293   6.355 -30.323  1.00  0.00     0.044 A 
HETATM    9  C   UNL     1      -1.755   5.467 -31.263  1.00  0.00     0.005 A 
HETATM   10  C   UNL     1      -1.545   7.390 -29.752  1.00  0.00     0.030 A 
HETATM   11  C   UNL     1      -0.212   7.524 -30.153  1.00  0.00     0.002 A 
HETATM   12  C   UNL     1       0.349   6.657 -31.087  1.00  0.00     0.001 A 
HETATM   13  C   UNL     1      -0.410   5.624 -31.650  1.00  0.00     0.014 A 
HETATM   14  C   UNL     1      -5.163   4.221 -31.003  1.00  0.00     0.291 A 
HETATM   15  O   UNL     1      -6.170   4.573 -30.399  1.00  0.00    -0.264 OA
ENDROOT
BRANCH   1  16
HETATM   16  C   UNL     1      -6.327   2.384 -32.155  1.00  0.00     0.258 C 
BRANCH  16  17
HETATM   17  C   UNL     1      -6.223   0.848 -32.255  1.00  0.00     0.244 C 
HETATM   18  N   UNL     1      -6.141   0.253 -33.528  1.00  0.00    -0.321 N 
HETATM   19  C   UNL     1      -6.567   0.997 -34.714  1.00  0.00     0.159 C 
HETATM   20  O   UNL     1      -6.325   0.218 -31.197  1.00  0.00    -0.271 OA
BRANCH  18  21
HETATM   21  C   UNL     1      -5.717  -1.119 -33.737  1.00  0.00     0.037 A 
HETATM   22  C   UNL     1      -6.492  -2.073 -34.410  1.00  0.00     0.037 A 
HETATM   23  C   UNL     1      -6.057  -3.402 -34.617  1.00  0.00    -0.054 A 
HETATM   24  C   UNL     1      -4.795  -3.798 -34.150  1.00  0.00    -0.056 A 
HETATM   25  C   UNL     1      -6.942  -4.339 -35.394  1.00  0.00     0.049 C 
HETATM   26  C   UNL     1      -4.274  -5.193 -34.350  1.00  0.00     0.049 C 
HETATM   27  C   UNL     1      -4.024  -2.871 -33.443  1.00  0.00     0.009 A 
HETATM   28  C   UNL     1      -4.477  -1.561 -33.244  1.00  0.00     0.030 A 
ENDBRANCH  18  21
ENDBRANCH  16  17
ENDBRANCH   1  16
TORSDOF 3
ENDMDL
MODEL 5
REMARK VINA RESULT:      -9.2      4.206      8.113
REMARK  3 active torsions:
REMARK  status: ('A' for Active; 'I' for Inactive)
REMARK    1  A    between atoms: C_6  and  N_7 
REMARK       I    between atoms: N_7  and  C_8 
REMARK    2  A    between atoms: C_8  and  C_9 
REMARK    3  A    between atoms: C_9  and  N_10 
ROOT
HETATM    1  N   UNL     1      -7.498   1.171 -33.751  1.00  0.00    -0.224 N 
HETATM    2  N   UNL     1      -7.758   0.283 -34.818  1.00  0.00    -0.180 NA
HETATM    3  C   UNL     1      -7.071  -0.820 -34.918  1.00  0.00     0.153 A 
HETATM    4  C   UNL     1      -6.045  -1.139 -33.969  1.00  0.00     0.028 A 
HETATM    5  C   UNL     1      -5.774  -0.246 -32.964  1.00  0.00     0.116 A 
HETATM    6  N   UNL     1      -4.762  -0.751 -32.200  1.00  0.00    -0.350 N 
HETATM    7  H   UNL     1      -4.362  -0.291 -31.392  1.00  0.00     0.166 HD
HETATM    8  C   UNL     1      -4.375  -1.979 -32.699  1.00  0.00     0.044 A 
HETATM    9  C   UNL     1      -5.171  -2.245 -33.822  1.00  0.00     0.005 A 
HETATM   10  C   UNL     1      -3.389  -2.863 -32.250  1.00  0.00     0.030 A 
HETATM   11  C   UNL     1      -3.207  -4.051 -32.965  1.00  0.00     0.002 A 
HETATM   12  C   UNL     1      -3.982  -4.341 -34.086  1.00  0.00     0.001 A 
HETATM   13  C   UNL     1      -4.967  -3.449 -34.526  1.00  0.00     0.014 A 
HETATM   14  C   UNL     1      -6.465   0.999 -32.808  1.00  0.00     0.291 A 
HETATM   15  O   UNL     1      -6.178   1.813 -31.937  1.00  0.00    -0.264 OA
ENDROOT
BRANCH   1  16
HETATM   16  C   UNL     1      -8.202   2.447 -33.782  1.00  0.00     0.258 C 
BRANCH  16  17
HETATM   17  C   UNL     1      -9.589   2.490 -33.109  1.00  0.00     0.244 C 
HETATM   18  N   UNL     1     -10.673   3.039 -33.820  1.00  0.00    -0.321 N 
HETATM   19  C   UNL     1     -10.430   3.920 -34.963  1.00  0.00     0.159 C 
HETATM   20  O   UNL     1      -9.641   2.129 -31.928  1.00  0.00    -0.271 OA
BRANCH  18  21
HETATM   21  C   UNL     1     -12.057   2.840 -33.434  1.00  0.00     0.037 A 
HETATM   22  C   UNL     1     -12.895   1.885 -34.028  1.00  0.00     0.037 A 
HETATM   23  C   UNL     1     -14.237   1.695 -33.630  1.00  0.00    -0.054 A 
HETATM   24  C   UNL     1     -14.769   2.474 -32.591  1.00  0.00    -0.056 A 
HETATM   25  C   UNL     1     -15.042   0.611 -34.295  1.00  0.00     0.049 C 
HETATM   26  C   UNL     1     -16.186   2.309 -32.116  1.00  0.00     0.049 C 
HETATM   27  C   UNL     1     -13.961   3.457 -32.013  1.00  0.00     0.009 A 
HETATM   28  C   UNL     1     -12.634   3.633 -32.427  1.00  0.00     0.030 A 
ENDBRANCH  18  21
ENDBRANCH  16  17
ENDBRANCH   1  16
TORSDOF 3
ENDMDL
MODEL 6
REMARK VINA RESULT:      -8.4      3.375      8.280
REMARK  3 active torsions:
REMARK  status: ('A' for Active; 'I' for Inactive)
REMARK    1  A    between atoms: C_6  and  N_7 
REMARK       I    between atoms: N_7  and  C_8 
REMARK    2  A    between atoms: C_8  and  C_9 
REMARK    3  A    between atoms: C_9  and  N_10 
ROOT
HETATM    1  N   UNL     1      -6.765   1.223 -32.271  1.00  0.00    -0.224 N 
HETATM    2  N   UNL     1      -7.908   0.691 -32.908  1.00  0.00    -0.180 NA
HETATM    3  C   UNL     1      -7.831  -0.463 -33.508  1.00  0.00     0.153 A 
HETATM    4  C   UNL     1      -6.600  -1.196 -33.541  1.00  0.00     0.028 A 
HETATM    5  C   UNL     1      -5.488  -0.646 -32.956  1.00  0.00     0.116 A 
HETATM    6  N   UNL     1      -4.442  -1.509 -33.124  1.00  0.00    -0.350 N 
HETATM    7  H   UNL     1      -3.500  -1.347 -32.791  1.00  0.00     0.166 HD
HETATM    8  C   UNL     1      -4.871  -2.626 -33.812  1.00  0.00     0.044 A 
HETATM    9  C   UNL     1      -6.233  -2.451 -34.090  1.00  0.00     0.005 A 
HETATM   10  C   UNL     1      -4.163  -3.766 -34.208  1.00  0.00     0.030 A 
HETATM   11  C   UNL     1      -4.863  -4.753 -34.909  1.00  0.00     0.002 A 
HETATM   12  C   UNL     1      -6.217  -4.605 -35.202  1.00  0.00     0.001 A 
HETATM   13  C   UNL     1      -6.915  -3.460 -34.799  1.00  0.00     0.014 A 
HETATM   14  C   UNL     1      -5.488   0.631 -32.307  1.00  0.00     0.291 A 
HETATM   15  O   UNL     1      -4.475   1.134 -31.834  1.00  0.00    -0.264 OA
ENDROOT
BRANCH   1  16
HETATM   16  C   UNL     1      -6.885   2.578 -31.747  1.00  0.00     0.258 C 
BRANCH  16  17
HETATM   17  C   UNL     1      -8.141   3.373 -32.162  1.00  0.00     0.244 C 
HETATM   18  N   UNL     1      -8.115   4.107 -33.363  1.00  0.00    -0.321 N 
HETATM   19  C   UNL     1      -6.836   4.462 -33.978  1.00  0.00     0.159 C 
HETATM   20  O   UNL     1      -9.071   3.400 -31.349  1.00  0.00    -0.271 OA
BRANCH  18  21
HETATM   21  C   UNL     1      -9.311   4.612 -34.010  1.00  0.00     0.037 A 
HETATM   22  C   UNL     1     -10.220   3.796 -34.699  1.00  0.00     0.037 A 
HETATM   23  C   UNL     1     -11.388   4.303 -35.312  1.00  0.00    -0.054 A 
HETATM   24  C   UNL     1     -11.675   5.674 -35.228  1.00  0.00    -0.056 A 
HETATM   25  C   UNL     1     -12.327   3.339 -35.986  1.00  0.00     0.049 C 
HETATM   26  C   UNL     1     -12.908   6.268 -35.850  1.00  0.00     0.049 C 
HETATM   27  C   UNL     1     -10.762   6.508 -34.578  1.00  0.00     0.009 A 
HETATM   28  C   UNL     1      -9.606   5.986 -33.983  1.00  0.00     0.030 A 
ENDBRANCH  18  21
ENDBRANCH  16  17
ENDBRANCH   1  16
TORSDOF 3
ENDMDL
MODEL 7
REMARK VINA RESULT:      -8.3      3.130      8.663
REMARK  3 active torsions:
REMARK  status: ('A' for Active; 'I' for Inactive)
REMARK    1  A    between atoms: C_6  and  N_7 
REMARK       I    between atoms: N_7  and  C_8 
REMARK    2  A    between atoms: C_8  and  C_9 
REMARK    3  A    between atoms: C_9  and  N_10 
ROOT
HETATM    1  N   UNL     1      -4.188   1.041 -32.152  1.00  0.00    -0.224 N 
HETATM    2  N   UNL     1      -5.260   1.108 -33.070  1.00  0.00    -0.180 NA
HETATM    3  C   UNL     1      -5.629   0.034 -33.708  1.00  0.00     0.153 A 
HETATM    4  C   UNL     1      -4.954  -1.214 -33.502  1.00  0.00     0.028 A 
HETATM    5  C   UNL     1      -3.888  -1.255 -32.641  1.00  0.00     0.116 A 
HETATM    6  N   UNL     1      -3.402  -2.531 -32.617  1.00  0.00    -0.350 N 
HETATM    7  H   UNL     1      -2.611  -2.837 -32.065  1.00  0.00     0.166 HD
HETATM    8  C   UNL     1      -4.156  -3.327 -33.455  1.00  0.00     0.044 A 
HETATM    9  C   UNL     1      -5.143  -2.516 -34.030  1.00  0.00     0.005 A 
HETATM   10  C   UNL     1      -4.037  -4.690 -33.749  1.00  0.00     0.030 A 
HETATM   11  C   UNL     1      -4.948  -5.241 -34.655  1.00  0.00     0.002 A 
HETATM   12  C   UNL     1      -5.940  -4.458 -35.243  1.00  0.00     0.001 A 
HETATM   13  C   UNL     1      -6.049  -3.096 -34.941  1.00  0.00     0.014 A 
HETATM   14  C   UNL     1      -3.405  -0.109 -31.929  1.00  0.00     0.291 A 
HETATM   15  O   UNL     1      -2.418  -0.147 -31.203  1.00  0.00    -0.264 OA
ENDROOT
BRANCH   1  16
HETATM   16  C   UNL     1      -3.738   2.306 -31.585  1.00  0.00     0.258 C 
BRANCH  16  17
HETATM   17  C   UNL     1      -4.821   3.374 -31.328  1.00  0.00     0.244 C 
HETATM   18  N   UNL     1      -5.743   3.170 -30.284  1.00  0.00    -0.321 N 
HETATM   19  C   UNL     1      -5.952   1.826 -29.742  1.00  0.00     0.159 C 
HETATM   20  O   UNL     1      -4.877   4.309 -32.134  1.00  0.00    -0.271 OA
BRANCH  18  21
HETATM   21  C   UNL     1      -6.578   4.227 -29.744  1.00  0.00     0.037 A 
HETATM   22  C   UNL     1      -7.850   4.537 -30.243  1.00  0.00     0.037 A 
HETATM   23  C   UNL     1      -8.656   5.561 -29.696  1.00  0.00    -0.054 A 
HETATM   24  C   UNL     1      -8.187   6.301 -28.600  1.00  0.00    -0.056 A 
HETATM   25  C   UNL     1     -10.028   5.786 -30.271  1.00  0.00     0.049 C 
HETATM   26  C   UNL     1      -9.003   7.393 -27.969  1.00  0.00     0.049 C 
HETATM   27  C   UNL     1      -6.905   6.031 -28.113  1.00  0.00     0.009 A 
HETATM   28  C   UNL     1      -6.120   5.015 -28.674  1.00  0.00     0.030 A 
ENDBRANCH  18  21
ENDBRANCH  16  17
ENDBRANCH   1  16
TORSDOF 3
ENDMDL
MODEL 8
REMARK VINA RESULT:      -8.3      3.284      7.404
REMARK  3 active torsions:
REMARK  status: ('A' for Active; 'I' for Inactive)
REMARK    1  A    between atoms: C_6  and  N_7 
REMARK       I    between atoms: N_7  and  C_8 
REMARK    2  A    between atoms: C_8  and  C_9 
REMARK    3  A    between atoms: C_9  and  N_10 
ROOT
HETATM    1  N   UNL     1      -5.553   1.866 -32.348  1.00  0.00    -0.224 N 
HETATM    2  N   UNL     1      -4.764   1.455 -31.250  1.00  0.00    -0.180 NA
HETATM    3  C   UNL     1      -4.248   0.259 -31.241  1.00  0.00     0.153 A 
HETATM    4  C   UNL     1      -4.479  -0.652 -32.324  1.00  0.00     0.028 A 
HETATM    5  C   UNL     1      -5.282  -0.255 -33.361  1.00  0.00     0.116 A 
HETATM    6  N   UNL     1      -5.367  -1.282 -34.258  1.00  0.00    -0.350 N 
HETATM    7  H   UNL     1      -5.902  -1.256 -35.116  1.00  0.00     0.166 HD
HETATM    8  C   UNL     1      -4.612  -2.348 -33.811  1.00  0.00     0.044 A 
HETATM    9  C   UNL     1      -4.042  -1.975 -32.586  1.00  0.00     0.005 A 
HETATM   10  C   UNL     1      -4.397  -3.603 -34.390  1.00  0.00     0.030 A 
HETATM   11  C   UNL     1      -3.579  -4.503 -33.701  1.00  0.00     0.002 A 
HETATM   12  C   UNL     1      -3.000  -4.161 -32.481  1.00  0.00     0.001 A 
HETATM   13  C   UNL     1      -3.222  -2.901 -31.912  1.00  0.00     0.014 A 
HETATM   14  C   UNL     1      -5.910   1.031 -33.425  1.00  0.00     0.291 A 
HETATM   15  O   UNL     1      -6.669   1.355 -34.332  1.00  0.00    -0.264 OA
ENDROOT
BRANCH   1  16
HETATM   16  C   UNL     1      -6.215   3.158 -32.225  1.00  0.00     0.258 C 
BRANCH  16  17
HETATM   17  C   UNL     1      -7.725   3.137 -31.907  1.00  0.00     0.244 C 
HETATM   18  N   UNL     1      -8.623   3.699 -32.833  1.00  0.00    -0.321 N 
HETATM   19  C   UNL     1      -8.141   4.643 -33.842  1.00  0.00     0.159 C 
HETATM   20  O   UNL     1      -8.048   2.713 -30.792  1.00  0.00    -0.271 OA
BRANCH  18  21
HETATM   21  C   UNL     1     -10.052   3.451 -32.804  1.00  0.00     0.037 A 
HETATM   22  C   UNL     1     -10.657   2.348 -33.423  1.00  0.00     0.037 A 
HETATM   23  C   UNL     1     -12.050   2.113 -33.373  1.00  0.00    -0.054 A 
HETATM   24  C   UNL     1     -12.877   3.002 -32.669  1.00  0.00    -0.056 A 
HETATM   25  C   UNL     1     -12.598   0.875 -34.028  1.00  0.00     0.049 C 
HETATM   26  C   UNL     1     -14.362   2.798 -32.571  1.00  0.00     0.049 C 
HETATM   27  C   UNL     1     -12.296   4.127 -32.078  1.00  0.00     0.009 A 
HETATM   28  C   UNL     1     -10.914   4.344 -32.145  1.00  0.00     0.030 A 
ENDBRANCH  18  21
ENDBRANCH  16  17
ENDBRANCH   1  16
TORSDOF 3
ENDMDL
MODEL 9
REMARK VINA RESULT:      -8.2      3.430      9.025
REMARK  3 active torsions:
REMARK  status: ('A' for Active; 'I' for Inactive)
REMARK    1  A    between atoms: C_6  and  N_7 
REMARK       I    between atoms: N_7  and  C_8 
REMARK    2  A    between atoms: C_8  and  C_9 
REMARK    3  A    between atoms: C_9  and  N_10 
ROOT
HETATM    1  N   UNL     1      -2.734   4.331 -32.875  1.00  0.00    -0.224 N 
HETATM    2  N   UNL     1      -2.579   3.380 -31.842  1.00  0.00    -0.180 NA
HETATM    3  C   UNL     1      -3.571   2.590 -31.541  1.00  0.00     0.153 A 
HETATM    4  C   UNL     1      -4.822   2.680 -32.235  1.00  0.00     0.028 A 
HETATM    5  C   UNL     1      -4.971   3.637 -33.206  1.00  0.00     0.116 A 
HETATM    6  N   UNL     1      -6.236   3.542 -33.712  1.00  0.00    -0.350 N 
HETATM    7  H   UNL     1      -6.612   4.135 -34.441  1.00  0.00     0.166 HD
HETATM    8  C   UNL     1      -6.911   2.519 -33.079  1.00  0.00     0.044 A 
HETATM    9  C   UNL     1      -6.039   1.959 -32.136  1.00  0.00     0.005 A 
HETATM   10  C   UNL     1      -8.218   2.053 -33.263  1.00  0.00     0.030 A 
HETATM   11  C   UNL     1      -8.646   0.989 -32.464  1.00  0.00     0.002 A 
HETATM   12  C   UNL     1      -7.801   0.414 -31.518  1.00  0.00     0.001 A 
HETATM   13  C   UNL     1      -6.495   0.888 -31.343  1.00  0.00     0.014 A 
HETATM   14  C   UNL     1      -3.938   4.560 -33.569  1.00  0.00     0.291 A 
HETATM   15  O   UNL     1      -4.101   5.445 -34.402  1.00  0.00    -0.264 OA
ENDROOT
BRANCH   1  16
HETATM   16  C   UNL     1      -1.637   5.273 -33.060  1.00  0.00     0.258 C 
BRANCH  16  17
HETATM   17  C   UNL     1      -0.789   5.602 -31.814  1.00  0.00     0.244 C 
HETATM   18  N   UNL     1      -1.012   6.817 -31.140  1.00  0.00    -0.321 N 
HETATM   19  C   UNL     1      -1.701   7.916 -31.817  1.00  0.00     0.159 C 
HETATM   20  O   UNL     1       0.121   4.811 -31.542  1.00  0.00    -0.271 OA
BRANCH  18  21
HETATM   21  C   UNL     1      -0.522   7.083 -29.800  1.00  0.00     0.037 A 
HETATM   22  C   UNL     1      -1.223   6.735 -28.638  1.00  0.00     0.037 A 
HETATM   23  C   UNL     1      -0.724   6.989 -27.340  1.00  0.00    -0.054 A 
HETATM   24  C   UNL     1       0.528   7.603 -27.187  1.00  0.00    -0.056 A 
HETATM   25  C   UNL     1      -1.531   6.533 -26.154  1.00  0.00     0.049 C 
HETATM   26  C   UNL     1       1.115   7.887 -25.834  1.00  0.00     0.049 C 
HETATM   27  C   UNL     1       1.225   7.991 -28.335  1.00  0.00     0.009 A 
HETATM   28  C   UNL     1       0.709   7.736 -29.612  1.00  0.00     0.030 A 
ENDBRANCH  18  21
ENDBRANCH  16  17
ENDBRANCH   1  16
TORSDOF 3
ENDMDL
MODEL 10
REMARK VINA RESULT:      -8.1      3.122      9.317
REMARK  3 active torsions:
REMARK  status: ('A' for Active; 'I' for Inactive)
REMARK    1  A    between atoms: C_6  and  N_7 
REMARK       I    between atoms: N_7  and  C_8 
REMARK    2  A    between atoms: C_8  and  C_9 
REMARK    3  A    between atoms: C_9  and  N_10 
ROOT
HETATM    1  N   UNL     1      -3.772   5.542 -32.680  1.00  0.00    -0.224 N 
HETATM    2  N   UNL     1      -2.689   4.919 -32.022  1.00  0.00    -0.180 NA
HETATM    3  C   UNL     1      -2.691   3.625 -31.863  1.00  0.00     0.153 A 
HETATM    4  C   UNL     1      -3.784   2.827 -32.336  1.00  0.00     0.028 A 
HETATM    5  C   UNL     1      -4.848   3.451 -32.934  1.00  0.00     0.116 A 
HETATM    6  N   UNL     1      -5.763   2.500 -33.286  1.00  0.00    -0.350 N 
HETATM    7  H   UNL     1      -6.647   2.690 -33.742  1.00  0.00     0.166 HD
HETATM    8  C   UNL     1      -5.294   1.253 -32.926  1.00  0.00     0.044 A 
HETATM    9  C   UNL     1      -4.044   1.433 -32.320  1.00  0.00     0.005 A 
HETATM   10  C   UNL     1      -5.878  -0.009 -33.086  1.00  0.00     0.030 A 
HETATM   11  C   UNL     1      -5.168  -1.116 -32.613  1.00  0.00     0.002 A 
HETATM   12  C   UNL     1      -3.924  -0.967 -32.005  1.00  0.00     0.001 A 
HETATM   13  C   UNL     1      -3.349   0.300 -31.851  1.00  0.00     0.014 A 
HETATM   14  C   UNL     1      -4.930   4.870 -33.115  1.00  0.00     0.291 A 
HETATM   15  O   UNL     1      -5.911   5.421 -33.603  1.00  0.00    -0.264 OA
ENDROOT
BRANCH   1  16
HETATM   16  C   UNL     1      -3.770   7.000 -32.693  1.00  0.00     0.258 C 
BRANCH  16  17
HETATM   17  C   UNL     1      -2.659   7.700 -31.883  1.00  0.00     0.244 C 
HETATM   18  N   UNL     1      -2.725   7.677 -30.477  1.00  0.00    -0.321 N 
HETATM   19  C   UNL     1      -3.994   7.390 -29.808  1.00  0.00     0.159 C 
HETATM   20  O   UNL     1      -1.821   8.336 -32.532  1.00  0.00    -0.271 OA
BRANCH  18  21
HETATM   21  C   UNL     1      -1.598   8.004 -29.625  1.00  0.00     0.037 A 
HETATM   22  C   UNL     1      -1.613   9.050 -28.691  1.00  0.00     0.037 A 
HETATM   23  C   UNL     1      -0.510   9.345 -27.858  1.00  0.00    -0.054 A 
HETATM   24  C   UNL     1       0.652   8.563 -27.944  1.00  0.00    -0.056 A 
HETATM   25  C   UNL     1      -0.641  10.458 -26.854  1.00  0.00     0.049 C 
HETATM   26  C   UNL     1       1.851   8.822 -27.077  1.00  0.00     0.049 C 
HETATM   27  C   UNL     1       0.699   7.541 -28.895  1.00  0.00     0.009 A 
HETATM   28  C   UNL     1      -0.404   7.269 -29.716  1.00  0.00     0.030 A 
ENDBRANCH  18  21
ENDBRANCH  16  17
ENDBRANCH   1  16
TORSDOF 3
ENDMDL
