MODEL 1
REMARK VINA RESULT:     -10.3      0.000      0.000
REMARK  4 active torsions:
REMARK  status: ('A' for Active; 'I' for Inactive)
REMARK    1  A    between atoms: N_4  and  C_5 
REMARK    2  A    between atoms: C_15  and  N_16 
REMARK       I    between atoms: N_16  and  C_17 
REMARK    3  A    between atoms: C_17  and  C_18 
REMARK       I    between atoms: C_18  and  N_19 
REMARK    4  A    between atoms: N_19  and  C_20 
ROOT
HETATM    1  N   UNL     1      -5.993   4.058 -32.388  1.00  0.00    -0.303 N 
HETATM    2  C   UNL     1      -6.411   4.491 -33.633  1.00  0.00     0.315 C 
HETATM    3  O   UNL     1      -5.723   4.704 -34.625  1.00  0.00    -0.262 OA
HETATM    4  H   UNL     1      -6.700   3.609 -31.812  1.00  0.00     0.171 HD
ENDROOT
BRANCH   1   5
HETATM    5  C   UNL     1      -4.649   3.913 -32.097  1.00  0.00     0.152 C 
HETATM    6  N   UNL     1      -3.958   2.713 -31.949  1.00  0.00    -0.045 N 
HETATM    7  N   UNL     1      -2.704   2.929 -31.424  1.00  0.00    -0.156 NA
HETATM    8  C   UNL     1      -2.543   4.255 -31.495  1.00  0.00     0.055 C 
HETATM    9  C   UNL     1      -1.262   4.880 -31.084  1.00  0.00     0.072 C 
HETATM   10  C   UNL     1      -3.709   4.908 -31.955  1.00  0.00     0.079 C 
BRANCH   6  11
HETATM   11  C   UNL     1      -4.272   1.417 -32.422  1.00  0.00     0.732 A 
HETATM   12  N   UNL     1      -5.238   1.150 -33.251  1.00  0.00    -0.067 NA
HETATM   13  C   UNL     1      -5.333  -0.164 -33.606  1.00  0.00     0.065 A 
HETATM   14  C   UNL     1      -4.520  -1.144 -33.208  1.00  0.00     0.036 A 
HETATM   15  C   UNL     1      -6.379  -0.673 -34.538  1.00  0.00     0.061 C 
HETATM   16  C   UNL     1      -4.858  -2.463 -33.788  1.00  0.00     0.047 C 
HETATM   17  C   UNL     1      -3.418  -0.830 -32.302  1.00  0.00     0.268 A 
HETATM   18  C   UNL     1      -6.248  -2.195 -34.381  1.00  0.00     0.011 C 
HETATM   19  O   UNL     1      -2.614  -1.671 -31.925  1.00  0.00    -0.267 OA
HETATM   20  N   UNL     1      -3.376   0.486 -31.939  1.00  0.00    -0.152 N 
HETATM   21  H   UNL     1      -2.623   0.807 -31.338  1.00  0.00     0.188 HD
ENDBRANCH   6  11
ENDBRANCH   1   5
BRANCH   2  22
HETATM   22  C   UNL     1      -7.945   4.623 -33.739  1.00  0.00     0.310 C 
HETATM   23  N   UNL     1      -8.616   3.575 -33.149  1.00  0.00    -0.348 N 
HETATM   24  H   UNL     1      -7.995   2.836 -32.819  1.00  0.00     0.163 HD
HETATM   25  O   UNL     1      -8.431   5.586 -34.311  1.00  0.00    -0.262 OA
BRANCH  23  26
HETATM   26  C   UNL     1     -10.024   3.251 -33.382  1.00  0.00     0.084 C 
HETATM   27  C   UNL     1     -10.096   1.789 -33.893  1.00  0.00     0.025 C 
HETATM   28  C   UNL     1     -11.436   1.419 -34.544  1.00  0.00     0.002 C 
HETATM   29  C   UNL     1     -12.240   0.406 -33.719  1.00  0.00     0.000 C 
HETATM   30  C   UNL     1     -13.730   0.370 -34.098  1.00  0.00     0.000 C 
HETATM   31  C   UNL     1     -14.623   1.065 -33.058  1.00  0.00     0.000 C 
HETATM   32  C   UNL     1     -14.400   2.576 -32.981  1.00  0.00     0.000 C 
HETATM   33  C   UNL     1     -14.661   3.130 -31.581  1.00  0.00     0.000 C 
HETATM   34  C   UNL     1     -14.270   4.605 -31.431  1.00  0.00     0.000 C 
HETATM   35  C   UNL     1     -12.794   4.860 -31.082  1.00  0.00     0.000 C 
HETATM   36  C   UNL     1     -11.803   4.721 -32.247  1.00  0.00     0.002 C 
HETATM   37  C   UNL     1     -10.899   3.480 -32.124  1.00  0.00     0.025 C 
ENDBRANCH  23  26
ENDBRANCH   2  22
TORSDOF 4
ENDMDL
MODEL 2
REMARK VINA RESULT:      -9.8      4.154      8.066
REMARK  4 active torsions:
REMARK  status: ('A' for Active; 'I' for Inactive)
REMARK    1  A    between atoms: N_4  and  C_5 
REMARK    2  A    between atoms: C_15  and  N_16 
REMARK       I    between atoms: N_16  and  C_17 
REMARK    3  A    between atoms: C_17  and  C_18 
REMARK       I    between atoms: C_18  and  N_19 
REMARK    4  A    between atoms: N_19  and  C_20 
ROOT
HETATM    1  N   UNL     1      -5.870   4.560 -31.615  1.00  0.00    -0.303 N 
HETATM    2  C   UNL     1      -6.001   3.708 -32.697  1.00  0.00     0.315 C 
HETATM    3  O   UNL     1      -6.257   4.003 -33.858  1.00  0.00    -0.262 OA
HETATM    4  H   UNL     1      -5.328   4.206 -30.832  1.00  0.00     0.171 HD
ENDROOT
BRANCH   1   5
HETATM    5  C   UNL     1      -6.138   5.911 -31.735  1.00  0.00     0.152 C 
HETATM    6  N   UNL     1      -5.262   6.958 -31.452  1.00  0.00    -0.045 N 
HETATM    7  N   UNL     1      -5.925   8.164 -31.444  1.00  0.00    -0.156 NA
HETATM    8  C   UNL     1      -7.124   7.883 -31.964  1.00  0.00     0.055 C 
HETATM    9  C   UNL     1      -8.116   8.963 -32.191  1.00  0.00     0.072 C 
HETATM   10  C   UNL     1      -7.287   6.501 -32.208  1.00  0.00     0.079 C 
BRANCH   6  11
HETATM   11  C   UNL     1      -3.849   6.968 -31.381  1.00  0.00     0.732 A 
HETATM   12  N   UNL     1      -3.163   6.607 -30.337  1.00  0.00    -0.067 NA
HETATM   13  C   UNL     1      -1.809   6.655 -30.505  1.00  0.00     0.065 A 
HETATM   14  C   UNL     1      -1.170   6.998 -31.624  1.00  0.00     0.036 A 
HETATM   15  C   UNL     1      -0.850   6.290 -29.423  1.00  0.00     0.061 C 
HETATM   16  C   UNL     1       0.303   6.924 -31.508  1.00  0.00     0.047 C 
HETATM   17  C   UNL     1      -1.949   7.371 -32.802  1.00  0.00     0.268 A 
HETATM   18  C   UNL     1       0.490   6.781 -29.992  1.00  0.00     0.011 C 
HETATM   19  O   UNL     1      -1.431   7.662 -33.870  1.00  0.00    -0.267 OA
HETATM   20  N   UNL     1      -3.298   7.347 -32.587  1.00  0.00    -0.152 N 
HETATM   21  H   UNL     1      -3.924   7.558 -33.358  1.00  0.00     0.188 HD
ENDBRANCH   6  11
ENDBRANCH   1   5
BRANCH   2  22
HETATM   22  C   UNL     1      -5.694   2.238 -32.343  1.00  0.00     0.310 C 
HETATM   23  N   UNL     1      -5.652   1.417 -33.448  1.00  0.00    -0.348 N 
HETATM   24  H   UNL     1      -5.920   1.891 -34.309  1.00  0.00     0.163 HD
HETATM   25  O   UNL     1      -5.526   1.920 -31.176  1.00  0.00    -0.262 OA
BRANCH  23  26
HETATM   26  C   UNL     1      -5.725  -0.044 -33.403  1.00  0.00     0.084 C 
HETATM   27  C   UNL     1      -6.524  -0.518 -34.644  1.00  0.00     0.025 C 
HETATM   28  C   UNL     1      -7.019  -1.967 -34.553  1.00  0.00     0.002 C 
HETATM   29  C   UNL     1      -6.319  -2.901 -35.548  1.00  0.00     0.000 C 
HETATM   30  C   UNL     1      -6.456  -4.387 -35.177  1.00  0.00     0.000 C 
HETATM   31  C   UNL     1      -5.162  -4.974 -34.592  1.00  0.00     0.000 C 
HETATM   32  C   UNL     1      -4.794  -4.388 -33.227  1.00  0.00     0.000 C 
HETATM   33  C   UNL     1      -3.284  -4.361 -32.997  1.00  0.00     0.000 C 
HETATM   34  C   UNL     1      -2.881  -3.614 -31.720  1.00  0.00     0.000 C 
HETATM   35  C   UNL     1      -2.722  -2.092 -31.873  1.00  0.00     0.000 C 
HETATM   36  C   UNL     1      -4.031  -1.290 -31.922  1.00  0.00     0.002 C 
HETATM   37  C   UNL     1      -4.325  -0.702 -33.316  1.00  0.00     0.025 C 
ENDBRANCH  23  26
ENDBRANCH   2  22
TORSDOF 4
ENDMDL
MODEL 3
REMARK VINA RESULT:      -9.4      4.469      8.367
REMARK  4 active torsions:
REMARK  status: ('A' for Active; 'I' for Inactive)
REMARK    1  A    between atoms: N_4  and  C_5 
REMARK    2  A    between atoms: C_15  and  N_16 
REMARK       I    between atoms: N_16  and  C_17 
REMARK    3  A    between atoms: C_17  and  C_18 
REMARK       I    between atoms: C_18  and  N_19 
REMARK    4  A    between atoms: N_19  and  C_20 
ROOT
HETATM    1  N   UNL     1      -5.375   4.648 -31.242  1.00  0.00    -0.303 N 
HETATM    2  C   UNL     1      -5.236   3.357 -30.766  1.00  0.00     0.315 C 
HETATM    3  O   UNL     1      -5.511   2.935 -29.649  1.00  0.00    -0.262 OA
HETATM    4  H   UNL     1      -5.435   4.747 -32.252  1.00  0.00     0.171 HD
ENDROOT
BRANCH   1   5
HETATM    5  C   UNL     1      -5.770   5.678 -30.408  1.00  0.00     0.152 C 
HETATM    6  N   UNL     1      -4.949   6.417 -29.559  1.00  0.00    -0.045 N 
HETATM    7  N   UNL     1      -5.698   7.189 -28.699  1.00  0.00    -0.156 NA
HETATM    8  C   UNL     1      -6.940   7.113 -29.190  1.00  0.00     0.055 C 
HETATM    9  C   UNL     1      -8.041   7.887 -28.566  1.00  0.00     0.072 C 
HETATM   10  C   UNL     1      -7.027   6.224 -30.283  1.00  0.00     0.079 C 
BRANCH   6  11
HETATM   11  C   UNL     1      -3.549   6.622 -29.596  1.00  0.00     0.732 A 
HETATM   12  N   UNL     1      -2.827   6.568 -30.676  1.00  0.00    -0.067 NA
HETATM   13  C   UNL     1      -1.503   6.841 -30.485  1.00  0.00     0.065 A 
HETATM   14  C   UNL     1      -0.930   7.177 -29.329  1.00  0.00     0.036 A 
HETATM   15  C   UNL     1      -0.508   6.821 -31.596  1.00  0.00     0.061 C 
HETATM   16  C   UNL     1       0.520   7.444 -29.444  1.00  0.00     0.047 C 
HETATM   17  C   UNL     1      -1.756   7.267 -28.127  1.00  0.00     0.268 A 
HETATM   18  C   UNL     1       0.828   6.894 -30.843  1.00  0.00     0.011 C 
HETATM   19  O   UNL     1      -1.305   7.604 -27.041  1.00  0.00    -0.267 OA
HETATM   20  N   UNL     1      -3.067   6.952 -28.347  1.00  0.00    -0.152 N 
HETATM   21  H   UNL     1      -3.725   7.019 -27.577  1.00  0.00     0.188 HD
ENDBRANCH   6  11
ENDBRANCH   1   5
BRANCH   2  22
HETATM   22  C   UNL     1      -4.750   2.369 -31.846  1.00  0.00     0.310 C 
HETATM   23  N   UNL     1      -5.354   1.134 -31.756  1.00  0.00    -0.348 N 
HETATM   24  H   UNL     1      -5.954   1.041 -30.938  1.00  0.00     0.163 HD
HETATM   25  O   UNL     1      -3.908   2.724 -32.656  1.00  0.00    -0.262 OA
BRANCH  23  26
HETATM   26  C   UNL     1      -4.863  -0.082 -32.404  1.00  0.00     0.084 C 
HETATM   27  C   UNL     1      -3.796  -0.717 -31.474  1.00  0.00     0.025 C 
HETATM   28  C   UNL     1      -2.914  -1.769 -32.161  1.00  0.00     0.002 C 
HETATM   29  C   UNL     1      -3.165  -3.189 -31.640  1.00  0.00     0.000 C 
HETATM   30  C   UNL     1      -2.651  -4.280 -32.594  1.00  0.00     0.000 C 
HETATM   31  C   UNL     1      -3.783  -4.976 -33.364  1.00  0.00     0.000 C 
HETATM   32  C   UNL     1      -4.492  -4.057 -34.362  1.00  0.00     0.000 C 
HETATM   33  C   UNL     1      -5.960  -4.434 -34.554  1.00  0.00     0.000 C 
HETATM   34  C   UNL     1      -6.738  -3.422 -35.404  1.00  0.00     0.000 C 
HETATM   35  C   UNL     1      -7.313  -2.222 -34.633  1.00  0.00     0.000 C 
HETATM   36  C   UNL     1      -6.304  -1.126 -34.261  1.00  0.00     0.002 C 
HETATM   37  C   UNL     1      -6.005  -1.069 -32.750  1.00  0.00     0.025 C 
ENDBRANCH  23  26
ENDBRANCH   2  22
TORSDOF 4
ENDMDL
MODEL 4
REMARK VINA RESULT:      -9.4      2.499      8.360
REMARK  4 active torsions:
REMARK  status: ('A' for Active; 'I' for Inactive)
REMARK    1  A    between atoms: N_4  and  C_5 
REMARK    2  A    between atoms: C_15  and  N_16 
REMARK       I    between atoms: N_16  and  C_17 
REMARK    3  A    between atoms: C_17  and  C_18 
REMARK       I    between atoms: C_18  and  N_19 
REMARK    4  A    between atoms: N_19  and  C_20 
ROOT
HETATM    1  N   UNL     1      -6.706   3.280 -33.165  1.00  0.00    -0.303 N 
HETATM    2  C   UNL     1      -6.642   4.563 -33.675  1.00  0.00     0.315 C 
HETATM    3  O   UNL     1      -7.487   5.149 -34.341  1.00  0.00    -0.262 OA
HETATM    4  H   UNL     1      -6.103   3.086 -32.370  1.00  0.00     0.171 HD
ENDROOT
BRANCH   1   5
HETATM    5  C   UNL     1      -7.763   2.442 -33.469  1.00  0.00     0.152 C 
HETATM    6  N   UNL     1      -7.680   1.097 -33.823  1.00  0.00    -0.045 N 
HETATM    7  N   UNL     1      -8.888   0.637 -34.294  1.00  0.00    -0.156 NA
HETATM    8  C   UNL     1      -9.752   1.612 -33.991  1.00  0.00     0.055 C 
HETATM    9  C   UNL     1     -11.198   1.452 -34.279  1.00  0.00     0.072 C 
HETATM   10  C   UNL     1      -9.107   2.737 -33.430  1.00  0.00     0.079 C 
BRANCH   6  11
HETATM   11  C   UNL     1      -6.650   0.156 -33.587  1.00  0.00     0.732 A 
HETATM   12  N   UNL     1      -5.799   0.227 -32.606  1.00  0.00    -0.067 NA
HETATM   13  C   UNL     1      -4.918  -0.813 -32.545  1.00  0.00     0.065 A 
HETATM   14  C   UNL     1      -4.891  -1.867 -33.362  1.00  0.00     0.036 A 
HETATM   15  C   UNL     1      -3.858  -0.911 -31.501  1.00  0.00     0.061 C 
HETATM   16  C   UNL     1      -3.837  -2.848 -33.024  1.00  0.00     0.047 C 
HETATM   17  C   UNL     1      -5.872  -1.955 -34.441  1.00  0.00     0.268 A 
HETATM   18  C   UNL     1      -2.981  -2.056 -32.027  1.00  0.00     0.011 C 
HETATM   19  O   UNL     1      -5.928  -2.908 -35.205  1.00  0.00    -0.267 OA
HETATM   20  N   UNL     1      -6.713  -0.880 -34.495  1.00  0.00    -0.152 N 
HETATM   21  H   UNL     1      -7.452  -0.867 -35.192  1.00  0.00     0.188 HD
ENDBRANCH   6  11
ENDBRANCH   1   5
BRANCH   2  22
HETATM   22  C   UNL     1      -5.366   5.316 -33.248  1.00  0.00     0.310 C 
HETATM   23  N   UNL     1      -5.145   5.272 -31.889  1.00  0.00    -0.348 N 
HETATM   24  H   UNL     1      -5.906   4.831 -31.374  1.00  0.00     0.163 HD
HETATM   25  O   UNL     1      -4.681   5.873 -34.092  1.00  0.00    -0.262 OA
BRANCH  23  26
HETATM   26  C   UNL     1      -4.234   6.158 -31.164  1.00  0.00     0.084 C 
HETATM   27  C   UNL     1      -4.858   6.449 -29.775  1.00  0.00     0.025 C 
HETATM   28  C   UNL     1      -4.235   7.647 -29.047  1.00  0.00     0.002 C 
HETATM   29  C   UNL     1      -3.440   7.241 -27.800  1.00  0.00     0.000 C 
HETATM   30  C   UNL     1      -2.459   8.327 -27.331  1.00  0.00     0.000 C 
HETATM   31  C   UNL     1      -0.998   7.994 -27.672  1.00  0.00     0.000 C 
HETATM   32  C   UNL     1      -0.710   8.000 -29.174  1.00  0.00     0.000 C 
HETATM   33  C   UNL     1       0.396   7.017 -29.555  1.00  0.00     0.000 C 
HETATM   34  C   UNL     1       0.578   6.869 -31.071  1.00  0.00     0.000 C 
HETATM   35  C   UNL     1      -0.346   5.841 -31.745  1.00  0.00     0.000 C 
HETATM   36  C   UNL     1      -1.795   6.298 -31.969  1.00  0.00     0.002 C 
HETATM   37  C   UNL     1      -2.803   5.574 -31.057  1.00  0.00     0.025 C 
ENDBRANCH  23  26
ENDBRANCH   2  22
TORSDOF 4
ENDMDL
MODEL 5
REMARK VINA RESULT:      -9.4      1.633      2.000
REMARK  4 active torsions:
REMARK  status: ('A' for Active; 'I' for Inactive)
REMARK    1  A    between atoms: N_4  and  C_5 
REMARK    2  A    between atoms: C_15  and  N_16 
REMARK       I    between atoms: N_16  and  C_17 
REMARK    3  A    between atoms: C_17  and  C_18 
REMARK       I    between atoms: C_18  and  N_19 
REMARK    4  A    between atoms: N_19  and  C_20 
ROOT
HETATM    1  N   UNL     1      -6.688   1.915 -32.242  1.00  0.00    -0.303 N 
HETATM    2  C   UNL     1      -7.354   1.906 -33.454  1.00  0.00     0.315 C 
HETATM    3  O   UNL     1      -6.871   1.997 -34.577  1.00  0.00    -0.262 OA
HETATM    4  H   UNL     1      -7.180   1.490 -31.461  1.00  0.00     0.171 HD
ENDROOT
BRANCH   1   5
HETATM    5  C   UNL     1      -5.327   2.148 -32.177  1.00  0.00     0.152 C 
HETATM    6  N   UNL     1      -4.321   1.184 -32.171  1.00  0.00    -0.045 N 
HETATM    7  N   UNL     1      -3.105   1.745 -31.852  1.00  0.00    -0.156 NA
HETATM    8  C   UNL     1      -3.324   3.063 -31.917  1.00  0.00     0.055 C 
HETATM    9  C   UNL     1      -2.212   4.020 -31.705  1.00  0.00     0.072 C 
HETATM   10  C   UNL     1      -4.682   3.364 -32.166  1.00  0.00     0.079 C 
BRANCH   6  11
HETATM   11  C   UNL     1      -4.344  -0.159 -32.615  1.00  0.00     0.732 A 
HETATM   12  N   UNL     1      -5.029  -0.584 -33.636  1.00  0.00    -0.067 NA
HETATM   13  C   UNL     1      -4.869  -1.911 -33.912  1.00  0.00     0.065 A 
HETATM   14  C   UNL     1      -4.068  -2.757 -33.261  1.00  0.00     0.036 A 
HETATM   15  C   UNL     1      -5.576  -2.592 -35.035  1.00  0.00     0.061 C 
HETATM   16  C   UNL     1      -4.084  -4.129 -33.813  1.00  0.00     0.047 C 
HETATM   17  C   UNL     1      -3.278  -2.262 -32.136  1.00  0.00     0.268 A 
HETATM   18  C   UNL     1      -5.302  -4.075 -34.745  1.00  0.00     0.011 C 
HETATM   19  O   UNL     1      -2.497  -2.972 -31.517  1.00  0.00    -0.267 OA
HETATM   20  N   UNL     1      -3.490  -0.941 -31.865  1.00  0.00    -0.152 N 
HETATM   21  H   UNL     1      -2.959  -0.498 -31.122  1.00  0.00     0.188 HD
ENDBRANCH   6  11
ENDBRANCH   1   5
BRANCH   2  22
HETATM   22  C   UNL     1      -8.871   1.669 -33.305  1.00  0.00     0.310 C 
HETATM   23  N   UNL     1      -9.626   2.489 -34.113  1.00  0.00    -0.348 N 
HETATM   24  H   UNL     1      -9.070   3.184 -34.610  1.00  0.00     0.163 HD
HETATM   25  O   UNL     1      -9.275   0.824 -32.522  1.00  0.00    -0.262 OA
BRANCH  23  26
HETATM   26  C   UNL     1     -11.059   2.733 -33.945  1.00  0.00     0.084 C 
HETATM   27  C   UNL     1     -11.804   1.403 -34.226  1.00  0.00     0.025 C 
HETATM   28  C   UNL     1     -13.310   1.569 -34.469  1.00  0.00     0.002 C 
HETATM   29  C   UNL     1     -14.165   0.970 -33.346  1.00  0.00     0.000 C 
HETATM   30  C   UNL     1     -15.605   1.508 -33.334  1.00  0.00     0.000 C 
HETATM   31  C   UNL     1     -15.851   2.520 -32.205  1.00  0.00     0.000 C 
HETATM   32  C   UNL     1     -15.076   3.827 -32.384  1.00  0.00     0.000 C 
HETATM   33  C   UNL     1     -14.712   4.473 -31.048  1.00  0.00     0.000 C 
HETATM   34  C   UNL     1     -13.781   5.682 -31.194  1.00  0.00     0.000 C 
HETATM   35  C   UNL     1     -12.280   5.351 -31.259  1.00  0.00     0.000 C 
HETATM   36  C   UNL     1     -11.779   4.808 -32.606  1.00  0.00     0.002 C 
HETATM   37  C   UNL     1     -11.399   3.316 -32.550  1.00  0.00     0.025 C 
ENDBRANCH  23  26
ENDBRANCH   2  22
TORSDOF 4
ENDMDL
MODEL 6
REMARK VINA RESULT:      -9.4      2.666      8.607
REMARK  4 active torsions:
REMARK  status: ('A' for Active; 'I' for Inactive)
REMARK    1  A    between atoms: N_4  and  C_5 
REMARK    2  A    between atoms: C_15  and  N_16 
REMARK       I    between atoms: N_16  and  C_17 
REMARK    3  A    between atoms: C_17  and  C_18 
REMARK       I    between atoms: C_18  and  N_19 
REMARK    4  A    between atoms: N_19  and  C_20 
ROOT
HETATM    1  N   UNL     1      -8.517   3.007 -32.493  1.00  0.00    -0.303 N 
HETATM    2  C   UNL     1      -7.745   3.132 -33.633  1.00  0.00     0.315 C 
HETATM    3  O   UNL     1      -7.428   4.162 -34.217  1.00  0.00    -0.262 OA
HETATM    4  H   UNL     1      -8.391   2.150 -31.961  1.00  0.00     0.171 HD
ENDROOT
BRANCH   1   5
HETATM    5  C   UNL     1      -9.133   4.107 -31.924  1.00  0.00     0.152 C 
HETATM    6  N   UNL     1     -10.470   4.473 -32.066  1.00  0.00    -0.045 N 
HETATM    7  N   UNL     1     -10.686   5.740 -31.574  1.00  0.00    -0.156 NA
HETATM    8  C   UNL     1      -9.560   6.033 -30.914  1.00  0.00     0.055 C 
HETATM    9  C   UNL     1      -9.437   7.311 -30.171  1.00  0.00     0.072 C 
HETATM   10  C   UNL     1      -8.581   5.026 -31.061  1.00  0.00     0.079 C 
BRANCH   6  11
HETATM   11  C   UNL     1     -11.593   3.696 -32.434  1.00  0.00     0.732 A 
HETATM   12  N   UNL     1     -11.533   2.605 -33.140  1.00  0.00    -0.067 NA
HETATM   13  C   UNL     1     -12.736   1.993 -33.339  1.00  0.00     0.065 A 
HETATM   14  C   UNL     1     -13.911   2.397 -32.854  1.00  0.00     0.036 A 
HETATM   15  C   UNL     1     -12.880   0.737 -34.130  1.00  0.00     0.061 C 
HETATM   16  C   UNL     1     -15.036   1.507 -33.216  1.00  0.00     0.047 C 
HETATM   17  C   UNL     1     -13.964   3.606 -32.035  1.00  0.00     0.268 A 
HETATM   18  C   UNL     1     -14.402   0.630 -34.303  1.00  0.00     0.011 C 
HETATM   19  O   UNL     1     -15.000   4.014 -31.529  1.00  0.00    -0.267 OA
HETATM   20  N   UNL     1     -12.749   4.211 -31.887  1.00  0.00    -0.152 N 
HETATM   21  H   UNL     1     -12.680   5.040 -31.305  1.00  0.00     0.188 HD
ENDBRANCH   6  11
ENDBRANCH   1   5
BRANCH   2  22
HETATM   22  C   UNL     1      -7.181   1.783 -34.127  1.00  0.00     0.310 C 
HETATM   23  N   UNL     1      -6.604   1.041 -33.121  1.00  0.00    -0.348 N 
HETATM   24  H   UNL     1      -6.557   1.539 -32.233  1.00  0.00     0.163 HD
HETATM   25  O   UNL     1      -7.275   1.485 -35.307  1.00  0.00    -0.262 OA
BRANCH  23  26
HETATM   26  C   UNL     1      -5.702  -0.091 -33.335  1.00  0.00     0.084 C 
HETATM   27  C   UNL     1      -4.700  -0.131 -32.152  1.00  0.00     0.025 C 
HETATM   28  C   UNL     1      -3.465  -1.004 -32.408  1.00  0.00     0.002 C 
HETATM   29  C   UNL     1      -3.432  -2.263 -31.532  1.00  0.00     0.000 C 
HETATM   30  C   UNL     1      -2.485  -3.347 -32.072  1.00  0.00     0.000 C 
HETATM   31  C   UNL     1      -3.234  -4.516 -32.728  1.00  0.00     0.000 C 
HETATM   32  C   UNL     1      -3.958  -4.124 -34.018  1.00  0.00     0.000 C 
HETATM   33  C   UNL     1      -5.216  -4.958 -34.252  1.00  0.00     0.000 C 
HETATM   34  C   UNL     1      -6.057  -4.465 -35.436  1.00  0.00     0.000 C 
HETATM   35  C   UNL     1      -7.057  -3.343 -35.108  1.00  0.00     0.000 C 
HETATM   36  C   UNL     1      -6.453  -1.939 -34.959  1.00  0.00     0.002 C 
HETATM   37  C   UNL     1      -6.465  -1.429 -33.505  1.00  0.00     0.025 C 
ENDBRANCH  23  26
ENDBRANCH   2  22
TORSDOF 4
ENDMDL
MODEL 7
REMARK VINA RESULT:      -9.4      0.736      2.331
REMARK  4 active torsions:
REMARK  status: ('A' for Active; 'I' for Inactive)
REMARK    1  A    between atoms: N_4  and  C_5 
REMARK    2  A    between atoms: C_15  and  N_16 
REMARK       I    between atoms: N_16  and  C_17 
REMARK    3  A    between atoms: C_17  and  C_18 
REMARK       I    between atoms: C_18  and  N_19 
REMARK    4  A    between atoms: N_19  and  C_20 
ROOT
HETATM    1  N   UNL     1      -6.388   3.944 -32.051  1.00  0.00    -0.303 N 
HETATM    2  C   UNL     1      -6.993   4.474 -33.176  1.00  0.00     0.315 C 
HETATM    3  O   UNL     1      -6.463   4.799 -34.231  1.00  0.00    -0.262 OA
HETATM    4  H   UNL     1      -6.993   3.421 -31.424  1.00  0.00     0.171 HD
ENDROOT
BRANCH   1   5
HETATM    5  C   UNL     1      -5.014   3.819 -31.972  1.00  0.00     0.152 C 
HETATM    6  N   UNL     1      -4.284   2.633 -32.034  1.00  0.00    -0.045 N 
HETATM    7  N   UNL     1      -2.971   2.845 -31.680  1.00  0.00    -0.156 NA
HETATM    8  C   UNL     1      -2.849   4.176 -31.653  1.00  0.00     0.055 C 
HETATM    9  C   UNL     1      -1.534   4.804 -31.377  1.00  0.00     0.072 C 
HETATM   10  C   UNL     1      -4.082   4.828 -31.878  1.00  0.00     0.079 C 
BRANCH   6  11
HETATM   11  C   UNL     1      -4.639   1.373 -32.572  1.00  0.00     0.732 A 
HETATM   12  N   UNL     1      -5.625   1.177 -33.397  1.00  0.00    -0.067 NA
HETATM   13  C   UNL     1      -5.758  -0.113 -33.822  1.00  0.00     0.065 A 
HETATM   14  C   UNL     1      -4.965  -1.134 -33.492  1.00  0.00     0.036 A 
HETATM   15  C   UNL     1      -6.832  -0.545 -34.762  1.00  0.00     0.061 C 
HETATM   16  C   UNL     1      -5.346  -2.410 -34.137  1.00  0.00     0.047 C 
HETATM   17  C   UNL     1      -3.841  -0.897 -32.590  1.00  0.00     0.268 A 
HETATM   18  C   UNL     1      -6.737  -2.076 -34.690  1.00  0.00     0.011 C 
HETATM   19  O   UNL     1      -3.052  -1.777 -32.274  1.00  0.00    -0.267 OA
HETATM   20  N   UNL     1      -3.759   0.396 -32.156  1.00  0.00    -0.152 N 
HETATM   21  H   UNL     1      -2.988   0.665 -31.552  1.00  0.00     0.188 HD
ENDBRANCH   6  11
ENDBRANCH   1   5
BRANCH   2  22
HETATM   22  C   UNL     1      -8.528   4.563 -33.046  1.00  0.00     0.310 C 
HETATM   23  N   UNL     1      -9.023   3.817 -31.999  1.00  0.00    -0.348 N 
HETATM   24  H   UNL     1      -8.310   3.254 -31.536  1.00  0.00     0.163 HD
HETATM   25  O   UNL     1      -9.163   5.242 -33.837  1.00  0.00    -0.262 OA
BRANCH  23  26
HETATM   26  C   UNL     1     -10.426   3.435 -31.839  1.00  0.00     0.084 C 
HETATM   27  C   UNL     1     -11.190   4.659 -31.271  1.00  0.00     0.025 C 
HETATM   28  C   UNL     1     -12.569   4.320 -30.689  1.00  0.00     0.002 C 
HETATM   29  C   UNL     1     -13.724   4.897 -31.517  1.00  0.00     0.000 C 
HETATM   30  C   UNL     1     -15.071   4.213 -31.231  1.00  0.00     0.000 C 
HETATM   31  C   UNL     1     -15.500   3.255 -32.352  1.00  0.00     0.000 C 
HETATM   32  C   UNL     1     -14.595   2.028 -32.480  1.00  0.00     0.000 C 
HETATM   33  C   UNL     1     -14.519   1.512 -33.916  1.00  0.00     0.000 C 
HETATM   34  C   UNL     1     -13.480   0.400 -34.104  1.00  0.00     0.000 C 
HETATM   35  C   UNL     1     -12.044   0.882 -34.372  1.00  0.00     0.000 C 
HETATM   36  C   UNL     1     -11.274   1.387 -33.144  1.00  0.00     0.002 C 
HETATM   37  C   UNL     1     -11.049   2.911 -33.157  1.00  0.00     0.025 C 
ENDBRANCH  23  26
ENDBRANCH   2  22
TORSDOF 4
ENDMDL
MODEL 8
REMARK VINA RESULT:      -9.2      2.608      8.438
REMARK  4 active torsions:
REMARK  status: ('A' for Active; 'I' for Inactive)
REMARK    1  A    between atoms: N_4  and  C_5 
REMARK    2  A    between atoms: C_15  and  N_16 
REMARK       I    between atoms: N_16  and  C_17 
REMARK    3  A    between atoms: C_17  and  C_18 
REMARK       I    between atoms: C_18  and  N_19 
REMARK    4  A    between atoms: N_19  and  C_20 
ROOT
HETATM    1  N   UNL     1      -9.325   5.046 -31.830  1.00  0.00    -0.303 N 
HETATM    2  C   UNL     1      -8.914   5.408 -33.099  1.00  0.00     0.315 C 
HETATM    3  O   UNL     1      -9.338   6.324 -33.793  1.00  0.00    -0.262 OA
HETATM    4  H   UNL     1      -8.656   4.514 -31.279  1.00  0.00     0.171 HD
ENDROOT
BRANCH   1   5
HETATM    5  C   UNL     1     -10.401   5.666 -31.224  1.00  0.00     0.152 C 
HETATM    6  N   UNL     1     -11.750   5.428 -31.484  1.00  0.00    -0.045 N 
HETATM    7  N   UNL     1     -12.541   6.383 -30.889  1.00  0.00    -0.156 NA
HETATM    8  C   UNL     1     -11.708   7.037 -30.072  1.00  0.00     0.055 C 
HETATM    9  C   UNL     1     -12.216   8.113 -29.186  1.00  0.00     0.072 C 
HETATM   10  C   UNL     1     -10.374   6.594 -30.207  1.00  0.00     0.079 C 
BRANCH   6  11
HETATM   11  C   UNL     1     -12.379   4.302 -32.065  1.00  0.00     0.732 A 
HETATM   12  N   UNL     1     -11.752   3.352 -32.696  1.00  0.00    -0.067 NA
HETATM   13  C   UNL     1     -12.555   2.341 -33.137  1.00  0.00     0.065 A 
HETATM   14  C   UNL     1     -13.871   2.244 -32.946  1.00  0.00     0.036 A 
HETATM   15  C   UNL     1     -12.029   1.166 -33.890  1.00  0.00     0.061 C 
HETATM   16  C   UNL     1     -14.461   1.013 -33.517  1.00  0.00     0.047 C 
HETATM   17  C   UNL     1     -14.562   3.299 -32.208  1.00  0.00     0.268 A 
HETATM   18  C   UNL     1     -13.316   0.498 -34.398  1.00  0.00     0.011 C 
HETATM   19  O   UNL     1     -15.760   3.258 -31.966  1.00  0.00    -0.267 OA
HETATM   20  N   UNL     1     -13.735   4.312 -31.814  1.00  0.00    -0.152 N 
HETATM   21  H   UNL     1     -14.118   5.075 -31.264  1.00  0.00     0.188 HD
ENDBRANCH   6  11
ENDBRANCH   1   5
BRANCH   2  22
HETATM   22  C   UNL     1      -7.723   4.568 -33.607  1.00  0.00     0.310 C 
HETATM   23  N   UNL     1      -7.783   3.252 -33.205  1.00  0.00    -0.348 N 
HETATM   24  H   UNL     1      -8.551   3.065 -32.562  1.00  0.00     0.163 HD
HETATM   25  O   UNL     1      -6.856   5.097 -34.285  1.00  0.00    -0.262 OA
BRANCH  23  26
HETATM   26  C   UNL     1      -6.655   2.320 -33.236  1.00  0.00     0.084 C 
HETATM   27  C   UNL     1      -5.802   2.564 -31.964  1.00  0.00     0.025 C 
HETATM   28  C   UNL     1      -4.397   1.952 -32.026  1.00  0.00     0.002 C 
HETATM   29  C   UNL     1      -4.210   0.784 -31.049  1.00  0.00     0.000 C 
HETATM   30  C   UNL     1      -3.012  -0.111 -31.403  1.00  0.00     0.000 C 
HETATM   31  C   UNL     1      -3.435  -1.449 -32.028  1.00  0.00     0.000 C 
HETATM   32  C   UNL     1      -4.075  -1.297 -33.409  1.00  0.00     0.000 C 
HETATM   33  C   UNL     1      -5.107  -2.387 -33.693  1.00  0.00     0.000 C 
HETATM   34  C   UNL     1      -5.893  -2.153 -34.989  1.00  0.00     0.000 C 
HETATM   35  C   UNL     1      -7.127  -1.245 -34.853  1.00  0.00     0.000 C 
HETATM   36  C   UNL     1      -6.836   0.260 -34.764  1.00  0.00     0.002 C 
HETATM   37  C   UNL     1      -7.112   0.846 -33.366  1.00  0.00     0.025 C 
ENDBRANCH  23  26
ENDBRANCH   2  22
TORSDOF 4
ENDMDL
MODEL 9
REMARK VINA RESULT:      -9.2      4.153     10.224
REMARK  4 active torsions:
REMARK  status: ('A' for Active; 'I' for Inactive)
REMARK    1  A    between atoms: N_4  and  C_5 
REMARK    2  A    between atoms: C_15  and  N_16 
REMARK       I    between atoms: N_16  and  C_17 
REMARK    3  A    between atoms: C_17  and  C_18 
REMARK       I    between atoms: C_18  and  N_19 
REMARK    4  A    between atoms: N_19  and  C_20 
ROOT
HETATM    1  N   UNL     1      -2.932   3.049 -31.028  1.00  0.00    -0.303 N 
HETATM    2  C   UNL     1      -2.476   4.022 -31.899  1.00  0.00     0.315 C 
HETATM    3  O   UNL     1      -2.803   4.198 -33.066  1.00  0.00    -0.262 OA
HETATM    4  H   UNL     1      -2.831   3.255 -30.038  1.00  0.00     0.171 HD
ENDROOT
BRANCH   1   5
HETATM    5  C   UNL     1      -3.786   2.051 -31.457  1.00  0.00     0.152 C 
HETATM    6  N   UNL     1      -5.136   1.920 -31.138  1.00  0.00    -0.045 N 
HETATM    7  N   UNL     1      -5.617   0.692 -31.529  1.00  0.00    -0.156 NA
HETATM    8  C   UNL     1      -4.647   0.190 -32.301  1.00  0.00     0.055 C 
HETATM    9  C   UNL     1      -4.828  -1.115 -32.982  1.00  0.00     0.072 C 
HETATM   10  C   UNL     1      -3.506   1.022 -32.328  1.00  0.00     0.079 C 
BRANCH   6  11
HETATM   11  C   UNL     1      -6.062   2.889 -30.682  1.00  0.00     0.732 A 
HETATM   12  N   UNL     1      -5.740   4.088 -30.294  1.00  0.00    -0.067 NA
HETATM   13  C   UNL     1      -6.800   4.870 -29.937  1.00  0.00     0.065 A 
HETATM   14  C   UNL     1      -8.086   4.519 -29.987  1.00  0.00     0.036 A 
HETATM   15  C   UNL     1      -6.640   6.272 -29.454  1.00  0.00     0.061 C 
HETATM   16  C   UNL     1      -9.008   5.595 -29.563  1.00  0.00     0.047 C 
HETATM   17  C   UNL     1      -8.439   3.181 -30.455  1.00  0.00     0.268 A 
HETATM   18  C   UNL     1      -8.042   6.598 -28.919  1.00  0.00     0.011 C 
HETATM   19  O   UNL     1      -9.598   2.804 -30.561  1.00  0.00    -0.267 OA
HETATM   20  N   UNL     1      -7.354   2.414 -30.770  1.00  0.00    -0.152 N 
HETATM   21  H   UNL     1      -7.501   1.479 -31.137  1.00  0.00     0.188 HD
ENDBRANCH   6  11
ENDBRANCH   1   5
BRANCH   2  22
HETATM   22  C   UNL     1      -1.504   5.017 -31.231  1.00  0.00     0.310 C 
HETATM   23  N   UNL     1      -2.124   5.848 -30.325  1.00  0.00    -0.348 N 
HETATM   24  H   UNL     1      -3.137   5.736 -30.307  1.00  0.00     0.163 HD
HETATM   25  O   UNL     1      -0.322   5.006 -31.539  1.00  0.00    -0.262 OA
BRANCH  23  26
HETATM   26  C   UNL     1      -1.549   7.088 -29.804  1.00  0.00     0.084 C 
HETATM   27  C   UNL     1      -2.649   8.180 -29.857  1.00  0.00     0.025 C 
HETATM   28  C   UNL     1      -2.116   9.612 -29.713  1.00  0.00     0.002 C 
HETATM   29  C   UNL     1      -2.536  10.276 -28.396  1.00  0.00     0.000 C 
HETATM   30  C   UNL     1      -1.669  11.492 -28.031  1.00  0.00     0.000 C 
HETATM   31  C   UNL     1      -0.673  11.192 -26.901  1.00  0.00     0.000 C 
HETATM   32  C   UNL     1       0.416  10.194 -27.301  1.00  0.00     0.000 C 
HETATM   33  C   UNL     1       0.900   9.360 -26.116  1.00  0.00     0.000 C 
HETATM   34  C   UNL     1       1.855   8.231 -26.522  1.00  0.00     0.000 C 
HETATM   35  C   UNL     1       1.176   6.922 -26.958  1.00  0.00     0.000 C 
HETATM   36  C   UNL     1       0.582   6.922 -28.374  1.00  0.00     0.002 C 
HETATM   37  C   UNL     1      -0.958   6.914 -28.383  1.00  0.00     0.025 C 
ENDBRANCH  23  26
ENDBRANCH   2  22
TORSDOF 4
ENDMDL
MODEL 10
REMARK VINA RESULT:      -9.2      2.610      8.216
REMARK  4 active torsions:
REMARK  status: ('A' for Active; 'I' for Inactive)
REMARK    1  A    between atoms: N_4  and  C_5 
REMARK    2  A    between atoms: C_15  and  N_16 
REMARK       I    between atoms: N_16  and  C_17 
REMARK    3  A    between atoms: C_17  and  C_18 
REMARK       I    between atoms: C_18  and  N_19 
REMARK    4  A    between atoms: N_19  and  C_20 
ROOT
HETATM    1  N   UNL     1      -9.737   3.818 -33.650  1.00  0.00    -0.303 N 
HETATM    2  C   UNL     1      -9.133   4.312 -32.508  1.00  0.00     0.315 C 
HETATM    3  O   UNL     1      -9.229   3.886 -31.363  1.00  0.00    -0.262 OA
HETATM    4  H   UNL     1      -9.290   4.057 -34.531  1.00  0.00     0.171 HD
ENDROOT
BRANCH   1   5
HETATM    5  C   UNL     1     -10.654   2.785 -33.582  1.00  0.00     0.152 C 
HETATM    6  N   UNL     1     -10.379   1.423 -33.695  1.00  0.00    -0.045 N 
HETATM    7  N   UNL     1     -11.540   0.697 -33.826  1.00  0.00    -0.156 NA
HETATM    8  C   UNL     1     -12.510   1.573 -33.540  1.00  0.00     0.055 C 
HETATM    9  C   UNL     1     -13.927   1.138 -33.502  1.00  0.00     0.072 C 
HETATM   10  C   UNL     1     -12.005   2.875 -33.331  1.00  0.00     0.079 C 
BRANCH   6  11
HETATM   11  C   UNL     1      -9.166   0.721 -33.501  1.00  0.00     0.732 A 
HETATM   12  N   UNL     1      -8.531   0.077 -34.436  1.00  0.00    -0.067 NA
HETATM   13  C   UNL     1      -7.358  -0.492 -34.034  1.00  0.00     0.065 A 
HETATM   14  C   UNL     1      -6.823  -0.410 -32.815  1.00  0.00     0.036 A 
HETATM   15  C   UNL     1      -6.488  -1.280 -34.954  1.00  0.00     0.061 C 
HETATM   16  C   UNL     1      -5.524  -1.106 -32.692  1.00  0.00     0.047 C 
HETATM   17  C   UNL     1      -7.528   0.343 -31.779  1.00  0.00     0.268 A 
HETATM   18  C   UNL     1      -5.488  -1.929 -33.986  1.00  0.00     0.011 C 
HETATM   19  O   UNL     1      -7.080   0.489 -30.651  1.00  0.00    -0.267 OA
HETATM   20  N   UNL     1      -8.715   0.867 -32.206  1.00  0.00    -0.152 N 
HETATM   21  H   UNL     1      -9.260   1.436 -31.566  1.00  0.00     0.188 HD
ENDBRANCH   6  11
ENDBRANCH   1   5
BRANCH   2  22
HETATM   22  C   UNL     1      -8.175   5.486 -32.797  1.00  0.00     0.310 C 
HETATM   23  N   UNL     1      -6.851   5.106 -32.821  1.00  0.00    -0.348 N 
HETATM   24  H   UNL     1      -6.709   4.134 -32.553  1.00  0.00     0.163 HD
HETATM   25  O   UNL     1      -8.628   6.607 -32.969  1.00  0.00    -0.262 OA
BRANCH  23  26
HETATM   26  C   UNL     1      -5.719   6.029 -32.728  1.00  0.00     0.084 C 
HETATM   27  C   UNL     1      -5.810   6.756 -31.362  1.00  0.00     0.025 C 
HETATM   28  C   UNL     1      -4.937   8.015 -31.265  1.00  0.00     0.002 C 
HETATM   29  C   UNL     1      -3.768   7.856 -30.284  1.00  0.00     0.000 C 
HETATM   30  C   UNL     1      -2.654   8.892 -30.503  1.00  0.00     0.000 C 
HETATM   31  C   UNL     1      -1.415   8.295 -31.188  1.00  0.00     0.000 C 
HETATM   32  C   UNL     1      -1.670   7.864 -32.634  1.00  0.00     0.000 C 
HETATM   33  C   UNL     1      -0.796   6.682 -33.048  1.00  0.00     0.000 C 
HETATM   34  C   UNL     1      -1.160   6.114 -34.425  1.00  0.00     0.000 C 
HETATM   35  C   UNL     1      -2.291   5.071 -34.427  1.00  0.00     0.000 C 
HETATM   36  C   UNL     1      -3.713   5.635 -34.289  1.00  0.00     0.002 C 
HETATM   37  C   UNL     1      -4.358   5.315 -32.927  1.00  0.00     0.025 C 
ENDBRANCH  23  26
ENDBRANCH   2  22
TORSDOF 4
ENDMDL
