MODEL 1
REMARK VINA RESULT:      -9.0      0.000      0.000
REMARK  6 active torsions:
REMARK  status: ('A' for Active; 'I' for Inactive)
REMARK    1  A    between atoms: C_8  and  C_9 
REMARK    2  A    between atoms: C_9  and  C_10 
REMARK    3  A    between atoms: C_10  and  N_11 
REMARK    4  A    between atoms: C_10  and  C_19 
REMARK       I    between atoms: N_11  and  C_12 
REMARK    5  A    between atoms: C_12  and  C_13 
REMARK       I    between atoms: C_19  and  N_20 
REMARK    6  A    between atoms: N_20  and  C_21 
ROOT
HETATM    1  C   UNL     1      -6.925   2.084 -33.902  1.00  0.00     0.181 C 
ENDROOT
BRANCH   1   2
HETATM    2  C   UNL     1      -7.843   1.993 -32.665  1.00  0.00     0.075 C 
BRANCH   2   3
HETATM    3  C   UNL     1      -9.192   1.413 -32.976  1.00  0.00    -0.028 A 
HETATM    4  C   UNL     1     -10.211   1.967 -33.819  1.00  0.00    -0.002 A 
HETATM    5  C   UNL     1     -10.325   3.139 -34.594  1.00  0.00     0.014 A 
HETATM    6  C   UNL     1     -11.291   1.083 -33.803  1.00  0.00     0.042 A 
HETATM    7  C   UNL     1     -11.507   3.393 -35.300  1.00  0.00     0.001 A 
HETATM    8  C   UNL     1     -12.567   2.493 -35.255  1.00  0.00     0.002 A 
HETATM    9  C   UNL     1     -12.477   1.316 -34.509  1.00  0.00     0.030 A 
HETATM   10  N   UNL     1     -10.938   0.025 -32.999  1.00  0.00    -0.365 N 
HETATM   11  H   UNL     1     -11.529  -0.774 -32.814  1.00  0.00     0.165 HD
HETATM   12  C   UNL     1      -9.680   0.212 -32.495  1.00  0.00     0.096 A 
ENDBRANCH   2   3
ENDBRANCH   1   2
BRANCH   1  13
HETATM   13  N   UNL     1      -5.627   2.714 -33.630  1.00  0.00    -0.343 N 
HETATM   14  C   UNL     1      -5.324   4.031 -33.886  1.00  0.00     0.259 C 
HETATM   15  O   UNL     1      -6.183   4.793 -34.330  1.00  0.00    -0.267 OA
HETATM   16  H   UNL     1      -4.916   2.147 -33.182  1.00  0.00     0.163 HD
BRANCH  14  17
HETATM   17  C   UNL     1      -3.962   4.449 -33.585  1.00  0.00     0.072 A 
HETATM   18  S   UNL     1      -3.101   5.553 -34.578  1.00  0.00    -0.097 SA
HETATM   19  C   UNL     1      -1.720   5.492 -33.575  1.00  0.00     0.050 A 
HETATM   20  C   UNL     1      -1.900   4.650 -32.500  1.00  0.00     0.009 A 
HETATM   21  C   UNL     1      -3.193   4.049 -32.508  1.00  0.00     0.025 A 
ENDBRANCH  14  17
ENDBRANCH   1  13
BRANCH   1  22
HETATM   22  C   UNL     1      -6.717   0.721 -34.599  1.00  0.00     0.245 C 
HETATM   23  N   UNL     1      -6.042  -0.212 -33.834  1.00  0.00    -0.324 N 
HETATM   24  H   UNL     1      -5.612   0.135 -32.974  1.00  0.00     0.169 HD
HETATM   25  O   UNL     1      -7.119   0.535 -35.747  1.00  0.00    -0.271 OA
BRANCH  23  26
HETATM   26  C   UNL     1      -5.849  -1.576 -34.125  1.00  0.00     0.052 A 
HETATM   27  C   UNL     1      -4.615  -2.215 -34.201  1.00  0.00     0.145 A 
HETATM   28  N   UNL     1      -4.455  -3.525 -34.530  1.00  0.00    -0.271 NA
HETATM   29  C   UNL     1      -5.575  -4.229 -34.791  1.00  0.00     0.116 A 
HETATM   30  C   UNL     1      -6.849  -3.688 -34.739  1.00  0.00     0.021 A 
HETATM   31  C   UNL     1      -6.982  -2.343 -34.401  1.00  0.00     0.032 A 
ENDBRANCH  23  26
ENDBRANCH   1  22
TORSDOF 6
ENDMDL
MODEL 2
REMARK VINA RESULT:      -8.8      1.734      6.073
REMARK  6 active torsions:
REMARK  status: ('A' for Active; 'I' for Inactive)
REMARK    1  A    between atoms: C_8  and  C_9 
REMARK    2  A    between atoms: C_9  and  C_10 
REMARK    3  A    between atoms: C_10  and  N_11 
REMARK    4  A    between atoms: C_10  and  C_19 
REMARK       I    between atoms: N_11  and  C_12 
REMARK    5  A    between atoms: C_12  and  C_13 
REMARK       I    between atoms: C_19  and  N_20 
REMARK    6  A    between atoms: N_20  and  C_21 
ROOT
HETATM    1  C   UNL     1      -6.820   1.219 -33.294  1.00  0.00     0.181 C 
ENDROOT
BRANCH   1   2
HETATM    2  C   UNL     1      -6.788   0.088 -34.343  1.00  0.00     0.075 C 
BRANCH   2   3
HETATM    3  C   UNL     1      -5.725  -0.937 -34.070  1.00  0.00    -0.028 A 
HETATM    4  C   UNL     1      -5.763  -2.339 -34.370  1.00  0.00    -0.002 A 
HETATM    5  C   UNL     1      -6.707  -3.198 -34.969  1.00  0.00     0.014 A 
HETATM    6  C   UNL     1      -4.558  -2.890 -33.931  1.00  0.00     0.042 A 
HETATM    7  C   UNL     1      -6.426  -4.564 -35.088  1.00  0.00     0.001 A 
HETATM    8  C   UNL     1      -5.217  -5.082 -34.633  1.00  0.00     0.002 A 
HETATM    9  C   UNL     1      -4.256  -4.252 -34.050  1.00  0.00     0.030 A 
HETATM   10  N   UNL     1      -3.810  -1.865 -33.404  1.00  0.00    -0.365 N 
HETATM   11  H   UNL     1      -2.882  -1.975 -33.019  1.00  0.00     0.165 HD
HETATM   12  C   UNL     1      -4.500  -0.687 -33.481  1.00  0.00     0.096 A 
ENDBRANCH   2   3
ENDBRANCH   1   2
BRANCH   1  13
HETATM   13  N   UNL     1      -5.839   2.284 -33.542  1.00  0.00    -0.343 N 
HETATM   14  C   UNL     1      -4.972   2.787 -32.600  1.00  0.00     0.259 C 
HETATM   15  O   UNL     1      -4.942   2.313 -31.464  1.00  0.00    -0.267 OA
HETATM   16  H   UNL     1      -5.768   2.643 -34.486  1.00  0.00     0.163 HD
BRANCH  14  17
HETATM   17  C   UNL     1      -4.109   3.875 -33.036  1.00  0.00     0.072 A 
HETATM   18  S   UNL     1      -4.715   5.255 -33.858  1.00  0.00    -0.097 SA
HETATM   19  C   UNL     1      -3.163   5.959 -33.974  1.00  0.00     0.050 A 
HETATM   20  C   UNL     1      -2.194   5.167 -33.401  1.00  0.00     0.009 A 
HETATM   21  C   UNL     1      -2.740   3.966 -32.861  1.00  0.00     0.025 A 
ENDBRANCH  14  17
ENDBRANCH   1  13
BRANCH   1  22
HETATM   22  C   UNL     1      -8.228   1.827 -33.107  1.00  0.00     0.245 C 
HETATM   23  N   UNL     1      -9.080   1.628 -34.178  1.00  0.00    -0.324 N 
HETATM   24  H   UNL     1      -8.655   1.255 -35.030  1.00  0.00     0.169 HD
HETATM   25  O   UNL     1      -8.513   2.446 -32.083  1.00  0.00    -0.271 OA
BRANCH  23  26
HETATM   26  C   UNL     1     -10.457   1.915 -34.237  1.00  0.00     0.052 A 
HETATM   27  C   UNL     1     -11.013   3.085 -34.747  1.00  0.00     0.145 A 
HETATM   28  N   UNL     1     -12.345   3.355 -34.749  1.00  0.00    -0.271 NA
HETATM   29  C   UNL     1     -13.159   2.416 -34.226  1.00  0.00     0.116 A 
HETATM   30  C   UNL     1     -12.707   1.219 -33.699  1.00  0.00     0.021 A 
HETATM   31  C   UNL     1     -11.336   0.969 -33.707  1.00  0.00     0.032 A 
ENDBRANCH  23  26
ENDBRANCH   1  22
TORSDOF 6
ENDMDL
MODEL 3
REMARK VINA RESULT:      -8.6      2.306      5.513
REMARK  6 active torsions:
REMARK  status: ('A' for Active; 'I' for Inactive)
REMARK    1  A    between atoms: C_8  and  C_9 
REMARK    2  A    between atoms: C_9  and  C_10 
REMARK    3  A    between atoms: C_10  and  N_11 
REMARK    4  A    between atoms: C_10  and  C_19 
REMARK       I    between atoms: N_11  and  C_12 
REMARK    5  A    between atoms: C_12  and  C_13 
REMARK       I    between atoms: C_19  and  N_20 
REMARK    6  A    between atoms: N_20  and  C_21 
ROOT
HETATM    1  C   UNL     1      -6.335   2.330 -30.656  1.00  0.00     0.181 C 
ENDROOT
BRANCH   1   2
HETATM    2  C   UNL     1      -5.988   0.906 -30.177  1.00  0.00     0.075 C 
BRANCH   2   3
HETATM    3  C   UNL     1      -5.102   0.163 -31.134  1.00  0.00    -0.028 A 
HETATM    4  C   UNL     1      -5.497  -0.588 -32.291  1.00  0.00    -0.002 A 
HETATM    5  C   UNL     1      -6.731  -0.883 -32.905  1.00  0.00     0.014 A 
HETATM    6  C   UNL     1      -4.336  -1.105 -32.867  1.00  0.00     0.042 A 
HETATM    7  C   UNL     1      -6.763  -1.693 -34.047  1.00  0.00     0.001 A 
HETATM    8  C   UNL     1      -5.586  -2.199 -34.591  1.00  0.00     0.002 A 
HETATM    9  C   UNL     1      -4.347  -1.909 -34.014  1.00  0.00     0.030 A 
HETATM   10  N   UNL     1      -3.276  -0.673 -32.106  1.00  0.00    -0.365 N 
HETATM   11  H   UNL     1      -2.308  -0.889 -32.299  1.00  0.00     0.165 HD
HETATM   12  C   UNL     1      -3.723   0.089 -31.061  1.00  0.00     0.096 A 
ENDBRANCH   2   3
ENDBRANCH   1   2
BRANCH   1  13
HETATM   13  N   UNL     1      -5.414   2.852 -31.675  1.00  0.00    -0.343 N 
HETATM   14  C   UNL     1      -4.698   4.022 -31.560  1.00  0.00     0.259 C 
HETATM   15  O   UNL     1      -4.761   4.692 -30.529  1.00  0.00    -0.267 OA
HETATM   16  H   UNL     1      -5.264   2.289 -32.503  1.00  0.00     0.163 HD
BRANCH  14  17
HETATM   17  C   UNL     1      -3.874   4.387 -32.703  1.00  0.00     0.072 A 
HETATM   18  S   UNL     1      -4.528   5.125 -34.107  1.00  0.00    -0.097 SA
HETATM   19  C   UNL     1      -3.000   5.206 -34.866  1.00  0.00     0.050 A 
HETATM   20  C   UNL     1      -2.003   4.684 -34.074  1.00  0.00     0.009 A 
HETATM   21  C   UNL     1      -2.508   4.211 -32.828  1.00  0.00     0.025 A 
ENDBRANCH  14  17
ENDBRANCH   1  13
BRANCH   1  22
HETATM   22  C   UNL     1      -7.795   2.463 -31.144  1.00  0.00     0.245 C 
HETATM   23  N   UNL     1      -7.975   2.177 -32.486  1.00  0.00    -0.324 N 
HETATM   24  H   UNL     1      -7.124   2.073 -33.043  1.00  0.00     0.169 HD
HETATM   25  O   UNL     1      -8.685   2.815 -30.372  1.00  0.00    -0.271 OA
BRANCH  23  26
HETATM   26  C   UNL     1      -9.195   2.050 -33.175  1.00  0.00     0.052 A 
HETATM   27  C   UNL     1      -9.733   2.999 -34.041  1.00  0.00     0.145 A 
HETATM   28  N   UNL     1     -10.937   2.870 -34.658  1.00  0.00    -0.271 NA
HETATM   29  C   UNL     1     -11.635   1.745 -34.404  1.00  0.00     0.116 A 
HETATM   30  C   UNL     1     -11.188   0.740 -33.563  1.00  0.00     0.021 A 
HETATM   31  C   UNL     1      -9.950   0.899 -32.943  1.00  0.00     0.032 A 
ENDBRANCH  23  26
ENDBRANCH   1  22
TORSDOF 6
ENDMDL
MODEL 4
REMARK VINA RESULT:      -8.6      2.172      6.852
REMARK  6 active torsions:
REMARK  status: ('A' for Active; 'I' for Inactive)
REMARK    1  A    between atoms: C_8  and  C_9 
REMARK    2  A    between atoms: C_9  and  C_10 
REMARK    3  A    between atoms: C_10  and  N_11 
REMARK    4  A    between atoms: C_10  and  C_19 
REMARK       I    between atoms: N_11  and  C_12 
REMARK    5  A    between atoms: C_12  and  C_13 
REMARK       I    between atoms: C_19  and  N_20 
REMARK    6  A    between atoms: N_20  and  C_21 
ROOT
HETATM    1  C   UNL     1      -7.539   2.678 -33.137  1.00  0.00     0.181 C 
ENDROOT
BRANCH   1   2
HETATM    2  C   UNL     1      -6.956   3.607 -32.052  1.00  0.00     0.075 C 
BRANCH   2   3
HETATM    3  C   UNL     1      -5.456   3.663 -32.070  1.00  0.00    -0.028 A 
HETATM    4  C   UNL     1      -4.612   4.207 -33.093  1.00  0.00    -0.002 A 
HETATM    5  C   UNL     1      -4.841   4.831 -34.337  1.00  0.00     0.014 A 
HETATM    6  C   UNL     1      -3.291   4.033 -32.679  1.00  0.00     0.042 A 
HETATM    7  C   UNL     1      -3.754   5.232 -35.123  1.00  0.00     0.001 A 
HETATM    8  C   UNL     1      -2.449   5.035 -34.683  1.00  0.00     0.002 A 
HETATM    9  C   UNL     1      -2.192   4.436 -33.448  1.00  0.00     0.030 A 
HETATM   10  N   UNL     1      -3.328   3.425 -31.447  1.00  0.00    -0.365 N 
HETATM   11  H   UNL     1      -2.510   3.186 -30.903  1.00  0.00     0.165 HD
HETATM   12  C   UNL     1      -4.622   3.196 -31.071  1.00  0.00     0.096 A 
ENDBRANCH   2   3
ENDBRANCH   1   2
BRANCH   1  13
HETATM   13  N   UNL     1      -6.851   1.385 -33.241  1.00  0.00    -0.343 N 
HETATM   14  C   UNL     1      -6.663   0.687 -34.411  1.00  0.00     0.259 C 
HETATM   15  O   UNL     1      -7.036   1.159 -35.485  1.00  0.00    -0.267 OA
HETATM   16  H   UNL     1      -6.449   0.999 -32.394  1.00  0.00     0.163 HD
BRANCH  14  17
HETATM   17  C   UNL     1      -5.996  -0.602 -34.293  1.00  0.00     0.072 A 
HETATM   18  S   UNL     1      -4.525  -0.797 -33.430  1.00  0.00    -0.097 SA
HETATM   19  C   UNL     1      -4.466  -2.471 -33.765  1.00  0.00     0.050 A 
HETATM   20  C   UNL     1      -5.541  -2.884 -34.519  1.00  0.00     0.009 A 
HETATM   21  C   UNL     1      -6.422  -1.806 -34.823  1.00  0.00     0.025 A 
ENDBRANCH  14  17
ENDBRANCH   1  13
BRANCH   1  22
HETATM   22  C   UNL     1      -9.061   2.459 -32.988  1.00  0.00     0.245 C 
HETATM   23  N   UNL     1      -9.701   2.100 -34.161  1.00  0.00    -0.324 N 
HETATM   24  H   UNL     1      -9.150   2.176 -35.018  1.00  0.00     0.169 HD
HETATM   25  O   UNL     1      -9.615   2.622 -31.903  1.00  0.00    -0.271 OA
BRANCH  23  26
HETATM   26  C   UNL     1     -11.036   1.677 -34.309  1.00  0.00     0.052 A 
HETATM   27  C   UNL     1     -11.991   2.296 -35.110  1.00  0.00     0.145 A 
HETATM   28  N   UNL     1     -13.287   1.894 -35.198  1.00  0.00    -0.271 NA
HETATM   29  C   UNL     1     -13.644   0.824 -34.460  1.00  0.00     0.116 A 
HETATM   30  C   UNL     1     -12.770   0.135 -33.636  1.00  0.00     0.021 A 
HETATM   31  C   UNL     1     -11.449   0.572 -33.563  1.00  0.00     0.032 A 
ENDBRANCH  23  26
ENDBRANCH   1  22
TORSDOF 6
ENDMDL
MODEL 5
REMARK VINA RESULT:      -8.5      2.415      6.662
REMARK  6 active torsions:
REMARK  status: ('A' for Active; 'I' for Inactive)
REMARK    1  A    between atoms: C_8  and  C_9 
REMARK    2  A    between atoms: C_9  and  C_10 
REMARK    3  A    between atoms: C_10  and  N_11 
REMARK    4  A    between atoms: C_10  and  C_19 
REMARK       I    between atoms: N_11  and  C_12 
REMARK    5  A    between atoms: C_12  and  C_13 
REMARK       I    between atoms: C_19  and  N_20 
REMARK    6  A    between atoms: N_20  and  C_21 
ROOT
HETATM    1  C   UNL     1      -7.869   1.713 -33.529  1.00  0.00     0.181 C 
ENDROOT
BRANCH   1   2
HETATM    2  C   UNL     1      -7.220   3.087 -33.794  1.00  0.00     0.075 C 
BRANCH   2   3
HETATM    3  C   UNL     1      -5.890   3.249 -33.116  1.00  0.00    -0.028 A 
HETATM    4  C   UNL     1      -4.778   4.045 -33.548  1.00  0.00    -0.002 A 
HETATM    5  C   UNL     1      -4.533   4.887 -34.652  1.00  0.00     0.014 A 
HETATM    6  C   UNL     1      -3.760   3.882 -32.608  1.00  0.00     0.042 A 
HETATM    7  C   UNL     1      -3.287   5.512 -34.786  1.00  0.00     0.001 A 
HETATM    8  C   UNL     1      -2.292   5.322 -33.833  1.00  0.00     0.002 A 
HETATM    9  C   UNL     1      -2.512   4.506 -32.720  1.00  0.00     0.030 A 
HETATM   10  N   UNL     1      -4.238   3.038 -31.633  1.00  0.00    -0.365 N 
HETATM   11  H   UNL     1      -3.713   2.753 -30.818  1.00  0.00     0.165 HD
HETATM   12  C   UNL     1      -5.515   2.650 -31.928  1.00  0.00     0.096 A 
ENDBRANCH   2   3
ENDBRANCH   1   2
BRANCH   1  13
HETATM   13  N   UNL     1      -9.318   1.689 -33.765  1.00  0.00    -0.343 N 
HETATM   14  C   UNL     1     -10.191   0.790 -33.197  1.00  0.00     0.259 C 
HETATM   15  O   UNL     1      -9.787  -0.045 -32.388  1.00  0.00    -0.267 OA
HETATM   16  H   UNL     1      -9.709   2.413 -34.356  1.00  0.00     0.163 HD
BRANCH  14  17
HETATM   17  C   UNL     1     -11.586   0.906 -33.597  1.00  0.00     0.072 A 
HETATM   18  S   UNL     1     -12.263   2.384 -34.145  1.00  0.00    -0.097 SA
HETATM   19  C   UNL     1     -13.799   1.677 -34.385  1.00  0.00     0.050 A 
HETATM   20  C   UNL     1     -13.808   0.340 -34.058  1.00  0.00     0.009 A 
HETATM   21  C   UNL     1     -12.532  -0.103 -33.603  1.00  0.00     0.025 A 
ENDBRANCH  14  17
ENDBRANCH   1  13
BRANCH   1  22
HETATM   22  C   UNL     1      -7.186   0.564 -34.305  1.00  0.00     0.245 C 
HETATM   23  N   UNL     1      -6.766  -0.487 -33.511  1.00  0.00    -0.324 N 
HETATM   24  H   UNL     1      -6.796  -0.331 -32.502  1.00  0.00     0.169 HD
HETATM   25  O   UNL     1      -7.034   0.634 -35.523  1.00  0.00    -0.271 OA
BRANCH  23  26
HETATM   26  C   UNL     1      -6.267  -1.732 -33.939  1.00  0.00     0.052 A 
HETATM   27  C   UNL     1      -7.028  -2.754 -34.499  1.00  0.00     0.145 A 
HETATM   28  N   UNL     1      -6.527  -3.965 -34.861  1.00  0.00    -0.271 NA
HETATM   29  C   UNL     1      -5.209  -4.164 -34.660  1.00  0.00     0.116 A 
HETATM   30  C   UNL     1      -4.365  -3.212 -34.114  1.00  0.00     0.021 A 
HETATM   31  C   UNL     1      -4.906  -1.980 -33.750  1.00  0.00     0.032 A 
ENDBRANCH  23  26
ENDBRANCH   1  22
TORSDOF 6
ENDMDL
MODEL 6
REMARK VINA RESULT:      -8.4      2.388      7.322
REMARK  6 active torsions:
REMARK  status: ('A' for Active; 'I' for Inactive)
REMARK    1  A    between atoms: C_8  and  C_9 
REMARK    2  A    between atoms: C_9  and  C_10 
REMARK    3  A    between atoms: C_10  and  N_11 
REMARK    4  A    between atoms: C_10  and  C_19 
REMARK       I    between atoms: N_11  and  C_12 
REMARK    5  A    between atoms: C_12  and  C_13 
REMARK       I    between atoms: C_19  and  N_20 
REMARK    6  A    between atoms: N_20  and  C_21 
ROOT
HETATM    1  C   UNL     1      -6.841   1.650 -32.556  1.00  0.00     0.181 C 
ENDROOT
BRANCH   1   2
HETATM    2  C   UNL     1      -6.393   0.595 -31.522  1.00  0.00     0.075 C 
BRANCH   2   3
HETATM    3  C   UNL     1      -5.425  -0.405 -32.085  1.00  0.00    -0.028 A 
HETATM    4  C   UNL     1      -5.667  -1.379 -33.109  1.00  0.00    -0.002 A 
HETATM    5  C   UNL     1      -6.784  -1.733 -33.894  1.00  0.00     0.014 A 
HETATM    6  C   UNL     1      -4.480  -2.088 -33.298  1.00  0.00     0.042 A 
HETATM    7  C   UNL     1      -6.682  -2.784 -34.814  1.00  0.00     0.001 A 
HETATM    8  C   UNL     1      -5.484  -3.475 -34.971  1.00  0.00     0.002 A 
HETATM    9  C   UNL     1      -4.357  -3.135 -34.219  1.00  0.00     0.030 A 
HETATM   10  N   UNL     1      -3.548  -1.556 -32.440  1.00  0.00    -0.365 N 
HETATM   11  H   UNL     1      -2.590  -1.872 -32.370  1.00  0.00     0.165 HD
HETATM   12  C   UNL     1      -4.103  -0.546 -31.705  1.00  0.00     0.096 A 
ENDBRANCH   2   3
ENDBRANCH   1   2
BRANCH   1  13
HETATM   13  N   UNL     1      -8.284   1.918 -32.540  1.00  0.00    -0.343 N 
HETATM   14  C   UNL     1      -9.146   1.637 -33.575  1.00  0.00     0.259 C 
HETATM   15  O   UNL     1      -8.737   1.076 -34.592  1.00  0.00    -0.267 OA
HETATM   16  H   UNL     1      -8.681   2.298 -31.688  1.00  0.00     0.163 HD
BRANCH  14  17
HETATM   17  C   UNL     1     -10.536   2.022 -33.378  1.00  0.00     0.072 A 
HETATM   18  S   UNL     1     -10.981   3.476 -32.581  1.00  0.00    -0.097 SA
HETATM   19  C   UNL     1     -12.648   3.163 -32.782  1.00  0.00     0.050 A 
HETATM   20  C   UNL     1     -12.873   1.976 -33.443  1.00  0.00     0.009 A 
HETATM   21  C   UNL     1     -11.655   1.319 -33.785  1.00  0.00     0.025 A 
ENDBRANCH  14  17
ENDBRANCH   1  13
BRANCH   1  22
HETATM   22  C   UNL     1      -6.054   2.975 -32.442  1.00  0.00     0.245 C 
HETATM   23  N   UNL     1      -4.844   2.977 -33.113  1.00  0.00    -0.324 N 
HETATM   24  H   UNL     1      -4.522   2.074 -33.467  1.00  0.00     0.169 HD
HETATM   25  O   UNL     1      -6.498   3.913 -31.783  1.00  0.00    -0.271 OA
BRANCH  23  26
HETATM   26  C   UNL     1      -3.992   4.076 -33.330  1.00  0.00     0.052 A 
HETATM   27  C   UNL     1      -4.242   5.127 -34.208  1.00  0.00     0.145 A 
HETATM   28  N   UNL     1      -3.379   6.153 -34.432  1.00  0.00    -0.271 NA
HETATM   29  C   UNL     1      -2.217   6.133 -33.748  1.00  0.00     0.116 A 
HETATM   30  C   UNL     1      -1.875   5.137 -32.849  1.00  0.00     0.021 A 
HETATM   31  C   UNL     1      -2.778   4.096 -32.641  1.00  0.00     0.032 A 
ENDBRANCH  23  26
ENDBRANCH   1  22
TORSDOF 6
ENDMDL
MODEL 7
REMARK VINA RESULT:      -8.1      2.639      6.284
REMARK  6 active torsions:
REMARK  status: ('A' for Active; 'I' for Inactive)
REMARK    1  A    between atoms: C_8  and  C_9 
REMARK    2  A    between atoms: C_9  and  C_10 
REMARK    3  A    between atoms: C_10  and  N_11 
REMARK    4  A    between atoms: C_10  and  C_19 
REMARK       I    between atoms: N_11  and  C_12 
REMARK    5  A    between atoms: C_12  and  C_13 
REMARK       I    between atoms: C_19  and  N_20 
REMARK    6  A    between atoms: N_20  and  C_21 
ROOT
HETATM    1  C   UNL     1      -5.396   1.007 -31.639  1.00  0.00     0.181 C 
ENDROOT
BRANCH   1   2
HETATM    2  C   UNL     1      -6.429   1.341 -30.544  1.00  0.00     0.075 C 
BRANCH   2   3
HETATM    3  C   UNL     1      -7.604   2.118 -31.062  1.00  0.00    -0.028 A 
HETATM    4  C   UNL     1      -8.710   1.626 -31.830  1.00  0.00    -0.002 A 
HETATM    5  C   UNL     1      -9.078   0.363 -32.338  1.00  0.00     0.014 A 
HETATM    6  C   UNL     1      -9.552   2.709 -32.088  1.00  0.00     0.042 A 
HETATM    7  C   UNL     1     -10.249   0.233 -33.095  1.00  0.00     0.001 A 
HETATM    8  C   UNL     1     -11.062   1.336 -33.339  1.00  0.00     0.002 A 
HETATM    9  C   UNL     1     -10.732   2.596 -32.834  1.00  0.00     0.030 A 
HETATM   10  N   UNL     1      -8.994   3.811 -31.486  1.00  0.00    -0.365 N 
HETATM   11  H   UNL     1      -9.399   4.737 -31.501  1.00  0.00     0.165 HD
HETATM   12  C   UNL     1      -7.823   3.470 -30.867  1.00  0.00     0.096 A 
ENDBRANCH   2   3
ENDBRANCH   1   2
BRANCH   1  13
HETATM   13  N   UNL     1      -5.717  -0.204 -32.405  1.00  0.00    -0.343 N 
HETATM   14  C   UNL     1      -4.795  -0.981 -33.069  1.00  0.00     0.259 C 
HETATM   15  O   UNL     1      -3.595  -0.712 -33.008  1.00  0.00    -0.267 OA
HETATM   16  H   UNL     1      -6.681  -0.514 -32.409  1.00  0.00     0.163 HD
BRANCH  14  17
HETATM   17  C   UNL     1      -5.324  -2.117 -33.809  1.00  0.00     0.072 A 
HETATM   18  S   UNL     1      -4.343  -3.447 -34.272  1.00  0.00    -0.097 SA
HETATM   19  C   UNL     1      -5.653  -4.248 -35.020  1.00  0.00     0.050 A 
HETATM   20  C   UNL     1      -6.821  -3.525 -34.925  1.00  0.00     0.009 A 
HETATM   21  C   UNL     1      -6.630  -2.296 -34.227  1.00  0.00     0.025 A 
ENDBRANCH  14  17
ENDBRANCH   1  13
BRANCH   1  22
HETATM   22  C   UNL     1      -5.133   2.188 -32.600  1.00  0.00     0.245 C 
HETATM   23  N   UNL     1      -4.223   3.115 -32.126  1.00  0.00    -0.324 N 
HETATM   24  H   UNL     1      -3.949   3.019 -31.146  1.00  0.00     0.169 HD
HETATM   25  O   UNL     1      -5.723   2.264 -33.676  1.00  0.00    -0.271 OA
BRANCH  23  26
HETATM   26  C   UNL     1      -3.662   4.197 -32.831  1.00  0.00     0.052 A 
HETATM   27  C   UNL     1      -4.330   5.370 -33.169  1.00  0.00     0.145 A 
HETATM   28  N   UNL     1      -3.776   6.380 -33.891  1.00  0.00    -0.271 NA
HETATM   29  C   UNL     1      -2.499   6.215 -34.290  1.00  0.00     0.116 A 
HETATM   30  C   UNL     1      -1.746   5.089 -34.003  1.00  0.00     0.021 A 
HETATM   31  C   UNL     1      -2.340   4.069 -33.262  1.00  0.00     0.032 A 
ENDBRANCH  23  26
ENDBRANCH   1  22
TORSDOF 6
ENDMDL
MODEL 8
REMARK VINA RESULT:      -8.1      2.318      5.941
REMARK  6 active torsions:
REMARK  status: ('A' for Active; 'I' for Inactive)
REMARK    1  A    between atoms: C_8  and  C_9 
REMARK    2  A    between atoms: C_9  and  C_10 
REMARK    3  A    between atoms: C_10  and  N_11 
REMARK    4  A    between atoms: C_10  and  C_19 
REMARK       I    between atoms: N_11  and  C_12 
REMARK    5  A    between atoms: C_12  and  C_13 
REMARK       I    between atoms: C_19  and  N_20 
REMARK    6  A    between atoms: N_20  and  C_21 
ROOT
HETATM    1  C   UNL     1      -6.158   2.018 -32.101  1.00  0.00     0.181 C 
ENDROOT
BRANCH   1   2
HETATM    2  C   UNL     1      -7.499   2.459 -31.477  1.00  0.00     0.075 C 
BRANCH   2   3
HETATM    3  C   UNL     1      -8.685   1.765 -32.082  1.00  0.00    -0.028 A 
HETATM    4  C   UNL     1      -9.545   2.247 -33.123  1.00  0.00    -0.002 A 
HETATM    5  C   UNL     1      -9.601   3.427 -33.894  1.00  0.00     0.014 A 
HETATM    6  C   UNL     1     -10.511   1.266 -33.353  1.00  0.00     0.042 A 
HETATM    7  C   UNL     1     -10.621   3.591 -34.839  1.00  0.00     0.001 A 
HETATM    8  C   UNL     1     -11.572   2.595 -35.037  1.00  0.00     0.002 A 
HETATM    9  C   UNL     1     -11.531   1.409 -34.301  1.00  0.00     0.030 A 
HETATM   10  N   UNL     1     -10.239   0.221 -32.502  1.00  0.00    -0.365 N 
HETATM   11  H   UNL     1     -10.776  -0.634 -32.459  1.00  0.00     0.165 HD
HETATM   12  C   UNL     1      -9.146   0.509 -31.732  1.00  0.00     0.096 A 
ENDBRANCH   2   3
ENDBRANCH   1   2
BRANCH   1  13
HETATM   13  N   UNL     1      -6.241   0.759 -32.852  1.00  0.00    -0.343 N 
HETATM   14  C   UNL     1      -5.473  -0.355 -32.602  1.00  0.00     0.259 C 
HETATM   15  O   UNL     1      -4.679  -0.367 -31.661  1.00  0.00    -0.267 OA
HETATM   16  H   UNL     1      -6.943   0.692 -33.579  1.00  0.00     0.163 HD
BRANCH  14  17
HETATM   17  C   UNL     1      -5.677  -1.490 -33.492  1.00  0.00     0.072 A 
HETATM   18  S   UNL     1      -4.391  -2.518 -33.975  1.00  0.00    -0.097 SA
HETATM   19  C   UNL     1      -5.428  -3.493 -34.920  1.00  0.00     0.050 A 
HETATM   20  C   UNL     1      -6.731  -3.053 -34.874  1.00  0.00     0.009 A 
HETATM   21  C   UNL     1      -6.873  -1.897 -34.052  1.00  0.00     0.025 A 
ENDBRANCH  14  17
ENDBRANCH   1  13
BRANCH   1  22
HETATM   22  C   UNL     1      -5.512   3.116 -32.976  1.00  0.00     0.245 C 
HETATM   23  N   UNL     1      -4.476   3.796 -32.361  1.00  0.00    -0.324 N 
HETATM   24  H   UNL     1      -4.354   3.625 -31.361  1.00  0.00     0.169 HD
HETATM   25  O   UNL     1      -5.931   3.343 -34.109  1.00  0.00    -0.271 OA
BRANCH  23  26
HETATM   26  C   UNL     1      -3.596   4.723 -32.951  1.00  0.00     0.052 A 
HETATM   27  C   UNL     1      -3.813   6.095 -33.039  1.00  0.00     0.145 A 
HETATM   28  N   UNL     1      -2.967   6.961 -33.655  1.00  0.00    -0.271 NA
HETATM   29  C   UNL     1      -1.852   6.438 -34.205  1.00  0.00     0.116 A 
HETATM   30  C   UNL     1      -1.540   5.090 -34.168  1.00  0.00     0.021 A 
HETATM   31  C   UNL     1      -2.428   4.224 -33.531  1.00  0.00     0.032 A 
ENDBRANCH  23  26
ENDBRANCH   1  22
TORSDOF 6
ENDMDL
MODEL 9
REMARK VINA RESULT:      -8.1      2.815      7.224
REMARK  6 active torsions:
REMARK  status: ('A' for Active; 'I' for Inactive)
REMARK    1  A    between atoms: C_8  and  C_9 
REMARK    2  A    between atoms: C_9  and  C_10 
REMARK    3  A    between atoms: C_10  and  N_11 
REMARK    4  A    between atoms: C_10  and  C_19 
REMARK       I    between atoms: N_11  and  C_12 
REMARK    5  A    between atoms: C_12  and  C_13 
REMARK       I    between atoms: C_19  and  N_20 
REMARK    6  A    between atoms: N_20  and  C_21 
ROOT
HETATM    1  C   UNL     1      -4.626   1.916 -32.373  1.00  0.00     0.181 C 
ENDROOT
BRANCH   1   2
HETATM    2  C   UNL     1      -4.404   0.761 -31.374  1.00  0.00     0.075 C 
BRANCH   2   3
HETATM    3  C   UNL     1      -4.184  -0.563 -32.046  1.00  0.00    -0.028 A 
HETATM    4  C   UNL     1      -5.009  -1.191 -33.037  1.00  0.00    -0.002 A 
HETATM    5  C   UNL     1      -6.210  -0.844 -33.689  1.00  0.00     0.014 A 
HETATM    6  C   UNL     1      -4.413  -2.410 -33.363  1.00  0.00     0.042 A 
HETATM    7  C   UNL     1      -6.777  -1.727 -34.616  1.00  0.00     0.001 A 
HETATM    8  C   UNL     1      -6.160  -2.938 -34.912  1.00  0.00     0.002 A 
HETATM    9  C   UNL     1      -4.961  -3.301 -34.294  1.00  0.00     0.030 A 
HETATM   10  N   UNL     1      -3.264  -2.513 -32.616  1.00  0.00    -0.365 N 
HETATM   11  H   UNL     1      -2.624  -3.295 -32.658  1.00  0.00     0.165 HD
HETATM   12  C   UNL     1      -3.116  -1.411 -31.820  1.00  0.00     0.096 A 
ENDBRANCH   2   3
ENDBRANCH   1   2
BRANCH   1  13
HETATM   13  N   UNL     1      -5.964   2.516 -32.296  1.00  0.00    -0.343 N 
HETATM   14  C   UNL     1      -6.732   2.862 -33.383  1.00  0.00     0.259 C 
HETATM   15  O   UNL     1      -6.337   2.629 -34.526  1.00  0.00    -0.267 OA
HETATM   16  H   UNL     1      -6.367   2.644 -31.376  1.00  0.00     0.163 HD
BRANCH  14  17
HETATM   17  C   UNL     1      -8.014   3.487 -33.093  1.00  0.00     0.072 A 
HETATM   18  S   UNL     1      -9.041   2.933 -31.835  1.00  0.00    -0.097 SA
HETATM   19  C   UNL     1     -10.214   4.130 -32.164  1.00  0.00     0.050 A 
HETATM   20  C   UNL     1      -9.841   4.943 -33.210  1.00  0.00     0.009 A 
HETATM   21  C   UNL     1      -8.573   4.571 -33.746  1.00  0.00     0.025 A 
ENDBRANCH  14  17
ENDBRANCH   1  13
BRANCH   1  22
HETATM   22  C   UNL     1      -3.545   3.015 -32.271  1.00  0.00     0.245 C 
HETATM   23  N   UNL     1      -3.641   3.998 -33.240  1.00  0.00    -0.324 N 
HETATM   24  H   UNL     1      -4.293   3.816 -34.005  1.00  0.00     0.169 HD
HETATM   25  O   UNL     1      -2.681   2.967 -31.398  1.00  0.00    -0.271 OA
BRANCH  23  26
HETATM   26  C   UNL     1      -2.913   5.201 -33.309  1.00  0.00     0.052 A 
HETATM   27  C   UNL     1      -1.858   5.454 -34.181  1.00  0.00     0.145 A 
HETATM   28  N   UNL     1      -1.143   6.610 -34.195  1.00  0.00    -0.271 NA
HETATM   29  C   UNL     1      -1.498   7.557 -33.303  1.00  0.00     0.116 A 
HETATM   30  C   UNL     1      -2.534   7.407 -32.397  1.00  0.00     0.021 A 
HETATM   31  C   UNL     1      -3.249   6.210 -32.404  1.00  0.00     0.032 A 
ENDBRANCH  23  26
ENDBRANCH   1  22
TORSDOF 6
ENDMDL
MODEL 10
REMARK VINA RESULT:      -8.0      2.281      5.740
REMARK  6 active torsions:
REMARK  status: ('A' for Active; 'I' for Inactive)
REMARK    1  A    between atoms: C_8  and  C_9 
REMARK    2  A    between atoms: C_9  and  C_10 
REMARK    3  A    between atoms: C_10  and  N_11 
REMARK    4  A    between atoms: C_10  and  C_19 
REMARK       I    between atoms: N_11  and  C_12 
REMARK    5  A    between atoms: C_12  and  C_13 
REMARK       I    between atoms: C_19  and  N_20 
REMARK    6  A    between atoms: N_20  and  C_21 
ROOT
HETATM    1  C   UNL     1      -7.290   0.677 -32.185  1.00  0.00     0.181 C 
ENDROOT
BRANCH   1   2
HETATM    2  C   UNL     1      -8.093   1.485 -33.226  1.00  0.00     0.075 C 
BRANCH   2   3
HETATM    3  C   UNL     1      -9.533   1.072 -33.307  1.00  0.00    -0.028 A 
HETATM    4  C   UNL     1     -10.601   1.746 -33.986  1.00  0.00    -0.002 A 
HETATM    5  C   UNL     1     -10.698   2.926 -34.753  1.00  0.00     0.014 A 
HETATM    6  C   UNL     1     -11.762   0.999 -33.782  1.00  0.00     0.042 A 
HETATM    7  C   UNL     1     -11.940   3.322 -35.264  1.00  0.00     0.001 A 
HETATM    8  C   UNL     1     -13.079   2.556 -35.035  1.00  0.00     0.002 A 
HETATM    9  C   UNL     1     -13.010   1.374 -34.293  1.00  0.00     0.030 A 
HETATM   10  N   UNL     1     -11.413  -0.096 -33.027  1.00  0.00    -0.365 N 
HETATM   11  H   UNL     1     -12.057  -0.818 -32.736  1.00  0.00     0.165 HD
HETATM   12  C   UNL     1     -10.077  -0.063 -32.734  1.00  0.00     0.096 A 
ENDBRANCH   2   3
ENDBRANCH   1   2
BRANCH   1  13
HETATM   13  N   UNL     1      -6.844  -0.635 -32.671  1.00  0.00    -0.343 N 
HETATM   14  C   UNL     1      -6.328  -0.875 -33.923  1.00  0.00     0.259 C 
HETATM   15  O   UNL     1      -6.161   0.052 -34.716  1.00  0.00    -0.267 OA
HETATM   16  H   UNL     1      -6.881  -1.411 -32.021  1.00  0.00     0.163 HD
BRANCH  14  17
HETATM   17  C   UNL     1      -5.988  -2.257 -34.225  1.00  0.00     0.072 A 
HETATM   18  S   UNL     1      -4.405  -2.882 -34.003  1.00  0.00    -0.097 SA
HETATM   19  C   UNL     1      -4.862  -4.436 -34.545  1.00  0.00     0.050 A 
HETATM   20  C   UNL     1      -6.193  -4.490 -34.891  1.00  0.00     0.009 A 
HETATM   21  C   UNL     1      -6.841  -3.233 -34.708  1.00  0.00     0.025 A 
ENDBRANCH  14  17
ENDBRANCH   1  13
BRANCH   1  22
HETATM   22  C   UNL     1      -6.092   1.463 -31.607  1.00  0.00     0.245 C 
HETATM   23  N   UNL     1      -5.425   2.247 -32.533  1.00  0.00    -0.324 N 
HETATM   24  H   UNL     1      -5.679   2.103 -33.512  1.00  0.00     0.169 HD
HETATM   25  O   UNL     1      -5.782   1.354 -30.422  1.00  0.00    -0.271 OA
BRANCH  23  26
HETATM   26  C   UNL     1      -4.412   3.191 -32.279  1.00  0.00     0.052 A 
HETATM   27  C   UNL     1      -3.143   2.896 -31.790  1.00  0.00     0.145 A 
HETATM   28  N   UNL     1      -2.199   3.834 -31.511  1.00  0.00    -0.271 NA
HETATM   29  C   UNL     1      -2.534   5.121 -31.733  1.00  0.00     0.116 A 
HETATM   30  C   UNL     1      -3.766   5.519 -32.221  1.00  0.00     0.021 A 
HETATM   31  C   UNL     1      -4.716   4.536 -32.497  1.00  0.00     0.032 A 
ENDBRANCH  23  26
ENDBRANCH   1  22
TORSDOF 6
ENDMDL
