MODEL 1
REMARK VINA RESULT:      -8.6      0.000      0.000
REMARK  10 active torsions:
REMARK  status: ('A' for Active; 'I' for Inactive)
REMARK    1  A    between atoms: C_2  and  N_3 
REMARK    2  A    between atoms: N_3  and  C_5 
REMARK    3  A    between atoms: N_3  and  C_34 
REMARK    4  A    between atoms: C_5  and  C_6 
REMARK    5  A    between atoms: C_6  and  C_7 
REMARK    6  A    between atoms: C_7  and  N_8 
REMARK       I    between atoms: N_8  and  C_9 
REMARK    7  A    between atoms: C_9  and  C_10 
REMARK    8  A    between atoms: N_16  and  C_17 
REMARK    9  A    between atoms: C_17  and  C_18 
REMARK       I    between atoms: C_18  and  N_19 
REMARK   10  A    between atoms: N_19  and  C_20 
ROOT
HETATM    1  C   UNL     1      -5.314   3.288 -33.090  1.00  0.00     0.081 A 
HETATM    2  S   UNL     1      -5.307   4.595 -34.199  1.00  0.00    -0.063 SA
HETATM    3  C   UNL     1      -3.770   5.108 -33.694  1.00  0.00     0.116 A 
HETATM    4  C   UNL     1      -3.265   4.317 -32.685  1.00  0.00     0.075 A 
HETATM    5  C   UNL     1      -1.982   4.706 -32.113  1.00  0.00     0.262 A 
HETATM    6  O   UNL     1      -1.452   4.092 -31.190  1.00  0.00    -0.267 OA
HETATM    7  N   UNL     1      -1.441   5.863 -32.666  1.00  0.00    -0.299 N 
HETATM    8  C   UNL     1      -2.046   6.516 -33.724  1.00  0.00     0.214 A 
HETATM    9  N   UNL     1      -3.183   6.194 -34.253  1.00  0.00    -0.235 NA
HETATM   10  C   UNL     1      -4.139   3.216 -32.351  1.00  0.00    -0.021 A 
HETATM   11  C   UNL     1      -3.849   2.181 -31.308  1.00  0.00     0.051 C 
ENDROOT
BRANCH   1  12
HETATM   12  C   UNL     1      -6.466   2.407 -33.066  1.00  0.00     0.259 C 
HETATM   13  N   UNL     1      -6.714   1.749 -34.257  1.00  0.00    -0.356 N 
HETATM   14  H   UNL     1      -6.139   1.998 -35.057  1.00  0.00     0.162 HD
HETATM   15  O   UNL     1      -7.169   2.209 -32.077  1.00  0.00    -0.267 OA
BRANCH  13  16
HETATM   16  C   UNL     1      -7.836   0.855 -34.435  1.00  0.00     0.124 C 
BRANCH  16  17
HETATM   17  C   UNL     1      -7.446  -0.412 -35.202  1.00  0.00     0.047 C 
BRANCH  17  18
HETATM   18  C   UNL     1      -6.988  -1.531 -34.270  1.00  0.00     0.236 C 
BRANCH  18  19
HETATM   19  N   UNL     1      -5.544  -1.956 -34.516  1.00  0.00    -0.072 N 
HETATM   20  H   UNL     1      -5.271  -1.453 -35.373  1.00  0.00     0.279 HD
BRANCH  19  21
HETATM   21  C   UNL     1      -5.353  -3.429 -34.844  1.00  0.00     0.230 C 
HETATM   22  C   UNL     1      -6.678  -4.149 -35.013  1.00  0.00     0.034 C 
ENDBRANCH  19  21
BRANCH  19  23
HETATM   23  C   UNL     1      -4.552  -1.513 -33.456  1.00  0.00     0.230 C 
HETATM   24  C   UNL     1      -5.253  -0.963 -32.229  1.00  0.00     0.034 C 
ENDBRANCH  19  23
ENDBRANCH  18  19
ENDBRANCH  17  18
ENDBRANCH  16  17
ENDBRANCH  13  16
ENDBRANCH   1  12
BRANCH   7  25
HETATM   25  C   UNL     1      -0.216   6.395 -32.095  1.00  0.00     0.236 C 
BRANCH  25  26
HETATM   26  C   UNL     1      -0.499   7.357 -30.936  1.00  0.00     0.240 C 
HETATM   27  N   UNL     1       0.381   7.173 -29.880  1.00  0.00    -0.326 N 
HETATM   28  H   UNL     1       1.193   6.591 -30.051  1.00  0.00     0.169 HD
HETATM   29  O   UNL     1      -1.463   8.115 -30.959  1.00  0.00    -0.271 OA
BRANCH  27  30
HETATM   30  C   UNL     1       0.306   7.731 -28.585  1.00  0.00     0.036 A 
HETATM   31  C   UNL     1      -0.773   7.560 -27.718  1.00  0.00     0.053 A 
HETATM   32  C   UNL     1      -0.739   8.114 -26.430  1.00  0.00     0.042 A 
HETATM   33 CL   UNL     1      -2.105   7.846 -25.402  1.00  0.00    -0.084 Cl
HETATM   34  C   UNL     1       0.370   8.850 -25.988  1.00  0.00    -0.040 A 
HETATM   35  C   UNL     1       0.440   9.438 -24.606  1.00  0.00     0.050 C 
HETATM   36  C   UNL     1       1.446   9.023 -26.867  1.00  0.00     0.011 A 
HETATM   37  C   UNL     1       1.413   8.469 -28.149  1.00  0.00     0.030 A 
ENDBRANCH  27  30
ENDBRANCH  25  26
ENDBRANCH   7  25
TORSDOF 10
ENDMDL
MODEL 2
REMARK VINA RESULT:      -8.6      2.697      3.927
REMARK  10 active torsions:
REMARK  status: ('A' for Active; 'I' for Inactive)
REMARK    1  A    between atoms: C_2  and  N_3 
REMARK    2  A    between atoms: N_3  and  C_5 
REMARK    3  A    between atoms: N_3  and  C_34 
REMARK    4  A    between atoms: C_5  and  C_6 
REMARK    5  A    between atoms: C_6  and  C_7 
REMARK    6  A    between atoms: C_7  and  N_8 
REMARK       I    between atoms: N_8  and  C_9 
REMARK    7  A    between atoms: C_9  and  C_10 
REMARK    8  A    between atoms: N_16  and  C_17 
REMARK    9  A    between atoms: C_17  and  C_18 
REMARK       I    between atoms: C_18  and  N_19 
REMARK   10  A    between atoms: N_19  and  C_20 
ROOT
HETATM    1  C   UNL     1      -6.563   3.062 -32.338  1.00  0.00     0.081 A 
HETATM    2  S   UNL     1      -6.829   3.977 -33.763  1.00  0.00    -0.063 SA
HETATM    3  C   UNL     1      -5.180   4.349 -33.917  1.00  0.00     0.116 A 
HETATM    4  C   UNL     1      -4.429   3.807 -32.896  1.00  0.00     0.075 A 
HETATM    5  C   UNL     1      -3.006   4.123 -32.876  1.00  0.00     0.262 A 
HETATM    6  O   UNL     1      -2.248   3.718 -31.998  1.00  0.00    -0.267 OA
HETATM    7  N   UNL     1      -2.597   4.966 -33.905  1.00  0.00    -0.299 N 
HETATM    8  C   UNL     1      -3.468   5.380 -34.896  1.00  0.00     0.214 A 
HETATM    9  N   UNL     1      -4.734   5.115 -34.941  1.00  0.00    -0.235 NA
HETATM   10  C   UNL     1      -5.220   3.009 -31.987  1.00  0.00    -0.021 A 
HETATM   11  C   UNL     1      -4.677   2.282 -30.796  1.00  0.00     0.051 C 
ENDROOT
BRANCH   1  12
HETATM   12  C   UNL     1      -7.703   2.431 -31.699  1.00  0.00     0.259 C 
HETATM   13  N   UNL     1      -8.026   1.182 -32.200  1.00  0.00    -0.356 N 
HETATM   14  H   UNL     1      -7.510   0.856 -33.012  1.00  0.00     0.162 HD
HETATM   15  O   UNL     1      -8.333   2.918 -30.764  1.00  0.00    -0.267 OA
BRANCH  13  16
HETATM   16  C   UNL     1      -9.148   0.413 -31.712  1.00  0.00     0.124 C 
BRANCH  16  17
HETATM   17  C   UNL     1     -10.038  -0.092 -32.850  1.00  0.00     0.047 C 
BRANCH  17  18
HETATM   18  C   UNL     1     -10.616   1.052 -33.681  1.00  0.00     0.236 C 
BRANCH  18  19
HETATM   19  N   UNL     1     -11.834   1.701 -33.031  1.00  0.00    -0.072 N 
HETATM   20  H   UNL     1     -11.904   1.249 -32.108  1.00  0.00     0.279 HD
BRANCH  19  21
HETATM   21  C   UNL     1     -13.160   1.411 -33.716  1.00  0.00     0.230 C 
HETATM   22  C   UNL     1     -13.487  -0.070 -33.715  1.00  0.00     0.034 C 
ENDBRANCH  19  21
BRANCH  19  23
HETATM   23  C   UNL     1     -11.696   3.186 -32.743  1.00  0.00     0.230 C 
HETATM   24  C   UNL     1     -10.596   3.816 -33.575  1.00  0.00     0.034 C 
ENDBRANCH  19  23
ENDBRANCH  18  19
ENDBRANCH  17  18
ENDBRANCH  16  17
ENDBRANCH  13  16
ENDBRANCH   1  12
BRANCH   7  25
HETATM   25  C   UNL     1      -1.220   5.426 -33.915  1.00  0.00     0.236 C 
BRANCH  25  26
HETATM   26  C   UNL     1      -1.024   6.656 -33.022  1.00  0.00     0.240 C 
HETATM   27  N   UNL     1      -0.806   6.308 -31.698  1.00  0.00    -0.326 N 
HETATM   28  H   UNL     1      -0.617   5.332 -31.500  1.00  0.00     0.169 HD
HETATM   29  O   UNL     1      -1.149   7.792 -33.468  1.00  0.00    -0.271 OA
BRANCH  27  30
HETATM   30  C   UNL     1      -0.782   7.162 -30.573  1.00  0.00     0.036 A 
HETATM   31  C   UNL     1       0.313   7.312 -29.724  1.00  0.00     0.053 A 
HETATM   32  C   UNL     1       0.262   8.220 -28.656  1.00  0.00     0.042 A 
HETATM   33 CL   UNL     1       1.665   8.367 -27.656  1.00  0.00    -0.084 Cl
HETATM   34  C   UNL     1      -0.886   8.991 -28.417  1.00  0.00    -0.040 A 
HETATM   35  C   UNL     1      -0.961   9.985 -27.293  1.00  0.00     0.050 C 
HETATM   36  C   UNL     1      -1.984   8.829 -29.270  1.00  0.00     0.011 A 
HETATM   37  C   UNL     1      -1.931   7.926 -30.335  1.00  0.00     0.030 A 
ENDBRANCH  27  30
ENDBRANCH  25  26
ENDBRANCH   7  25
TORSDOF 10
ENDMDL
MODEL 3
REMARK VINA RESULT:      -7.9      1.618      2.081
REMARK  10 active torsions:
REMARK  status: ('A' for Active; 'I' for Inactive)
REMARK    1  A    between atoms: C_2  and  N_3 
REMARK    2  A    between atoms: N_3  and  C_5 
REMARK    3  A    between atoms: N_3  and  C_34 
REMARK    4  A    between atoms: C_5  and  C_6 
REMARK    5  A    between atoms: C_6  and  C_7 
REMARK    6  A    between atoms: C_7  and  N_8 
REMARK       I    between atoms: N_8  and  C_9 
REMARK    7  A    between atoms: C_9  and  C_10 
REMARK    8  A    between atoms: N_16  and  C_17 
REMARK    9  A    between atoms: C_17  and  C_18 
REMARK       I    between atoms: C_18  and  N_19 
REMARK   10  A    between atoms: N_19  and  C_20 
ROOT
HETATM    1  C   UNL     1      -5.326   2.152 -32.779  1.00  0.00     0.081 A 
HETATM    2  S   UNL     1      -3.950   1.779 -31.828  1.00  0.00    -0.063 SA
HETATM    3  C   UNL     1      -3.262   3.308 -32.095  1.00  0.00     0.116 A 
HETATM    4  C   UNL     1      -4.049   4.095 -32.909  1.00  0.00     0.075 A 
HETATM    5  C   UNL     1      -3.526   5.405 -33.276  1.00  0.00     0.262 A 
HETATM    6  O   UNL     1      -4.128   6.177 -34.019  1.00  0.00    -0.267 OA
HETATM    7  N   UNL     1      -2.264   5.679 -32.756  1.00  0.00    -0.299 N 
HETATM    8  C   UNL     1      -1.625   4.803 -31.898  1.00  0.00     0.214 A 
HETATM    9  N   UNL     1      -2.064   3.634 -31.554  1.00  0.00    -0.235 NA
HETATM   10  C   UNL     1      -5.286   3.447 -33.281  1.00  0.00    -0.021 A 
HETATM   11  C   UNL     1      -6.346   4.062 -34.142  1.00  0.00     0.051 C 
ENDROOT
BRANCH   1  12
HETATM   12  C   UNL     1      -6.361   1.146 -32.921  1.00  0.00     0.259 C 
HETATM   13  N   UNL     1      -6.320   0.439 -34.110  1.00  0.00    -0.356 N 
HETATM   14  H   UNL     1      -5.642   0.735 -34.806  1.00  0.00     0.162 HD
HETATM   15  O   UNL     1      -7.203   0.889 -32.064  1.00  0.00    -0.267 OA
BRANCH  13  16
HETATM   16  C   UNL     1      -7.287  -0.581 -34.445  1.00  0.00     0.124 C 
BRANCH  16  17
HETATM   17  C   UNL     1      -6.801  -1.982 -34.066  1.00  0.00     0.047 C 
BRANCH  17  18
HETATM   18  C   UNL     1      -5.667  -2.462 -34.970  1.00  0.00     0.236 C 
BRANCH  18  19
HETATM   19  N   UNL     1      -4.356  -2.670 -34.218  1.00  0.00    -0.072 N 
HETATM   20  H   UNL     1      -3.638  -2.269 -34.837  1.00  0.00     0.279 HD
BRANCH  19  21
HETATM   21  C   UNL     1      -3.947  -4.122 -34.025  1.00  0.00     0.230 C 
HETATM   22  C   UNL     1      -5.042  -5.081 -34.453  1.00  0.00     0.034 C 
ENDBRANCH  19  21
BRANCH  19  23
HETATM   23  C   UNL     1      -4.234  -1.905 -32.912  1.00  0.00     0.230 C 
HETATM   24  C   UNL     1      -3.212  -2.537 -31.987  1.00  0.00     0.034 C 
ENDBRANCH  19  23
ENDBRANCH  18  19
ENDBRANCH  17  18
ENDBRANCH  16  17
ENDBRANCH  13  16
ENDBRANCH   1  12
BRANCH   7  25
HETATM   25  C   UNL     1      -1.608   6.914 -33.147  1.00  0.00     0.236 C 
BRANCH  25  26
HETATM   26  C   UNL     1      -1.454   7.876 -31.963  1.00  0.00     0.240 C 
HETATM   27  N   UNL     1      -0.877   7.259 -30.863  1.00  0.00    -0.326 N 
HETATM   28  H   UNL     1      -0.464   6.345 -31.008  1.00  0.00     0.169 HD
HETATM   29  O   UNL     1      -1.893   9.020 -32.013  1.00  0.00    -0.271 OA
BRANCH  27  30
HETATM   30  C   UNL     1      -0.762   7.767 -29.550  1.00  0.00     0.036 A 
HETATM   31  C   UNL     1      -1.844   8.133 -28.752  1.00  0.00     0.053 A 
HETATM   32  C   UNL     1      -1.636   8.584 -27.440  1.00  0.00     0.042 A 
HETATM   33 CL   UNL     1      -3.026   9.004 -26.502  1.00  0.00    -0.084 Cl
HETATM   34  C   UNL     1      -0.342   8.680 -26.906  1.00  0.00    -0.040 A 
HETATM   35  C   UNL     1      -0.091   9.141 -25.498  1.00  0.00     0.050 C 
HETATM   36  C   UNL     1       0.740   8.317 -27.717  1.00  0.00     0.011 A 
HETATM   37  C   UNL     1       0.531   7.865 -29.022  1.00  0.00     0.030 A 
ENDBRANCH  27  30
ENDBRANCH  25  26
ENDBRANCH   7  25
TORSDOF 10
ENDMDL
MODEL 4
REMARK VINA RESULT:      -7.9      5.845      9.293
REMARK  10 active torsions:
REMARK  status: ('A' for Active; 'I' for Inactive)
REMARK    1  A    between atoms: C_2  and  N_3 
REMARK    2  A    between atoms: N_3  and  C_5 
REMARK    3  A    between atoms: N_3  and  C_34 
REMARK    4  A    between atoms: C_5  and  C_6 
REMARK    5  A    between atoms: C_6  and  C_7 
REMARK    6  A    between atoms: C_7  and  N_8 
REMARK       I    between atoms: N_8  and  C_9 
REMARK    7  A    between atoms: C_9  and  C_10 
REMARK    8  A    between atoms: N_16  and  C_17 
REMARK    9  A    between atoms: C_17  and  C_18 
REMARK       I    between atoms: C_18  and  N_19 
REMARK   10  A    between atoms: N_19  and  C_20 
ROOT
HETATM    1  C   UNL     1      -9.289   4.212 -31.787  1.00  0.00     0.081 A 
HETATM    2  S   UNL     1      -9.081   3.484 -30.249  1.00  0.00    -0.063 SA
HETATM    3  C   UNL     1      -7.450   3.129 -30.560  1.00  0.00     0.116 A 
HETATM    4  C   UNL     1      -7.061   3.537 -31.818  1.00  0.00     0.075 A 
HETATM    5  C   UNL     1      -5.701   3.216 -32.231  1.00  0.00     0.262 A 
HETATM    6  O   UNL     1      -5.257   3.504 -33.339  1.00  0.00    -0.267 OA
HETATM    7  N   UNL     1      -4.971   2.507 -31.281  1.00  0.00    -0.299 N 
HETATM    8  C   UNL     1      -5.488   2.223 -30.030  1.00  0.00     0.214 A 
HETATM    9  N   UNL     1      -6.690   2.496 -29.635  1.00  0.00    -0.235 NA
HETATM   10  C   UNL     1      -8.117   4.216 -32.533  1.00  0.00    -0.021 A 
HETATM   11  C   UNL     1      -7.984   4.787 -33.911  1.00  0.00     0.051 C 
ENDROOT
BRANCH   1  12
HETATM   12  C   UNL     1     -10.589   4.762 -32.121  1.00  0.00     0.259 C 
HETATM   13  N   UNL     1     -11.307   4.026 -33.046  1.00  0.00    -0.356 N 
HETATM   14  H   UNL     1     -10.841   3.231 -33.473  1.00  0.00     0.162 HD
HETATM   15  O   UNL     1     -11.064   5.778 -31.618  1.00  0.00    -0.267 OA
BRANCH  13  16
HETATM   16  C   UNL     1     -12.609   4.432 -33.526  1.00  0.00     0.124 C 
BRANCH  16  17
HETATM   17  C   UNL     1     -12.811   4.086 -35.003  1.00  0.00     0.047 C 
BRANCH  17  18
HETATM   18  C   UNL     1     -12.968   2.583 -35.227  1.00  0.00     0.236 C 
BRANCH  18  19
HETATM   19  N   UNL     1     -13.292   1.823 -33.944  1.00  0.00    -0.072 N 
HETATM   20  H   UNL     1     -13.106   2.500 -33.191  1.00  0.00     0.279 HD
BRANCH  19  21
HETATM   21  C   UNL     1     -12.381   0.641 -33.649  1.00  0.00     0.230 C 
HETATM   22  C   UNL     1     -13.154  -0.662 -33.558  1.00  0.00     0.034 C 
ENDBRANCH  19  21
BRANCH  19  23
HETATM   23  C   UNL     1     -14.749   1.427 -33.780  1.00  0.00     0.230 C 
HETATM   24  C   UNL     1     -15.370   2.077 -32.559  1.00  0.00     0.034 C 
ENDBRANCH  19  23
ENDBRANCH  18  19
ENDBRANCH  17  18
ENDBRANCH  16  17
ENDBRANCH  13  16
ENDBRANCH   1  12
BRANCH   7  25
HETATM   25  C   UNL     1      -3.640   2.047 -31.633  1.00  0.00     0.236 C 
BRANCH  25  26
HETATM   26  C   UNL     1      -3.638   0.571 -32.047  1.00  0.00     0.240 C 
HETATM   27  N   UNL     1      -4.469   0.333 -33.131  1.00  0.00    -0.326 N 
HETATM   28  H   UNL     1      -4.821   1.141 -33.631  1.00  0.00     0.169 HD
HETATM   29  O   UNL     1      -3.025  -0.271 -31.397  1.00  0.00    -0.271 OA
BRANCH  27  30
HETATM   30  C   UNL     1      -4.868  -0.916 -33.656  1.00  0.00     0.036 A 
HETATM   31  C   UNL     1      -4.076  -2.063 -33.643  1.00  0.00     0.053 A 
HETATM   32  C   UNL     1      -4.575  -3.273 -34.146  1.00  0.00     0.042 A 
HETATM   33 CL   UNL     1      -3.543  -4.660 -34.081  1.00  0.00    -0.084 Cl
HETATM   34  C   UNL     1      -5.873  -3.357 -34.673  1.00  0.00    -0.040 A 
HETATM   35  C   UNL     1      -6.440  -4.645 -35.201  1.00  0.00     0.050 C 
HETATM   36  C   UNL     1      -6.659  -2.199 -34.689  1.00  0.00     0.011 A 
HETATM   37  C   UNL     1      -6.162  -0.994 -34.185  1.00  0.00     0.030 A 
ENDBRANCH  27  30
ENDBRANCH  25  26
ENDBRANCH   7  25
TORSDOF 10
ENDMDL
MODEL 5
REMARK VINA RESULT:      -7.9      3.846     10.646
REMARK  10 active torsions:
REMARK  status: ('A' for Active; 'I' for Inactive)
REMARK    1  A    between atoms: C_2  and  N_3 
REMARK    2  A    between atoms: N_3  and  C_5 
REMARK    3  A    between atoms: N_3  and  C_34 
REMARK    4  A    between atoms: C_5  and  C_6 
REMARK    5  A    between atoms: C_6  and  C_7 
REMARK    6  A    between atoms: C_7  and  N_8 
REMARK       I    between atoms: N_8  and  C_9 
REMARK    7  A    between atoms: C_9  and  C_10 
REMARK    8  A    between atoms: N_16  and  C_17 
REMARK    9  A    between atoms: C_17  and  C_18 
REMARK       I    between atoms: C_18  and  N_19 
REMARK   10  A    between atoms: N_19  and  C_20 
ROOT
HETATM    1  C   UNL     1      -5.406   5.799 -29.268  1.00  0.00     0.081 A 
HETATM    2  S   UNL     1      -6.982   5.425 -28.709  1.00  0.00    -0.063 SA
HETATM    3  C   UNL     1      -7.264   4.359 -30.001  1.00  0.00     0.116 A 
HETATM    4  C   UNL     1      -6.189   4.293 -30.861  1.00  0.00     0.075 A 
HETATM    5  C   UNL     1      -6.341   3.469 -32.054  1.00  0.00     0.262 A 
HETATM    6  O   UNL     1      -5.461   3.360 -32.904  1.00  0.00    -0.267 OA
HETATM    7  N   UNL     1      -7.589   2.864 -32.171  1.00  0.00    -0.299 N 
HETATM    8  C   UNL     1      -8.550   2.981 -31.183  1.00  0.00     0.214 A 
HETATM    9  N   UNL     1      -8.443   3.703 -30.114  1.00  0.00    -0.235 NA
HETATM   10  C   UNL     1      -5.073   5.097 -30.420  1.00  0.00    -0.021 A 
HETATM   11  C   UNL     1      -3.764   5.209 -31.139  1.00  0.00     0.051 C 
ENDROOT
BRANCH   1  12
HETATM   12  C   UNL     1      -4.602   6.729 -28.497  1.00  0.00     0.259 C 
HETATM   13  N   UNL     1      -4.136   6.229 -27.294  1.00  0.00    -0.356 N 
HETATM   14  H   UNL     1      -4.460   5.309 -27.013  1.00  0.00     0.162 HD
HETATM   15  O   UNL     1      -4.308   7.864 -28.866  1.00  0.00    -0.267 OA
BRANCH  13  16
HETATM   16  C   UNL     1      -3.346   7.018 -26.376  1.00  0.00     0.124 C 
BRANCH  16  17
HETATM   17  C   UNL     1      -1.848   6.733 -26.514  1.00  0.00     0.047 C 
BRANCH  17  18
HETATM   18  C   UNL     1      -1.053   7.987 -26.872  1.00  0.00     0.236 C 
BRANCH  18  19
HETATM   19  N   UNL     1      -0.404   7.905 -28.250  1.00  0.00    -0.072 N 
HETATM   20  H   UNL     1      -0.713   8.762 -28.731  1.00  0.00     0.279 HD
BRANCH  19  21
HETATM   21  C   UNL     1      -0.893   6.761 -29.125  1.00  0.00     0.230 C 
HETATM   22  C   UNL     1      -0.344   6.853 -30.537  1.00  0.00     0.034 C 
ENDBRANCH  19  21
BRANCH  19  23
HETATM   23  C   UNL     1       1.113   7.967 -28.253  1.00  0.00     0.230 C 
HETATM   24  C   UNL     1       1.630   9.049 -27.325  1.00  0.00     0.034 C 
ENDBRANCH  19  23
ENDBRANCH  18  19
ENDBRANCH  17  18
ENDBRANCH  16  17
ENDBRANCH  13  16
ENDBRANCH   1  12
BRANCH   7  25
HETATM   25  C   UNL     1      -7.881   2.106 -33.375  1.00  0.00     0.236 C 
BRANCH  25  26
HETATM   26  C   UNL     1      -7.581   0.614 -33.196  1.00  0.00     0.240 C 
HETATM   27  N   UNL     1      -6.268   0.304 -33.520  1.00  0.00    -0.326 N 
HETATM   28  H   UNL     1      -5.627   1.080 -33.647  1.00  0.00     0.169 HD
HETATM   29  O   UNL     1      -8.464  -0.180 -32.890  1.00  0.00    -0.271 OA
BRANCH  27  30
HETATM   30  C   UNL     1      -5.694  -0.977 -33.665  1.00  0.00     0.036 A 
HETATM   31  C   UNL     1      -6.228  -1.993 -34.456  1.00  0.00     0.053 A 
HETATM   32  C   UNL     1      -5.561  -3.221 -34.578  1.00  0.00     0.042 A 
HETATM   33 CL   UNL     1      -6.273  -4.428 -35.591  1.00  0.00    -0.084 Cl
HETATM   34  C   UNL     1      -4.352  -3.456 -33.907  1.00  0.00    -0.040 A 
HETATM   35  C   UNL     1      -3.606  -4.755 -34.034  1.00  0.00     0.050 C 
HETATM   36  C   UNL     1      -3.826  -2.434 -33.108  1.00  0.00     0.011 A 
HETATM   37  C   UNL     1      -4.489  -1.210 -32.990  1.00  0.00     0.030 A 
ENDBRANCH  27  30
ENDBRANCH  25  26
ENDBRANCH   7  25
TORSDOF 10
ENDMDL
MODEL 6
REMARK VINA RESULT:      -7.9      3.563     10.539
REMARK  10 active torsions:
REMARK  status: ('A' for Active; 'I' for Inactive)
REMARK    1  A    between atoms: C_2  and  N_3 
REMARK    2  A    between atoms: N_3  and  C_5 
REMARK    3  A    between atoms: N_3  and  C_34 
REMARK    4  A    between atoms: C_5  and  C_6 
REMARK    5  A    between atoms: C_6  and  C_7 
REMARK    6  A    between atoms: C_7  and  N_8 
REMARK       I    between atoms: N_8  and  C_9 
REMARK    7  A    between atoms: C_9  and  C_10 
REMARK    8  A    between atoms: N_16  and  C_17 
REMARK    9  A    between atoms: C_17  and  C_18 
REMARK       I    between atoms: C_18  and  N_19 
REMARK   10  A    between atoms: N_19  and  C_20 
ROOT
HETATM    1  C   UNL     1      -4.190   6.797 -31.653  1.00  0.00     0.081 A 
HETATM    2  S   UNL     1      -5.434   6.615 -30.488  1.00  0.00    -0.063 SA
HETATM    3  C   UNL     1      -6.123   5.307 -31.323  1.00  0.00     0.116 A 
HETATM    4  C   UNL     1      -5.437   5.014 -32.482  1.00  0.00     0.075 A 
HETATM    5  C   UNL     1      -5.980   3.959 -33.328  1.00  0.00     0.262 A 
HETATM    6  O   UNL     1      -5.469   3.634 -34.398  1.00  0.00    -0.267 OA
HETATM    7  N   UNL     1      -7.156   3.392 -32.845  1.00  0.00    -0.299 N 
HETATM    8  C   UNL     1      -7.692   3.758 -31.624  1.00  0.00     0.214 A 
HETATM    9  N   UNL     1      -7.232   4.689 -30.851  1.00  0.00    -0.235 NA
HETATM   10  C   UNL     1      -4.273   5.850 -32.666  1.00  0.00    -0.021 A 
HETATM   11  C   UNL     1      -3.326   5.752 -33.822  1.00  0.00     0.051 C 
ENDROOT
BRANCH   1  12
HETATM   12  C   UNL     1      -3.202   7.839 -31.451  1.00  0.00     0.259 C 
HETATM   13  N   UNL     1      -3.030   8.225 -30.134  1.00  0.00    -0.356 N 
HETATM   14  H   UNL     1      -3.657   7.822 -29.444  1.00  0.00     0.162 HD
HETATM   15  O   UNL     1      -2.526   8.339 -32.348  1.00  0.00    -0.267 OA
BRANCH  13  16
HETATM   16  C   UNL     1      -2.112   9.270 -29.740  1.00  0.00     0.124 C 
BRANCH  16  17
HETATM   17  C   UNL     1      -1.358   8.920 -28.455  1.00  0.00     0.047 C 
BRANCH  17  18
HETATM   18  C   UNL     1      -1.351   7.417 -28.182  1.00  0.00     0.236 C 
BRANCH  18  19
HETATM   19  N   UNL     1       0.055   6.849 -28.019  1.00  0.00    -0.072 N 
HETATM   20  H   UNL     1       0.046   6.404 -27.090  1.00  0.00     0.279 HD
BRANCH  19  21
HETATM   21  C   UNL     1       1.165   7.887 -27.951  1.00  0.00     0.230 C 
HETATM   22  C   UNL     1       1.687   8.066 -26.537  1.00  0.00     0.034 C 
ENDBRANCH  19  21
BRANCH  19  23
HETATM   23  C   UNL     1       0.420   5.742 -28.993  1.00  0.00     0.230 C 
HETATM   24  C   UNL     1      -0.216   5.962 -30.352  1.00  0.00     0.034 C 
ENDBRANCH  19  23
ENDBRANCH  18  19
ENDBRANCH  17  18
ENDBRANCH  16  17
ENDBRANCH  13  16
ENDBRANCH   1  12
BRANCH   7  25
HETATM   25  C   UNL     1      -7.836   2.404 -33.664  1.00  0.00     0.236 C 
BRANCH  25  26
HETATM   26  C   UNL     1      -7.458   0.974 -33.263  1.00  0.00     0.240 C 
HETATM   27  N   UNL     1      -6.350   0.514 -33.959  1.00  0.00    -0.326 N 
HETATM   28  H   UNL     1      -5.818   1.197 -34.486  1.00  0.00     0.169 HD
HETATM   29  O   UNL     1      -8.150   0.330 -32.481  1.00  0.00    -0.271 OA
BRANCH  27  30
HETATM   30  C   UNL     1      -5.841  -0.802 -33.999  1.00  0.00     0.036 A 
HETATM   31  C   UNL     1      -6.459  -1.864 -34.657  1.00  0.00     0.053 A 
HETATM   32  C   UNL     1      -5.854  -3.130 -34.683  1.00  0.00     0.042 A 
HETATM   33 CL   UNL     1      -6.670  -4.395 -35.536  1.00  0.00    -0.084 Cl
HETATM   34  C   UNL     1      -4.624  -3.356 -34.048  1.00  0.00    -0.040 A 
HETATM   35  C   UNL     1      -3.945  -4.696 -34.076  1.00  0.00     0.050 C 
HETATM   36  C   UNL     1      -4.014  -2.287 -33.382  1.00  0.00     0.011 A 
HETATM   37  C   UNL     1      -4.615  -1.026 -33.359  1.00  0.00     0.030 A 
ENDBRANCH  27  30
ENDBRANCH  25  26
ENDBRANCH   7  25
TORSDOF 10
ENDMDL
MODEL 7
REMARK VINA RESULT:      -7.6      3.788     10.176
REMARK  10 active torsions:
REMARK  status: ('A' for Active; 'I' for Inactive)
REMARK    1  A    between atoms: C_2  and  N_3 
REMARK    2  A    between atoms: N_3  and  C_5 
REMARK    3  A    between atoms: N_3  and  C_34 
REMARK    4  A    between atoms: C_5  and  C_6 
REMARK    5  A    between atoms: C_6  and  C_7 
REMARK    6  A    between atoms: C_7  and  N_8 
REMARK       I    between atoms: N_8  and  C_9 
REMARK    7  A    between atoms: C_9  and  C_10 
REMARK    8  A    between atoms: N_16  and  C_17 
REMARK    9  A    between atoms: C_17  and  C_18 
REMARK       I    between atoms: C_18  and  N_19 
REMARK   10  A    between atoms: N_19  and  C_20 
ROOT
HETATM    1  C   UNL     1      -5.399   6.389 -30.162  1.00  0.00     0.081 A 
HETATM    2  S   UNL     1      -4.926   6.534 -31.803  1.00  0.00    -0.063 SA
HETATM    3  C   UNL     1      -6.047   5.362 -32.304  1.00  0.00     0.116 A 
HETATM    4  C   UNL     1      -6.765   4.846 -31.247  1.00  0.00     0.075 A 
HETATM    5  C   UNL     1      -7.706   3.773 -31.541  1.00  0.00     0.262 A 
HETATM    6  O   UNL     1      -8.377   3.219 -30.673  1.00  0.00    -0.267 OA
HETATM    7  N   UNL     1      -7.735   3.395 -32.880  1.00  0.00    -0.299 N 
HETATM    8  C   UNL     1      -6.990   4.057 -33.839  1.00  0.00     0.214 A 
HETATM    9  N   UNL     1      -6.149   5.013 -33.609  1.00  0.00    -0.235 NA
HETATM   10  C   UNL     1      -6.429   5.473 -29.989  1.00  0.00    -0.021 A 
HETATM   11  C   UNL     1      -7.057   5.133 -28.672  1.00  0.00     0.051 C 
ENDROOT
BRANCH   1  12
HETATM   12  C   UNL     1      -4.742   7.226 -29.176  1.00  0.00     0.259 C 
HETATM   13  N   UNL     1      -3.546   6.722 -28.697  1.00  0.00    -0.356 N 
HETATM   14  H   UNL     1      -3.277   5.791 -28.999  1.00  0.00     0.162 HD
HETATM   15  O   UNL     1      -5.164   8.316 -28.798  1.00  0.00    -0.267 OA
BRANCH  13  16
HETATM   16  C   UNL     1      -2.763   7.399 -27.688  1.00  0.00     0.124 C 
BRANCH  16  17
HETATM   17  C   UNL     1      -1.260   7.291 -27.957  1.00  0.00     0.047 C 
BRANCH  17  18
HETATM   18  C   UNL     1      -0.864   7.940 -29.282  1.00  0.00     0.236 C 
BRANCH  18  19
HETATM   19  N   UNL     1      -0.298   6.941 -30.286  1.00  0.00    -0.072 N 
HETATM   20  H   UNL     1       0.520   7.418 -30.690  1.00  0.00     0.279 HD
BRANCH  19  21
HETATM   21  C   UNL     1      -1.203   6.634 -31.469  1.00  0.00     0.230 C 
HETATM   22  C   UNL     1      -1.421   7.852 -32.347  1.00  0.00     0.034 C 
ENDBRANCH  19  21
BRANCH  19  23
HETATM   23  C   UNL     1       0.244   5.657 -29.682  1.00  0.00     0.230 C 
HETATM   24  C   UNL     1       1.097   4.890 -30.674  1.00  0.00     0.034 C 
ENDBRANCH  19  23
ENDBRANCH  18  19
ENDBRANCH  17  18
ENDBRANCH  16  17
ENDBRANCH  13  16
ENDBRANCH   1  12
BRANCH   7  25
HETATM   25  C   UNL     1      -8.562   2.264 -33.262  1.00  0.00     0.236 C 
BRANCH  25  26
HETATM   26  C   UNL     1      -7.903   0.928 -32.901  1.00  0.00     0.240 C 
HETATM   27  N   UNL     1      -6.912   0.574 -33.805  1.00  0.00    -0.326 N 
HETATM   28  H   UNL     1      -6.610   1.284 -34.462  1.00  0.00     0.169 HD
HETATM   29  O   UNL     1      -8.310   0.252 -31.962  1.00  0.00    -0.271 OA
BRANCH  27  30
HETATM   30  C   UNL     1      -6.237  -0.661 -33.906  1.00  0.00     0.036 A 
HETATM   31  C   UNL     1      -6.774  -1.805 -34.495  1.00  0.00     0.053 A 
HETATM   32  C   UNL     1      -6.010  -2.977 -34.593  1.00  0.00     0.042 A 
HETATM   33 CL   UNL     1      -6.736  -4.351 -35.353  1.00  0.00    -0.084 Cl
HETATM   34  C   UNL     1      -4.698  -3.027 -34.100  1.00  0.00    -0.040 A 
HETATM   35  C   UNL     1      -3.850  -4.263 -34.209  1.00  0.00     0.050 C 
HETATM   36  C   UNL     1      -4.168  -1.877 -33.503  1.00  0.00     0.011 A 
HETATM   37  C   UNL     1      -4.929  -0.709 -33.409  1.00  0.00     0.030 A 
ENDBRANCH  27  30
ENDBRANCH  25  26
ENDBRANCH   7  25
TORSDOF 10
ENDMDL
MODEL 8
REMARK VINA RESULT:      -7.5      3.344      4.885
REMARK  10 active torsions:
REMARK  status: ('A' for Active; 'I' for Inactive)
REMARK    1  A    between atoms: C_2  and  N_3 
REMARK    2  A    between atoms: N_3  and  C_5 
REMARK    3  A    between atoms: N_3  and  C_34 
REMARK    4  A    between atoms: C_5  and  C_6 
REMARK    5  A    between atoms: C_6  and  C_7 
REMARK    6  A    between atoms: C_7  and  N_8 
REMARK       I    between atoms: N_8  and  C_9 
REMARK    7  A    between atoms: C_9  and  C_10 
REMARK    8  A    between atoms: N_16  and  C_17 
REMARK    9  A    between atoms: C_17  and  C_18 
REMARK       I    between atoms: C_18  and  N_19 
REMARK   10  A    between atoms: N_19  and  C_20 
ROOT
HETATM    1  C   UNL     1      -6.860   2.570 -32.443  1.00  0.00     0.081 A 
HETATM    2  S   UNL     1      -5.524   1.753 -31.746  1.00  0.00    -0.063 SA
HETATM    3  C   UNL     1      -4.422   2.902 -32.336  1.00  0.00     0.116 A 
HETATM    4  C   UNL     1      -5.046   3.888 -33.069  1.00  0.00     0.075 A 
HETATM    5  C   UNL     1      -4.194   4.892 -33.696  1.00  0.00     0.262 A 
HETATM    6  O   UNL     1      -4.638   5.799 -34.395  1.00  0.00    -0.267 OA
HETATM    7  N   UNL     1      -2.833   4.698 -33.476  1.00  0.00    -0.299 N 
HETATM    8  C   UNL     1      -2.365   3.685 -32.660  1.00  0.00     0.214 A 
HETATM    9  N   UNL     1      -3.096   2.782 -32.090  1.00  0.00    -0.235 NA
HETATM   10  C   UNL     1      -6.482   3.733 -33.102  1.00  0.00    -0.021 A 
HETATM   11  C   UNL     1      -7.425   4.660 -33.805  1.00  0.00     0.051 C 
ENDROOT
BRANCH   1  12
HETATM   12  C   UNL     1      -8.187   2.017 -32.247  1.00  0.00     0.259 C 
HETATM   13  N   UNL     1      -8.665   1.275 -33.312  1.00  0.00    -0.356 N 
HETATM   14  H   UNL     1      -8.102   1.253 -34.157  1.00  0.00     0.162 HD
HETATM   15  O   UNL     1      -8.849   2.146 -31.220  1.00  0.00    -0.267 OA
BRANCH  13  16
HETATM   16  C   UNL     1      -9.979   0.672 -33.315  1.00  0.00     0.124 C 
BRANCH  16  17
HETATM   17  C   UNL     1     -10.993   1.505 -34.103  1.00  0.00     0.047 C 
BRANCH  17  18
HETATM   18  C   UNL     1     -11.856   2.375 -33.192  1.00  0.00     0.236 C 
BRANCH  18  19
HETATM   19  N   UNL     1     -13.350   2.191 -33.436  1.00  0.00    -0.072 N 
HETATM   20  H   UNL     1     -13.518   2.635 -34.350  1.00  0.00     0.279 HD
BRANCH  19  21
HETATM   21  C   UNL     1     -14.258   2.929 -32.463  1.00  0.00     0.230 C 
HETATM   22  C   UNL     1     -13.468   3.776 -31.482  1.00  0.00     0.034 C 
ENDBRANCH  19  21
BRANCH  19  23
HETATM   23  C   UNL     1     -13.804   0.751 -33.599  1.00  0.00     0.230 C 
HETATM   24  C   UNL     1     -15.114   0.660 -34.357  1.00  0.00     0.034 C 
ENDBRANCH  19  23
ENDBRANCH  18  19
ENDBRANCH  17  18
ENDBRANCH  16  17
ENDBRANCH  13  16
ENDBRANCH   1  12
BRANCH   7  25
HETATM   25  C   UNL     1      -1.893   5.581 -34.143  1.00  0.00     0.236 C 
BRANCH  25  26
HETATM   26  C   UNL     1      -1.463   6.743 -33.240  1.00  0.00     0.240 C 
HETATM   27  N   UNL     1      -1.123   6.313 -31.966  1.00  0.00    -0.326 N 
HETATM   28  H   UNL     1      -1.012   5.315 -31.828  1.00  0.00     0.169 HD
HETATM   29  O   UNL     1      -1.525   7.905 -33.627  1.00  0.00    -0.271 OA
BRANCH  27  30
HETATM   30  C   UNL     1      -0.874   7.107 -30.825  1.00  0.00     0.036 A 
HETATM   31  C   UNL     1      -1.766   8.049 -30.313  1.00  0.00     0.053 A 
HETATM   32  C   UNL     1      -1.453   8.758 -29.145  1.00  0.00     0.042 A 
HETATM   33 CL   UNL     1      -2.614   9.897 -28.558  1.00  0.00    -0.084 Cl
HETATM   34  C   UNL     1      -0.241   8.542 -28.470  1.00  0.00    -0.040 A 
HETATM   35  C   UNL     1       0.112   9.274 -27.206  1.00  0.00     0.050 C 
HETATM   36  C   UNL     1       0.652   7.600 -28.995  1.00  0.00     0.011 A 
HETATM   37  C   UNL     1       0.338   6.891 -30.157  1.00  0.00     0.030 A 
ENDBRANCH  27  30
ENDBRANCH  25  26
ENDBRANCH   7  25
TORSDOF 10
ENDMDL
MODEL 9
REMARK VINA RESULT:      -7.5      1.821      2.518
REMARK  10 active torsions:
REMARK  status: ('A' for Active; 'I' for Inactive)
REMARK    1  A    between atoms: C_2  and  N_3 
REMARK    2  A    between atoms: N_3  and  C_5 
REMARK    3  A    between atoms: N_3  and  C_34 
REMARK    4  A    between atoms: C_5  and  C_6 
REMARK    5  A    between atoms: C_6  and  C_7 
REMARK    6  A    between atoms: C_7  and  N_8 
REMARK       I    between atoms: N_8  and  C_9 
REMARK    7  A    between atoms: C_9  and  C_10 
REMARK    8  A    between atoms: N_16  and  C_17 
REMARK    9  A    between atoms: C_17  and  C_18 
REMARK       I    between atoms: C_18  and  N_19 
REMARK   10  A    between atoms: N_19  and  C_20 
ROOT
HETATM    1  C   UNL     1      -5.306   2.511 -31.783  1.00  0.00     0.081 A 
HETATM    2  S   UNL     1      -3.656   2.053 -31.710  1.00  0.00    -0.063 SA
HETATM    3  C   UNL     1      -3.129   3.646 -31.969  1.00  0.00     0.116 A 
HETATM    4  C   UNL     1      -4.182   4.521 -32.128  1.00  0.00     0.075 A 
HETATM    5  C   UNL     1      -3.855   5.908 -32.435  1.00  0.00     0.262 A 
HETATM    6  O   UNL     1      -4.713   6.767 -32.626  1.00  0.00    -0.267 OA
HETATM    7  N   UNL     1      -2.490   6.159 -32.547  1.00  0.00    -0.299 N 
HETATM    8  C   UNL     1      -1.548   5.178 -32.297  1.00  0.00     0.214 A 
HETATM    9  N   UNL     1      -1.807   3.940 -32.021  1.00  0.00    -0.235 NA
HETATM   10  C   UNL     1      -5.467   3.878 -31.975  1.00  0.00    -0.021 A 
HETATM   11  C   UNL     1      -6.788   4.576 -32.076  1.00  0.00     0.051 C 
ENDROOT
BRANCH   1  12
HETATM   12  C   UNL     1      -6.316   1.486 -31.602  1.00  0.00     0.259 C 
HETATM   13  N   UNL     1      -7.007   1.148 -32.752  1.00  0.00    -0.356 N 
HETATM   14  H   UNL     1      -6.819   1.694 -33.588  1.00  0.00     0.162 HD
HETATM   15  O   UNL     1      -6.545   0.916 -30.538  1.00  0.00    -0.267 OA
BRANCH  13  16
HETATM   16  C   UNL     1      -8.071   0.170 -32.763  1.00  0.00     0.124 C 
BRANCH  16  17
HETATM   17  C   UNL     1      -8.066  -0.671 -34.042  1.00  0.00     0.047 C 
BRANCH  17  18
HETATM   18  C   UNL     1      -6.663  -0.830 -34.622  1.00  0.00     0.236 C 
BRANCH  18  19
HETATM   19  N   UNL     1      -5.890  -1.988 -33.999  1.00  0.00    -0.072 N 
HETATM   20  H   UNL     1      -6.549  -2.403 -33.324  1.00  0.00     0.279 HD
BRANCH  19  21
HETATM   21  C   UNL     1      -4.679  -1.585 -33.173  1.00  0.00     0.230 C 
HETATM   22  C   UNL     1      -3.722  -2.744 -32.965  1.00  0.00     0.034 C 
ENDBRANCH  19  21
BRANCH  19  23
HETATM   23  C   UNL     1      -5.532  -3.113 -34.955  1.00  0.00     0.230 C 
HETATM   24  C   UNL     1      -6.626  -4.161 -35.019  1.00  0.00     0.034 C 
ENDBRANCH  19  23
ENDBRANCH  18  19
ENDBRANCH  17  18
ENDBRANCH  16  17
ENDBRANCH  13  16
ENDBRANCH   1  12
BRANCH   7  25
HETATM   25  C   UNL     1      -2.061   7.485 -32.954  1.00  0.00     0.236 C 
BRANCH  25  26
HETATM   26  C   UNL     1      -1.764   8.382 -31.748  1.00  0.00     0.240 C 
HETATM   27  N   UNL     1      -1.193   7.675 -30.700  1.00  0.00    -0.326 N 
HETATM   28  H   UNL     1      -0.871   6.734 -30.898  1.00  0.00     0.169 HD
HETATM   29  O   UNL     1      -2.100   9.562 -31.735  1.00  0.00    -0.271 OA
BRANCH  27  30
HETATM   30  C   UNL     1      -0.969   8.118 -29.379  1.00  0.00     0.036 A 
HETATM   31  C   UNL     1       0.256   8.035 -28.719  1.00  0.00     0.053 A 
HETATM   32  C   UNL     1       0.397   8.546 -27.420  1.00  0.00     0.042 A 
HETATM   33 CL   UNL     1       1.951   8.425 -26.671  1.00  0.00    -0.084 Cl
HETATM   34  C   UNL     1      -0.686   9.144 -26.757  1.00  0.00    -0.040 A 
HETATM   35  C   UNL     1      -0.558   9.716 -25.373  1.00  0.00     0.050 C 
HETATM   36  C   UNL     1      -1.915   9.216 -27.424  1.00  0.00     0.011 A 
HETATM   37  C   UNL     1      -2.053   8.710 -28.719  1.00  0.00     0.030 A 
ENDBRANCH  27  30
ENDBRANCH  25  26
ENDBRANCH   7  25
TORSDOF 10
ENDMDL
MODEL 10
REMARK VINA RESULT:      -7.4      3.578      5.159
REMARK  10 active torsions:
REMARK  status: ('A' for Active; 'I' for Inactive)
REMARK    1  A    between atoms: C_2  and  N_3 
REMARK    2  A    between atoms: N_3  and  C_5 
REMARK    3  A    between atoms: N_3  and  C_34 
REMARK    4  A    between atoms: C_5  and  C_6 
REMARK    5  A    between atoms: C_6  and  C_7 
REMARK    6  A    between atoms: C_7  and  N_8 
REMARK       I    between atoms: N_8  and  C_9 
REMARK    7  A    between atoms: C_9  and  C_10 
REMARK    8  A    between atoms: N_16  and  C_17 
REMARK    9  A    between atoms: C_17  and  C_18 
REMARK       I    between atoms: C_18  and  N_19 
REMARK   10  A    between atoms: N_19  and  C_20 
ROOT
HETATM    1  C   UNL     1      -8.107   2.057 -33.010  1.00  0.00     0.081 A 
HETATM    2  S   UNL     1      -8.213   3.586 -33.776  1.00  0.00    -0.063 SA
HETATM    3  C   UNL     1      -6.538   3.838 -33.663  1.00  0.00     0.116 A 
HETATM    4  C   UNL     1      -5.898   2.790 -33.038  1.00  0.00     0.075 A 
HETATM    5  C   UNL     1      -4.464   2.926 -32.811  1.00  0.00     0.262 A 
HETATM    6  O   UNL     1      -3.797   2.068 -32.238  1.00  0.00    -0.267 OA
HETATM    7  N   UNL     1      -3.931   4.134 -33.251  1.00  0.00    -0.299 N 
HETATM    8  C   UNL     1      -4.701   5.068 -33.920  1.00  0.00     0.214 A 
HETATM    9  N   UNL     1      -5.974   4.975 -34.137  1.00  0.00    -0.235 NA
HETATM   10  C   UNL     1      -6.799   1.716 -32.690  1.00  0.00    -0.021 A 
HETATM   11  C   UNL     1      -6.389   0.441 -32.019  1.00  0.00     0.051 C 
ENDROOT
BRANCH   1  12
HETATM   12  C   UNL     1      -9.326   1.292 -32.822  1.00  0.00     0.259 C 
HETATM   13  N   UNL     1     -10.290   1.495 -33.792  1.00  0.00    -0.356 N 
HETATM   14  H   UNL     1     -10.108   2.212 -34.489  1.00  0.00     0.162 HD
HETATM   15  O   UNL     1      -9.509   0.492 -31.907  1.00  0.00    -0.267 OA
BRANCH  13  16
HETATM   16  C   UNL     1     -11.581   0.846 -33.757  1.00  0.00     0.124 C 
BRANCH  16  17
HETATM   17  C   UNL     1     -12.502   1.335 -34.877  1.00  0.00     0.047 C 
BRANCH  17  18
HETATM   18  C   UNL     1     -13.895   1.693 -34.362  1.00  0.00     0.236 C 
BRANCH  18  19
HETATM   19  N   UNL     1     -13.972   3.104 -33.788  1.00  0.00    -0.072 N 
HETATM   20  H   UNL     1     -14.752   3.546 -34.294  1.00  0.00     0.279 HD
BRANCH  19  21
HETATM   21  C   UNL     1     -12.764   3.983 -34.076  1.00  0.00     0.230 C 
HETATM   22  C   UNL     1     -12.912   4.738 -35.384  1.00  0.00     0.034 C 
ENDBRANCH  19  21
BRANCH  19  23
HETATM   23  C   UNL     1     -14.349   3.182 -32.319  1.00  0.00     0.230 C 
HETATM   24  C   UNL     1     -15.522   2.277 -31.994  1.00  0.00     0.034 C 
ENDBRANCH  19  23
ENDBRANCH  18  19
ENDBRANCH  17  18
ENDBRANCH  16  17
ENDBRANCH  13  16
ENDBRANCH   1  12
BRANCH   7  25
HETATM   25  C   UNL     1      -2.533   4.414 -32.979  1.00  0.00     0.236 C 
BRANCH  25  26
HETATM   26  C   UNL     1      -2.352   5.204 -31.679  1.00  0.00     0.240 C 
HETATM   27  N   UNL     1      -1.030   5.565 -31.468  1.00  0.00    -0.326 N 
HETATM   28  H   UNL     1      -0.388   5.446 -32.244  1.00  0.00     0.169 HD
HETATM   29  O   UNL     1      -3.290   5.384 -30.909  1.00  0.00    -0.271 OA
BRANCH  27  30
HETATM   30  C   UNL     1      -0.461   6.118 -30.300  1.00  0.00     0.036 A 
HETATM   31  C   UNL     1      -0.746   7.393 -29.815  1.00  0.00     0.053 A 
HETATM   32  C   UNL     1      -0.168   7.841 -28.618  1.00  0.00     0.042 A 
HETATM   33 CL   UNL     1      -0.583   9.427 -28.067  1.00  0.00    -0.084 Cl
HETATM   34  C   UNL     1       0.708   7.024 -27.889  1.00  0.00    -0.040 A 
HETATM   35  C   UNL     1       1.327   7.471 -26.594  1.00  0.00     0.050 C 
HETATM   36  C   UNL     1       0.996   5.747 -28.387  1.00  0.00     0.011 A 
HETATM   37  C   UNL     1       0.417   5.301 -29.577  1.00  0.00     0.030 A 
ENDBRANCH  27  30
ENDBRANCH  25  26
ENDBRANCH   7  25
TORSDOF 10
ENDMDL
