MODEL 1
REMARK VINA RESULT:      -9.6      0.000      0.000
REMARK  8 active torsions:
REMARK  status: ('A' for Active; 'I' for Inactive)
REMARK    1  A    between atoms: C_2  and  C_3 
REMARK    2  A    between atoms: C_3  and  C_4 
REMARK    3  A    between atoms: C_3  and  C_38 
REMARK    4  A    between atoms: C_6  and  C_7 
REMARK    5  A    between atoms: C_14  and  C_15 
REMARK    6  A    between atoms: C_18  and  C_19 
REMARK    7  A    between atoms: C_19  and  N_20 
REMARK       I    between atoms: N_20  and  C_21 
REMARK       I    between atoms: C_21  and  N_22 
REMARK    8  A    between atoms: N_22  and  C_23 
ROOT
HETATM    1  C   UNL     1      -0.960   6.741 -29.039  1.00  0.00     0.037 A 
HETATM    2  C   UNL     1      -1.436   7.280 -27.840  1.00  0.00     0.052 A 
HETATM    3  C   UNL     1      -0.656   8.184 -27.106  1.00  0.00     0.046 A 
HETATM    4  C   UNL     1      -1.160   8.719 -25.875  1.00  0.00     0.099 C 
HETATM    5  N   UNL     1      -1.593   9.141 -24.885  1.00  0.00    -0.191 NA
HETATM    6  C   UNL     1       0.609   8.551 -27.570  1.00  0.00     0.023 A 
HETATM    7  C   UNL     1       1.093   8.013 -28.762  1.00  0.00     0.004 A 
HETATM    8  C   UNL     1       0.313   7.108 -29.489  1.00  0.00     0.029 A 
ENDROOT
BRANCH   1   9
HETATM    9  N   UNL     1      -1.681   5.801 -29.806  1.00  0.00    -0.309 N 
HETATM   10  C   UNL     1      -2.764   6.054 -30.607  1.00  0.00     0.320 C 
HETATM   11  N   UNL     1      -3.369   4.896 -31.039  1.00  0.00    -0.341 N 
HETATM   12  O   UNL     1      -3.169   7.153 -30.972  1.00  0.00    -0.247 OA
HETATM   13  H   UNL     1      -3.233   4.111 -30.412  1.00  0.00     0.164 HD
HETATM   14  H   UNL     1      -1.273   4.877 -29.878  1.00  0.00     0.170 HD
BRANCH  11  15
HETATM   15  C   UNL     1      -4.646   4.909 -31.754  1.00  0.00     0.157 C 
BRANCH  15  16
HETATM   16  C   UNL     1      -5.870   5.307 -30.893  1.00  0.00     0.206 C 
HETATM   17  C   UNL     1      -7.218   5.140 -31.616  1.00  0.00     0.040 C 
HETATM   18  C   UNL     1      -8.281   4.571 -30.648  1.00  0.00     0.001 C 
HETATM   19  C   UNL     1      -7.903   3.111 -30.273  1.00  0.00     0.068 C 
HETATM   20  C   UNL     1      -8.252   5.408 -29.347  1.00  0.00     0.033 C 
HETATM   21  C   UNL     1      -6.439   3.092 -29.779  1.00  0.00     0.246 C 
HETATM   22  N   UNL     1      -5.978   4.532 -29.582  1.00  0.00    -0.065 N 
HETATM   23  C   UNL     1      -6.902   5.253 -28.634  1.00  0.00     0.236 C 
HETATM   24  H   UNL     1      -5.021   4.476 -29.170  1.00  0.00     0.280 HD
BRANCH  19  25
HETATM   25  C   UNL     1      -8.187   2.121 -31.384  1.00  0.00     0.045 A 
HETATM   26  N   UNL     1      -9.405   2.145 -31.957  1.00  0.00    -0.233 NA
HETATM   27  C   UNL     1      -9.630   1.274 -32.966  1.00  0.00     0.160 A 
HETATM   28  N   UNL     1      -8.739   0.355 -33.381  1.00  0.00    -0.233 NA
HETATM   29  C   UNL     1      -7.531   0.334 -32.788  1.00  0.00     0.043 A 
HETATM   30  C   UNL     1      -7.210   1.222 -31.775  1.00  0.00     0.055 A 
BRANCH  27  31
HETATM   31  C   UNL     1     -10.913   1.372 -33.687  1.00  0.00     0.014 A 
HETATM   32  C   UNL     1     -11.906   0.390 -33.553  1.00  0.00     0.034 A 
HETATM   33  C   UNL     1     -13.086   0.506 -34.270  1.00  0.00     0.117 A 
HETATM   34  N   UNL     1     -13.353   1.527 -35.107  1.00  0.00    -0.273 NA
HETATM   35  C   UNL     1     -12.399   2.467 -35.238  1.00  0.00     0.117 A 
HETATM   36  C   UNL     1     -11.188   2.434 -34.562  1.00  0.00     0.034 A 
ENDBRANCH  27  31
BRANCH  29  37
HETATM   37  C   UNL     1      -6.515  -0.709 -33.237  1.00  0.00     0.037 C 
BRANCH  37  38
HETATM   38  C   UNL     1      -5.063  -0.174 -33.183  1.00  0.00     0.006 C 
HETATM   39  C   UNL     1      -3.958  -1.220 -33.100  1.00  0.00     0.006 C 
ENDBRANCH  37  38
BRANCH  37  40
HETATM   40  C   UNL     1      -6.877  -1.310 -34.610  1.00  0.00     0.006 C 
HETATM   41  C   UNL     1      -6.945  -2.833 -34.605  1.00  0.00     0.006 C 
ENDBRANCH  37  40
ENDBRANCH  29  37
ENDBRANCH  19  25
ENDBRANCH  15  16
ENDBRANCH  11  15
ENDBRANCH   1   9
TORSDOF 8
ENDMDL
MODEL 2
REMARK VINA RESULT:      -9.3      3.078      6.210
REMARK  8 active torsions:
REMARK  status: ('A' for Active; 'I' for Inactive)
REMARK    1  A    between atoms: C_2  and  C_3 
REMARK    2  A    between atoms: C_3  and  C_4 
REMARK    3  A    between atoms: C_3  and  C_38 
REMARK    4  A    between atoms: C_6  and  C_7 
REMARK    5  A    between atoms: C_14  and  C_15 
REMARK    6  A    between atoms: C_18  and  C_19 
REMARK    7  A    between atoms: C_19  and  N_20 
REMARK       I    between atoms: N_20  and  C_21 
REMARK       I    between atoms: C_21  and  N_22 
REMARK    8  A    between atoms: N_22  and  C_23 
ROOT
HETATM    1  C   UNL     1      -3.207   4.871 -33.081  1.00  0.00     0.037 A 
HETATM    2  C   UNL     1      -3.115   6.128 -32.475  1.00  0.00     0.052 A 
HETATM    3  C   UNL     1      -2.142   7.049 -32.889  1.00  0.00     0.046 A 
HETATM    4  C   UNL     1      -2.060   8.328 -32.248  1.00  0.00     0.099 C 
HETATM    5  N   UNL     1      -2.018   9.359 -31.717  1.00  0.00    -0.191 NA
HETATM    6  C   UNL     1      -1.254   6.712 -33.912  1.00  0.00     0.023 A 
HETATM    7  C   UNL     1      -1.336   5.459 -34.517  1.00  0.00     0.004 A 
HETATM    8  C   UNL     1      -2.305   4.541 -34.099  1.00  0.00     0.029 A 
ENDROOT
BRANCH   1   9
HETATM    9  N   UNL     1      -4.140   3.888 -32.688  1.00  0.00    -0.309 N 
HETATM   10  C   UNL     1      -3.882   2.760 -31.954  1.00  0.00     0.320 C 
HETATM   11  N   UNL     1      -4.957   1.901 -31.932  1.00  0.00    -0.341 N 
HETATM   12  O   UNL     1      -2.858   2.507 -31.329  1.00  0.00    -0.247 OA
HETATM   13  H   UNL     1      -5.561   1.988 -32.742  1.00  0.00     0.164 HD
HETATM   14  H   UNL     1      -5.115   4.111 -32.846  1.00  0.00     0.170 HD
BRANCH  11  15
HETATM   15  C   UNL     1      -4.863   0.554 -31.366  1.00  0.00     0.157 C 
BRANCH  15  16
HETATM   16  C   UNL     1      -5.498  -0.561 -32.234  1.00  0.00     0.206 C 
HETATM   17  C   UNL     1      -7.024  -0.672 -32.081  1.00  0.00     0.040 C 
HETATM   18  C   UNL     1      -7.685  -0.940 -33.453  1.00  0.00     0.001 C 
HETATM   19  C   UNL     1      -7.515   0.313 -34.357  1.00  0.00     0.068 C 
HETATM   20  C   UNL     1      -6.934  -2.109 -34.135  1.00  0.00     0.033 C 
HETATM   21  C   UNL     1      -6.022   0.710 -34.375  1.00  0.00     0.246 C 
HETATM   22  N   UNL     1      -5.218  -0.412 -33.727  1.00  0.00    -0.065 N 
HETATM   23  C   UNL     1      -5.481  -1.719 -34.431  1.00  0.00     0.236 C 
HETATM   24  H   UNL     1      -4.214  -0.148 -33.835  1.00  0.00     0.280 HD
BRANCH  19  25
HETATM   25  C   UNL     1      -8.445   1.447 -33.977  1.00  0.00     0.045 A 
HETATM   26  N   UNL     1      -7.926   2.493 -33.306  1.00  0.00    -0.233 NA
HETATM   27  C   UNL     1      -8.765   3.509 -33.002  1.00  0.00     0.160 A 
HETATM   28  N   UNL     1     -10.083   3.504 -33.272  1.00  0.00    -0.233 NA
HETATM   29  C   UNL     1     -10.589   2.445 -33.930  1.00  0.00     0.043 A 
HETATM   30  C   UNL     1      -9.786   1.383 -34.312  1.00  0.00     0.055 A 
BRANCH  27  31
HETATM   31  C   UNL     1      -8.188   4.715 -32.380  1.00  0.00     0.014 A 
HETATM   32  C   UNL     1      -8.515   5.091 -31.068  1.00  0.00     0.034 A 
HETATM   33  C   UNL     1      -7.973   6.248 -30.531  1.00  0.00     0.117 A 
HETATM   34  N   UNL     1      -7.127   7.056 -31.200  1.00  0.00    -0.273 NA
HETATM   35  C   UNL     1      -6.816   6.696 -32.459  1.00  0.00     0.117 A 
HETATM   36  C   UNL     1      -7.311   5.558 -33.078  1.00  0.00     0.034 A 
ENDBRANCH  27  31
BRANCH  29  37
HETATM   37  C   UNL     1     -12.083   2.418 -34.232  1.00  0.00     0.037 C 
BRANCH  37  38
HETATM   38  C   UNL     1     -12.695   1.010 -34.033  1.00  0.00     0.006 C 
HETATM   39  C   UNL     1     -14.187   0.874 -34.316  1.00  0.00     0.006 C 
ENDBRANCH  37  38
BRANCH  37  40
HETATM   40  C   UNL     1     -12.400   3.015 -35.618  1.00  0.00     0.006 C 
HETATM   41  C   UNL     1     -12.628   4.522 -35.590  1.00  0.00     0.006 C 
ENDBRANCH  37  40
ENDBRANCH  29  37
ENDBRANCH  19  25
ENDBRANCH  15  16
ENDBRANCH  11  15
ENDBRANCH   1   9
TORSDOF 8
ENDMDL
MODEL 3
REMARK VINA RESULT:      -9.3      3.359      6.185
REMARK  8 active torsions:
REMARK  status: ('A' for Active; 'I' for Inactive)
REMARK    1  A    between atoms: C_2  and  C_3 
REMARK    2  A    between atoms: C_3  and  C_4 
REMARK    3  A    between atoms: C_3  and  C_38 
REMARK    4  A    between atoms: C_6  and  C_7 
REMARK    5  A    between atoms: C_14  and  C_15 
REMARK    6  A    between atoms: C_18  and  C_19 
REMARK    7  A    between atoms: C_19  and  N_20 
REMARK       I    between atoms: N_20  and  C_21 
REMARK       I    between atoms: C_21  and  N_22 
REMARK    8  A    between atoms: N_22  and  C_23 
ROOT
HETATM    1  C   UNL     1      -5.481   5.870 -32.966  1.00  0.00     0.037 A 
HETATM    2  C   UNL     1      -4.263   5.979 -33.645  1.00  0.00     0.052 A 
HETATM    3  C   UNL     1      -3.151   6.561 -33.022  1.00  0.00     0.046 A 
HETATM    4  C   UNL     1      -1.914   6.670 -33.739  1.00  0.00     0.099 C 
HETATM    5  N   UNL     1      -0.924   6.742 -34.339  1.00  0.00    -0.191 NA
HETATM    6  C   UNL     1      -3.254   7.040 -31.714  1.00  0.00     0.023 A 
HETATM    7  C   UNL     1      -4.466   6.940 -31.033  1.00  0.00     0.004 A 
HETATM    8  C   UNL     1      -5.576   6.362 -31.659  1.00  0.00     0.029 A 
ENDROOT
BRANCH   1   9
HETATM    9  N   UNL     1      -6.646   5.326 -33.548  1.00  0.00    -0.309 N 
HETATM   10  C   UNL     1      -7.936   5.743 -33.343  1.00  0.00     0.320 C 
HETATM   11  N   UNL     1      -8.852   4.868 -33.880  1.00  0.00    -0.341 N 
HETATM   12  O   UNL     1      -8.296   6.781 -32.798  1.00  0.00    -0.247 OA
HETATM   13  H   UNL     1      -8.513   3.915 -33.944  1.00  0.00     0.164 HD
HETATM   14  H   UNL     1      -6.501   4.656 -34.292  1.00  0.00     0.170 HD
BRANCH  11  15
HETATM   15  C   UNL     1     -10.289   5.002 -33.634  1.00  0.00     0.157 C 
BRANCH  15  16
HETATM   16  C   UNL     1     -11.129   3.750 -33.987  1.00  0.00     0.206 C 
HETATM   17  C   UNL     1     -10.355   2.689 -34.789  1.00  0.00     0.040 C 
HETATM   18  C   UNL     1     -10.716   1.270 -34.294  1.00  0.00     0.001 C 
HETATM   19  C   UNL     1     -10.177   1.077 -32.850  1.00  0.00     0.068 C 
HETATM   20  C   UNL     1     -12.259   1.154 -34.234  1.00  0.00     0.033 C 
HETATM   21  C   UNL     1     -10.666   2.257 -31.980  1.00  0.00     0.246 C 
HETATM   22  N   UNL     1     -11.712   3.037 -32.769  1.00  0.00    -0.065 N 
HETATM   23  C   UNL     1     -12.834   2.125 -33.196  1.00  0.00     0.236 C 
HETATM   24  H   UNL     1     -12.077   3.768 -32.121  1.00  0.00     0.280 HD
BRANCH  19  25
HETATM   25  C   UNL     1      -8.679   0.860 -32.801  1.00  0.00     0.045 A 
HETATM   26  N   UNL     1      -8.195  -0.314 -33.247  1.00  0.00    -0.233 NA
HETATM   27  C   UNL     1      -6.853  -0.478 -33.222  1.00  0.00     0.160 A 
HETATM   28  N   UNL     1      -5.992   0.428 -32.725  1.00  0.00    -0.233 NA
HETATM   29  C   UNL     1      -6.493   1.592 -32.269  1.00  0.00     0.043 A 
HETATM   30  C   UNL     1      -7.853   1.851 -32.298  1.00  0.00     0.055 A 
BRANCH  27  31
HETATM   31  C   UNL     1      -6.298  -1.706 -33.822  1.00  0.00     0.014 A 
HETATM   32  C   UNL     1      -4.914  -1.920 -33.905  1.00  0.00     0.034 A 
HETATM   33  C   UNL     1      -4.433  -3.074 -34.502  1.00  0.00     0.117 A 
HETATM   34  N   UNL     1      -5.226  -4.033 -35.018  1.00  0.00    -0.273 NA
HETATM   35  C   UNL     1      -6.554  -3.826 -34.941  1.00  0.00     0.117 A 
HETATM   36  C   UNL     1      -7.124  -2.702 -34.363  1.00  0.00     0.034 A 
ENDBRANCH  27  31
BRANCH  29  37
HETATM   37  C   UNL     1      -5.533   2.624 -31.691  1.00  0.00     0.037 C 
BRANCH  37  38
HETATM   38  C   UNL     1      -4.114   2.510 -32.300  1.00  0.00     0.006 C 
HETATM   39  C   UNL     1      -2.986   3.175 -31.521  1.00  0.00     0.006 C 
ENDBRANCH  37  38
BRANCH  37  40
HETATM   40  C   UNL     1      -5.522   2.600 -30.150  1.00  0.00     0.006 C 
HETATM   41  C   UNL     1      -6.263   3.774 -29.521  1.00  0.00     0.006 C 
ENDBRANCH  37  40
ENDBRANCH  29  37
ENDBRANCH  19  25
ENDBRANCH  15  16
ENDBRANCH  11  15
ENDBRANCH   1   9
TORSDOF 8
ENDMDL
MODEL 4
REMARK VINA RESULT:      -9.3      3.910      8.977
REMARK  8 active torsions:
REMARK  status: ('A' for Active; 'I' for Inactive)
REMARK    1  A    between atoms: C_2  and  C_3 
REMARK    2  A    between atoms: C_3  and  C_4 
REMARK    3  A    between atoms: C_3  and  C_38 
REMARK    4  A    between atoms: C_6  and  C_7 
REMARK    5  A    between atoms: C_14  and  C_15 
REMARK    6  A    between atoms: C_18  and  C_19 
REMARK    7  A    between atoms: C_19  and  N_20 
REMARK       I    between atoms: N_20  and  C_21 
REMARK       I    between atoms: C_21  and  N_22 
REMARK    8  A    between atoms: N_22  and  C_23 
ROOT
HETATM    1  C   UNL     1      -6.332  -0.556 -34.419  1.00  0.00     0.037 A 
HETATM    2  C   UNL     1      -6.728  -1.811 -34.893  1.00  0.00     0.052 A 
HETATM    3  C   UNL     1      -5.881  -2.920 -34.767  1.00  0.00     0.046 A 
HETATM    4  C   UNL     1      -6.303  -4.196 -35.267  1.00  0.00     0.099 C 
HETATM    5  N   UNL     1      -6.671  -5.218 -35.674  1.00  0.00    -0.191 NA
HETATM    6  C   UNL     1      -4.628  -2.777 -34.166  1.00  0.00     0.023 A 
HETATM    7  C   UNL     1      -4.224  -1.528 -33.697  1.00  0.00     0.004 A 
HETATM    8  C   UNL     1      -5.071  -0.422 -33.828  1.00  0.00     0.029 A 
ENDROOT
BRANCH   1   9
HETATM    9  N   UNL     1      -7.124   0.605 -34.546  1.00  0.00    -0.309 N 
HETATM   10  C   UNL     1      -8.388   0.794 -34.050  1.00  0.00     0.320 C 
HETATM   11  N   UNL     1      -8.965   1.945 -34.534  1.00  0.00    -0.341 N 
HETATM   12  O   UNL     1      -8.971   0.088 -33.234  1.00  0.00    -0.247 OA
HETATM   13  H   UNL     1      -8.607   2.228 -35.440  1.00  0.00     0.164 HD
HETATM   14  H   UNL     1      -6.659   1.422 -34.920  1.00  0.00     0.170 HD
BRANCH  11  15
HETATM   15  C   UNL     1     -10.372   2.268 -34.292  1.00  0.00     0.157 C 
BRANCH  15  16
HETATM   16  C   UNL     1     -10.610   3.534 -33.431  1.00  0.00     0.206 C 
HETATM   17  C   UNL     1      -9.755   3.585 -32.154  1.00  0.00     0.040 C 
HETATM   18  C   UNL     1      -9.239   5.022 -31.909  1.00  0.00     0.001 C 
HETATM   19  C   UNL     1      -8.225   5.401 -33.023  1.00  0.00     0.068 C 
HETATM   20  C   UNL     1     -10.439   5.995 -32.021  1.00  0.00     0.033 C 
HETATM   21  C   UNL     1      -8.877   5.127 -34.397  1.00  0.00     0.246 C 
HETATM   22  N   UNL     1     -10.359   4.841 -34.179  1.00  0.00    -0.065 N 
HETATM   23  C   UNL     1     -11.010   5.985 -33.444  1.00  0.00     0.236 C 
HETATM   24  H   UNL     1     -10.778   4.747 -35.130  1.00  0.00     0.280 HD
BRANCH  19  25
HETATM   25  C   UNL     1      -6.874   4.740 -32.844  1.00  0.00     0.045 A 
HETATM   26  N   UNL     1      -5.788   5.382 -33.314  1.00  0.00    -0.233 NA
HETATM   27  C   UNL     1      -4.588   4.791 -33.119  1.00  0.00     0.160 A 
HETATM   28  N   UNL     1      -4.427   3.584 -32.547  1.00  0.00    -0.233 NA
HETATM   29  C   UNL     1      -5.524   2.947 -32.095  1.00  0.00     0.043 A 
HETATM   30  C   UNL     1      -6.784   3.507 -32.221  1.00  0.00     0.055 A 
BRANCH  27  31
HETATM   31  C   UNL     1      -3.380   5.538 -33.515  1.00  0.00     0.014 A 
HETATM   32  C   UNL     1      -2.446   4.998 -34.412  1.00  0.00     0.034 A 
HETATM   33  C   UNL     1      -1.309   5.722 -34.736  1.00  0.00     0.117 A 
HETATM   34  N   UNL     1      -1.035   6.943 -34.237  1.00  0.00    -0.273 NA
HETATM   35  C   UNL     1      -1.930   7.459 -33.374  1.00  0.00     0.117 A 
HETATM   36  C   UNL     1      -3.093   6.808 -32.992  1.00  0.00     0.034 A 
ENDBRANCH  27  31
BRANCH  29  37
HETATM   37  C   UNL     1      -5.361   1.574 -31.456  1.00  0.00     0.037 C 
BRANCH  37  38
HETATM   38  C   UNL     1      -6.640   1.118 -30.714  1.00  0.00     0.006 C 
HETATM   39  C   UNL     1      -6.784  -0.380 -30.470  1.00  0.00     0.006 C 
ENDBRANCH  37  38
BRANCH  37  40
HETATM   40  C   UNL     1      -4.100   1.498 -30.572  1.00  0.00     0.006 C 
HETATM   41  C   UNL     1      -3.075   0.484 -31.065  1.00  0.00     0.006 C 
ENDBRANCH  37  40
ENDBRANCH  29  37
ENDBRANCH  19  25
ENDBRANCH  15  16
ENDBRANCH  11  15
ENDBRANCH   1   9
TORSDOF 8
ENDMDL
MODEL 5
REMARK VINA RESULT:      -9.2      4.538      9.171
REMARK  8 active torsions:
REMARK  status: ('A' for Active; 'I' for Inactive)
REMARK    1  A    between atoms: C_2  and  C_3 
REMARK    2  A    between atoms: C_3  and  C_4 
REMARK    3  A    between atoms: C_3  and  C_38 
REMARK    4  A    between atoms: C_6  and  C_7 
REMARK    5  A    between atoms: C_14  and  C_15 
REMARK    6  A    between atoms: C_18  and  C_19 
REMARK    7  A    between atoms: C_19  and  N_20 
REMARK       I    between atoms: N_20  and  C_21 
REMARK       I    between atoms: C_21  and  N_22 
REMARK    8  A    between atoms: N_22  and  C_23 
ROOT
HETATM    1  C   UNL     1     -11.551   8.508 -36.761  1.00  0.00     0.037 A 
HETATM    2  C   UNL     1     -10.686   9.401 -37.403  1.00  0.00     0.052 A 
HETATM    3  C   UNL     1     -11.016   9.937 -38.655  1.00  0.00     0.046 A 
HETATM    4  C   UNL     1     -10.111  10.844 -39.298  1.00  0.00     0.099 C 
HETATM    5  N   UNL     1      -9.364  11.580 -39.795  1.00  0.00    -0.191 NA
HETATM    6  C   UNL     1     -12.216   9.578 -39.273  1.00  0.00     0.023 A 
HETATM    7  C   UNL     1     -13.080   8.684 -38.643  1.00  0.00     0.004 A 
HETATM    8  C   UNL     1     -12.746   8.148 -37.395  1.00  0.00     0.029 A 
ENDROOT
BRANCH   1   9
HETATM    9  N   UNL     1     -11.262   7.908 -35.517  1.00  0.00    -0.309 N 
HETATM   10  C   UNL     1     -10.507   6.783 -35.306  1.00  0.00     0.320 C 
HETATM   11  N   UNL     1     -10.602   6.335 -34.008  1.00  0.00    -0.341 N 
HETATM   12  O   UNL     1      -9.778   6.223 -36.117  1.00  0.00    -0.247 OA
HETATM   13  H   UNL     1     -11.471   6.592 -33.554  1.00  0.00     0.164 HD
HETATM   14  H   UNL     1     -11.522   8.438 -34.696  1.00  0.00     0.170 HD
BRANCH  11  15
HETATM   15  C   UNL     1     -10.034   5.054 -33.587  1.00  0.00     0.157 C 
BRANCH  15  16
HETATM   16  C   UNL     1     -10.937   3.824 -33.850  1.00  0.00     0.206 C 
HETATM   17  C   UNL     1     -10.320   2.797 -34.815  1.00  0.00     0.040 C 
HETATM   18  C   UNL     1     -10.614   1.358 -34.330  1.00  0.00     0.001 C 
HETATM   19  C   UNL     1      -9.847   1.097 -33.004  1.00  0.00     0.068 C 
HETATM   20  C   UNL     1     -12.127   1.249 -34.020  1.00  0.00     0.033 C 
HETATM   21  C   UNL     1     -10.169   2.238 -32.014  1.00  0.00     0.246 C 
HETATM   22  N   UNL     1     -11.320   3.060 -32.585  1.00  0.00    -0.065 N 
HETATM   23  C   UNL     1     -12.510   2.176 -32.859  1.00  0.00     0.236 C 
HETATM   24  H   UNL     1     -11.563   3.763 -31.853  1.00  0.00     0.280 HD
BRANCH  19  25
HETATM   25  C   UNL     1      -8.364   0.868 -33.214  1.00  0.00     0.045 A 
HETATM   26  N   UNL     1      -7.515   1.845 -32.841  1.00  0.00    -0.233 NA
HETATM   27  C   UNL     1      -6.194   1.611 -33.009  1.00  0.00     0.160 A 
HETATM   28  N   UNL     1      -5.691   0.501 -33.577  1.00  0.00    -0.233 NA
HETATM   29  C   UNL     1      -6.554  -0.461 -33.958  1.00  0.00     0.043 A 
HETATM   30  C   UNL     1      -7.920  -0.313 -33.782  1.00  0.00     0.055 A 
BRANCH  27  31
HETATM   31  C   UNL     1      -5.246   2.616 -32.491  1.00  0.00     0.014 A 
HETATM   32  C   UNL     1      -3.868   2.359 -32.430  1.00  0.00     0.034 A 
HETATM   33  C   UNL     1      -3.014   3.320 -31.910  1.00  0.00     0.117 A 
HETATM   34  N   UNL     1      -3.429   4.517 -31.452  1.00  0.00    -0.273 NA
HETATM   35  C   UNL     1      -4.751   4.761 -31.509  1.00  0.00     0.117 A 
HETATM   36  C   UNL     1      -5.679   3.861 -32.010  1.00  0.00     0.034 A 
ENDBRANCH  27  31
BRANCH  29  37
HETATM   37  C   UNL     1      -6.002  -1.719 -34.616  1.00  0.00     0.037 C 
BRANCH  37  38
HETATM   38  C   UNL     1      -6.886  -2.960 -34.339  1.00  0.00     0.006 C 
HETATM   39  C   UNL     1      -6.611  -4.191 -35.194  1.00  0.00     0.006 C 
ENDBRANCH  37  38
BRANCH  37  40
HETATM   40  C   UNL     1      -4.520  -1.952 -34.259  1.00  0.00     0.006 C 
HETATM   41  C   UNL     1      -4.301  -2.327 -32.798  1.00  0.00     0.006 C 
ENDBRANCH  37  40
ENDBRANCH  29  37
ENDBRANCH  19  25
ENDBRANCH  15  16
ENDBRANCH  11  15
ENDBRANCH   1   9
TORSDOF 8
ENDMDL
MODEL 6
REMARK VINA RESULT:      -9.2      2.723      6.130
REMARK  8 active torsions:
REMARK  status: ('A' for Active; 'I' for Inactive)
REMARK    1  A    between atoms: C_2  and  C_3 
REMARK    2  A    between atoms: C_3  and  C_4 
REMARK    3  A    between atoms: C_3  and  C_38 
REMARK    4  A    between atoms: C_6  and  C_7 
REMARK    5  A    between atoms: C_14  and  C_15 
REMARK    6  A    between atoms: C_18  and  C_19 
REMARK    7  A    between atoms: C_19  and  N_20 
REMARK       I    between atoms: N_20  and  C_21 
REMARK       I    between atoms: C_21  and  N_22 
REMARK    8  A    between atoms: N_22  and  C_23 
ROOT
HETATM    1  C   UNL     1      -7.761   4.481 -30.058  1.00  0.00     0.037 A 
HETATM    2  C   UNL     1      -8.619   5.558 -30.302  1.00  0.00     0.052 A 
HETATM    3  C   UNL     1      -9.965   5.338 -30.624  1.00  0.00     0.046 A 
HETATM    4  C   UNL     1     -10.825   6.456 -30.879  1.00  0.00     0.099 C 
HETATM    5  N   UNL     1     -11.501   7.378 -31.075  1.00  0.00    -0.191 NA
HETATM    6  C   UNL     1     -10.459   4.034 -30.706  1.00  0.00     0.023 A 
HETATM    7  C   UNL     1      -9.608   2.955 -30.470  1.00  0.00     0.004 A 
HETATM    8  C   UNL     1      -8.265   3.179 -30.153  1.00  0.00     0.029 A 
ENDROOT
BRANCH   1   9
HETATM    9  N   UNL     1      -6.390   4.634 -29.763  1.00  0.00    -0.309 N 
HETATM   10  C   UNL     1      -5.638   5.769 -29.925  1.00  0.00     0.320 C 
HETATM   11  N   UNL     1      -4.295   5.526 -29.756  1.00  0.00    -0.341 N 
HETATM   12  O   UNL     1      -6.054   6.902 -30.146  1.00  0.00    -0.247 OA
HETATM   13  H   UNL     1      -4.026   4.571 -29.966  1.00  0.00     0.164 HD
HETATM   14  H   UNL     1      -5.956   3.874 -29.255  1.00  0.00     0.170 HD
BRANCH  11  15
HETATM   15  C   UNL     1      -3.280   6.539 -30.055  1.00  0.00     0.157 C 
BRANCH  15  16
HETATM   16  C   UNL     1      -2.332   6.182 -31.227  1.00  0.00     0.206 C 
HETATM   17  C   UNL     1      -2.279   4.679 -31.547  1.00  0.00     0.040 C 
HETATM   18  C   UNL     1      -2.242   4.455 -33.077  1.00  0.00     0.001 C 
HETATM   19  C   UNL     1      -3.599   4.896 -33.693  1.00  0.00     0.068 C 
HETATM   20  C   UNL     1      -1.142   5.366 -33.675  1.00  0.00     0.033 C 
HETATM   21  C   UNL     1      -3.916   6.330 -33.212  1.00  0.00     0.246 C 
HETATM   22  N   UNL     1      -2.674   6.896 -32.533  1.00  0.00    -0.065 N 
HETATM   23  C   UNL     1      -1.495   6.845 -33.470  1.00  0.00     0.236 C 
HETATM   24  H   UNL     1      -2.899   7.888 -32.301  1.00  0.00     0.280 HD
BRANCH  19  25
HETATM   25  C   UNL     1      -4.715   3.904 -33.438  1.00  0.00     0.045 A 
HETATM   26  N   UNL     1      -5.979   4.298 -33.682  1.00  0.00    -0.233 NA
HETATM   27  C   UNL     1      -6.960   3.390 -33.476  1.00  0.00     0.160 A 
HETATM   28  N   UNL     1      -6.751   2.154 -32.988  1.00  0.00    -0.233 NA
HETATM   29  C   UNL     1      -5.483   1.780 -32.735  1.00  0.00     0.043 A 
HETATM   30  C   UNL     1      -4.420   2.639 -32.958  1.00  0.00     0.055 A 
BRANCH  27  31
HETATM   31  C   UNL     1      -8.335   3.762 -33.858  1.00  0.00     0.014 A 
HETATM   32  C   UNL     1      -9.319   2.790 -34.091  1.00  0.00     0.034 A 
HETATM   33  C   UNL     1     -10.592   3.181 -34.475  1.00  0.00     0.117 A 
HETATM   34  N   UNL     1     -10.959   4.467 -34.641  1.00  0.00    -0.273 NA
HETATM   35  C   UNL     1     -10.013   5.399 -34.420  1.00  0.00     0.117 A 
HETATM   36  C   UNL     1      -8.715   5.101 -34.034  1.00  0.00     0.034 A 
ENDBRANCH  27  31
BRANCH  29  37
HETATM   37  C   UNL     1      -5.230   0.388 -32.168  1.00  0.00     0.037 C 
BRANCH  37  38
HETATM   38  C   UNL     1      -5.011  -0.665 -33.281  1.00  0.00     0.006 C 
HETATM   39  C   UNL     1      -6.226  -1.496 -33.678  1.00  0.00     0.006 C 
ENDBRANCH  37  38
BRANCH  37  40
HETATM   40  C   UNL     1      -6.320  -0.029 -31.161  1.00  0.00     0.006 C 
HETATM   41  C   UNL     1      -5.991   0.352 -29.722  1.00  0.00     0.006 C 
ENDBRANCH  37  40
ENDBRANCH  29  37
ENDBRANCH  19  25
ENDBRANCH  15  16
ENDBRANCH  11  15
ENDBRANCH   1   9
TORSDOF 8
ENDMDL
MODEL 7
REMARK VINA RESULT:      -9.1      3.904      7.325
REMARK  8 active torsions:
REMARK  status: ('A' for Active; 'I' for Inactive)
REMARK    1  A    between atoms: C_2  and  C_3 
REMARK    2  A    between atoms: C_3  and  C_4 
REMARK    3  A    between atoms: C_3  and  C_38 
REMARK    4  A    between atoms: C_6  and  C_7 
REMARK    5  A    between atoms: C_14  and  C_15 
REMARK    6  A    between atoms: C_18  and  C_19 
REMARK    7  A    between atoms: C_19  and  N_20 
REMARK       I    between atoms: N_20  and  C_21 
REMARK       I    between atoms: C_21  and  N_22 
REMARK    8  A    between atoms: N_22  and  C_23 
ROOT
HETATM    1  C   UNL     1     -11.788   4.249 -31.727  1.00  0.00     0.037 A 
HETATM    2  C   UNL     1     -12.029   5.093 -32.816  1.00  0.00     0.052 A 
HETATM    3  C   UNL     1     -13.336   5.313 -33.272  1.00  0.00     0.046 A 
HETATM    4  C   UNL     1     -13.560   6.175 -34.395  1.00  0.00     0.099 C 
HETATM    5  N   UNL     1     -13.714   6.882 -35.302  1.00  0.00    -0.191 NA
HETATM    6  C   UNL     1     -14.411   4.684 -32.638  1.00  0.00     0.023 A 
HETATM    7  C   UNL     1     -14.178   3.837 -31.556  1.00  0.00     0.004 A 
HETATM    8  C   UNL     1     -12.872   3.617 -31.107  1.00  0.00     0.029 A 
ENDROOT
BRANCH   1   9
HETATM    9  N   UNL     1     -10.495   3.960 -31.242  1.00  0.00    -0.309 N 
HETATM   10  C   UNL     1      -9.631   4.836 -30.638  1.00  0.00     0.320 C 
HETATM   11  N   UNL     1      -8.374   4.298 -30.486  1.00  0.00    -0.341 N 
HETATM   12  O   UNL     1      -9.895   5.958 -30.219  1.00  0.00    -0.247 OA
HETATM   13  H   UNL     1      -8.153   3.584 -31.171  1.00  0.00     0.164 HD
HETATM   14  H   UNL     1     -10.239   2.981 -31.214  1.00  0.00     0.170 HD
BRANCH  11  15
HETATM   15  C   UNL     1      -7.236   5.101 -30.033  1.00  0.00     0.157 C 
BRANCH  15  16
HETATM   16  C   UNL     1      -6.033   5.131 -31.008  1.00  0.00     0.206 C 
HETATM   17  C   UNL     1      -5.511   3.735 -31.392  1.00  0.00     0.040 C 
HETATM   18  C   UNL     1      -5.140   3.693 -32.892  1.00  0.00     0.001 C 
HETATM   19  C   UNL     1      -6.432   3.828 -33.744  1.00  0.00     0.068 C 
HETATM   20  C   UNL     1      -4.246   4.917 -33.207  1.00  0.00     0.033 C 
HETATM   21  C   UNL     1      -7.214   5.070 -33.261  1.00  0.00     0.246 C 
HETATM   22  N   UNL     1      -6.320   5.865 -32.316  1.00  0.00    -0.065 N 
HETATM   23  C   UNL     1      -5.024   6.223 -32.998  1.00  0.00     0.236 C 
HETATM   24  H   UNL     1      -6.847   6.734 -32.081  1.00  0.00     0.280 HD
BRANCH  19  25
HETATM   25  C   UNL     1      -7.258   2.558 -33.772  1.00  0.00     0.045 A 
HETATM   26  N   UNL     1      -8.593   2.674 -33.909  1.00  0.00    -0.233 NA
HETATM   27  C   UNL     1      -9.310   1.529 -33.961  1.00  0.00     0.160 A 
HETATM   28  N   UNL     1      -8.779   0.301 -33.822  1.00  0.00    -0.233 NA
HETATM   29  C   UNL     1      -7.445   0.202 -33.672  1.00  0.00     0.043 A 
HETATM   30  C   UNL     1      -6.638   1.327 -33.649  1.00  0.00     0.055 A 
BRANCH  27  31
HETATM   31  C   UNL     1     -10.755   1.633 -34.236  1.00  0.00     0.014 A 
HETATM   32  C   UNL     1     -11.689   0.831 -33.563  1.00  0.00     0.034 A 
HETATM   33  C   UNL     1     -13.036   0.941 -33.871  1.00  0.00     0.117 A 
HETATM   34  N   UNL     1     -13.522   1.792 -34.796  1.00  0.00    -0.273 NA
HETATM   35  C   UNL     1     -12.625   2.559 -35.443  1.00  0.00     0.117 A 
HETATM   36  C   UNL     1     -11.261   2.517 -35.202  1.00  0.00     0.034 A 
ENDBRANCH  27  31
BRANCH  29  37
HETATM   37  C   UNL     1      -6.829  -1.181 -33.501  1.00  0.00     0.037 C 
BRANCH  37  38
HETATM   38  C   UNL     1      -5.551  -1.149 -32.628  1.00  0.00     0.006 C 
HETATM   39  C   UNL     1      -4.229  -1.364 -33.355  1.00  0.00     0.006 C 
ENDBRANCH  37  38
BRANCH  37  40
HETATM   40  C   UNL     1      -6.608  -1.884 -34.855  1.00  0.00     0.006 C 
HETATM   41  C   UNL     1      -6.829  -3.391 -34.798  1.00  0.00     0.006 C 
ENDBRANCH  37  40
ENDBRANCH  29  37
ENDBRANCH  19  25
ENDBRANCH  15  16
ENDBRANCH  11  15
ENDBRANCH   1   9
TORSDOF 8
ENDMDL
MODEL 8
REMARK VINA RESULT:      -9.1      3.418      8.634
REMARK  8 active torsions:
REMARK  status: ('A' for Active; 'I' for Inactive)
REMARK    1  A    between atoms: C_2  and  C_3 
REMARK    2  A    between atoms: C_3  and  C_4 
REMARK    3  A    between atoms: C_3  and  C_38 
REMARK    4  A    between atoms: C_6  and  C_7 
REMARK    5  A    between atoms: C_14  and  C_15 
REMARK    6  A    between atoms: C_18  and  C_19 
REMARK    7  A    between atoms: C_19  and  N_20 
REMARK       I    between atoms: N_20  and  C_21 
REMARK       I    between atoms: C_21  and  N_22 
REMARK    8  A    between atoms: N_22  and  C_23 
ROOT
HETATM    1  C   UNL     1      -6.221   1.442 -30.393  1.00  0.00     0.037 A 
HETATM    2  C   UNL     1      -4.889   1.032 -30.507  1.00  0.00     0.052 A 
HETATM    3  C   UNL     1      -4.540  -0.024 -31.360  1.00  0.00     0.046 A 
HETATM    4  C   UNL     1      -3.170  -0.434 -31.456  1.00  0.00     0.099 C 
HETATM    5  N   UNL     1      -2.053  -0.743 -31.519  1.00  0.00    -0.191 NA
HETATM    6  C   UNL     1      -5.526  -0.676 -32.103  1.00  0.00     0.023 A 
HETATM    7  C   UNL     1      -6.857  -0.276 -31.990  1.00  0.00     0.004 A 
HETATM    8  C   UNL     1      -7.202   0.775 -31.135  1.00  0.00     0.029 A 
ENDROOT
BRANCH   1   9
HETATM    9  N   UNL     1      -6.642   2.474 -29.527  1.00  0.00    -0.309 N 
HETATM   10  C   UNL     1      -7.100   3.714 -29.890  1.00  0.00     0.320 C 
HETATM   11  N   UNL     1      -7.217   4.558 -28.810  1.00  0.00    -0.341 N 
HETATM   12  O   UNL     1      -7.427   4.077 -31.015  1.00  0.00    -0.247 OA
HETATM   13  H   UNL     1      -6.590   4.329 -28.047  1.00  0.00     0.164 HD
HETATM   14  H   UNL     1      -6.747   2.222 -28.552  1.00  0.00     0.170 HD
BRANCH  11  15
HETATM   15  C   UNL     1      -7.512   5.983 -28.967  1.00  0.00     0.157 C 
BRANCH  15  16
HETATM   16  C   UNL     1      -6.886   6.899 -27.888  1.00  0.00     0.206 C 
HETATM   17  C   UNL     1      -5.451   6.505 -27.496  1.00  0.00     0.040 C 
HETATM   18  C   UNL     1      -4.578   7.768 -27.307  1.00  0.00     0.001 C 
HETATM   19  C   UNL     1      -4.385   8.467 -28.681  1.00  0.00     0.068 C 
HETATM   20  C   UNL     1      -5.340   8.753 -26.387  1.00  0.00     0.033 C 
HETATM   21  C   UNL     1      -5.773   8.678 -29.327  1.00  0.00     0.246 C 
HETATM   22  N   UNL     1      -6.841   8.374 -28.283  1.00  0.00    -0.065 N 
HETATM   23  C   UNL     1      -6.635   9.228 -27.058  1.00  0.00     0.236 C 
HETATM   24  H   UNL     1      -7.755   8.608 -28.728  1.00  0.00     0.280 HD
BRANCH  19  25
HETATM   25  C   UNL     1      -3.395   7.750 -29.577  1.00  0.00     0.045 A 
HETATM   26  N   UNL     1      -3.864   7.160 -30.692  1.00  0.00    -0.233 NA
HETATM   27  C   UNL     1      -2.962   6.550 -31.494  1.00  0.00     0.160 A 
HETATM   28  N   UNL     1      -1.651   6.447 -31.211  1.00  0.00    -0.233 NA
HETATM   29  C   UNL     1      -1.200   7.030 -30.084  1.00  0.00     0.043 A 
HETATM   30  C   UNL     1      -2.055   7.708 -29.232  1.00  0.00     0.055 A 
BRANCH  27  31
HETATM   31  C   UNL     1      -3.439   6.009 -32.780  1.00  0.00     0.014 A 
HETATM   32  C   UNL     1      -2.595   5.926 -33.898  1.00  0.00     0.034 A 
HETATM   33  C   UNL     1      -3.091   5.437 -35.097  1.00  0.00     0.117 A 
HETATM   34  N   UNL     1      -4.361   5.020 -35.264  1.00  0.00    -0.273 NA
HETATM   35  C   UNL     1      -5.170   5.101 -34.191  1.00  0.00     0.117 A 
HETATM   36  C   UNL     1      -4.763   5.578 -32.955  1.00  0.00     0.034 A 
ENDBRANCH  27  31
BRANCH  29  37
HETATM   37  C   UNL     1       0.280   6.911 -29.742  1.00  0.00     0.037 C 
BRANCH  37  38
HETATM   38  C   UNL     1       0.697   5.450 -29.449  1.00  0.00     0.006 C 
HETATM   39  C   UNL     1       1.294   4.669 -30.615  1.00  0.00     0.006 C 
ENDBRANCH  37  38
BRANCH  37  40
HETATM   40  C   UNL     1       0.691   7.884 -28.619  1.00  0.00     0.006 C 
HETATM   41  C   UNL     1       1.119   7.181 -27.336  1.00  0.00     0.006 C 
ENDBRANCH  37  40
ENDBRANCH  29  37
ENDBRANCH  19  25
ENDBRANCH  15  16
ENDBRANCH  11  15
ENDBRANCH   1   9
TORSDOF 8
ENDMDL
MODEL 9
REMARK VINA RESULT:      -9.0      3.785      8.918
REMARK  8 active torsions:
REMARK  status: ('A' for Active; 'I' for Inactive)
REMARK    1  A    between atoms: C_2  and  C_3 
REMARK    2  A    between atoms: C_3  and  C_4 
REMARK    3  A    between atoms: C_3  and  C_38 
REMARK    4  A    between atoms: C_6  and  C_7 
REMARK    5  A    between atoms: C_14  and  C_15 
REMARK    6  A    between atoms: C_18  and  C_19 
REMARK    7  A    between atoms: C_19  and  N_20 
REMARK       I    between atoms: N_20  and  C_21 
REMARK       I    between atoms: C_21  and  N_22 
REMARK    8  A    between atoms: N_22  and  C_23 
ROOT
HETATM    1  C   UNL     1      -6.915  -0.675 -34.440  1.00  0.00     0.037 A 
HETATM    2  C   UNL     1      -6.868  -2.039 -34.744  1.00  0.00     0.052 A 
HETATM    3  C   UNL     1      -5.702  -2.782 -34.511  1.00  0.00     0.046 A 
HETATM    4  C   UNL     1      -5.673  -4.177 -34.837  1.00  0.00     0.099 C 
HETATM    5  N   UNL     1      -5.677  -5.306 -35.105  1.00  0.00    -0.191 NA
HETATM    6  C   UNL     1      -4.574  -2.158 -33.973  1.00  0.00     0.023 A 
HETATM    7  C   UNL     1      -4.611  -0.797 -33.673  1.00  0.00     0.004 A 
HETATM    8  C   UNL     1      -5.776  -0.059 -33.911  1.00  0.00     0.029 A 
ENDROOT
BRANCH   1   9
HETATM    9  N   UNL     1      -8.046   0.134 -34.682  1.00  0.00    -0.309 N 
HETATM   10  C   UNL     1      -9.053   0.421 -33.798  1.00  0.00     0.320 C 
HETATM   11  N   UNL     1     -10.112   1.052 -34.409  1.00  0.00    -0.341 N 
HETATM   12  O   UNL     1      -9.053   0.213 -32.589  1.00  0.00    -0.247 OA
HETATM   13  H   UNL     1     -10.198   0.833 -35.396  1.00  0.00     0.164 HD
HETATM   14  H   UNL     1      -8.038   0.662 -35.545  1.00  0.00     0.170 HD
BRANCH  11  15
HETATM   15  C   UNL     1     -11.376   1.296 -33.713  1.00  0.00     0.157 C 
BRANCH  15  16
HETATM   16  C   UNL     1     -11.938   2.731 -33.870  1.00  0.00     0.206 C 
HETATM   17  C   UNL     1     -11.800   3.594 -32.605  1.00  0.00     0.040 C 
HETATM   18  C   UNL     1     -11.399   5.039 -32.980  1.00  0.00     0.001 C 
HETATM   19  C   UNL     1      -9.958   5.038 -33.561  1.00  0.00     0.068 C 
HETATM   20  C   UNL     1     -12.350   5.533 -34.097  1.00  0.00     0.033 C 
HETATM   21  C   UNL     1      -9.882   3.985 -34.690  1.00  0.00     0.246 C 
HETATM   22  N   UNL     1     -11.299   3.520 -35.010  1.00  0.00    -0.065 N 
HETATM   23  C   UNL     1     -12.168   4.697 -35.371  1.00  0.00     0.236 C 
HETATM   24  H   UNL     1     -11.214   2.879 -35.829  1.00  0.00     0.280 HD
BRANCH  19  25
HETATM   25  C   UNL     1      -8.891   4.873 -32.498  1.00  0.00     0.045 A 
HETATM   26  N   UNL     1      -8.816   5.803 -31.527  1.00  0.00    -0.233 NA
HETATM   27  C   UNL     1      -7.876   5.623 -30.572  1.00  0.00     0.160 A 
HETATM   28  N   UNL     1      -6.984   4.616 -30.572  1.00  0.00    -0.233 NA
HETATM   29  C   UNL     1      -7.063   3.703 -31.558  1.00  0.00     0.043 A 
HETATM   30  C   UNL     1      -8.024   3.795 -32.551  1.00  0.00     0.055 A 
BRANCH  27  31
HETATM   31  C   UNL     1      -7.863   6.562 -29.434  1.00  0.00     0.014 A 
HETATM   32  C   UNL     1      -6.660   7.041 -28.894  1.00  0.00     0.034 A 
HETATM   33  C   UNL     1      -6.691   7.900 -27.807  1.00  0.00     0.117 A 
HETATM   34  N   UNL     1      -7.829   8.320 -27.221  1.00  0.00    -0.273 NA
HETATM   35  C   UNL     1      -8.982   7.858 -27.737  1.00  0.00     0.117 A 
HETATM   36  C   UNL     1      -9.048   6.995 -28.821  1.00  0.00     0.034 A 
ENDBRANCH  27  31
BRANCH  29  37
HETATM   37  C   UNL     1      -6.051   2.563 -31.580  1.00  0.00     0.037 C 
BRANCH  37  38
HETATM   38  C   UNL     1      -6.004   1.796 -30.237  1.00  0.00     0.006 C 
HETATM   39  C   UNL     1      -6.339   0.310 -30.293  1.00  0.00     0.006 C 
ENDBRANCH  37  38
BRANCH  37  40
HETATM   40  C   UNL     1      -4.660   3.039 -32.044  1.00  0.00     0.006 C 
HETATM   41  C   UNL     1      -3.518   2.181 -31.510  1.00  0.00     0.006 C 
ENDBRANCH  37  40
ENDBRANCH  29  37
ENDBRANCH  19  25
ENDBRANCH  15  16
ENDBRANCH  11  15
ENDBRANCH   1   9
TORSDOF 8
ENDMDL
MODEL 10
REMARK VINA RESULT:      -9.0      1.125      4.058
REMARK  8 active torsions:
REMARK  status: ('A' for Active; 'I' for Inactive)
REMARK    1  A    between atoms: C_2  and  C_3 
REMARK    2  A    between atoms: C_3  and  C_4 
REMARK    3  A    between atoms: C_3  and  C_38 
REMARK    4  A    between atoms: C_6  and  C_7 
REMARK    5  A    between atoms: C_14  and  C_15 
REMARK    6  A    between atoms: C_18  and  C_19 
REMARK    7  A    between atoms: C_19  and  N_20 
REMARK       I    between atoms: N_20  and  C_21 
REMARK       I    between atoms: C_21  and  N_22 
REMARK    8  A    between atoms: N_22  and  C_23 
ROOT
HETATM    1  C   UNL     1      -1.213   6.959 -29.092  1.00  0.00     0.037 A 
HETATM    2  C   UNL     1      -1.751   7.997 -28.324  1.00  0.00     0.052 A 
HETATM    3  C   UNL     1      -0.913   8.940 -27.714  1.00  0.00     0.046 A 
HETATM    4  C   UNL     1      -1.485   9.990 -26.924  1.00  0.00     0.099 C 
HETATM    5  N   UNL     1      -1.973  10.834 -26.295  1.00  0.00    -0.191 NA
HETATM    6  C   UNL     1       0.472   8.845 -27.868  1.00  0.00     0.023 A 
HETATM    7  C   UNL     1       1.016   7.810 -28.627  1.00  0.00     0.004 A 
HETATM    8  C   UNL     1       0.176   6.869 -29.231  1.00  0.00     0.029 A 
ENDROOT
BRANCH   1   9
HETATM    9  N   UNL     1      -2.000   5.960 -29.704  1.00  0.00    -0.309 N 
HETATM   10  C   UNL     1      -3.004   6.152 -30.617  1.00  0.00     0.320 C 
HETATM   11  N   UNL     1      -3.718   4.999 -30.849  1.00  0.00    -0.341 N 
HETATM   12  O   UNL     1      -3.258   7.186 -31.225  1.00  0.00    -0.247 OA
HETATM   13  H   UNL     1      -3.707   4.352 -30.068  1.00  0.00     0.164 HD
HETATM   14  H   UNL     1      -1.699   5.005 -29.557  1.00  0.00     0.170 HD
BRANCH  11  15
HETATM   15  C   UNL     1      -4.947   4.994 -31.644  1.00  0.00     0.157 C 
BRANCH  15  16
HETATM   16  C   UNL     1      -6.222   5.414 -30.873  1.00  0.00     0.206 C 
HETATM   17  C   UNL     1      -7.510   5.330 -31.710  1.00  0.00     0.040 C 
HETATM   18  C   UNL     1      -8.672   4.773 -30.855  1.00  0.00     0.001 C 
HETATM   19  C   UNL     1      -8.385   3.287 -30.506  1.00  0.00     0.068 C 
HETATM   20  C   UNL     1      -8.719   5.563 -29.525  1.00  0.00     0.033 C 
HETATM   21  C   UNL     1      -6.970   3.188 -29.894  1.00  0.00     0.246 C 
HETATM   22  N   UNL     1      -6.471   4.600 -29.605  1.00  0.00    -0.065 N 
HETATM   23  C   UNL     1      -7.442   5.326 -28.710  1.00  0.00     0.236 C 
HETATM   24  H   UNL     1      -5.555   4.488 -29.118  1.00  0.00     0.280 HD
BRANCH  19  25
HETATM   25  C   UNL     1      -8.614   2.349 -31.673  1.00  0.00     0.045 A 
HETATM   26  N   UNL     1      -7.611   1.522 -32.026  1.00  0.00    -0.233 NA
HETATM   27  C   UNL     1      -7.844   0.672 -33.052  1.00  0.00     0.160 A 
HETATM   28  N   UNL     1      -8.982   0.651 -33.770  1.00  0.00    -0.233 NA
HETATM   29  C   UNL     1      -9.970   1.494 -33.413  1.00  0.00     0.043 A 
HETATM   30  C   UNL     1      -9.822   2.366 -32.348  1.00  0.00     0.055 A 
BRANCH  27  31
HETATM   31  C   UNL     1      -6.805  -0.324 -33.370  1.00  0.00     0.014 A 
HETATM   32  C   UNL     1      -7.014  -1.318 -34.338  1.00  0.00     0.034 A 
HETATM   33  C   UNL     1      -6.021  -2.253 -34.587  1.00  0.00     0.117 A 
HETATM   34  N   UNL     1      -4.835  -2.270 -33.947  1.00  0.00    -0.273 NA
HETATM   35  C   UNL     1      -4.636  -1.318 -33.017  1.00  0.00     0.117 A 
HETATM   36  C   UNL     1      -5.571  -0.344 -32.701  1.00  0.00     0.034 A 
ENDBRANCH  27  31
BRANCH  29  37
HETATM   37  C   UNL     1     -11.260   1.492 -34.224  1.00  0.00     0.037 C 
BRANCH  37  38
HETATM   38  C   UNL     1     -11.912   2.894 -34.290  1.00  0.00     0.006 C 
HETATM   39  C   UNL     1     -12.087   3.495 -35.680  1.00  0.00     0.006 C 
ENDBRANCH  37  38
BRANCH  37  40
HETATM   40  C   UNL     1     -12.238   0.401 -33.744  1.00  0.00     0.006 C 
HETATM   41  C   UNL     1     -13.631   0.935 -33.427  1.00  0.00     0.006 C 
ENDBRANCH  37  40
ENDBRANCH  29  37
ENDBRANCH  19  25
ENDBRANCH  15  16
ENDBRANCH  11  15
ENDBRANCH   1   9
TORSDOF 8
ENDMDL
