MODEL 1
REMARK VINA RESULT:     -10.6      0.000      0.000
REMARK  7 active torsions:
REMARK  status: ('A' for Active; 'I' for Inactive)
REMARK    1  A    between atoms: C_2  and  C_3 
REMARK    2  A    between atoms: C_4  and  N_5 
REMARK    3  A    between atoms: N_5  and  C_6 
REMARK    4  A    between atoms: C_8  and  N_9 
REMARK    5  A    between atoms: C_11  and  C_12 
REMARK    6  A    between atoms: C_12  and  N_13 
REMARK    7  A    between atoms: C_17  and  C_18 
ROOT
HETATM    1  C   UNL     1      -7.039   4.848 -32.070  1.00  0.00     0.218 C 
ENDROOT
BRANCH   1   2
HETATM    2  C   UNL     1      -5.586   5.086 -32.420  1.00  0.00     0.166 A 
HETATM    3  N   UNL     1      -5.307   5.261 -33.712  1.00  0.00    -0.200 NA
HETATM    4  C   UNL     1      -4.026   5.416 -33.992  1.00  0.00     0.219 A 
HETATM    5  N   UNL     1      -3.054   5.439 -33.101  1.00  0.00    -0.031 NA
HETATM    6  C   UNL     1      -3.417   5.285 -31.831  1.00  0.00     0.731 A 
HETATM    7  N   UNL     1      -4.680   5.145 -31.436  1.00  0.00    -0.045 NA
BRANCH   4   8
HETATM    8  N   UNL     1      -3.682   5.616 -35.313  1.00  0.00    -0.270 NA
HETATM    9  H   UNL     1      -4.508   5.833 -35.854  1.00  0.00     0.127 HD
HETATM   10  H   UNL     1      -3.099   4.860 -35.645  1.00  0.00     0.127 HD
ENDBRANCH   4   8
BRANCH   6  11
HETATM   11  N   UNL     1      -2.457   5.313 -30.819  1.00  0.00    -0.188 N 
HETATM   12  H   UNL     1      -1.856   4.505 -30.901  1.00  0.00     0.184 HD
BRANCH  11  13
HETATM   13  C   UNL     1      -1.893   6.404 -30.128  1.00  0.00     0.055 A 
HETATM   14  C   UNL     1      -0.490   6.566 -30.074  1.00  0.00    -0.031 A 
HETATM   15  C   UNL     1       0.059   7.648 -29.360  1.00  0.00     0.009 A 
HETATM   16  C   UNL     1      -0.758   8.564 -28.701  1.00  0.00     0.001 A 
HETATM   17  C   UNL     1      -2.136   8.402 -28.737  1.00  0.00     0.002 A 
HETATM   18  C   UNL     1      -2.694   7.328 -29.436  1.00  0.00     0.030 A 
BRANCH  14  19
HETATM   19  C   UNL     1       0.465   5.572 -30.698  1.00  0.00     0.036 C 
HETATM   20  C   UNL     1       1.057   4.633 -29.654  1.00  0.00     0.010 C 
ENDBRANCH  14  19
ENDBRANCH  11  13
ENDBRANCH   6  11
ENDBRANCH   1   2
BRANCH   1  21
HETATM   21  N   UNL     1      -7.407   3.457 -31.913  1.00  0.00    -0.260 N 
HETATM   22  C   UNL     1      -7.546   2.850 -30.710  1.00  0.00     0.326 C 
HETATM   23  O   UNL     1      -7.292   3.311 -29.610  1.00  0.00    -0.247 OA
HETATM   24  N   UNL     1      -8.088   1.603 -30.905  1.00  0.00    -0.321 N 
HETATM   25  C   UNL     1      -8.226   1.266 -32.307  1.00  0.00     0.140 C 
HETATM   26  H   UNL     1      -8.168   0.958 -30.131  1.00  0.00     0.165 HD
HETATM   27  C   UNL     1      -7.936   2.669 -32.896  1.00  0.00     0.261 C 
HETATM   28  C   UNL     1      -9.657   0.857 -32.651  1.00  0.00     0.054 C 
HETATM   29  O   UNL     1      -8.140   3.010 -34.056  1.00  0.00    -0.270 OA
BRANCH  25  30
HETATM   30  C   UNL     1      -7.210   0.189 -32.676  1.00  0.00    -0.020 A 
HETATM   31  C   UNL     1      -7.523  -0.897 -33.513  1.00  0.00     0.022 A 
HETATM   32  C   UNL     1      -6.554  -1.850 -33.880  1.00  0.00    -0.025 A 
HETATM   33  C   UNL     1      -5.236  -1.726 -33.389  1.00  0.00    -0.026 A 
HETATM   34  C   UNL     1      -6.867  -2.926 -34.728  1.00  0.00     0.012 A 
HETATM   35  C   UNL     1      -4.925  -0.664 -32.532  1.00  0.00     0.013 A 
HETATM   36  C   UNL     1      -4.264  -2.667 -33.768  1.00  0.00     0.012 A 
HETATM   37  C   UNL     1      -5.896   0.275 -32.178  1.00  0.00     0.011 A 
HETATM   38  C   UNL     1      -4.590  -3.721 -34.622  1.00  0.00     0.001 A 
HETATM   39  C   UNL     1      -5.892  -3.851 -35.100  1.00  0.00     0.001 A 
ENDBRANCH  25  30
ENDBRANCH   1  21
TORSDOF 7
ENDMDL
MODEL 2
REMARK VINA RESULT:     -10.6      3.566      7.219
REMARK  7 active torsions:
REMARK  status: ('A' for Active; 'I' for Inactive)
REMARK    1  A    between atoms: C_2  and  C_3 
REMARK    2  A    between atoms: C_4  and  N_5 
REMARK    3  A    between atoms: N_5  and  C_6 
REMARK    4  A    between atoms: C_8  and  N_9 
REMARK    5  A    between atoms: C_11  and  C_12 
REMARK    6  A    between atoms: C_12  and  N_13 
REMARK    7  A    between atoms: C_17  and  C_18 
ROOT
HETATM    1  C   UNL     1      -6.273   4.048 -31.519  1.00  0.00     0.218 C 
ENDROOT
BRANCH   1   2
HETATM    2  C   UNL     1      -7.421   4.302 -32.472  1.00  0.00     0.166 A 
HETATM    3  N   UNL     1      -7.803   5.572 -32.615  1.00  0.00    -0.200 NA
HETATM    4  C   UNL     1      -8.838   5.758 -33.413  1.00  0.00     0.219 A 
HETATM    5  N   UNL     1      -9.468   4.804 -34.071  1.00  0.00    -0.031 NA
HETATM    6  C   UNL     1      -9.008   3.568 -33.897  1.00  0.00     0.731 A 
HETATM    7  N   UNL     1      -7.959   3.272 -33.135  1.00  0.00    -0.045 NA
BRANCH   4   8
HETATM    8  N   UNL     1      -9.267   7.055 -33.609  1.00  0.00    -0.270 NA
HETATM    9  H   UNL     1     -10.278   7.085 -33.613  1.00  0.00     0.127 HD
HETATM   10  H   UNL     1      -8.790   7.470 -34.397  1.00  0.00     0.127 HD
ENDBRANCH   4   8
BRANCH   6  11
HETATM   11  N   UNL     1      -9.602   2.499 -34.568  1.00  0.00    -0.188 N 
HETATM   12  H   UNL     1      -8.884   1.896 -34.945  1.00  0.00     0.184 HD
BRANCH  11  13
HETATM   13  C   UNL     1     -10.852   1.880 -34.368  1.00  0.00     0.055 A 
HETATM   14  C   UNL     1     -10.943   0.682 -33.623  1.00  0.00    -0.031 A 
HETATM   15  C   UNL     1     -12.197   0.062 -33.452  1.00  0.00     0.009 A 
HETATM   16  C   UNL     1     -13.351   0.608 -34.008  1.00  0.00     0.001 A 
HETATM   17  C   UNL     1     -13.266   1.776 -34.754  1.00  0.00     0.002 A 
HETATM   18  C   UNL     1     -12.028   2.396 -34.938  1.00  0.00     0.030 A 
BRANCH  14  19
HETATM   19  C   UNL     1      -9.726  -0.014 -33.053  1.00  0.00     0.036 C 
HETATM   20  C   UNL     1      -9.377   0.511 -31.667  1.00  0.00     0.010 C 
ENDBRANCH  14  19
ENDBRANCH  11  13
ENDBRANCH   6  11
ENDBRANCH   1   2
BRANCH   1  21
HETATM   21  N   UNL     1      -5.405   2.951 -31.891  1.00  0.00    -0.260 N 
HETATM   22  C   UNL     1      -4.391   3.066 -32.782  1.00  0.00     0.326 C 
HETATM   23  O   UNL     1      -4.115   4.032 -33.474  1.00  0.00    -0.247 OA
HETATM   24  N   UNL     1      -3.650   1.910 -32.760  1.00  0.00    -0.321 N 
HETATM   25  C   UNL     1      -4.230   0.891 -31.910  1.00  0.00     0.140 C 
HETATM   26  H   UNL     1      -2.912   1.768 -33.436  1.00  0.00     0.165 HD
HETATM   27  C   UNL     1      -5.293   1.772 -31.208  1.00  0.00     0.261 C 
HETATM   28  C   UNL     1      -3.229   0.383 -30.875  1.00  0.00     0.054 C 
HETATM   29  O   UNL     1      -5.933   1.458 -30.211  1.00  0.00    -0.270 OA
BRANCH  25  30
HETATM   30  C   UNL     1      -4.794  -0.235 -32.774  1.00  0.00    -0.020 A 
HETATM   31  C   UNL     1      -4.162  -1.485 -32.901  1.00  0.00     0.022 A 
HETATM   32  C   UNL     1      -4.728  -2.524 -33.663  1.00  0.00    -0.025 A 
HETATM   33  C   UNL     1      -5.955  -2.310 -34.329  1.00  0.00    -0.026 A 
HETATM   34  C   UNL     1      -4.102  -3.777 -33.775  1.00  0.00     0.012 A 
HETATM   35  C   UNL     1      -6.574  -1.058 -34.231  1.00  0.00     0.013 A 
HETATM   36  C   UNL     1      -6.530  -3.351 -35.075  1.00  0.00     0.012 A 
HETATM   37  C   UNL     1      -6.001  -0.037 -33.469  1.00  0.00     0.011 A 
HETATM   38  C   UNL     1      -5.900  -4.594 -35.165  1.00  0.00     0.001 A 
HETATM   39  C   UNL     1      -4.685  -4.805 -34.517  1.00  0.00     0.001 A 
ENDBRANCH  25  30
ENDBRANCH   1  21
TORSDOF 7
ENDMDL
MODEL 3
REMARK VINA RESULT:     -10.2      2.259      3.104
REMARK  7 active torsions:
REMARK  status: ('A' for Active; 'I' for Inactive)
REMARK    1  A    between atoms: C_2  and  C_3 
REMARK    2  A    between atoms: C_4  and  N_5 
REMARK    3  A    between atoms: N_5  and  C_6 
REMARK    4  A    between atoms: C_8  and  N_9 
REMARK    5  A    between atoms: C_11  and  C_12 
REMARK    6  A    between atoms: C_12  and  N_13 
REMARK    7  A    between atoms: C_17  and  C_18 
ROOT
HETATM    1  C   UNL     1      -9.412   4.639 -32.879  1.00  0.00     0.218 C 
ENDROOT
BRANCH   1   2
HETATM    2  C   UNL     1      -8.104   5.386 -32.729  1.00  0.00     0.166 A 
HETATM    3  N   UNL     1      -8.130   6.480 -31.967  1.00  0.00    -0.200 NA
HETATM    4  C   UNL     1      -6.988   7.138 -31.895  1.00  0.00     0.219 A 
HETATM    5  N   UNL     1      -5.865   6.773 -32.483  1.00  0.00    -0.031 NA
HETATM    6  C   UNL     1      -5.915   5.656 -33.202  1.00  0.00     0.731 A 
HETATM    7  N   UNL     1      -7.006   4.904 -33.323  1.00  0.00    -0.045 NA
BRANCH   4   8
HETATM    8  N   UNL     1      -6.954   8.272 -31.108  1.00  0.00    -0.270 NA
HETATM    9  H   UNL     1      -6.002   8.464 -30.826  1.00  0.00     0.127 HD
HETATM   10  H   UNL     1      -7.650   8.216 -30.378  1.00  0.00     0.127 HD
ENDBRANCH   4   8
BRANCH   6  11
HETATM   11  N   UNL     1      -4.770   5.184 -33.845  1.00  0.00    -0.188 N 
HETATM   12  H   UNL     1      -4.968   5.040 -34.825  1.00  0.00     0.184 HD
BRANCH  11  13
HETATM   13  C   UNL     1      -3.409   5.374 -33.536  1.00  0.00     0.055 A 
HETATM   14  C   UNL     1      -2.795   4.609 -32.518  1.00  0.00    -0.031 A 
HETATM   15  C   UNL     1      -1.439   4.827 -32.205  1.00  0.00     0.009 A 
HETATM   16  C   UNL     1      -0.691   5.789 -32.879  1.00  0.00     0.001 A 
HETATM   17  C   UNL     1      -1.292   6.554 -33.869  1.00  0.00     0.002 A 
HETATM   18  C   UNL     1      -2.637   6.354 -34.184  1.00  0.00     0.030 A 
BRANCH  14  19
HETATM   19  C   UNL     1      -3.560   3.601 -31.688  1.00  0.00     0.036 C 
HETATM   20  C   UNL     1      -3.423   2.192 -32.250  1.00  0.00     0.010 C 
ENDBRANCH  14  19
ENDBRANCH  11  13
ENDBRANCH   6  11
ENDBRANCH   1   2
BRANCH   1  21
HETATM   21  N   UNL     1      -9.365   3.245 -32.493  1.00  0.00    -0.260 N 
HETATM   22  C   UNL     1      -9.473   2.817 -31.212  1.00  0.00     0.326 C 
HETATM   23  O   UNL     1      -9.517   3.499 -30.201  1.00  0.00    -0.247 OA
HETATM   24  N   UNL     1      -9.587   1.449 -31.211  1.00  0.00    -0.321 N 
HETATM   25  C   UNL     1      -9.432   0.874 -32.531  1.00  0.00     0.140 C 
HETATM   26  H   UNL     1      -9.572   0.939 -30.338  1.00  0.00     0.165 HD
HETATM   27  C   UNL     1      -9.499   2.188 -33.349  1.00  0.00     0.261 C 
HETATM   28  C   UNL     1     -10.616  -0.016 -32.902  1.00  0.00     0.054 C 
HETATM   29  O   UNL     1      -9.641   2.264 -34.564  1.00  0.00    -0.270 OA
BRANCH  25  30
HETATM   30  C   UNL     1      -8.100   0.132 -32.613  1.00  0.00    -0.020 A 
HETATM   31  C   UNL     1      -7.795  -0.773 -33.646  1.00  0.00     0.022 A 
HETATM   32  C   UNL     1      -6.541  -1.406 -33.726  1.00  0.00    -0.025 A 
HETATM   33  C   UNL     1      -5.564  -1.142 -32.741  1.00  0.00    -0.026 A 
HETATM   34  C   UNL     1      -6.235  -2.298 -34.767  1.00  0.00     0.012 A 
HETATM   35  C   UNL     1      -5.871  -0.265 -31.694  1.00  0.00     0.013 A 
HETATM   36  C   UNL     1      -4.306  -1.759 -32.830  1.00  0.00     0.012 A 
HETATM   37  C   UNL     1      -7.120   0.358 -31.629  1.00  0.00     0.011 A 
HETATM   38  C   UNL     1      -4.015  -2.632 -33.879  1.00  0.00     0.001 A 
HETATM   39  C   UNL     1      -4.980  -2.903 -34.846  1.00  0.00     0.001 A 
ENDBRANCH  25  30
ENDBRANCH   1  21
TORSDOF 7
ENDMDL
MODEL 4
REMARK VINA RESULT:     -10.2      3.685      7.848
REMARK  7 active torsions:
REMARK  status: ('A' for Active; 'I' for Inactive)
REMARK    1  A    between atoms: C_2  and  C_3 
REMARK    2  A    between atoms: C_4  and  N_5 
REMARK    3  A    between atoms: N_5  and  C_6 
REMARK    4  A    between atoms: C_8  and  N_9 
REMARK    5  A    between atoms: C_11  and  C_12 
REMARK    6  A    between atoms: C_12  and  N_13 
REMARK    7  A    between atoms: C_17  and  C_18 
ROOT
HETATM    1  C   UNL     1      -6.446   3.566 -30.638  1.00  0.00     0.218 C 
ENDROOT
BRANCH   1   2
HETATM    2  C   UNL     1      -7.900   3.535 -31.056  1.00  0.00     0.166 A 
HETATM    3  N   UNL     1      -8.735   4.304 -30.355  1.00  0.00    -0.200 NA
HETATM    4  C   UNL     1     -10.004   4.218 -30.709  1.00  0.00     0.219 A 
HETATM    5  N   UNL     1     -10.467   3.472 -31.693  1.00  0.00    -0.031 NA
HETATM    6  C   UNL     1      -9.567   2.756 -32.360  1.00  0.00     0.731 A 
HETATM    7  N   UNL     1      -8.262   2.785 -32.103  1.00  0.00    -0.045 NA
BRANCH   4   8
HETATM    8  N   UNL     1     -10.910   5.005 -30.027  1.00  0.00    -0.270 NA
HETATM    9  H   UNL     1     -10.425   5.751 -29.548  1.00  0.00     0.127 HD
HETATM   10  H   UNL     1     -11.532   4.430 -29.475  1.00  0.00     0.127 HD
ENDBRANCH   4   8
BRANCH   6  11
HETATM   11  N   UNL     1      -9.965   1.951 -33.428  1.00  0.00    -0.188 N 
HETATM   12  H   UNL     1      -9.164   1.452 -33.792  1.00  0.00     0.184 HD
BRANCH  11  13
HETATM   13  C   UNL     1     -11.211   1.354 -33.704  1.00  0.00     0.055 A 
HETATM   14  C   UNL     1     -12.190   2.058 -34.442  1.00  0.00    -0.031 A 
HETATM   15  C   UNL     1     -13.440   1.457 -34.690  1.00  0.00     0.009 A 
HETATM   16  C   UNL     1     -13.731   0.180 -34.217  1.00  0.00     0.001 A 
HETATM   17  C   UNL     1     -12.779  -0.510 -33.478  1.00  0.00     0.002 A 
HETATM   18  C   UNL     1     -11.539   0.077 -33.219  1.00  0.00     0.030 A 
BRANCH  14  19
HETATM   19  C   UNL     1     -11.979   3.477 -34.923  1.00  0.00     0.036 C 
HETATM   20  C   UNL     1     -12.306   3.622 -36.403  1.00  0.00     0.010 C 
ENDBRANCH  14  19
ENDBRANCH  11  13
ENDBRANCH   6  11
ENDBRANCH   1   2
BRANCH   1  21
HETATM   21  N   UNL     1      -5.600   2.601 -31.308  1.00  0.00    -0.260 N 
HETATM   22  C   UNL     1      -4.808   2.905 -32.365  1.00  0.00     0.326 C 
HETATM   23  O   UNL     1      -4.753   3.959 -32.975  1.00  0.00    -0.247 OA
HETATM   24  N   UNL     1      -3.998   1.829 -32.633  1.00  0.00    -0.321 N 
HETATM   25  C   UNL     1      -4.311   0.676 -31.815  1.00  0.00     0.140 C 
HETATM   26  H   UNL     1      -3.411   1.828 -33.456  1.00  0.00     0.165 HD
HETATM   27  C   UNL     1      -5.262   1.374 -30.811  1.00  0.00     0.261 C 
HETATM   28  C   UNL     1      -3.080   0.160 -31.072  1.00  0.00     0.054 C 
HETATM   29  O   UNL     1      -5.653   0.898 -29.751  1.00  0.00    -0.270 OA
BRANCH  25  30
HETATM   30  C   UNL     1      -4.963  -0.402 -32.677  1.00  0.00    -0.020 A 
HETATM   31  C   UNL     1      -4.311  -1.602 -33.017  1.00  0.00     0.022 A 
HETATM   32  C   UNL     1      -4.952  -2.602 -33.771  1.00  0.00    -0.025 A 
HETATM   33  C   UNL     1      -6.278  -2.399 -34.212  1.00  0.00    -0.026 A 
HETATM   34  C   UNL     1      -4.302  -3.805 -34.096  1.00  0.00     0.012 A 
HETATM   35  C   UNL     1      -6.922  -1.195 -33.903  1.00  0.00     0.013 A 
HETATM   36  C   UNL     1      -6.924  -3.404 -34.950  1.00  0.00     0.012 A 
HETATM   37  C   UNL     1      -6.274  -0.212 -33.151  1.00  0.00     0.011 A 
HETATM   38  C   UNL     1      -6.268  -4.598 -35.252  1.00  0.00     0.001 A 
HETATM   39  C   UNL     1      -4.957  -4.797 -34.827  1.00  0.00     0.001 A 
ENDBRANCH  25  30
ENDBRANCH   1  21
TORSDOF 7
ENDMDL
MODEL 5
REMARK VINA RESULT:     -10.1      0.831      2.082
REMARK  7 active torsions:
REMARK  status: ('A' for Active; 'I' for Inactive)
REMARK    1  A    between atoms: C_2  and  C_3 
REMARK    2  A    between atoms: C_4  and  N_5 
REMARK    3  A    between atoms: N_5  and  C_6 
REMARK    4  A    between atoms: C_8  and  N_9 
REMARK    5  A    between atoms: C_11  and  C_12 
REMARK    6  A    between atoms: C_12  and  N_13 
REMARK    7  A    between atoms: C_17  and  C_18 
ROOT
HETATM    1  C   UNL     1      -7.508   4.518 -32.393  1.00  0.00     0.218 C 
ENDROOT
BRANCH   1   2
HETATM    2  C   UNL     1      -6.043   4.816 -32.628  1.00  0.00     0.166 A 
HETATM    3  N   UNL     1      -5.682   5.064 -33.888  1.00  0.00    -0.200 NA
HETATM    4  C   UNL     1      -4.391   5.272 -34.069  1.00  0.00     0.219 A 
HETATM    5  N   UNL     1      -3.483   5.277 -33.113  1.00  0.00    -0.031 NA
HETATM    6  C   UNL     1      -3.927   5.048 -31.880  1.00  0.00     0.731 A 
HETATM    7  N   UNL     1      -5.209   4.851 -31.582  1.00  0.00    -0.045 NA
BRANCH   4   8
HETATM    8  N   UNL     1      -3.964   5.548 -35.352  1.00  0.00    -0.270 NA
HETATM    9  H   UNL     1      -3.481   4.746 -35.733  1.00  0.00     0.127 HD
HETATM   10  H   UNL     1      -3.481   6.435 -35.380  1.00  0.00     0.127 HD
ENDBRANCH   4   8
BRANCH   6  11
HETATM   11  N   UNL     1      -3.039   5.053 -30.804  1.00  0.00    -0.188 N 
HETATM   12  H   UNL     1      -3.129   4.188 -30.289  1.00  0.00     0.184 HD
BRANCH  11  13
HETATM   13  C   UNL     1      -1.806   5.714 -30.643  1.00  0.00     0.055 A 
HETATM   14  C   UNL     1      -1.747   6.961 -29.980  1.00  0.00    -0.031 A 
HETATM   15  C   UNL     1      -0.510   7.622 -29.848  1.00  0.00     0.009 A 
HETATM   16  C   UNL     1       0.660   7.069 -30.364  1.00  0.00     0.001 A 
HETATM   17  C   UNL     1       0.606   5.852 -31.030  1.00  0.00     0.002 A 
HETATM   18  C   UNL     1      -0.615   5.190 -31.175  1.00  0.00     0.030 A 
BRANCH  14  19
HETATM   19  C   UNL     1      -2.983   7.663 -29.461  1.00  0.00     0.036 C 
HETATM   20  C   UNL     1      -3.241   7.336 -27.996  1.00  0.00     0.010 C 
ENDBRANCH  14  19
ENDBRANCH  11  13
ENDBRANCH   6  11
ENDBRANCH   1   2
BRANCH   1  21
HETATM   21  N   UNL     1      -7.828   3.113 -32.254  1.00  0.00    -0.260 N 
HETATM   22  C   UNL     1      -7.879   2.470 -31.063  1.00  0.00     0.326 C 
HETATM   23  O   UNL     1      -7.572   2.908 -29.967  1.00  0.00    -0.247 OA
HETATM   24  N   UNL     1      -8.398   1.214 -31.260  1.00  0.00    -0.321 N 
HETATM   25  C   UNL     1      -8.610   0.911 -32.661  1.00  0.00     0.140 C 
HETATM   26  H   UNL     1      -8.414   0.546 -30.502  1.00  0.00     0.165 HD
HETATM   27  C   UNL     1      -8.394   2.337 -33.226  1.00  0.00     0.261 C 
HETATM   28  C   UNL     1     -10.047   0.471 -32.931  1.00  0.00     0.054 C 
HETATM   29  O   UNL     1      -8.676   2.703 -34.361  1.00  0.00    -0.270 OA
BRANCH  25  30
HETATM   30  C   UNL     1      -7.589  -0.126 -33.120  1.00  0.00    -0.020 A 
HETATM   31  C   UNL     1      -6.383  -0.362 -32.436  1.00  0.00     0.022 A 
HETATM   32  C   UNL     1      -5.481  -1.360 -32.852  1.00  0.00    -0.025 A 
HETATM   33  C   UNL     1      -5.783  -2.140 -33.990  1.00  0.00    -0.026 A 
HETATM   34  C   UNL     1      -4.284  -1.602 -32.157  1.00  0.00     0.012 A 
HETATM   35  C   UNL     1      -6.968  -1.891 -34.692  1.00  0.00     0.013 A 
HETATM   36  C   UNL     1      -4.893  -3.148 -34.394  1.00  0.00     0.012 A 
HETATM   37  C   UNL     1      -7.854  -0.898 -34.267  1.00  0.00     0.011 A 
HETATM   38  C   UNL     1      -3.714  -3.384 -33.684  1.00  0.00     0.001 A 
HETATM   39  C   UNL     1      -3.410  -2.609 -32.567  1.00  0.00     0.001 A 
ENDBRANCH  25  30
ENDBRANCH   1  21
TORSDOF 7
ENDMDL
MODEL 6
REMARK VINA RESULT:     -10.1      1.832      2.602
REMARK  7 active torsions:
REMARK  status: ('A' for Active; 'I' for Inactive)
REMARK    1  A    between atoms: C_2  and  C_3 
REMARK    2  A    between atoms: C_4  and  N_5 
REMARK    3  A    between atoms: N_5  and  C_6 
REMARK    4  A    between atoms: C_8  and  N_9 
REMARK    5  A    between atoms: C_11  and  C_12 
REMARK    6  A    between atoms: C_12  and  N_13 
REMARK    7  A    between atoms: C_17  and  C_18 
ROOT
HETATM    1  C   UNL     1      -4.204   4.653 -33.578  1.00  0.00     0.218 C 
ENDROOT
BRANCH   1   2
HETATM    2  C   UNL     1      -4.223   5.913 -32.738  1.00  0.00     0.166 A 
HETATM    3  N   UNL     1      -5.424   6.373 -32.386  1.00  0.00    -0.200 NA
HETATM    4  C   UNL     1      -5.411   7.500 -31.698  1.00  0.00     0.219 A 
HETATM    5  N   UNL     1      -4.324   8.149 -31.329  1.00  0.00    -0.031 NA
HETATM    6  C   UNL     1      -3.165   7.610 -31.696  1.00  0.00     0.731 A 
HETATM    7  N   UNL     1      -3.062   6.468 -32.370  1.00  0.00    -0.045 NA
BRANCH   4   8
HETATM    8  N   UNL     1      -6.626   8.014 -31.294  1.00  0.00    -0.270 NA
HETATM    9  H   UNL     1      -6.629   8.138 -30.291  1.00  0.00     0.127 HD
HETATM   10  H   UNL     1      -7.386   7.483 -31.696  1.00  0.00     0.127 HD
ENDBRANCH   4   8
BRANCH   6  11
HETATM   11  N   UNL     1      -1.963   8.220 -31.335  1.00  0.00    -0.188 N 
HETATM   12  H   UNL     1      -1.833   9.061 -31.879  1.00  0.00     0.184 HD
BRANCH  11  13
HETATM   13  C   UNL     1      -1.255   8.187 -30.117  1.00  0.00     0.055 A 
HETATM   14  C   UNL     1      -0.037   7.477 -30.019  1.00  0.00    -0.031 A 
HETATM   15  C   UNL     1       0.647   7.433 -28.789  1.00  0.00     0.009 A 
HETATM   16  C   UNL     1       0.142   8.077 -27.662  1.00  0.00     0.001 A 
HETATM   17  C   UNL     1      -1.062   8.762 -27.747  1.00  0.00     0.002 A 
HETATM   18  C   UNL     1      -1.754   8.807 -28.959  1.00  0.00     0.030 A 
BRANCH  14  19
HETATM   19  C   UNL     1       0.538   6.689 -31.176  1.00  0.00     0.036 C 
HETATM   20  C   UNL     1       0.146   5.219 -31.103  1.00  0.00     0.010 C 
ENDBRANCH  14  19
ENDBRANCH  11  13
ENDBRANCH   6  11
ENDBRANCH   1   2
BRANCH   1  21
HETATM   21  N   UNL     1      -4.635   3.456 -32.888  1.00  0.00    -0.260 N 
HETATM   22  C   UNL     1      -3.863   2.782 -32.001  1.00  0.00     0.326 C 
HETATM   23  O   UNL     1      -2.693   2.990 -31.726  1.00  0.00    -0.247 OA
HETATM   24  N   UNL     1      -4.629   1.822 -31.388  1.00  0.00    -0.321 N 
HETATM   25  C   UNL     1      -5.963   1.731 -31.946  1.00  0.00     0.140 C 
HETATM   26  H   UNL     1      -4.199   1.148 -30.770  1.00  0.00     0.165 HD
HETATM   27  C   UNL     1      -5.928   3.020 -32.804  1.00  0.00     0.261 C 
HETATM   28  C   UNL     1      -7.036   1.868 -30.869  1.00  0.00     0.054 C 
HETATM   29  O   UNL     1      -6.899   3.553 -33.328  1.00  0.00    -0.270 OA
BRANCH  25  30
HETATM   30  C   UNL     1      -6.098   0.433 -32.738  1.00  0.00    -0.020 A 
HETATM   31  C   UNL     1      -5.057  -0.508 -32.840  1.00  0.00     0.022 A 
HETATM   32  C   UNL     1      -5.224  -1.721 -33.534  1.00  0.00    -0.025 A 
HETATM   33  C   UNL     1      -6.461  -2.002 -34.156  1.00  0.00    -0.026 A 
HETATM   34  C   UNL     1      -4.187  -2.665 -33.622  1.00  0.00     0.012 A 
HETATM   35  C   UNL     1      -7.491  -1.058 -34.082  1.00  0.00     0.013 A 
HETATM   36  C   UNL     1      -6.634  -3.220 -34.833  1.00  0.00     0.012 A 
HETATM   37  C   UNL     1      -7.311   0.141 -33.388  1.00  0.00     0.011 A 
HETATM   38  C   UNL     1      -5.597  -4.152 -34.898  1.00  0.00     0.001 A 
HETATM   39  C   UNL     1      -4.373  -3.873 -34.295  1.00  0.00     0.001 A 
ENDBRANCH  25  30
ENDBRANCH   1  21
TORSDOF 7
ENDMDL
MODEL 7
REMARK VINA RESULT:     -10.0      1.938      3.493
REMARK  7 active torsions:
REMARK  status: ('A' for Active; 'I' for Inactive)
REMARK    1  A    between atoms: C_2  and  C_3 
REMARK    2  A    between atoms: C_4  and  N_5 
REMARK    3  A    between atoms: N_5  and  C_6 
REMARK    4  A    between atoms: C_8  and  N_9 
REMARK    5  A    between atoms: C_11  and  C_12 
REMARK    6  A    between atoms: C_12  and  N_13 
REMARK    7  A    between atoms: C_17  and  C_18 
ROOT
HETATM    1  C   UNL     1      -8.657   5.218 -31.482  1.00  0.00     0.218 C 
ENDROOT
BRANCH   1   2
HETATM    2  C   UNL     1      -7.240   5.404 -30.982  1.00  0.00     0.166 A 
HETATM    3  N   UNL     1      -6.973   4.926 -29.766  1.00  0.00    -0.200 NA
HETATM    4  C   UNL     1      -5.744   5.146 -29.337  1.00  0.00     0.219 A 
HETATM    5  N   UNL     1      -4.800   5.758 -30.025  1.00  0.00    -0.031 NA
HETATM    6  C   UNL     1      -5.138   6.180 -31.240  1.00  0.00     0.731 A 
HETATM    7  N   UNL     1      -6.340   5.990 -31.779  1.00  0.00    -0.045 NA
BRANCH   4   8
HETATM    8  N   UNL     1      -5.408   4.660 -28.089  1.00  0.00    -0.270 NA
HETATM    9  H   UNL     1      -4.550   5.091 -27.774  1.00  0.00     0.127 HD
HETATM   10  H   UNL     1      -5.449   3.651 -28.081  1.00  0.00     0.127 HD
ENDBRANCH   4   8
BRANCH   6  11
HETATM   11  N   UNL     1      -4.197   6.822 -32.046  1.00  0.00    -0.188 N 
HETATM   12  H   UNL     1      -3.910   7.686 -31.608  1.00  0.00     0.184 HD
BRANCH  11  13
HETATM   13  C   UNL     1      -3.276   6.290 -32.970  1.00  0.00     0.055 A 
HETATM   14  C   UNL     1      -1.887   6.437 -32.756  1.00  0.00    -0.031 A 
HETATM   15  C   UNL     1      -0.978   5.921 -33.701  1.00  0.00     0.009 A 
HETATM   16  C   UNL     1      -1.426   5.269 -34.847  1.00  0.00     0.001 A 
HETATM   17  C   UNL     1      -2.789   5.135 -35.071  1.00  0.00     0.002 A 
HETATM   18  C   UNL     1      -3.701   5.649 -34.146  1.00  0.00     0.030 A 
BRANCH  14  19
HETATM   19  C   UNL     1      -1.324   7.200 -31.577  1.00  0.00     0.036 C 
HETATM   20  C   UNL     1       0.161   6.921 -31.385  1.00  0.00     0.010 C 
ENDBRANCH  14  19
ENDBRANCH  11  13
ENDBRANCH   6  11
ENDBRANCH   1   2
BRANCH   1  21
HETATM   21  N   UNL     1      -8.962   3.890 -31.969  1.00  0.00    -0.260 N 
HETATM   22  C   UNL     1      -9.584   2.943 -31.226  1.00  0.00     0.326 C 
HETATM   23  O   UNL     1      -9.882   3.002 -30.044  1.00  0.00    -0.247 OA
HETATM   24  N   UNL     1      -9.896   1.880 -32.036  1.00  0.00    -0.321 N 
HETATM   25  C   UNL     1      -9.368   2.025 -33.377  1.00  0.00     0.140 C 
HETATM   26  H   UNL     1     -10.271   1.030 -31.637  1.00  0.00     0.165 HD
HETATM   27  C   UNL     1      -8.940   3.511 -33.282  1.00  0.00     0.261 C 
HETATM   28  C   UNL     1     -10.462   1.879 -34.433  1.00  0.00     0.054 C 
HETATM   29  O   UNL     1      -8.626   4.223 -34.229  1.00  0.00    -0.270 OA
BRANCH  25  30
HETATM   30  C   UNL     1      -8.224   1.036 -33.587  1.00  0.00    -0.020 A 
HETATM   31  C   UNL     1      -7.209   0.834 -32.634  1.00  0.00     0.022 A 
HETATM   32  C   UNL     1      -6.193  -0.120 -32.829  1.00  0.00    -0.025 A 
HETATM   33  C   UNL     1      -6.179  -0.889 -34.013  1.00  0.00    -0.026 A 
HETATM   34  C   UNL     1      -5.190  -0.329 -31.869  1.00  0.00     0.012 A 
HETATM   35  C   UNL     1      -7.170  -0.672 -34.978  1.00  0.00     0.013 A 
HETATM   36  C   UNL     1      -5.177  -1.854 -34.201  1.00  0.00     0.012 A 
HETATM   37  C   UNL     1      -8.173   0.277 -34.770  1.00  0.00     0.011 A 
HETATM   38  C   UNL     1      -4.195  -2.058 -33.230  1.00  0.00     0.001 A 
HETATM   39  C   UNL     1      -4.200  -1.294 -32.066  1.00  0.00     0.001 A 
ENDBRANCH  25  30
ENDBRANCH   1  21
TORSDOF 7
ENDMDL
MODEL 8
REMARK VINA RESULT:      -9.8     17.634     19.390
REMARK  7 active torsions:
REMARK  status: ('A' for Active; 'I' for Inactive)
REMARK    1  A    between atoms: C_2  and  C_3 
REMARK    2  A    between atoms: C_4  and  N_5 
REMARK    3  A    between atoms: N_5  and  C_6 
REMARK    4  A    between atoms: C_8  and  N_9 
REMARK    5  A    between atoms: C_11  and  C_12 
REMARK    6  A    between atoms: C_12  and  N_13 
REMARK    7  A    between atoms: C_17  and  C_18 
ROOT
HETATM    1  C   UNL     1      -1.947 -14.372 -36.183  1.00  0.00     0.218 C 
ENDROOT
BRANCH   1   2
HETATM    2  C   UNL     1      -1.507 -14.371 -37.631  1.00  0.00     0.166 A 
HETATM    3  N   UNL     1      -0.201 -14.527 -37.854  1.00  0.00    -0.200 NA
HETATM    4  C   UNL     1       0.160 -14.471 -39.122  1.00  0.00     0.219 A 
HETATM    5  N   UNL     1      -0.666 -14.308 -40.138  1.00  0.00    -0.031 NA
HETATM    6  C   UNL     1      -1.955 -14.187 -39.834  1.00  0.00     0.731 A 
HETATM    7  N   UNL     1      -2.429 -14.252 -38.593  1.00  0.00    -0.045 NA
BRANCH   4   8
HETATM    8  N   UNL     1       1.498 -14.641 -39.413  1.00  0.00    -0.270 NA
HETATM    9  H   UNL     1       1.749 -15.616 -39.315  1.00  0.00     0.127 HD
HETATM   10  H   UNL     1       2.058 -13.968 -38.908  1.00  0.00     0.127 HD
ENDBRANCH   4   8
BRANCH   6  11
HETATM   11  N   UNL     1      -2.902 -14.029 -40.846  1.00  0.00    -0.188 N 
HETATM   12  H   UNL     1      -2.789 -14.762 -41.532  1.00  0.00     0.184 HD
BRANCH  11  13
HETATM   13  C   UNL     1      -4.181 -13.440 -40.812  1.00  0.00     0.055 A 
HETATM   14  C   UNL     1      -5.118 -13.710 -41.835  1.00  0.00    -0.031 A 
HETATM   15  C   UNL     1      -6.385 -13.094 -41.800  1.00  0.00     0.009 A 
HETATM   16  C   UNL     1      -6.731 -12.219 -40.773  1.00  0.00     0.001 A 
HETATM   17  C   UNL     1      -5.809 -11.938 -39.773  1.00  0.00     0.002 A 
HETATM   18  C   UNL     1      -4.547 -12.535 -39.801  1.00  0.00     0.030 A 
BRANCH  14  19
HETATM   19  C   UNL     1      -4.790 -14.586 -43.024  1.00  0.00     0.036 C 
HETATM   20  C   UNL     1      -5.643 -15.848 -43.043  1.00  0.00     0.010 C 
ENDBRANCH  14  19
ENDBRANCH  11  13
ENDBRANCH   6  11
ENDBRANCH   1   2
BRANCH   1  21
HETATM   21  N   UNL     1      -3.360 -14.608 -35.977  1.00  0.00    -0.260 N 
HETATM   22  C   UNL     1      -3.859 -15.736 -35.416  1.00  0.00     0.326 C 
HETATM   23  O   UNL     1      -3.247 -16.744 -35.104  1.00  0.00    -0.247 OA
HETATM   24  N   UNL     1      -5.201 -15.560 -35.187  1.00  0.00    -0.321 N 
HETATM   25  C   UNL     1      -5.698 -14.307 -35.716  1.00  0.00     0.140 C 
HETATM   26  H   UNL     1      -5.767 -16.335 -34.869  1.00  0.00     0.165 HD
HETATM   27  C   UNL     1      -4.333 -13.650 -36.037  1.00  0.00     0.261 C 
HETATM   28  C   UNL     1      -6.416 -13.488 -34.644  1.00  0.00     0.054 C 
HETATM   29  O   UNL     1      -4.159 -12.468 -36.310  1.00  0.00    -0.270 OA
BRANCH  25  30
HETATM   30  C   UNL     1      -6.585 -14.579 -36.928  1.00  0.00    -0.020 A 
HETATM   31  C   UNL     1      -7.739 -13.827 -37.211  1.00  0.00     0.022 A 
HETATM   32  C   UNL     1      -8.511 -14.065 -38.363  1.00  0.00    -0.025 A 
HETATM   33  C   UNL     1      -8.131 -15.092 -39.255  1.00  0.00    -0.026 A 
HETATM   34  C   UNL     1      -9.655 -13.302 -38.650  1.00  0.00     0.012 A 
HETATM   35  C   UNL     1      -7.001 -15.864 -38.964  1.00  0.00     0.013 A 
HETATM   36  C   UNL     1      -8.891 -15.319 -40.414  1.00  0.00     0.012 A 
HETATM   37  C   UNL     1      -6.242 -15.614 -37.818  1.00  0.00     0.011 A 
HETATM   38  C   UNL     1     -10.017 -14.542 -40.691  1.00  0.00     0.001 A 
HETATM   39  C   UNL     1     -10.400 -13.535 -39.807  1.00  0.00     0.001 A 
ENDBRANCH  25  30
ENDBRANCH   1  21
TORSDOF 7
ENDMDL
MODEL 9
REMARK VINA RESULT:      -9.6      1.452      2.411
REMARK  7 active torsions:
REMARK  status: ('A' for Active; 'I' for Inactive)
REMARK    1  A    between atoms: C_2  and  C_3 
REMARK    2  A    between atoms: C_4  and  N_5 
REMARK    3  A    between atoms: N_5  and  C_6 
REMARK    4  A    between atoms: C_8  and  N_9 
REMARK    5  A    between atoms: C_11  and  C_12 
REMARK    6  A    between atoms: C_12  and  N_13 
REMARK    7  A    between atoms: C_17  and  C_18 
ROOT
HETATM    1  C   UNL     1      -6.441   3.946 -32.120  1.00  0.00     0.218 C 
ENDROOT
BRANCH   1   2
HETATM    2  C   UNL     1      -4.952   3.922 -31.850  1.00  0.00     0.166 A 
HETATM    3  N   UNL     1      -4.416   2.730 -31.585  1.00  0.00    -0.200 NA
HETATM    4  C   UNL     1      -3.126   2.747 -31.305  1.00  0.00     0.219 A 
HETATM    5  N   UNL     1      -2.366   3.824 -31.303  1.00  0.00    -0.031 NA
HETATM    6  C   UNL     1      -2.970   4.970 -31.604  1.00  0.00     0.731 A 
HETATM    7  N   UNL     1      -4.258   5.064 -31.925  1.00  0.00    -0.045 NA
BRANCH   4   8
HETATM    8  N   UNL     1      -2.516   1.538 -31.037  1.00  0.00    -0.270 NA
HETATM    9  H   UNL     1      -2.926   1.123 -30.211  1.00  0.00     0.127 HD
HETATM   10  H   UNL     1      -1.511   1.638 -31.053  1.00  0.00     0.127 HD
ENDBRANCH   4   8
BRANCH   6  11
HETATM   11  N   UNL     1      -2.239   6.158 -31.643  1.00  0.00    -0.188 N 
HETATM   12  H   UNL     1      -2.608   6.758 -32.369  1.00  0.00     0.184 HD
BRANCH  11  13
HETATM   13  C   UNL     1      -1.532   6.826 -30.625  1.00  0.00     0.055 A 
HETATM   14  C   UNL     1      -2.150   7.861 -29.887  1.00  0.00    -0.031 A 
HETATM   15  C   UNL     1      -1.422   8.536 -28.888  1.00  0.00     0.009 A 
HETATM   16  C   UNL     1      -0.098   8.201 -28.614  1.00  0.00     0.001 A 
HETATM   17  C   UNL     1       0.520   7.196 -29.345  1.00  0.00     0.002 A 
HETATM   18  C   UNL     1      -0.188   6.525 -30.344  1.00  0.00     0.030 A 
BRANCH  14  19
HETATM   19  C   UNL     1      -3.558   8.334 -30.178  1.00  0.00     0.036 C 
HETATM   20  C   UNL     1      -4.554   7.785 -29.166  1.00  0.00     0.010 C 
ENDBRANCH  14  19
ENDBRANCH  11  13
ENDBRANCH   6  11
ENDBRANCH   1   2
BRANCH   1  21
HETATM   21  N   UNL     1      -7.008   2.676 -32.522  1.00  0.00    -0.260 N 
HETATM   22  C   UNL     1      -7.868   1.963 -31.756  1.00  0.00     0.326 C 
HETATM   23  O   UNL     1      -8.212   2.196 -30.610  1.00  0.00    -0.247 OA
HETATM   24  N   UNL     1      -8.363   0.921 -32.501  1.00  0.00    -0.321 N 
HETATM   25  C   UNL     1      -7.740   0.820 -33.805  1.00  0.00     0.140 C 
HETATM   26  H   UNL     1      -8.941   0.215 -32.065  1.00  0.00     0.165 HD
HETATM   27  C   UNL     1      -6.996   2.179 -33.795  1.00  0.00     0.261 C 
HETATM   28  C   UNL     1      -8.776   0.817 -34.927  1.00  0.00     0.054 C 
HETATM   29  O   UNL     1      -6.476   2.713 -34.768  1.00  0.00    -0.270 OA
BRANCH  25  30
HETATM   30  C   UNL     1      -6.836  -0.409 -33.846  1.00  0.00    -0.020 A 
HETATM   31  C   UNL     1      -7.249  -1.639 -34.391  1.00  0.00     0.022 A 
HETATM   32  C   UNL     1      -6.380  -2.743 -34.463  1.00  0.00    -0.025 A 
HETATM   33  C   UNL     1      -5.063  -2.626 -33.966  1.00  0.00    -0.026 A 
HETATM   34  C   UNL     1      -6.791  -3.965 -35.022  1.00  0.00     0.012 A 
HETATM   35  C   UNL     1      -4.655  -1.414 -33.396  1.00  0.00     0.013 A 
HETATM   36  C   UNL     1      -4.189  -3.722 -34.054  1.00  0.00     0.012 A 
HETATM   37  C   UNL     1      -5.529  -0.326 -33.333  1.00  0.00     0.011 A 
HETATM   38  C   UNL     1      -4.611  -4.924 -34.625  1.00  0.00     0.001 A 
HETATM   39  C   UNL     1      -5.912  -5.045 -35.107  1.00  0.00     0.001 A 
ENDBRANCH  25  30
ENDBRANCH   1  21
TORSDOF 7
ENDMDL
MODEL 10
REMARK VINA RESULT:      -9.5      3.065      7.753
REMARK  7 active torsions:
REMARK  status: ('A' for Active; 'I' for Inactive)
REMARK    1  A    between atoms: C_2  and  C_3 
REMARK    2  A    between atoms: C_4  and  N_5 
REMARK    3  A    between atoms: N_5  and  C_6 
REMARK    4  A    between atoms: C_8  and  N_9 
REMARK    5  A    between atoms: C_11  and  C_12 
REMARK    6  A    between atoms: C_12  and  N_13 
REMARK    7  A    between atoms: C_17  and  C_18 
ROOT
HETATM    1  C   UNL     1     -10.351   4.550 -32.565  1.00  0.00     0.218 C 
ENDROOT
BRANCH   1   2
HETATM    2  C   UNL     1     -10.053   3.155 -33.072  1.00  0.00     0.166 A 
HETATM    3  N   UNL     1     -11.047   2.270 -32.989  1.00  0.00    -0.200 NA
HETATM    4  C   UNL     1     -10.743   1.050 -33.392  1.00  0.00     0.219 A 
HETATM    5  N   UNL     1      -9.574   0.682 -33.880  1.00  0.00    -0.031 NA
HETATM    6  C   UNL     1      -8.645   1.631 -33.955  1.00  0.00     0.731 A 
HETATM    7  N   UNL     1      -8.851   2.896 -33.599  1.00  0.00    -0.045 NA
BRANCH   4   8
HETATM    8  N   UNL     1     -11.739   0.095 -33.341  1.00  0.00    -0.270 NA
HETATM    9  H   UNL     1     -11.372  -0.799 -33.638  1.00  0.00     0.127 HD
HETATM   10  H   UNL     1     -12.572   0.429 -33.805  1.00  0.00     0.127 HD
ENDBRANCH   4   8
BRANCH   6  11
HETATM   11  N   UNL     1      -7.384   1.336 -34.475  1.00  0.00    -0.188 N 
HETATM   12  H   UNL     1      -6.931   2.191 -34.766  1.00  0.00     0.184 HD
BRANCH  11  13
HETATM   13  C   UNL     1      -6.511   0.267 -34.194  1.00  0.00     0.055 A 
HETATM   14  C   UNL     1      -5.485   0.418 -33.234  1.00  0.00    -0.031 A 
HETATM   15  C   UNL     1      -4.604  -0.652 -32.981  1.00  0.00     0.009 A 
HETATM   16  C   UNL     1      -4.725  -1.859 -33.664  1.00  0.00     0.001 A 
HETATM   17  C   UNL     1      -5.721  -2.009 -34.620  1.00  0.00     0.002 A 
HETATM   18  C   UNL     1      -6.595  -0.953 -34.886  1.00  0.00     0.030 A 
BRANCH  14  19
HETATM   19  C   UNL     1      -5.240   1.723 -32.507  1.00  0.00     0.036 C 
HETATM   20  C   UNL     1      -3.752   2.000 -32.337  1.00  0.00     0.010 C 
ENDBRANCH  14  19
ENDBRANCH  11  13
ENDBRANCH   6  11
ENDBRANCH   1   2
BRANCH   1  21
HETATM   21  N   UNL     1      -9.208   5.438 -32.521  1.00  0.00    -0.260 N 
HETATM   22  C   UNL     1      -9.183   6.657 -33.112  1.00  0.00     0.326 C 
HETATM   23  O   UNL     1     -10.031   7.149 -33.839  1.00  0.00    -0.247 OA
HETATM   24  N   UNL     1      -8.045   7.315 -32.719  1.00  0.00    -0.321 N 
HETATM   25  C   UNL     1      -7.169   6.486 -31.916  1.00  0.00     0.140 C 
HETATM   26  H   UNL     1      -7.798   8.200 -33.142  1.00  0.00     0.165 HD
HETATM   27  C   UNL     1      -8.149   5.313 -31.667  1.00  0.00     0.261 C 
HETATM   28  C   UNL     1      -6.826   7.153 -30.586  1.00  0.00     0.054 C 
HETATM   29  O   UNL     1      -7.993   4.418 -30.845  1.00  0.00    -0.270 OA
BRANCH  25  30
HETATM   30  C   UNL     1      -5.924   6.126 -32.723  1.00  0.00    -0.020 A 
HETATM   31  C   UNL     1      -4.667   6.710 -32.483  1.00  0.00     0.022 A 
HETATM   32  C   UNL     1      -3.523   6.324 -33.207  1.00  0.00    -0.025 A 
HETATM   33  C   UNL     1      -3.636   5.335 -34.209  1.00  0.00    -0.026 A 
HETATM   34  C   UNL     1      -2.267   6.899 -32.955  1.00  0.00     0.012 A 
HETATM   35  C   UNL     1      -4.889   4.771 -34.473  1.00  0.00     0.013 A 
HETATM   36  C   UNL     1      -2.492   4.936 -34.919  1.00  0.00     0.012 A 
HETATM   37  C   UNL     1      -6.015   5.163 -33.744  1.00  0.00     0.011 A 
HETATM   38  C   UNL     1      -1.249   5.509 -34.646  1.00  0.00     0.001 A 
HETATM   39  C   UNL     1      -1.137   6.492 -33.666  1.00  0.00     0.001 A 
ENDBRANCH  25  30
ENDBRANCH   1  21
TORSDOF 7
ENDMDL
