MODEL 1
REMARK VINA RESULT:      -8.8      0.000      0.000
REMARK  11 active torsions:
REMARK  status: ('A' for Active; 'I' for Inactive)
REMARK    1  A    between atoms: C_3  and  O_4 
REMARK    2  A    between atoms: O_4  and  C_5 
REMARK    3  A    between atoms: C_10  and  C_11 
REMARK    4  A    between atoms: C_11  and  C_12 
REMARK    5  A    between atoms: C_13  and  C_14 
REMARK    6  A    between atoms: C_17  and  O_18 
REMARK    7  A    between atoms: N_21  and  C_22 
REMARK    8  A    between atoms: C_22  and  C_23 
REMARK    9  A    between atoms: C_23  and  C_24 
REMARK   10  A    between atoms: C_24  and  N_25 
REMARK   11  A    between atoms: C_34  and  O_35 
ROOT
HETATM    1  C   UNL     1      -6.143   3.118 -31.594  1.00  0.00     0.059 A 
HETATM    2  C   UNL     1      -5.874   4.518 -32.086  1.00  0.00     0.161 A 
HETATM    3  N   UNL     1      -5.728   5.227 -30.824  1.00  0.00    -0.333 N 
HETATM    4  C   UNL     1      -5.738   4.372 -29.751  1.00  0.00     0.278 A 
HETATM    5  O   UNL     1      -5.624   4.708 -28.582  1.00  0.00    -0.265 OA
HETATM    6  C   UNL     1      -6.068   3.017 -30.257  1.00  0.00     0.146 A 
ENDROOT
BRANCH   1   7
HETATM    7  C   UNL     1      -6.609   2.138 -32.602  1.00  0.00     0.193 C 
HETATM    8  O   UNL     1      -7.751   2.222 -33.040  1.00  0.00    -0.287 OA
BRANCH   7   9
HETATM    9  C   UNL     1      -5.751   1.001 -32.998  1.00  0.00     0.015 A 
HETATM   10  C   UNL     1      -4.408   0.911 -32.619  1.00  0.00     0.018 A 
HETATM   11  C   UNL     1      -3.687  -0.250 -32.908  1.00  0.00     0.038 A 
HETATM   12  C   UNL     1      -4.303  -1.308 -33.583  1.00  0.00     0.075 A 
HETATM   13  C   UNL     1      -5.617  -1.183 -34.056  1.00  0.00    -0.028 A 
HETATM   14  C   UNL     1      -6.247  -2.263 -34.891  1.00  0.00     0.051 C 
HETATM   15  C   UNL     1      -6.336  -0.020 -33.756  1.00  0.00     0.025 A 
BRANCH  12  16
HETATM   16  O   UNL     1      -3.650  -2.481 -33.848  1.00  0.00    -0.346 OA
BRANCH  16  17
HETATM   17  C   UNL     1      -3.893  -3.545 -32.910  1.00  0.00     0.121 C 
HETATM   18  C   UNL     1      -3.743  -4.926 -33.554  1.00  0.00     0.040 C 
HETATM   19  C   UNL     1      -2.854  -3.387 -31.802  1.00  0.00     0.040 C 
ENDBRANCH  16  17
ENDBRANCH  12  16
ENDBRANCH   7   9
ENDBRANCH   1   7
BRANCH   2  20
HETATM   20  C   UNL     1      -4.643   4.635 -32.967  1.00  0.00    -0.030 A 
HETATM   21  C   UNL     1      -4.781   5.113 -34.282  1.00  0.00     0.012 A 
HETATM   22  C   UNL     1      -3.672   5.241 -35.123  1.00  0.00     0.037 A 
HETATM   23  C   UNL     1      -2.415   4.886 -34.651  1.00  0.00     0.065 A 
HETATM   24  C   UNL     1      -2.252   4.395 -33.362  1.00  0.00     0.037 A 
HETATM   25  C   UNL     1      -3.361   4.261 -32.524  1.00  0.00     0.012 A 
BRANCH  23  26
HETATM   26  O   UNL     1      -1.302   5.001 -35.428  1.00  0.00    -0.361 OA
HETATM   27  H   UNL     1      -1.116   5.943 -35.580  1.00  0.00     0.217 HD
ENDBRANCH  23  26
ENDBRANCH   2  20
BRANCH   6  28
HETATM   28  O   UNL     1      -6.378   2.002 -29.403  1.00  0.00    -0.355 OA
HETATM   29  H   UNL     1      -5.658   1.839 -28.771  1.00  0.00     0.218 HD
ENDBRANCH   6  28
BRANCH   3  30
HETATM   30  C   UNL     1      -5.652   6.673 -30.724  1.00  0.00     0.129 C 
BRANCH  30  31
HETATM   31  C   UNL     1      -4.220   7.214 -30.633  1.00  0.00     0.048 C 
BRANCH  31  32
HETATM   32  C   UNL     1      -3.601   7.358 -29.238  1.00  0.00     0.236 C 
BRANCH  32  33
HETATM   33  N   UNL     1      -2.311   6.609 -29.055  1.00  0.00    -0.067 N 
HETATM   34  H   UNL     1      -2.559   5.668 -28.684  1.00  0.00     0.280 HD
HETATM   35  C   UNL     1      -1.467   6.450 -30.306  1.00  0.00     0.261 C 
HETATM   36  C   UNL     1      -0.206   5.642 -29.984  1.00  0.00     0.195 C 
HETATM   37  O   UNL     1       0.549   6.258 -28.936  1.00  0.00    -0.388 OA
HETATM   38  C   UNL     1      -0.211   6.341 -27.725  1.00  0.00     0.195 C 
HETATM   39  C   UNL     1      -1.462   7.204 -27.929  1.00  0.00     0.261 C 
ENDBRANCH  32  33
ENDBRANCH  31  32
ENDBRANCH  30  31
ENDBRANCH   3  30
TORSDOF 11
ENDMDL
MODEL 2
REMARK VINA RESULT:      -8.4      2.911      5.948
REMARK  11 active torsions:
REMARK  status: ('A' for Active; 'I' for Inactive)
REMARK    1  A    between atoms: C_3  and  O_4 
REMARK    2  A    between atoms: O_4  and  C_5 
REMARK    3  A    between atoms: C_10  and  C_11 
REMARK    4  A    between atoms: C_11  and  C_12 
REMARK    5  A    between atoms: C_13  and  C_14 
REMARK    6  A    between atoms: C_17  and  O_18 
REMARK    7  A    between atoms: N_21  and  C_22 
REMARK    8  A    between atoms: C_22  and  C_23 
REMARK    9  A    between atoms: C_23  and  C_24 
REMARK   10  A    between atoms: C_24  and  N_25 
REMARK   11  A    between atoms: C_34  and  O_35 
ROOT
HETATM    1  C   UNL     1      -5.242   3.045 -31.683  1.00  0.00     0.059 A 
HETATM    2  C   UNL     1      -5.607   4.002 -32.789  1.00  0.00     0.161 A 
HETATM    3  N   UNL     1      -6.779   4.646 -32.217  1.00  0.00    -0.333 N 
HETATM    4  C   UNL     1      -6.990   4.265 -30.916  1.00  0.00     0.278 A 
HETATM    5  O   UNL     1      -7.899   4.663 -30.204  1.00  0.00    -0.265 OA
HETATM    6  C   UNL     1      -6.025   3.183 -30.601  1.00  0.00     0.146 A 
ENDROOT
BRANCH   1   7
HETATM    7  C   UNL     1      -4.231   2.012 -32.006  1.00  0.00     0.193 C 
HETATM    8  O   UNL     1      -3.040   2.270 -31.868  1.00  0.00    -0.287 OA
BRANCH   7   9
HETATM    9  C   UNL     1      -4.640   0.720 -32.597  1.00  0.00     0.015 A 
HETATM   10  C   UNL     1      -4.026  -0.488 -32.252  1.00  0.00     0.018 A 
HETATM   11  C   UNL     1      -4.545  -1.689 -32.740  1.00  0.00     0.038 A 
HETATM   12  C   UNL     1      -5.664  -1.681 -33.579  1.00  0.00     0.075 A 
HETATM   13  C   UNL     1      -6.221  -0.468 -34.010  1.00  0.00    -0.028 A 
HETATM   14  C   UNL     1      -7.345  -0.444 -35.010  1.00  0.00     0.051 C 
HETATM   15  C   UNL     1      -5.701   0.731 -33.511  1.00  0.00     0.025 A 
BRANCH  12  16
HETATM   16  O   UNL     1      -6.234  -2.834 -34.044  1.00  0.00    -0.346 OA
BRANCH  16  17
HETATM   17  C   UNL     1      -5.409  -3.614 -34.929  1.00  0.00     0.121 C 
HETATM   18  C   UNL     1      -4.403  -4.480 -34.164  1.00  0.00     0.040 C 
HETATM   19  C   UNL     1      -6.357  -4.515 -35.717  1.00  0.00     0.040 C 
ENDBRANCH  16  17
ENDBRANCH  12  16
ENDBRANCH   7   9
ENDBRANCH   1   7
BRANCH   2  20
HETATM   20  C   UNL     1      -4.508   4.992 -33.134  1.00  0.00    -0.030 A 
HETATM   21  C   UNL     1      -4.105   5.936 -32.173  1.00  0.00     0.012 A 
HETATM   22  C   UNL     1      -3.094   6.860 -32.450  1.00  0.00     0.037 A 
HETATM   23  C   UNL     1      -2.481   6.846 -33.697  1.00  0.00     0.065 A 
HETATM   24  C   UNL     1      -2.869   5.935 -34.669  1.00  0.00     0.037 A 
HETATM   25  C   UNL     1      -3.885   5.016 -34.395  1.00  0.00     0.012 A 
BRANCH  23  26
HETATM   26  O   UNL     1      -1.484   7.720 -34.011  1.00  0.00    -0.361 OA
HETATM   27  H   UNL     1      -1.372   7.740 -34.977  1.00  0.00     0.217 HD
ENDBRANCH  23  26
ENDBRANCH   2  20
BRANCH   6  28
HETATM   28  O   UNL     1      -6.143   2.443 -29.463  1.00  0.00    -0.355 OA
HETATM   29  H   UNL     1      -6.637   2.924 -28.779  1.00  0.00     0.218 HD
ENDBRANCH   6  28
BRANCH   3  30
HETATM   30  C   UNL     1      -7.652   5.530 -32.967  1.00  0.00     0.129 C 
BRANCH  30  31
HETATM   31  C   UNL     1      -8.501   4.813 -34.025  1.00  0.00     0.048 C 
BRANCH  31  32
HETATM   32  C   UNL     1      -9.076   3.439 -33.664  1.00  0.00     0.236 C 
BRANCH  32  33
HETATM   33  N   UNL     1     -10.476   3.207 -34.158  1.00  0.00    -0.067 N 
HETATM   34  H   UNL     1     -11.118   3.478 -33.384  1.00  0.00     0.280 HD
HETATM   35  C   UNL     1     -10.857   3.966 -35.416  1.00  0.00     0.261 C 
HETATM   36  C   UNL     1     -12.313   3.664 -35.785  1.00  0.00     0.195 C 
HETATM   37  O   UNL     1     -12.523   2.259 -35.955  1.00  0.00    -0.388 OA
HETATM   38  C   UNL     1     -12.243   1.539 -34.748  1.00  0.00     0.195 C 
HETATM   39  C   UNL     1     -10.775   1.717 -34.340  1.00  0.00     0.261 C 
ENDBRANCH  32  33
ENDBRANCH  31  32
ENDBRANCH  30  31
ENDBRANCH   3  30
TORSDOF 11
ENDMDL
MODEL 3
REMARK VINA RESULT:      -8.4      2.368      3.807
REMARK  11 active torsions:
REMARK  status: ('A' for Active; 'I' for Inactive)
REMARK    1  A    between atoms: C_3  and  O_4 
REMARK    2  A    between atoms: O_4  and  C_5 
REMARK    3  A    between atoms: C_10  and  C_11 
REMARK    4  A    between atoms: C_11  and  C_12 
REMARK    5  A    between atoms: C_13  and  C_14 
REMARK    6  A    between atoms: C_17  and  O_18 
REMARK    7  A    between atoms: N_21  and  C_22 
REMARK    8  A    between atoms: C_22  and  C_23 
REMARK    9  A    between atoms: C_23  and  C_24 
REMARK   10  A    between atoms: C_24  and  N_25 
REMARK   11  A    between atoms: C_34  and  O_35 
ROOT
HETATM    1  C   UNL     1      -5.089   2.261 -30.802  1.00  0.00     0.059 A 
HETATM    2  C   UNL     1      -6.396   2.989 -30.611  1.00  0.00     0.161 A 
HETATM    3  N   UNL     1      -5.942   4.372 -30.617  1.00  0.00    -0.333 N 
HETATM    4  C   UNL     1      -4.609   4.472 -30.929  1.00  0.00     0.278 A 
HETATM    5  O   UNL     1      -3.982   5.517 -31.009  1.00  0.00    -0.265 OA
HETATM    6  C   UNL     1      -4.054   3.098 -30.986  1.00  0.00     0.146 A 
ENDROOT
BRANCH   1   7
HETATM    7  C   UNL     1      -5.108   0.796 -30.587  1.00  0.00     0.193 C 
HETATM    8  O   UNL     1      -5.186   0.356 -29.445  1.00  0.00    -0.287 OA
BRANCH   7   9
HETATM    9  C   UNL     1      -4.923  -0.132 -31.723  1.00  0.00     0.015 A 
HETATM   10  C   UNL     1      -3.846  -1.022 -31.792  1.00  0.00     0.018 A 
HETATM   11  C   UNL     1      -3.799  -1.966 -32.821  1.00  0.00     0.038 A 
HETATM   12  C   UNL     1      -4.815  -2.011 -33.779  1.00  0.00     0.075 A 
HETATM   13  C   UNL     1      -5.843  -1.057 -33.774  1.00  0.00    -0.028 A 
HETATM   14  C   UNL     1      -6.871  -1.018 -34.870  1.00  0.00     0.051 C 
HETATM   15  C   UNL     1      -5.889  -0.119 -32.736  1.00  0.00     0.025 A 
BRANCH  12  16
HETATM   16  O   UNL     1      -4.834  -2.948 -34.777  1.00  0.00    -0.346 OA
BRANCH  16  17
HETATM   17  C   UNL     1      -5.503  -4.180 -34.452  1.00  0.00     0.121 C 
HETATM   18  C   UNL     1      -6.410  -4.660 -35.589  1.00  0.00     0.040 C 
HETATM   19  C   UNL     1      -4.405  -5.213 -34.207  1.00  0.00     0.040 C 
ENDBRANCH  16  17
ENDBRANCH  12  16
ENDBRANCH   7   9
ENDBRANCH   1   7
BRANCH   2  20
HETATM   20  C   UNL     1      -7.422   2.708 -31.694  1.00  0.00    -0.030 A 
HETATM   21  C   UNL     1      -8.583   1.984 -31.371  1.00  0.00     0.012 A 
HETATM   22  C   UNL     1      -9.553   1.708 -32.338  1.00  0.00     0.037 A 
HETATM   23  C   UNL     1      -9.364   2.155 -33.640  1.00  0.00     0.065 A 
HETATM   24  C   UNL     1      -8.220   2.858 -33.990  1.00  0.00     0.037 A 
HETATM   25  C   UNL     1      -7.246   3.127 -33.025  1.00  0.00     0.012 A 
BRANCH  23  26
HETATM   26  O   UNL     1     -10.285   1.920 -34.615  1.00  0.00    -0.361 OA
HETATM   27  H   UNL     1     -11.145   2.276 -34.334  1.00  0.00     0.217 HD
ENDBRANCH  23  26
ENDBRANCH   2  20
BRANCH   6  28
HETATM   28  O   UNL     1      -2.710   2.881 -31.045  1.00  0.00    -0.355 OA
HETATM   29  H   UNL     1      -2.214   3.674 -30.784  1.00  0.00     0.218 HD
ENDBRANCH   6  28
BRANCH   3  30
HETATM   30  C   UNL     1      -6.792   5.494 -30.265  1.00  0.00     0.129 C 
BRANCH  30  31
HETATM   31  C   UNL     1      -6.995   5.669 -28.755  1.00  0.00     0.048 C 
BRANCH  31  32
HETATM   32  C   UNL     1      -6.336   6.879 -28.083  1.00  0.00     0.236 C 
BRANCH  32  33
HETATM   33  N   UNL     1      -4.993   7.245 -28.650  1.00  0.00    -0.067 N 
HETATM   34  H   UNL     1      -4.766   6.529 -29.373  1.00  0.00     0.280 HD
HETATM   35  C   UNL     1      -4.902   8.628 -29.265  1.00  0.00     0.261 C 
HETATM   36  C   UNL     1      -3.495   8.854 -29.832  1.00  0.00     0.195 C 
HETATM   37  O   UNL     1      -2.497   8.679 -28.822  1.00  0.00    -0.388 OA
HETATM   38  C   UNL     1      -2.521   7.349 -28.289  1.00  0.00     0.195 C 
HETATM   39  C   UNL     1      -3.873   7.057 -27.624  1.00  0.00     0.261 C 
ENDBRANCH  32  33
ENDBRANCH  31  32
ENDBRANCH  30  31
ENDBRANCH   3  30
TORSDOF 11
ENDMDL
MODEL 4
REMARK VINA RESULT:      -8.4      3.153      5.999
REMARK  11 active torsions:
REMARK  status: ('A' for Active; 'I' for Inactive)
REMARK    1  A    between atoms: C_3  and  O_4 
REMARK    2  A    between atoms: O_4  and  C_5 
REMARK    3  A    between atoms: C_10  and  C_11 
REMARK    4  A    between atoms: C_11  and  C_12 
REMARK    5  A    between atoms: C_13  and  C_14 
REMARK    6  A    between atoms: C_17  and  O_18 
REMARK    7  A    between atoms: N_21  and  C_22 
REMARK    8  A    between atoms: C_22  and  C_23 
REMARK    9  A    between atoms: C_23  and  C_24 
REMARK   10  A    between atoms: C_24  and  N_25 
REMARK   11  A    between atoms: C_34  and  O_35 
ROOT
HETATM    1  C   UNL     1      -5.674   2.355 -30.765  1.00  0.00     0.059 A 
HETATM    2  C   UNL     1      -7.055   2.953 -30.668  1.00  0.00     0.161 A 
HETATM    3  N   UNL     1      -6.738   4.373 -30.657  1.00  0.00    -0.333 N 
HETATM    4  C   UNL     1      -5.403   4.601 -30.881  1.00  0.00     0.278 A 
HETATM    5  O   UNL     1      -4.876   5.702 -30.930  1.00  0.00    -0.265 OA
HETATM    6  C   UNL     1      -4.715   3.287 -30.889  1.00  0.00     0.146 A 
ENDROOT
BRANCH   1   7
HETATM    7  C   UNL     1      -5.566   0.895 -30.538  1.00  0.00     0.193 C 
HETATM    8  O   UNL     1      -5.641   0.457 -29.395  1.00  0.00    -0.287 OA
BRANCH   7   9
HETATM    9  C   UNL     1      -5.258  -0.019 -31.659  1.00  0.00     0.015 A 
HETATM   10  C   UNL     1      -4.109  -0.816 -31.679  1.00  0.00     0.018 A 
HETATM   11  C   UNL     1      -3.942  -1.756 -32.698  1.00  0.00     0.038 A 
HETATM   12  C   UNL     1      -4.912  -1.890 -33.696  1.00  0.00     0.075 A 
HETATM   13  C   UNL     1      -6.015  -1.025 -33.738  1.00  0.00    -0.028 A 
HETATM   14  C   UNL     1      -6.998  -1.077 -34.874  1.00  0.00     0.051 C 
HETATM   15  C   UNL     1      -6.181  -0.090 -32.709  1.00  0.00     0.025 A 
BRANCH  12  16
HETATM   16  O   UNL     1      -4.813  -2.829 -34.686  1.00  0.00    -0.346 OA
BRANCH  16  17
HETATM   17  C   UNL     1      -5.389  -4.111 -34.379  1.00  0.00     0.121 C 
HETATM   18  C   UNL     1      -6.240  -4.652 -35.531  1.00  0.00     0.040 C 
HETATM   19  C   UNL     1      -4.218  -5.058 -34.126  1.00  0.00     0.040 C 
ENDBRANCH  16  17
ENDBRANCH  12  16
ENDBRANCH   7   9
ENDBRANCH   1   7
BRANCH   2  20
HETATM   20  C   UNL     1      -7.975   2.569 -31.814  1.00  0.00    -0.030 A 
HETATM   21  C   UNL     1      -9.129   1.812 -31.546  1.00  0.00     0.012 A 
HETATM   22  C   UNL     1     -10.003   1.444 -32.572  1.00  0.00     0.037 A 
HETATM   23  C   UNL     1      -9.723   1.829 -33.877  1.00  0.00     0.065 A 
HETATM   24  C   UNL     1      -8.582   2.564 -34.172  1.00  0.00     0.037 A 
HETATM   25  C   UNL     1      -7.705   2.926 -33.148  1.00  0.00     0.012 A 
BRANCH  23  26
HETATM   26  O   UNL     1     -10.549   1.503 -34.910  1.00  0.00    -0.361 OA
HETATM   27  H   UNL     1     -11.429   1.286 -34.558  1.00  0.00     0.217 HD
ENDBRANCH  23  26
ENDBRANCH   2  20
BRANCH   6  28
HETATM   28  O   UNL     1      -3.356   3.202 -30.857  1.00  0.00    -0.355 OA
HETATM   29  H   UNL     1      -2.978   3.831 -30.220  1.00  0.00     0.218 HD
ENDBRANCH   6  28
BRANCH   3  30
HETATM   30  C   UNL     1      -7.714   5.409 -30.373  1.00  0.00     0.129 C 
BRANCH  30  31
HETATM   31  C   UNL     1      -8.239   6.126 -31.623  1.00  0.00     0.048 C 
BRANCH  31  32
HETATM   32  C   UNL     1      -9.709   6.558 -31.631  1.00  0.00     0.236 C 
BRANCH  32  33
HETATM   33  N   UNL     1     -10.448   6.212 -32.893  1.00  0.00    -0.067 N 
HETATM   34  H   UNL     1     -11.148   6.967 -33.049  1.00  0.00     0.280 HD
HETATM   35  C   UNL     1      -9.585   6.062 -34.131  1.00  0.00     0.261 C 
HETATM   36  C   UNL     1     -10.467   5.744 -35.344  1.00  0.00     0.195 C 
HETATM   37  O   UNL     1     -11.248   4.566 -35.122  1.00  0.00    -0.388 OA
HETATM   38  C   UNL     1     -12.126   4.725 -34.000  1.00  0.00     0.195 C 
HETATM   39  C   UNL     1     -11.324   4.969 -32.716  1.00  0.00     0.261 C 
ENDBRANCH  32  33
ENDBRANCH  31  32
ENDBRANCH  30  31
ENDBRANCH   3  30
TORSDOF 11
ENDMDL
MODEL 5
REMARK VINA RESULT:      -8.1      3.581      6.671
REMARK  11 active torsions:
REMARK  status: ('A' for Active; 'I' for Inactive)
REMARK    1  A    between atoms: C_3  and  O_4 
REMARK    2  A    between atoms: O_4  and  C_5 
REMARK    3  A    between atoms: C_10  and  C_11 
REMARK    4  A    between atoms: C_11  and  C_12 
REMARK    5  A    between atoms: C_13  and  C_14 
REMARK    6  A    between atoms: C_17  and  O_18 
REMARK    7  A    between atoms: N_21  and  C_22 
REMARK    8  A    between atoms: C_22  and  C_23 
REMARK    9  A    between atoms: C_23  and  C_24 
REMARK   10  A    between atoms: C_24  and  N_25 
REMARK   11  A    between atoms: C_34  and  O_35 
ROOT
HETATM    1  C   UNL     1      -7.678   1.739 -31.608  1.00  0.00     0.059 A 
HETATM    2  C   UNL     1      -6.878   1.858 -32.881  1.00  0.00     0.161 A 
HETATM    3  N   UNL     1      -5.753   2.659 -32.422  1.00  0.00    -0.333 N 
HETATM    4  C   UNL     1      -5.781   2.851 -31.064  1.00  0.00     0.278 A 
HETATM    5  O   UNL     1      -4.951   3.480 -30.425  1.00  0.00    -0.265 OA
HETATM    6  C   UNL     1      -7.062   2.303 -30.556  1.00  0.00     0.146 A 
ENDROOT
BRANCH   1   7
HETATM    7  C   UNL     1      -9.051   1.199 -31.736  1.00  0.00     0.193 C 
HETATM    8  O   UNL     1      -9.273   0.036 -31.415  1.00  0.00    -0.287 OA
BRANCH   7   9
HETATM    9  C   UNL     1     -10.124   2.011 -32.348  1.00  0.00     0.015 A 
HETATM   10  C   UNL     1     -10.508   3.253 -31.832  1.00  0.00     0.018 A 
HETATM   11  C   UNL     1     -11.432   4.032 -32.531  1.00  0.00     0.038 A 
HETATM   12  C   UNL     1     -11.976   3.567 -33.732  1.00  0.00     0.075 A 
HETATM   13  C   UNL     1     -11.673   2.281 -34.201  1.00  0.00    -0.028 A 
HETATM   14  C   UNL     1     -12.348   1.722 -35.423  1.00  0.00     0.051 C 
HETATM   15  C   UNL     1     -10.741   1.508 -33.500  1.00  0.00     0.025 A 
BRANCH  12  16
HETATM   16  O   UNL     1     -12.849   4.316 -34.474  1.00  0.00    -0.346 OA
BRANCH  16  17
HETATM   17  C   UNL     1     -12.422   5.661 -34.754  1.00  0.00     0.121 C 
HETATM   18  C   UNL     1     -11.061   5.699 -35.456  1.00  0.00     0.040 C 
HETATM   19  C   UNL     1     -13.482   6.267 -35.670  1.00  0.00     0.040 C 
ENDBRANCH  16  17
ENDBRANCH  12  16
ENDBRANCH   7   9
ENDBRANCH   1   7
BRANCH   2  20
HETATM   20  C   UNL     1      -6.444   0.524 -33.462  1.00  0.00    -0.030 A 
HETATM   21  C   UNL     1      -5.367  -0.165 -32.877  1.00  0.00     0.012 A 
HETATM   22  C   UNL     1      -4.941  -1.398 -33.379  1.00  0.00     0.037 A 
HETATM   23  C   UNL     1      -5.592  -1.948 -34.476  1.00  0.00     0.065 A 
HETATM   24  C   UNL     1      -6.648  -1.282 -35.084  1.00  0.00     0.037 A 
HETATM   25  C   UNL     1      -7.069  -0.047 -34.586  1.00  0.00     0.012 A 
BRANCH  23  26
HETATM   26  O   UNL     1      -5.220  -3.151 -34.997  1.00  0.00    -0.361 OA
HETATM   27  H   UNL     1      -4.793  -3.680 -34.302  1.00  0.00     0.217 HD
ENDBRANCH  23  26
ENDBRANCH   2  20
BRANCH   6  28
HETATM   28  O   UNL     1      -7.481   2.552 -29.284  1.00  0.00    -0.355 OA
HETATM   29  H   UNL     1      -7.433   3.500 -29.076  1.00  0.00     0.218 HD
ENDBRANCH   6  28
BRANCH   3  30
HETATM   30  C   UNL     1      -4.767   3.238 -33.316  1.00  0.00     0.129 C 
BRANCH  30  31
HETATM   31  C   UNL     1      -5.206   4.565 -33.948  1.00  0.00     0.048 C 
BRANCH  31  32
HETATM   32  C   UNL     1      -4.821   5.860 -33.225  1.00  0.00     0.236 C 
BRANCH  32  33
HETATM   33  N   UNL     1      -3.341   6.114 -33.159  1.00  0.00    -0.067 N 
HETATM   34  H   UNL     1      -2.947   5.426 -32.484  1.00  0.00     0.280 HD
HETATM   35  C   UNL     1      -2.602   6.002 -34.480  1.00  0.00     0.261 C 
HETATM   36  C   UNL     1      -1.106   6.249 -34.261  1.00  0.00     0.195 C 
HETATM   37  O   UNL     1      -0.875   7.525 -33.656  1.00  0.00    -0.388 OA
HETATM   38  C   UNL     1      -1.503   7.614 -32.371  1.00  0.00     0.195 C 
HETATM   39  C   UNL     1      -3.024   7.458 -32.499  1.00  0.00     0.261 C 
ENDBRANCH  32  33
ENDBRANCH  31  32
ENDBRANCH  30  31
ENDBRANCH   3  30
TORSDOF 11
ENDMDL
MODEL 6
REMARK VINA RESULT:      -7.8      2.379      3.320
REMARK  11 active torsions:
REMARK  status: ('A' for Active; 'I' for Inactive)
REMARK    1  A    between atoms: C_3  and  O_4 
REMARK    2  A    between atoms: O_4  and  C_5 
REMARK    3  A    between atoms: C_10  and  C_11 
REMARK    4  A    between atoms: C_11  and  C_12 
REMARK    5  A    between atoms: C_13  and  C_14 
REMARK    6  A    between atoms: C_17  and  O_18 
REMARK    7  A    between atoms: N_21  and  C_22 
REMARK    8  A    between atoms: C_22  and  C_23 
REMARK    9  A    between atoms: C_23  and  C_24 
REMARK   10  A    between atoms: C_24  and  N_25 
REMARK   11  A    between atoms: C_34  and  O_35 
ROOT
HETATM    1  C   UNL     1      -7.383   4.409 -31.923  1.00  0.00     0.059 A 
HETATM    2  C   UNL     1      -5.959   4.518 -31.439  1.00  0.00     0.161 A 
HETATM    3  N   UNL     1      -6.156   5.181 -30.159  1.00  0.00    -0.333 N 
HETATM    4  C   UNL     1      -7.486   5.302 -29.844  1.00  0.00     0.278 A 
HETATM    5  O   UNL     1      -7.924   5.812 -28.824  1.00  0.00    -0.265 OA
HETATM    6  C   UNL     1      -8.271   4.853 -31.020  1.00  0.00     0.146 A 
ENDROOT
BRANCH   1   7
HETATM    7  C   UNL     1      -7.574   4.011 -33.337  1.00  0.00     0.193 C 
HETATM    8  O   UNL     1      -7.778   4.875 -34.183  1.00  0.00    -0.287 OA
BRANCH   7   9
HETATM    9  C   UNL     1      -7.632   2.583 -33.715  1.00  0.00     0.015 A 
HETATM   10  C   UNL     1      -6.717   2.007 -34.602  1.00  0.00     0.018 A 
HETATM   11  C   UNL     1      -6.740   0.627 -34.814  1.00  0.00     0.038 A 
HETATM   12  C   UNL     1      -7.680  -0.170 -34.153  1.00  0.00     0.075 A 
HETATM   13  C   UNL     1      -8.665   0.414 -33.343  1.00  0.00    -0.028 A 
HETATM   14  C   UNL     1      -9.756  -0.417 -32.727  1.00  0.00     0.051 C 
HETATM   15  C   UNL     1      -8.631   1.797 -33.128  1.00  0.00     0.025 A 
BRANCH  12  16
HETATM   16  O   UNL     1      -7.710  -1.530 -34.295  1.00  0.00    -0.346 OA
BRANCH  16  17
HETATM   17  C   UNL     1      -6.445  -2.146 -34.596  1.00  0.00     0.121 C 
HETATM   18  C   UNL     1      -5.422  -1.936 -33.475  1.00  0.00     0.040 C 
HETATM   19  C   UNL     1      -6.721  -3.639 -34.758  1.00  0.00     0.040 C 
ENDBRANCH  16  17
ENDBRANCH  12  16
ENDBRANCH   7   9
ENDBRANCH   1   7
BRANCH   2  20
HETATM   20  C   UNL     1      -5.252   3.181 -31.300  1.00  0.00    -0.030 A 
HETATM   21  C   UNL     1      -5.874   2.144 -30.582  1.00  0.00     0.012 A 
HETATM   22  C   UNL     1      -5.259   0.898 -30.436  1.00  0.00     0.037 A 
HETATM   23  C   UNL     1      -4.011   0.683 -31.008  1.00  0.00     0.065 A 
HETATM   24  C   UNL     1      -3.367   1.694 -31.708  1.00  0.00     0.037 A 
HETATM   25  C   UNL     1      -3.978   2.942 -31.848  1.00  0.00     0.012 A 
BRANCH  23  26
HETATM   26  O   UNL     1      -3.375  -0.516 -30.901  1.00  0.00    -0.361 OA
HETATM   27  H   UNL     1      -3.920  -1.120 -30.370  1.00  0.00     0.217 HD
ENDBRANCH  23  26
ENDBRANCH   2  20
BRANCH   6  28
HETATM   28  O   UNL     1      -9.614   5.073 -31.097  1.00  0.00    -0.355 OA
HETATM   29  H   UNL     1      -9.960   5.435 -30.265  1.00  0.00     0.218 HD
ENDBRANCH   6  28
BRANCH   3  30
HETATM   30  C   UNL     1      -5.069   5.709 -29.356  1.00  0.00     0.129 C 
BRANCH  30  31
HETATM   31  C   UNL     1      -4.295   6.848 -30.032  1.00  0.00     0.048 C 
BRANCH  31  32
HETATM   32  C   UNL     1      -3.028   6.481 -30.814  1.00  0.00     0.236 C 
BRANCH  32  33
HETATM   33  N   UNL     1      -1.885   6.019 -29.956  1.00  0.00    -0.067 N 
HETATM   34  H   UNL     1      -2.250   5.251 -29.355  1.00  0.00     0.280 HD
HETATM   35  C   UNL     1      -0.662   5.530 -30.710  1.00  0.00     0.261 C 
HETATM   36  C   UNL     1       0.407   5.060 -29.717  1.00  0.00     0.195 C 
HETATM   37  O   UNL     1       0.757   6.102 -28.801  1.00  0.00    -0.388 OA
HETATM   38  C   UNL     1      -0.375   6.517 -28.026  1.00  0.00     0.195 C 
HETATM   39  C   UNL     1      -1.474   7.082 -28.934  1.00  0.00     0.261 C 
ENDBRANCH  32  33
ENDBRANCH  31  32
ENDBRANCH  30  31
ENDBRANCH   3  30
TORSDOF 11
ENDMDL
MODEL 7
REMARK VINA RESULT:      -7.7      2.043      4.268
REMARK  11 active torsions:
REMARK  status: ('A' for Active; 'I' for Inactive)
REMARK    1  A    between atoms: C_3  and  O_4 
REMARK    2  A    between atoms: O_4  and  C_5 
REMARK    3  A    between atoms: C_10  and  C_11 
REMARK    4  A    between atoms: C_11  and  C_12 
REMARK    5  A    between atoms: C_13  and  C_14 
REMARK    6  A    between atoms: C_17  and  O_18 
REMARK    7  A    between atoms: N_21  and  C_22 
REMARK    8  A    between atoms: C_22  and  C_23 
REMARK    9  A    between atoms: C_23  and  C_24 
REMARK   10  A    between atoms: C_24  and  N_25 
REMARK   11  A    between atoms: C_34  and  O_35 
ROOT
HETATM    1  C   UNL     1      -4.125   5.232 -33.257  1.00  0.00     0.059 A 
HETATM    2  C   UNL     1      -3.328   5.445 -31.995  1.00  0.00     0.161 A 
HETATM    3  N   UNL     1      -2.072   5.933 -32.543  1.00  0.00    -0.333 N 
HETATM    4  C   UNL     1      -2.151   6.142 -33.897  1.00  0.00     0.278 A 
HETATM    5  O   UNL     1      -1.241   6.557 -34.599  1.00  0.00    -0.265 OA
HETATM    6  C   UNL     1      -3.464   5.628 -34.358  1.00  0.00     0.146 A 
ENDROOT
BRANCH   1   7
HETATM    7  C   UNL     1      -5.395   4.482 -33.122  1.00  0.00     0.193 C 
HETATM    8  O   UNL     1      -6.422   5.085 -32.829  1.00  0.00    -0.287 OA
BRANCH   7   9
HETATM    9  C   UNL     1      -5.411   3.008 -33.228  1.00  0.00     0.015 A 
HETATM   10  C   UNL     1      -4.565   2.194 -32.469  1.00  0.00     0.018 A 
HETATM   11  C   UNL     1      -4.721   0.807 -32.513  1.00  0.00     0.038 A 
HETATM   12  C   UNL     1      -5.710   0.238 -33.321  1.00  0.00     0.075 A 
HETATM   13  C   UNL     1      -6.493   1.042 -34.162  1.00  0.00    -0.028 A 
HETATM   14  C   UNL     1      -7.472   0.431 -35.127  1.00  0.00     0.051 C 
HETATM   15  C   UNL     1      -6.337   2.431 -34.107  1.00  0.00     0.025 A 
BRANCH  12  16
HETATM   16  O   UNL     1      -5.929  -1.112 -33.361  1.00  0.00    -0.346 OA
BRANCH  16  17
HETATM   17  C   UNL     1      -4.934  -1.876 -34.067  1.00  0.00     0.121 C 
HETATM   18  C   UNL     1      -4.001  -2.627 -33.112  1.00  0.00     0.040 C 
HETATM   19  C   UNL     1      -5.695  -2.882 -34.928  1.00  0.00     0.040 C 
ENDBRANCH  16  17
ENDBRANCH  12  16
ENDBRANCH   7   9
ENDBRANCH   1   7
BRANCH   2  20
HETATM   20  C   UNL     1      -3.962   6.427 -31.025  1.00  0.00    -0.030 A 
HETATM   21  C   UNL     1      -3.901   7.804 -31.301  1.00  0.00     0.012 A 
HETATM   22  C   UNL     1      -4.476   8.739 -30.437  1.00  0.00     0.037 A 
HETATM   23  C   UNL     1      -5.117   8.299 -29.285  1.00  0.00     0.065 A 
HETATM   24  C   UNL     1      -5.179   6.946 -28.980  1.00  0.00     0.037 A 
HETATM   25  C   UNL     1      -4.597   6.012 -29.840  1.00  0.00     0.012 A 
BRANCH  23  26
HETATM   26  O   UNL     1      -5.701   9.171 -28.417  1.00  0.00    -0.361 OA
HETATM   27  H   UNL     1      -5.766   8.752 -27.542  1.00  0.00     0.217 HD
ENDBRANCH  23  26
ENDBRANCH   2  20
BRANCH   6  28
HETATM   28  O   UNL     1      -3.739   5.483 -35.684  1.00  0.00    -0.355 OA
HETATM   29  H   UNL     1      -3.753   4.546 -35.941  1.00  0.00     0.218 HD
ENDBRANCH   6  28
BRANCH   3  30
HETATM   30  C   UNL     1      -0.868   6.107 -31.752  1.00  0.00     0.129 C 
BRANCH  30  31
HETATM   31  C   UNL     1      -0.748   5.125 -30.580  1.00  0.00     0.048 C 
BRANCH  31  32
HETATM   32  C   UNL     1       0.365   5.371 -29.556  1.00  0.00     0.236 C 
BRANCH  32  33
HETATM   33  N   UNL     1      -0.109   5.964 -28.259  1.00  0.00    -0.067 N 
HETATM   34  H   UNL     1      -0.482   5.178 -27.687  1.00  0.00     0.280 HD
HETATM   35  C   UNL     1       0.943   6.712 -27.463  1.00  0.00     0.261 C 
HETATM   36  C   UNL     1       0.334   7.232 -26.156  1.00  0.00     0.195 C 
HETATM   37  O   UNL     1      -0.800   8.066 -26.409  1.00  0.00    -0.388 OA
HETATM   38  C   UNL     1      -1.835   7.347 -27.092  1.00  0.00     0.195 C 
HETATM   39  C   UNL     1      -1.340   6.852 -28.457  1.00  0.00     0.261 C 
ENDBRANCH  32  33
ENDBRANCH  31  32
ENDBRANCH  30  31
ENDBRANCH   3  30
TORSDOF 11
ENDMDL
MODEL 8
REMARK VINA RESULT:      -7.7      2.442      8.864
REMARK  11 active torsions:
REMARK  status: ('A' for Active; 'I' for Inactive)
REMARK    1  A    between atoms: C_3  and  O_4 
REMARK    2  A    between atoms: O_4  and  C_5 
REMARK    3  A    between atoms: C_10  and  C_11 
REMARK    4  A    between atoms: C_11  and  C_12 
REMARK    5  A    between atoms: C_13  and  C_14 
REMARK    6  A    between atoms: C_17  and  O_18 
REMARK    7  A    between atoms: N_21  and  C_22 
REMARK    8  A    between atoms: C_22  and  C_23 
REMARK    9  A    between atoms: C_23  and  C_24 
REMARK   10  A    between atoms: C_24  and  N_25 
REMARK   11  A    between atoms: C_34  and  O_35 
ROOT
HETATM    1  C   UNL     1      -2.508   6.365 -31.926  1.00  0.00     0.059 A 
HETATM    2  C   UNL     1      -3.996   6.247 -32.143  1.00  0.00     0.161 A 
HETATM    3  N   UNL     1      -4.108   4.841 -32.500  1.00  0.00    -0.333 N 
HETATM    4  C   UNL     1      -2.914   4.179 -32.358  1.00  0.00     0.278 A 
HETATM    5  O   UNL     1      -2.737   2.991 -32.584  1.00  0.00    -0.265 OA
HETATM    6  C   UNL     1      -1.873   5.188 -32.045  1.00  0.00     0.146 A 
ENDROOT
BRANCH   1   7
HETATM    7  C   UNL     1      -1.964   7.737 -31.797  1.00  0.00     0.193 C 
HETATM    8  O   UNL     1      -1.704   8.379 -32.808  1.00  0.00    -0.287 OA
BRANCH   7   9
HETATM    9  C   UNL     1      -1.628   8.290 -30.467  1.00  0.00     0.015 A 
HETATM   10  C   UNL     1      -2.390   9.294 -29.861  1.00  0.00     0.018 A 
HETATM   11  C   UNL     1      -2.103   9.679 -28.550  1.00  0.00     0.038 A 
HETATM   12  C   UNL     1      -1.054   9.072 -27.854  1.00  0.00     0.075 A 
HETATM   13  C   UNL     1      -0.222   8.139 -28.490  1.00  0.00    -0.028 A 
HETATM   14  C   UNL     1       0.984   7.574 -27.793  1.00  0.00     0.051 C 
HETATM   15  C   UNL     1      -0.520   7.752 -29.802  1.00  0.00     0.025 A 
BRANCH  12  16
HETATM   16  O   UNL     1      -0.765   9.385 -26.553  1.00  0.00    -0.346 OA
BRANCH  16  17
HETATM   17  C   UNL     1      -1.846   9.199 -25.622  1.00  0.00     0.121 C 
HETATM   18  C   UNL     1      -2.228   7.723 -25.472  1.00  0.00     0.040 C 
HETATM   19  C   UNL     1      -1.354   9.734 -24.279  1.00  0.00     0.040 C 
ENDBRANCH  16  17
ENDBRANCH  12  16
ENDBRANCH   7   9
ENDBRANCH   1   7
BRANCH   2  20
HETATM   20  C   UNL     1      -4.826   6.607 -30.924  1.00  0.00    -0.030 A 
HETATM   21  C   UNL     1      -4.491   6.056 -29.674  1.00  0.00     0.012 A 
HETATM   22  C   UNL     1      -5.227   6.367 -28.528  1.00  0.00     0.037 A 
HETATM   23  C   UNL     1      -6.309   7.232 -28.627  1.00  0.00     0.065 A 
HETATM   24  C   UNL     1      -6.672   7.778 -29.851  1.00  0.00     0.037 A 
HETATM   25  C   UNL     1      -5.941   7.462 -30.998  1.00  0.00     0.012 A 
BRANCH  23  26
HETATM   26  O   UNL     1      -7.052   7.573 -27.538  1.00  0.00    -0.361 OA
HETATM   27  H   UNL     1      -7.133   6.801 -26.953  1.00  0.00     0.217 HD
ENDBRANCH  23  26
ENDBRANCH   2  20
BRANCH   6  28
HETATM   28  O   UNL     1      -0.549   4.868 -32.077  1.00  0.00    -0.355 OA
HETATM   29  H   UNL     1      -0.002   5.649 -32.267  1.00  0.00     0.218 HD
ENDBRANCH   6  28
BRANCH   3  30
HETATM   30  C   UNL     1      -5.327   4.240 -33.009  1.00  0.00     0.129 C 
BRANCH  30  31
HETATM   31  C   UNL     1      -6.128   3.471 -31.952  1.00  0.00     0.048 C 
BRANCH  31  32
HETATM   32  C   UNL     1      -6.355   1.972 -32.181  1.00  0.00     0.236 C 
BRANCH  32  33
HETATM   33  N   UNL     1      -5.093   1.157 -32.226  1.00  0.00    -0.067 N 
HETATM   34  H   UNL     1      -4.352   1.770 -32.625  1.00  0.00     0.280 HD
HETATM   35  C   UNL     1      -4.627   0.606 -30.891  1.00  0.00     0.261 C 
HETATM   36  C   UNL     1      -3.319  -0.171 -31.078  1.00  0.00     0.195 C 
HETATM   37  O   UNL     1      -3.473  -1.222 -32.036  1.00  0.00    -0.388 OA
HETATM   38  C   UNL     1      -3.837  -0.706 -33.323  1.00  0.00     0.195 C 
HETATM   39  C   UNL     1      -5.183   0.025 -33.252  1.00  0.00     0.261 C 
ENDBRANCH  32  33
ENDBRANCH  31  32
ENDBRANCH  30  31
ENDBRANCH   3  30
TORSDOF 11
ENDMDL
MODEL 9
REMARK VINA RESULT:      -7.7      2.491      4.725
REMARK  11 active torsions:
REMARK  status: ('A' for Active; 'I' for Inactive)
REMARK    1  A    between atoms: C_3  and  O_4 
REMARK    2  A    between atoms: O_4  and  C_5 
REMARK    3  A    between atoms: C_10  and  C_11 
REMARK    4  A    between atoms: C_11  and  C_12 
REMARK    5  A    between atoms: C_13  and  C_14 
REMARK    6  A    between atoms: C_17  and  O_18 
REMARK    7  A    between atoms: N_21  and  C_22 
REMARK    8  A    between atoms: C_22  and  C_23 
REMARK    9  A    between atoms: C_23  and  C_24 
REMARK   10  A    between atoms: C_24  and  N_25 
REMARK   11  A    between atoms: C_34  and  O_35 
ROOT
HETATM    1  C   UNL     1      -2.786   5.322 -32.139  1.00  0.00     0.059 A 
HETATM    2  C   UNL     1      -3.210   6.389 -31.160  1.00  0.00     0.161 A 
HETATM    3  N   UNL     1      -2.671   7.578 -31.803  1.00  0.00    -0.333 N 
HETATM    4  C   UNL     1      -2.156   7.301 -33.044  1.00  0.00     0.278 A 
HETATM    5  O   UNL     1      -1.651   8.122 -33.795  1.00  0.00    -0.265 OA
HETATM    6  C   UNL     1      -2.181   5.829 -33.225  1.00  0.00     0.146 A 
ENDROOT
BRANCH   1   7
HETATM    7  C   UNL     1      -2.932   3.918 -31.693  1.00  0.00     0.193 C 
HETATM    8  O   UNL     1      -2.010   3.378 -31.090  1.00  0.00    -0.287 OA
BRANCH   7   9
HETATM    9  C   UNL     1      -4.128   3.132 -32.065  1.00  0.00     0.015 A 
HETATM   10  C   UNL     1      -4.931   3.466 -33.160  1.00  0.00     0.018 A 
HETATM   11  C   UNL     1      -5.966   2.609 -33.542  1.00  0.00     0.038 A 
HETATM   12  C   UNL     1      -6.202   1.432 -32.825  1.00  0.00     0.075 A 
HETATM   13  C   UNL     1      -5.467   1.143 -31.667  1.00  0.00    -0.028 A 
HETATM   14  C   UNL     1      -5.795  -0.055 -30.819  1.00  0.00     0.051 C 
HETATM   15  C   UNL     1      -4.426   2.002 -31.294  1.00  0.00     0.025 A 
BRANCH  12  16
HETATM   16  O   UNL     1      -7.175   0.541 -33.190  1.00  0.00    -0.346 OA
BRANCH  16  17
HETATM   17  C   UNL     1      -6.858  -0.284 -34.325  1.00  0.00     0.121 C 
HETATM   18  C   UNL     1      -6.904  -1.776 -33.983  1.00  0.00     0.040 C 
HETATM   19  C   UNL     1      -7.911   0.025 -35.388  1.00  0.00     0.040 C 
ENDBRANCH  16  17
ENDBRANCH  12  16
ENDBRANCH   7   9
ENDBRANCH   1   7
BRANCH   2  20
HETATM   20  C   UNL     1      -4.711   6.470 -30.949  1.00  0.00    -0.030 A 
HETATM   21  C   UNL     1      -5.252   6.103 -29.704  1.00  0.00     0.012 A 
HETATM   22  C   UNL     1      -6.628   6.168 -29.469  1.00  0.00     0.037 A 
HETATM   23  C   UNL     1      -7.473   6.599 -30.483  1.00  0.00     0.065 A 
HETATM   24  C   UNL     1      -6.968   6.952 -31.727  1.00  0.00     0.037 A 
HETATM   25  C   UNL     1      -5.594   6.880 -31.965  1.00  0.00     0.012 A 
BRANCH  23  26
HETATM   26  O   UNL     1      -8.820   6.689 -30.299  1.00  0.00    -0.361 OA
HETATM   27  H   UNL     1      -9.008   6.746 -29.347  1.00  0.00     0.217 HD
ENDBRANCH  23  26
ENDBRANCH   2  20
BRANCH   6  28
HETATM   28  O   UNL     1      -1.523   5.235 -34.260  1.00  0.00    -0.355 OA
HETATM   29  H   UNL     1      -1.968   5.407 -35.106  1.00  0.00     0.218 HD
ENDBRANCH   6  28
BRANCH   3  30
HETATM   30  C   UNL     1      -2.628   8.881 -31.165  1.00  0.00     0.129 C 
BRANCH  30  31
HETATM   31  C   UNL     1      -1.759   8.925 -29.902  1.00  0.00     0.048 C 
BRANCH  31  32
HETATM   32  C   UNL     1      -2.468   9.114 -28.557  1.00  0.00     0.236 C 
BRANCH  32  33
HETATM   33  N   UNL     1      -1.898   8.289 -27.437  1.00  0.00    -0.067 N 
HETATM   34  H   UNL     1      -1.776   8.928 -26.624  1.00  0.00     0.280 HD
HETATM   35  C   UNL     1      -2.734   7.094 -27.018  1.00  0.00     0.261 C 
HETATM   36  C   UNL     1      -2.056   6.368 -25.852  1.00  0.00     0.195 C 
HETATM   37  O   UNL     1      -0.727   5.963 -26.197  1.00  0.00    -0.388 OA
HETATM   38  C   UNL     1       0.095   7.092 -26.518  1.00  0.00     0.195 C 
HETATM   39  C   UNL     1      -0.464   7.842 -27.733  1.00  0.00     0.261 C 
ENDBRANCH  32  33
ENDBRANCH  31  32
ENDBRANCH  30  31
ENDBRANCH   3  30
TORSDOF 11
ENDMDL
MODEL 10
REMARK VINA RESULT:      -7.6      2.550      8.401
REMARK  11 active torsions:
REMARK  status: ('A' for Active; 'I' for Inactive)
REMARK    1  A    between atoms: C_3  and  O_4 
REMARK    2  A    between atoms: O_4  and  C_5 
REMARK    3  A    between atoms: C_10  and  C_11 
REMARK    4  A    between atoms: C_11  and  C_12 
REMARK    5  A    between atoms: C_13  and  C_14 
REMARK    6  A    between atoms: C_17  and  O_18 
REMARK    7  A    between atoms: N_21  and  C_22 
REMARK    8  A    between atoms: C_22  and  C_23 
REMARK    9  A    between atoms: C_23  and  C_24 
REMARK   10  A    between atoms: C_24  and  N_25 
REMARK   11  A    between atoms: C_34  and  O_35 
ROOT
HETATM    1  C   UNL     1      -4.304   4.283 -32.691  1.00  0.00     0.059 A 
HETATM    2  C   UNL     1      -4.721   3.364 -31.571  1.00  0.00     0.161 A 
HETATM    3  N   UNL     1      -6.159   3.586 -31.556  1.00  0.00    -0.333 N 
HETATM    4  C   UNL     1      -6.566   4.377 -32.601  1.00  0.00     0.278 A 
HETATM    5  O   UNL     1      -7.721   4.709 -32.824  1.00  0.00    -0.265 OA
HETATM    6  C   UNL     1      -5.351   4.872 -33.293  1.00  0.00     0.146 A 
ENDROOT
BRANCH   1   7
HETATM    7  C   UNL     1      -2.852   4.532 -32.840  1.00  0.00     0.193 C 
HETATM    8  O   UNL     1      -2.240   3.994 -33.757  1.00  0.00    -0.287 OA
BRANCH   7   9
HETATM    9  C   UNL     1      -2.118   5.327 -31.833  1.00  0.00     0.015 A 
HETATM   10  C   UNL     1      -0.722   5.409 -31.817  1.00  0.00     0.018 A 
HETATM   11  C   UNL     1      -0.094   6.282 -30.926  1.00  0.00     0.038 A 
HETATM   12  C   UNL     1      -0.857   7.059 -30.049  1.00  0.00     0.075 A 
HETATM   13  C   UNL     1      -2.250   6.906 -29.990  1.00  0.00    -0.028 A 
HETATM   14  C   UNL     1      -3.068   7.644 -28.966  1.00  0.00     0.051 C 
HETATM   15  C   UNL     1      -2.874   6.035 -30.890  1.00  0.00     0.025 A 
BRANCH  12  16
HETATM   16  O   UNL     1      -0.288   7.961 -29.192  1.00  0.00    -0.346 OA
BRANCH  16  17
HETATM   17  C   UNL     1       0.801   7.453 -28.400  1.00  0.00     0.121 C 
HETATM   18  C   UNL     1       1.616   8.578 -27.754  1.00  0.00     0.040 C 
HETATM   19  C   UNL     1       0.173   6.590 -27.309  1.00  0.00     0.040 C 
ENDBRANCH  16  17
ENDBRANCH  12  16
ENDBRANCH   7   9
ENDBRANCH   1   7
BRANCH   2  20
HETATM   20  C   UNL     1      -4.358   1.908 -31.802  1.00  0.00    -0.030 A 
HETATM   21  C   UNL     1      -3.338   1.322 -31.032  1.00  0.00     0.012 A 
HETATM   22  C   UNL     1      -2.978  -0.016 -31.210  1.00  0.00     0.037 A 
HETATM   23  C   UNL     1      -3.638  -0.778 -32.167  1.00  0.00     0.065 A 
HETATM   24  C   UNL     1      -4.638  -0.220 -32.952  1.00  0.00     0.037 A 
HETATM   25  C   UNL     1      -4.993   1.119 -32.778  1.00  0.00     0.012 A 
BRANCH  23  26
HETATM   26  O   UNL     1      -3.330  -2.088 -32.372  1.00  0.00    -0.361 OA
HETATM   27  H   UNL     1      -3.576  -2.335 -33.279  1.00  0.00     0.217 HD
ENDBRANCH  23  26
ENDBRANCH   2  20
BRANCH   6  28
HETATM   28  O   UNL     1      -5.425   5.862 -34.225  1.00  0.00    -0.355 OA
HETATM   29  H   UNL     1      -5.245   6.732 -33.831  1.00  0.00     0.218 HD
ENDBRANCH   6  28
BRANCH   3  30
HETATM   30  C   UNL     1      -7.035   3.083 -30.514  1.00  0.00     0.129 C 
BRANCH  30  31
HETATM   31  C   UNL     1      -8.167   2.188 -31.034  1.00  0.00     0.048 C 
BRANCH  31  32
HETATM   32  C   UNL     1      -9.607   2.670 -30.830  1.00  0.00     0.236 C 
BRANCH  32  33
HETATM   33  N   UNL     1     -10.511   2.432 -32.006  1.00  0.00    -0.067 N 
HETATM   34  H   UNL     1     -11.203   1.710 -31.713  1.00  0.00     0.280 HD
HETATM   35  C   UNL     1     -11.247   3.655 -32.520  1.00  0.00     0.261 C 
HETATM   36  C   UNL     1     -12.154   3.263 -33.692  1.00  0.00     0.195 C 
HETATM   37  O   UNL     1     -11.404   2.641 -34.741  1.00  0.00    -0.388 OA
HETATM   38  C   UNL     1     -10.769   1.440 -34.287  1.00  0.00     0.195 C 
HETATM   39  C   UNL     1      -9.775   1.745 -33.159  1.00  0.00     0.261 C 
ENDBRANCH  32  33
ENDBRANCH  31  32
ENDBRANCH  30  31
ENDBRANCH   3  30
TORSDOF 11
ENDMDL
