MODEL 1
REMARK VINA RESULT:      -8.0      0.000      0.000
REMARK  3 active torsions:
REMARK  status: ('A' for Active; 'I' for Inactive)
REMARK    1  A    between atoms: C_4  and  N_5 
REMARK       I    between atoms: N_5  and  C_6 
REMARK    2  A    between atoms: C_6  and  C_7 
REMARK    3  A    between atoms: C_7  and  C_8 
ROOT
HETATM    1  C   UNL     1      -6.021   0.558 -31.860  1.00  0.00     0.286 C 
HETATM    2  N   UNL     1      -7.143   0.216 -32.839  1.00  0.00    -0.056 N 
HETATM    3  H   UNL     1      -6.683  -0.023 -33.743  1.00  0.00     0.278 HD
HETATM    4  H   UNL     1      -7.638  -0.632 -32.537  1.00  0.00     0.278 HD
HETATM    5  C   UNL     1      -8.076   1.377 -32.997  1.00  0.00     0.209 C 
HETATM    6  C   UNL     1      -8.711   1.674 -31.619  1.00  0.00     0.115 C 
HETATM    7  N   UNL     1      -7.710   1.840 -30.567  1.00  0.00    -0.353 N 
HETATM    8  C   UNL     1      -6.574   1.057 -30.508  1.00  0.00     0.249 C 
HETATM    9  O   UNL     1      -6.014   0.856 -29.437  1.00  0.00    -0.271 OA
HETATM   10  C   UNL     1      -9.144   1.071 -34.037  1.00  0.00     0.035 C 
HETATM   11  C   UNL     1     -10.105   2.257 -34.157  1.00  0.00     0.002 C 
HETATM   12  C   UNL     1     -10.703   2.660 -32.807  1.00  0.00     0.002 C 
HETATM   13  C   UNL     1      -9.638   2.885 -31.730  1.00  0.00     0.027 C 
HETATM   14  H   UNL     1      -8.038   2.117 -29.642  1.00  0.00     0.163 HD
ENDROOT
BRANCH   1  15
HETATM   15  C   UNL     1      -5.055  -0.618 -31.686  1.00  0.00     0.146 C 
BRANCH  15  16
HETATM   16  C   UNL     1      -3.981  -0.553 -32.743  1.00  0.00     0.224 C 
HETATM   17  N   UNL     1      -3.888  -1.462 -33.747  1.00  0.00    -0.327 N 
HETATM   18  H   UNL     1      -3.030  -1.352 -34.280  1.00  0.00     0.169 HD
HETATM   19  O   UNL     1      -3.147   0.361 -32.681  1.00  0.00    -0.273 OA
BRANCH  17  20
HETATM   20  C   UNL     1      -4.707  -2.529 -34.160  1.00  0.00     0.034 A 
HETATM   21  C   UNL     1      -5.986  -2.400 -34.704  1.00  0.00     0.029 A 
HETATM   22  C   UNL     1      -6.715  -3.535 -35.078  1.00  0.00     0.002 A 
HETATM   23  C   UNL     1      -6.169  -4.807 -34.924  1.00  0.00     0.000 A 
HETATM   24  C   UNL     1      -4.885  -4.947 -34.410  1.00  0.00     0.002 A 
HETATM   25  C   UNL     1      -4.156  -3.814 -34.040  1.00  0.00     0.029 A 
ENDBRANCH  17  20
ENDBRANCH  15  16
ENDBRANCH   1  15
TORSDOF 3
ENDMDL
MODEL 2
REMARK VINA RESULT:      -7.9      3.210      6.353
REMARK  3 active torsions:
REMARK  status: ('A' for Active; 'I' for Inactive)
REMARK    1  A    between atoms: C_4  and  N_5 
REMARK       I    between atoms: N_5  and  C_6 
REMARK    2  A    between atoms: C_6  and  C_7 
REMARK    3  A    between atoms: C_7  and  C_8 
ROOT
HETATM    1  C   UNL     1      -4.848   0.528 -31.381  1.00  0.00     0.286 C 
HETATM    2  N   UNL     1      -5.683   0.374 -32.651  1.00  0.00    -0.056 N 
HETATM    3  H   UNL     1      -6.630   0.746 -32.428  1.00  0.00     0.278 HD
HETATM    4  H   UNL     1      -5.311   0.969 -33.401  1.00  0.00     0.278 HD
HETATM    5  C   UNL     1      -5.750  -1.064 -33.065  1.00  0.00     0.209 C 
HETATM    6  C   UNL     1      -4.312  -1.544 -33.370  1.00  0.00     0.115 C 
HETATM    7  N   UNL     1      -3.387  -1.273 -32.271  1.00  0.00    -0.353 N 
HETATM    8  C   UNL     1      -3.449  -0.106 -31.534  1.00  0.00     0.249 C 
HETATM    9  O   UNL     1      -2.448   0.331 -30.980  1.00  0.00    -0.271 OA
HETATM   10  C   UNL     1      -6.653  -1.233 -34.278  1.00  0.00     0.035 C 
HETATM   11  C   UNL     1      -6.679  -2.703 -34.704  1.00  0.00     0.002 C 
HETATM   12  C   UNL     1      -5.275  -3.267 -34.937  1.00  0.00     0.002 C 
HETATM   13  C   UNL     1      -4.334  -3.023 -33.754  1.00  0.00     0.027 C 
HETATM   14  H   UNL     1      -2.436  -1.627 -32.356  1.00  0.00     0.163 HD
ENDROOT
BRANCH   1  15
HETATM   15  C   UNL     1      -4.768   1.993 -30.940  1.00  0.00     0.146 C 
BRANCH  15  16
HETATM   16  C   UNL     1      -5.888   2.777 -31.577  1.00  0.00     0.224 C 
HETATM   17  N   UNL     1      -5.670   3.732 -32.515  1.00  0.00    -0.327 N 
HETATM   18  H   UNL     1      -6.516   4.255 -32.729  1.00  0.00     0.169 HD
HETATM   19  O   UNL     1      -7.051   2.542 -31.217  1.00  0.00    -0.273 OA
BRANCH  17  20
HETATM   20  C   UNL     1      -4.521   4.162 -33.204  1.00  0.00     0.034 A 
HETATM   21  C   UNL     1      -3.206   3.953 -32.787  1.00  0.00     0.029 A 
HETATM   22  C   UNL     1      -2.135   4.429 -33.553  1.00  0.00     0.002 A 
HETATM   23  C   UNL     1      -2.367   5.107 -34.746  1.00  0.00     0.000 A 
HETATM   24  C   UNL     1      -3.671   5.297 -35.187  1.00  0.00     0.002 A 
HETATM   25  C   UNL     1      -4.740   4.818 -34.425  1.00  0.00     0.029 A 
ENDBRANCH  17  20
ENDBRANCH  15  16
ENDBRANCH   1  15
TORSDOF 3
ENDMDL
MODEL 3
REMARK VINA RESULT:      -7.9      2.554      3.832
REMARK  3 active torsions:
REMARK  status: ('A' for Active; 'I' for Inactive)
REMARK    1  A    between atoms: C_4  and  N_5 
REMARK       I    between atoms: N_5  and  C_6 
REMARK    2  A    between atoms: C_6  and  C_7 
REMARK    3  A    between atoms: C_7  and  C_8 
ROOT
HETATM    1  C   UNL     1      -8.886   2.566 -32.212  1.00  0.00     0.286 C 
HETATM    2  N   UNL     1      -9.489   3.025 -33.539  1.00  0.00    -0.056 N 
HETATM    3  H   UNL     1      -9.392   4.062 -33.564  1.00  0.00     0.278 HD
HETATM    4  H   UNL     1      -8.936   2.667 -34.328  1.00  0.00     0.278 HD
HETATM    5  C   UNL     1     -10.926   2.612 -33.635  1.00  0.00     0.209 C 
HETATM    6  C   UNL     1     -10.987   1.068 -33.584  1.00  0.00     0.115 C 
HETATM    7  N   UNL     1     -10.275   0.518 -32.433  1.00  0.00    -0.353 N 
HETATM    8  C   UNL     1      -9.080   1.051 -31.988  1.00  0.00     0.249 C 
HETATM    9  O   UNL     1      -8.276   0.352 -31.384  1.00  0.00    -0.271 OA
HETATM   10  C   UNL     1     -11.553   3.144 -34.915  1.00  0.00     0.035 C 
HETATM   11  C   UNL     1     -13.010   2.682 -35.008  1.00  0.00     0.002 C 
HETATM   12  C   UNL     1     -13.149   1.163 -34.875  1.00  0.00     0.002 C 
HETATM   13  C   UNL     1     -12.444   0.610 -33.634  1.00  0.00     0.027 C 
HETATM   14  H   UNL     1     -10.332  -0.487 -32.277  1.00  0.00     0.163 HD
ENDROOT
BRANCH   1  15
HETATM   15  C   UNL     1      -7.416   2.980 -32.095  1.00  0.00     0.146 C 
BRANCH  15  16
HETATM   16  C   UNL     1      -6.864   3.290 -33.463  1.00  0.00     0.224 C 
HETATM   17  N   UNL     1      -6.324   2.339 -34.267  1.00  0.00    -0.327 N 
HETATM   18  H   UNL     1      -5.875   2.743 -35.085  1.00  0.00     0.169 HD
HETATM   19  O   UNL     1      -6.898   4.464 -33.860  1.00  0.00    -0.273 OA
BRANCH  17  20
HETATM   20  C   UNL     1      -6.227   0.938 -34.171  1.00  0.00     0.034 A 
HETATM   21  C   UNL     1      -5.339   0.246 -33.348  1.00  0.00     0.029 A 
HETATM   22  C   UNL     1      -5.327  -1.154 -33.335  1.00  0.00     0.002 A 
HETATM   23  C   UNL     1      -6.209  -1.874 -34.136  1.00  0.00     0.000 A 
HETATM   24  C   UNL     1      -7.118  -1.196 -34.940  1.00  0.00     0.002 A 
HETATM   25  C   UNL     1      -7.133   0.201 -34.949  1.00  0.00     0.029 A 
ENDBRANCH  17  20
ENDBRANCH  15  16
ENDBRANCH   1  15
TORSDOF 3
ENDMDL
MODEL 4
REMARK VINA RESULT:      -7.9      4.415      5.391
REMARK  3 active torsions:
REMARK  status: ('A' for Active; 'I' for Inactive)
REMARK    1  A    between atoms: C_4  and  N_5 
REMARK       I    between atoms: N_5  and  C_6 
REMARK    2  A    between atoms: C_6  and  C_7 
REMARK    3  A    between atoms: C_7  and  C_8 
ROOT
HETATM    1  C   UNL     1      -3.275   2.782 -31.678  1.00  0.00     0.286 C 
HETATM    2  N   UNL     1      -2.527   3.675 -32.667  1.00  0.00    -0.056 N 
HETATM    3  H   UNL     1      -1.785   3.083 -33.096  1.00  0.00     0.278 HD
HETATM    4  H   UNL     1      -3.147   3.958 -33.436  1.00  0.00     0.278 HD
HETATM    5  C   UNL     1      -1.938   4.859 -31.964  1.00  0.00     0.209 C 
HETATM    6  C   UNL     1      -3.096   5.680 -31.351  1.00  0.00     0.115 C 
HETATM    7  N   UNL     1      -3.981   4.864 -30.523  1.00  0.00    -0.353 N 
HETATM    8  C   UNL     1      -4.328   3.573 -30.874  1.00  0.00     0.249 C 
HETATM    9  O   UNL     1      -5.382   3.087 -30.485  1.00  0.00    -0.271 OA
HETATM   10  C   UNL     1      -1.119   5.704 -32.930  1.00  0.00     0.035 C 
HETATM   11  C   UNL     1      -0.555   6.925 -32.198  1.00  0.00     0.002 C 
HETATM   12  C   UNL     1      -1.645   7.736 -31.491  1.00  0.00     0.002 C 
HETATM   13  C   UNL     1      -2.529   6.875 -30.584  1.00  0.00     0.027 C 
HETATM   14  H   UNL     1      -4.726   5.340 -30.015  1.00  0.00     0.163 HD
ENDROOT
BRANCH   1  15
HETATM   15  C   UNL     1      -3.885   1.563 -32.379  1.00  0.00     0.146 C 
BRANCH  15  16
HETATM   16  C   UNL     1      -3.407   0.300 -31.708  1.00  0.00     0.224 C 
HETATM   17  N   UNL     1      -3.959  -0.914 -31.958  1.00  0.00    -0.327 N 
HETATM   18  H   UNL     1      -3.615  -1.626 -31.319  1.00  0.00     0.169 HD
HETATM   19  O   UNL     1      -2.480   0.382 -30.889  1.00  0.00    -0.273 OA
BRANCH  17  20
HETATM   20  C   UNL     1      -4.924  -1.363 -32.878  1.00  0.00     0.034 A 
HETATM   21  C   UNL     1      -6.248  -0.927 -32.935  1.00  0.00     0.029 A 
HETATM   22  C   UNL     1      -7.126  -1.446 -33.894  1.00  0.00     0.002 A 
HETATM   23  C   UNL     1      -6.686  -2.396 -34.812  1.00  0.00     0.000 A 
HETATM   24  C   UNL     1      -5.362  -2.818 -34.784  1.00  0.00     0.002 A 
HETATM   25  C   UNL     1      -4.485  -2.296 -33.829  1.00  0.00     0.029 A 
ENDBRANCH  17  20
ENDBRANCH  15  16
ENDBRANCH   1  15
TORSDOF 3
ENDMDL
MODEL 5
REMARK VINA RESULT:      -7.8      1.016      5.857
REMARK  3 active torsions:
REMARK  status: ('A' for Active; 'I' for Inactive)
REMARK    1  A    between atoms: C_4  and  N_5 
REMARK       I    between atoms: N_5  and  C_6 
REMARK    2  A    between atoms: C_6  and  C_7 
REMARK    3  A    between atoms: C_7  and  C_8 
ROOT
HETATM    1  C   UNL     1      -5.282  -0.581 -32.016  1.00  0.00     0.286 C 
HETATM    2  N   UNL     1      -6.032  -0.924 -33.302  1.00  0.00    -0.056 N 
HETATM    3  H   UNL     1      -7.017  -0.613 -33.160  1.00  0.00     0.278 HD
HETATM    4  H   UNL     1      -5.669  -0.372 -34.089  1.00  0.00     0.278 HD
HETATM    5  C   UNL     1      -5.963  -2.395 -33.575  1.00  0.00     0.209 C 
HETATM    6  C   UNL     1      -4.477  -2.778 -33.766  1.00  0.00     0.115 C 
HETATM    7  N   UNL     1      -3.638  -2.329 -32.657  1.00  0.00    -0.353 N 
HETATM    8  C   UNL     1      -3.831  -1.107 -32.042  1.00  0.00     0.249 C 
HETATM    9  O   UNL     1      -2.899  -0.537 -31.488  1.00  0.00    -0.271 OA
HETATM   10  C   UNL     1      -6.783  -2.752 -34.806  1.00  0.00     0.035 C 
HETATM   11  C   UNL     1      -6.670  -4.253 -35.087  1.00  0.00     0.002 C 
HETATM   12  C   UNL     1      -5.215  -4.716 -35.198  1.00  0.00     0.002 C 
HETATM   13  C   UNL     1      -4.361  -4.284 -34.003  1.00  0.00     0.027 C 
HETATM   14  H   UNL     1      -2.658  -2.609 -32.662  1.00  0.00     0.163 HD
ENDROOT
BRANCH   1  15
HETATM   15  C   UNL     1      -5.343   0.920 -31.718  1.00  0.00     0.146 C 
BRANCH  15  16
HETATM   16  C   UNL     1      -6.286   1.172 -30.569  1.00  0.00     0.224 C 
HETATM   17  N   UNL     1      -7.602   1.451 -30.751  1.00  0.00    -0.327 N 
HETATM   18  H   UNL     1      -8.054   1.733 -29.885  1.00  0.00     0.169 HD
HETATM   19  O   UNL     1      -5.834   1.133 -29.415  1.00  0.00    -0.273 OA
BRANCH  17  20
HETATM   20  C   UNL     1      -8.436   1.469 -31.884  1.00  0.00     0.034 A 
HETATM   21  C   UNL     1      -8.455   2.471 -32.855  1.00  0.00     0.029 A 
HETATM   22  C   UNL     1      -9.331   2.388 -33.943  1.00  0.00     0.002 A 
HETATM   23  C   UNL     1     -10.187   1.298 -34.079  1.00  0.00     0.000 A 
HETATM   24  C   UNL     1     -10.156   0.278 -33.134  1.00  0.00     0.002 A 
HETATM   25  C   UNL     1      -9.279   0.360 -32.050  1.00  0.00     0.029 A 
ENDBRANCH  17  20
ENDBRANCH  15  16
ENDBRANCH   1  15
TORSDOF 3
ENDMDL
MODEL 6
REMARK VINA RESULT:      -7.7      4.655      5.798
REMARK  3 active torsions:
REMARK  status: ('A' for Active; 'I' for Inactive)
REMARK    1  A    between atoms: C_4  and  N_5 
REMARK       I    between atoms: N_5  and  C_6 
REMARK    2  A    between atoms: C_6  and  C_7 
REMARK    3  A    between atoms: C_7  and  C_8 
ROOT
HETATM    1  C   UNL     1      -4.612   3.697 -32.619  1.00  0.00     0.286 C 
HETATM    2  N   UNL     1      -3.103   3.606 -32.396  1.00  0.00    -0.056 N 
HETATM    3  H   UNL     1      -2.962   2.956 -31.595  1.00  0.00     0.278 HD
HETATM    4  H   UNL     1      -2.646   3.167 -33.205  1.00  0.00     0.278 HD
HETATM    5  C   UNL     1      -2.533   4.960 -32.102  1.00  0.00     0.209 C 
HETATM    6  C   UNL     1      -2.787   5.865 -33.330  1.00  0.00     0.115 C 
HETATM    7  N   UNL     1      -4.191   5.875 -33.735  1.00  0.00    -0.353 N 
HETATM    8  C   UNL     1      -4.970   4.734 -33.704  1.00  0.00     0.249 C 
HETATM    9  O   UNL     1      -5.931   4.619 -34.454  1.00  0.00    -0.271 OA
HETATM   10  C   UNL     1      -1.046   4.861 -31.793  1.00  0.00     0.035 C 
HETATM   11  C   UNL     1      -0.478   6.258 -31.530  1.00  0.00     0.002 C 
HETATM   12  C   UNL     1      -0.774   7.232 -32.673  1.00  0.00     0.002 C 
HETATM   13  C   UNL     1      -2.258   7.272 -33.049  1.00  0.00     0.027 C 
HETATM   14  H   UNL     1      -4.462   6.508 -34.487  1.00  0.00     0.163 HD
ENDROOT
BRANCH   1  15
HETATM   15  C   UNL     1      -5.215   2.321 -32.920  1.00  0.00     0.146 C 
BRANCH  15  16
HETATM   16  C   UNL     1      -5.156   1.459 -31.684  1.00  0.00     0.224 C 
HETATM   17  N   UNL     1      -5.374   0.120 -31.716  1.00  0.00    -0.327 N 
HETATM   18  H   UNL     1      -5.438  -0.277 -30.782  1.00  0.00     0.169 HD
HETATM   19  O   UNL     1      -4.909   2.002 -30.598  1.00  0.00    -0.273 OA
BRANCH  17  20
HETATM   20  C   UNL     1      -5.569  -0.801 -32.762  1.00  0.00     0.034 A 
HETATM   21  C   UNL     1      -6.780  -1.035 -33.414  1.00  0.00     0.029 A 
HETATM   22  C   UNL     1      -6.860  -1.981 -34.444  1.00  0.00     0.002 A 
HETATM   23  C   UNL     1      -5.730  -2.691 -34.839  1.00  0.00     0.000 A 
HETATM   24  C   UNL     1      -4.511  -2.445 -34.217  1.00  0.00     0.002 A 
HETATM   25  C   UNL     1      -4.431  -1.499 -33.192  1.00  0.00     0.029 A 
ENDBRANCH  17  20
ENDBRANCH  15  16
ENDBRANCH   1  15
TORSDOF 3
ENDMDL
MODEL 7
REMARK VINA RESULT:      -7.7      2.779      3.931
REMARK  3 active torsions:
REMARK  status: ('A' for Active; 'I' for Inactive)
REMARK    1  A    between atoms: C_4  and  N_5 
REMARK       I    between atoms: N_5  and  C_6 
REMARK    2  A    between atoms: C_6  and  C_7 
REMARK    3  A    between atoms: C_7  and  C_8 
ROOT
HETATM    1  C   UNL     1      -5.945   0.956 -31.635  1.00  0.00     0.286 C 
HETATM    2  N   UNL     1      -4.833   1.568 -32.485  1.00  0.00    -0.056 N 
HETATM    3  H   UNL     1      -4.161   0.798 -32.689  1.00  0.00     0.278 HD
HETATM    4  H   UNL     1      -5.201   1.874 -33.394  1.00  0.00     0.278 HD
HETATM    5  C   UNL     1      -4.166   2.689 -31.750  1.00  0.00     0.209 C 
HETATM    6  C   UNL     1      -5.225   3.783 -31.480  1.00  0.00     0.115 C 
HETATM    7  N   UNL     1      -6.418   3.255 -30.823  1.00  0.00    -0.353 N 
HETATM    8  C   UNL     1      -6.951   2.023 -31.153  1.00  0.00     0.249 C 
HETATM    9  O   UNL     1      -8.142   1.798 -30.985  1.00  0.00    -0.271 OA
HETATM   10  C   UNL     1      -3.001   3.243 -32.557  1.00  0.00     0.035 C 
HETATM   11  C   UNL     1      -2.356   4.409 -31.803  1.00  0.00     0.002 C 
HETATM   12  C   UNL     1      -3.371   5.490 -31.425  1.00  0.00     0.002 C 
HETATM   13  C   UNL     1      -4.590   4.928 -30.689  1.00  0.00     0.027 C 
HETATM   14  H   UNL     1      -7.134   3.921 -30.535  1.00  0.00     0.163 HD
ENDROOT
BRANCH   1  15
HETATM   15  C   UNL     1      -6.640  -0.195 -32.370  1.00  0.00     0.146 C 
BRANCH  15  16
HETATM   16  C   UNL     1      -6.610   0.059 -33.856  1.00  0.00     0.224 C 
HETATM   17  N   UNL     1      -6.152  -0.858 -34.746  1.00  0.00    -0.327 N 
HETATM   18  H   UNL     1      -6.069  -0.471 -35.682  1.00  0.00     0.169 HD
HETATM   19  O   UNL     1      -7.009   1.155 -34.275  1.00  0.00    -0.273 OA
BRANCH  17  20
HETATM   20  C   UNL     1      -5.738  -2.198 -34.622  1.00  0.00     0.034 A 
HETATM   21  C   UNL     1      -4.466  -2.614 -34.229  1.00  0.00     0.029 A 
HETATM   22  C   UNL     1      -4.161  -3.978 -34.144  1.00  0.00     0.002 A 
HETATM   23  C   UNL     1      -5.127  -4.937 -34.438  1.00  0.00     0.000 A 
HETATM   24  C   UNL     1      -6.406  -4.534 -34.803  1.00  0.00     0.002 A 
HETATM   25  C   UNL     1      -6.711  -3.173 -34.885  1.00  0.00     0.029 A 
ENDBRANCH  17  20
ENDBRANCH  15  16
ENDBRANCH   1  15
TORSDOF 3
ENDMDL
MODEL 8
REMARK VINA RESULT:      -7.5     13.989     16.207
REMARK  3 active torsions:
REMARK  status: ('A' for Active; 'I' for Inactive)
REMARK    1  A    between atoms: C_4  and  N_5 
REMARK       I    between atoms: N_5  and  C_6 
REMARK    2  A    between atoms: C_6  and  C_7 
REMARK    3  A    between atoms: C_7  and  C_8 
ROOT
HETATM    1  C   UNL     1      -3.647 -13.450 -39.288  1.00  0.00     0.286 C 
HETATM    2  N   UNL     1      -2.415 -13.501 -40.190  1.00  0.00    -0.056 N 
HETATM    3  H   UNL     1      -2.732 -13.898 -41.100  1.00  0.00     0.278 HD
HETATM    4  H   UNL     1      -2.078 -12.552 -40.394  1.00  0.00     0.278 HD
HETATM    5  C   UNL     1      -1.346 -14.349 -39.573  1.00  0.00     0.209 C 
HETATM    6  C   UNL     1      -0.936 -13.702 -38.229  1.00  0.00     0.115 C 
HETATM    7  N   UNL     1      -2.082 -13.446 -37.360  1.00  0.00    -0.353 N 
HETATM    8  C   UNL     1      -3.291 -12.998 -37.856  1.00  0.00     0.249 C 
HETATM    9  O   UNL     1      -4.050 -12.349 -37.148  1.00  0.00    -0.271 OA
HETATM   10  C   UNL     1      -0.152 -14.473 -40.507  1.00  0.00     0.035 C 
HETATM   11  C   UNL     1       0.941 -15.315 -39.843  1.00  0.00     0.002 C 
HETATM   12  C   UNL     1       1.332 -14.777 -38.463  1.00  0.00     0.002 C 
HETATM   13  C   UNL     1       0.124 -14.566 -37.545  1.00  0.00     0.027 C 
HETATM   14  H   UNL     1      -1.895 -13.095 -36.422  1.00  0.00     0.163 HD
ENDROOT
BRANCH   1  15
HETATM   15  C   UNL     1      -4.754 -12.588 -39.904  1.00  0.00     0.146 C 
BRANCH  15  16
HETATM   16  C   UNL     1      -5.236 -13.220 -41.186  1.00  0.00     0.224 C 
HETATM   17  N   UNL     1      -6.509 -13.663 -41.349  1.00  0.00    -0.327 N 
HETATM   18  H   UNL     1      -6.621 -14.186 -42.213  1.00  0.00     0.169 HD
HETATM   19  O   UNL     1      -4.431 -13.347 -42.120  1.00  0.00    -0.273 OA
BRANCH  17  20
HETATM   20  C   UNL     1      -7.667 -13.579 -40.554  1.00  0.00     0.034 A 
HETATM   21  C   UNL     1      -8.179 -14.610 -39.765  1.00  0.00     0.029 A 
HETATM   22  C   UNL     1      -9.345 -14.417 -39.015  1.00  0.00     0.002 A 
HETATM   23  C   UNL     1     -10.003 -13.191 -39.037  1.00  0.00     0.000 A 
HETATM   24  C   UNL     1      -9.488 -12.147 -39.797  1.00  0.00     0.002 A 
HETATM   25  C   UNL     1      -8.322 -12.339 -40.542  1.00  0.00     0.029 A 
ENDBRANCH  17  20
ENDBRANCH  15  16
ENDBRANCH   1  15
TORSDOF 3
ENDMDL
MODEL 9
REMARK VINA RESULT:      -7.5      7.667      9.968
REMARK  3 active torsions:
REMARK  status: ('A' for Active; 'I' for Inactive)
REMARK    1  A    between atoms: C_4  and  N_5 
REMARK       I    between atoms: N_5  and  C_6 
REMARK    2  A    between atoms: C_6  and  C_7 
REMARK    3  A    between atoms: C_7  and  C_8 
ROOT
HETATM    1  C   UNL     1      -1.206   5.862 -32.370  1.00  0.00     0.286 C 
HETATM    2  N   UNL     1      -2.247   5.027 -31.626  1.00  0.00    -0.056 N 
HETATM    3  H   UNL     1      -1.717   4.340 -31.050  1.00  0.00     0.278 HD
HETATM    4  H   UNL     1      -2.771   5.612 -30.964  1.00  0.00     0.278 HD
HETATM    5  C   UNL     1      -3.155   4.334 -32.595  1.00  0.00     0.209 C 
HETATM    6  C   UNL     1      -3.898   5.415 -33.415  1.00  0.00     0.115 C 
HETATM    7  N   UNL     1      -2.984   6.379 -34.025  1.00  0.00    -0.353 N 
HETATM    8  C   UNL     1      -1.862   6.842 -33.366  1.00  0.00     0.249 C 
HETATM    9  O   UNL     1      -1.393   7.940 -33.637  1.00  0.00    -0.271 OA
HETATM   10  C   UNL     1      -4.137   3.433 -31.861  1.00  0.00     0.035 C 
HETATM   11  C   UNL     1      -5.077   2.763 -32.867  1.00  0.00     0.002 C 
HETATM   12  C   UNL     1      -5.779   3.777 -33.773  1.00  0.00     0.002 C 
HETATM   13  C   UNL     1      -4.803   4.745 -34.448  1.00  0.00     0.027 C 
HETATM   14  H   UNL     1      -3.383   7.079 -34.648  1.00  0.00     0.163 HD
ENDROOT
BRANCH   1  15
HETATM   15  C   UNL     1      -0.265   6.577 -31.396  1.00  0.00     0.146 C 
BRANCH  15  16
HETATM   16  C   UNL     1       0.425   5.563 -30.518  1.00  0.00     0.224 C 
HETATM   17  N   UNL     1       0.727   5.807 -29.218  1.00  0.00    -0.327 N 
HETATM   18  H   UNL     1       1.314   5.078 -28.821  1.00  0.00     0.169 HD
HETATM   19  O   UNL     1       0.737   4.471 -31.013  1.00  0.00    -0.273 OA
BRANCH  17  20
HETATM   20  C   UNL     1       0.431   6.868 -28.342  1.00  0.00     0.034 A 
HETATM   21  C   UNL     1       1.129   8.074 -28.271  1.00  0.00     0.029 A 
HETATM   22  C   UNL     1       0.748   9.062 -27.356  1.00  0.00     0.002 A 
HETATM   23  C   UNL     1      -0.341   8.859 -26.512  1.00  0.00     0.000 A 
HETATM   24  C   UNL     1      -1.063   7.674 -26.593  1.00  0.00     0.002 A 
HETATM   25  C   UNL     1      -0.684   6.690 -27.509  1.00  0.00     0.029 A 
ENDBRANCH  17  20
ENDBRANCH  15  16
ENDBRANCH   1  15
TORSDOF 3
ENDMDL
MODEL 10
REMARK VINA RESULT:      -7.4      2.481      7.179
REMARK  3 active torsions:
REMARK  status: ('A' for Active; 'I' for Inactive)
REMARK    1  A    between atoms: C_4  and  N_5 
REMARK       I    between atoms: N_5  and  C_6 
REMARK    2  A    between atoms: C_6  and  C_7 
REMARK    3  A    between atoms: C_7  and  C_8 
ROOT
HETATM    1  C   UNL     1      -7.961   0.272 -32.906  1.00  0.00     0.286 C 
HETATM    2  N   UNL     1      -7.926  -0.799 -33.995  1.00  0.00    -0.056 N 
HETATM    3  H   UNL     1      -8.832  -1.311 -33.934  1.00  0.00     0.278 HD
HETATM    4  H   UNL     1      -7.905  -0.365 -34.926  1.00  0.00     0.278 HD
HETATM    5  C   UNL     1      -6.767  -1.724 -33.787  1.00  0.00     0.209 C 
HETATM    6  C   UNL     1      -5.466  -0.893 -33.884  1.00  0.00     0.115 C 
HETATM    7  N   UNL     1      -5.479   0.270 -32.999  1.00  0.00    -0.353 N 
HETATM    8  C   UNL     1      -6.618   1.026 -32.801  1.00  0.00     0.249 C 
HETATM    9  O   UNL     1      -6.532   2.205 -32.482  1.00  0.00    -0.271 OA
HETATM   10  C   UNL     1      -6.780  -2.843 -34.818  1.00  0.00     0.035 C 
HETATM   11  C   UNL     1      -5.568  -3.755 -34.608  1.00  0.00     0.002 C 
HETATM   12  C   UNL     1      -4.248  -2.979 -34.604  1.00  0.00     0.002 C 
HETATM   13  C   UNL     1      -4.259  -1.796 -33.631  1.00  0.00     0.027 C 
HETATM   14  H   UNL     1      -4.629   0.829 -32.941  1.00  0.00     0.163 HD
ENDROOT
BRANCH   1  15
HETATM   15  C   UNL     1      -9.142   1.228 -33.101  1.00  0.00     0.146 C 
BRANCH  15  16
HETATM   16  C   UNL     1     -10.437   0.461 -33.000  1.00  0.00     0.224 C 
HETATM   17  N   UNL     1     -11.636   1.005 -33.332  1.00  0.00    -0.327 N 
HETATM   18  H   UNL     1     -12.412   0.403 -33.070  1.00  0.00     0.169 HD
HETATM   19  O   UNL     1     -10.401  -0.707 -32.587  1.00  0.00    -0.273 OA
BRANCH  17  20
HETATM   20  C   UNL     1     -12.010   2.229 -33.917  1.00  0.00     0.034 A 
HETATM   21  C   UNL     1     -12.300   3.401 -33.216  1.00  0.00     0.029 A 
HETATM   22  C   UNL     1     -12.667   4.565 -33.902  1.00  0.00     0.002 A 
HETATM   23  C   UNL     1     -12.736   4.572 -35.293  1.00  0.00     0.000 A 
HETATM   24  C   UNL     1     -12.421   3.420 -36.003  1.00  0.00     0.002 A 
HETATM   25  C   UNL     1     -12.051   2.259 -35.318  1.00  0.00     0.029 A 
ENDBRANCH  17  20
ENDBRANCH  15  16
ENDBRANCH   1  15
TORSDOF 3
ENDMDL
