MODEL 1
REMARK VINA RESULT:      -9.8      0.000      0.000
REMARK  8 active torsions:
REMARK  status: ('A' for Active; 'I' for Inactive)
REMARK    1  A    between atoms: C_2  and  O_3 
REMARK    2  A    between atoms: O_3  and  C_4 
REMARK    3  A    between atoms: C_4  and  C_5 
REMARK    4  A    between atoms: C_6  and  N_7 
REMARK       I    between atoms: N_7  and  C_8 
REMARK    5  A    between atoms: C_8  and  C_9 
REMARK    6  A    between atoms: C_9  and  S_10 
REMARK    7  A    between atoms: S_10  and  C_11 
REMARK    8  A    between atoms: N_18  and  C_19 
ROOT
HETATM    1  C   UNL     1      -5.262   3.155 -30.146  1.00  0.00     0.185 C 
ENDROOT
BRANCH   1   2
HETATM    2  C   UNL     1      -5.674   1.757 -30.580  1.00  0.00     0.232 C 
HETATM    3  N   UNL     1      -5.257   1.449 -31.867  1.00  0.00    -0.320 N 
HETATM    4  H   UNL     1      -4.862   2.195 -32.440  1.00  0.00     0.169 HD
HETATM    5  O   UNL     1      -6.279   1.022 -29.804  1.00  0.00    -0.272 OA
BRANCH   3   6
HETATM    6  C   UNL     1      -5.297   0.206 -32.488  1.00  0.00     0.094 A 
HETATM    7  C   UNL     1      -6.276  -0.243 -33.373  1.00  0.00     0.080 A 
HETATM    8  C   UNL     1      -5.972  -1.587 -33.838  1.00  0.00    -0.026 A 
HETATM    9  C   UNL     1      -4.767  -2.034 -33.329  1.00  0.00    -0.008 A 
HETATM   10  C   UNL     1      -6.759  -2.423 -34.813  1.00  0.00     0.041 C 
HETATM   11  S   UNL     1      -4.061  -0.933 -32.256  1.00  0.00    -0.075 SA
HETATM   12  C   UNL     1      -4.116  -3.343 -33.648  1.00  0.00     0.047 C 
HETATM   13  C   UNL     1      -4.709  -3.929 -34.936  1.00  0.00     0.005 C 
HETATM   14  C   UNL     1      -6.241  -3.867 -34.914  1.00  0.00     0.005 C 
BRANCH   7  15
HETATM   15  C   UNL     1      -7.409   0.606 -33.757  1.00  0.00     0.296 C 
HETATM   16  O   UNL     1      -7.548   1.048 -34.894  1.00  0.00    -0.259 OA
BRANCH  15  17
HETATM   17  O   UNL     1      -8.281   0.833 -32.737  1.00  0.00    -0.318 OA
BRANCH  17  18
HETATM   18  C   UNL     1      -9.408  -0.049 -32.670  1.00  0.00     0.174 C 
HETATM   19  C   UNL     1     -10.594   0.666 -33.288  1.00  0.00     0.034 C 
ENDBRANCH  17  18
ENDBRANCH  15  17
ENDBRANCH   7  15
ENDBRANCH   3   6
ENDBRANCH   1   2
BRANCH   1  20
HETATM   20  S   UNL     1      -6.076   4.414 -31.173  1.00  0.00    -0.083 SA
BRANCH  20  21
HETATM   21  C   UNL     1      -4.696   4.958 -32.062  1.00  0.00     0.171 A 
HETATM   22  N   UNL     1      -3.637   5.411 -31.466  1.00  0.00    -0.204 NA
HETATM   23  C   UNL     1      -2.672   5.829 -32.336  1.00  0.00     0.171 A 
HETATM   24  C   UNL     1      -2.777   5.847 -33.708  1.00  0.00     0.099 A 
HETATM   25  N   UNL     1      -1.412   6.343 -32.038  1.00  0.00    -0.215 N 
HETATM   26  C   UNL     1      -3.957   5.326 -34.333  1.00  0.00     0.263 A 
HETATM   27  C   UNL     1      -1.614   6.451 -34.175  1.00  0.00     0.160 A 
HETATM   28  O   UNL     1      -4.142   5.299 -35.543  1.00  0.00    -0.267 OA
HETATM   29  N   UNL     1      -4.881   4.871 -33.419  1.00  0.00    -0.301 N 
HETATM   30  H   UNL     1      -5.745   4.494 -33.778  1.00  0.00     0.171 HD
HETATM   31  N   UNL     1      -0.798   6.800 -33.177  1.00  0.00    -0.177 NA
BRANCH  25  32
HETATM   32  C   UNL     1      -0.731   6.413 -30.788  1.00  0.00     0.060 A 
HETATM   33  C   UNL     1       0.018   5.333 -30.296  1.00  0.00     0.034 A 
HETATM   34  C   UNL     1       0.708   5.452 -29.085  1.00  0.00     0.044 A 
HETATM   35  C   UNL     1       0.642   6.639 -28.367  1.00  0.00     0.116 A 
HETATM   36  F   UNL     1       1.294   6.742 -27.202  1.00  0.00    -0.206 F 
HETATM   37  C   UNL     1      -0.097   7.718 -28.835  1.00  0.00     0.044 A 
HETATM   38  C   UNL     1      -0.778   7.610 -30.050  1.00  0.00     0.034 A 
ENDBRANCH  25  32
ENDBRANCH  20  21
ENDBRANCH   1  20
TORSDOF 8
ENDMDL
MODEL 2
REMARK VINA RESULT:      -9.7      1.475      2.507
REMARK  8 active torsions:
REMARK  status: ('A' for Active; 'I' for Inactive)
REMARK    1  A    between atoms: C_2  and  O_3 
REMARK    2  A    between atoms: O_3  and  C_4 
REMARK    3  A    between atoms: C_4  and  C_5 
REMARK    4  A    between atoms: C_6  and  N_7 
REMARK       I    between atoms: N_7  and  C_8 
REMARK    5  A    between atoms: C_8  and  C_9 
REMARK    6  A    between atoms: C_9  and  S_10 
REMARK    7  A    between atoms: S_10  and  C_11 
REMARK    8  A    between atoms: N_18  and  C_19 
ROOT
HETATM    1  C   UNL     1      -6.974   3.560 -32.720  1.00  0.00     0.185 C 
ENDROOT
BRANCH   1   2
HETATM    2  C   UNL     1      -7.105   2.048 -32.820  1.00  0.00     0.232 C 
HETATM    3  N   UNL     1      -6.260   1.497 -33.773  1.00  0.00    -0.320 N 
HETATM    4  H   UNL     1      -5.758   2.128 -34.398  1.00  0.00     0.169 HD
HETATM    5  O   UNL     1      -7.873   1.444 -32.076  1.00  0.00    -0.272 OA
BRANCH   3   6
HETATM    6  C   UNL     1      -5.991   0.148 -33.978  1.00  0.00     0.094 A 
HETATM    7  C   UNL     1      -4.960  -0.585 -33.395  1.00  0.00     0.080 A 
HETATM    8  C   UNL     1      -5.006  -1.972 -33.828  1.00  0.00    -0.026 A 
HETATM    9  C   UNL     1      -6.093  -2.206 -34.650  1.00  0.00    -0.008 A 
HETATM   10  C   UNL     1      -4.089  -3.096 -33.419  1.00  0.00     0.041 C 
HETATM   11  S   UNL     1      -6.979  -0.803 -34.977  1.00  0.00    -0.075 SA
HETATM   12  C   UNL     1      -6.484  -3.531 -35.226  1.00  0.00     0.047 C 
HETATM   13  C   UNL     1      -5.812  -4.666 -34.445  1.00  0.00     0.005 C 
HETATM   14  C   UNL     1      -4.321  -4.380 -34.231  1.00  0.00     0.005 C 
BRANCH   7  15
HETATM   15  C   UNL     1      -4.018   0.031 -32.453  1.00  0.00     0.296 C 
HETATM   16  O   UNL     1      -3.129   0.797 -32.813  1.00  0.00    -0.259 OA
BRANCH  15  17
HETATM   17  O   UNL     1      -4.246  -0.323 -31.159  1.00  0.00    -0.318 OA
BRANCH  17  18
HETATM   18  C   UNL     1      -4.590   0.747 -30.269  1.00  0.00     0.174 C 
HETATM   19  C   UNL     1      -5.864   0.357 -29.545  1.00  0.00     0.034 C 
ENDBRANCH  17  18
ENDBRANCH  15  17
ENDBRANCH   7  15
ENDBRANCH   3   6
ENDBRANCH   1   2
BRANCH   1  20
HETATM   20  S   UNL     1      -5.933   4.023 -31.305  1.00  0.00    -0.083 SA
BRANCH  20  21
HETATM   21  C   UNL     1      -4.618   4.740 -32.171  1.00  0.00     0.171 A 
HETATM   22  N   UNL     1      -3.598   5.255 -31.558  1.00  0.00    -0.204 NA
HETATM   23  C   UNL     1      -2.686   5.806 -32.409  1.00  0.00     0.171 A 
HETATM   24  C   UNL     1      -2.808   5.889 -33.777  1.00  0.00     0.099 A 
HETATM   25  N   UNL     1      -1.475   6.417 -32.091  1.00  0.00    -0.215 N 
HETATM   26  C   UNL     1      -3.942   5.297 -34.423  1.00  0.00     0.263 A 
HETATM   27  C   UNL     1      -1.709   6.622 -34.217  1.00  0.00     0.160 A 
HETATM   28  O   UNL     1      -4.137   5.319 -35.632  1.00  0.00    -0.267 OA
HETATM   29  N   UNL     1      -4.810   4.710 -33.530  1.00  0.00    -0.301 N 
HETATM   30  H   UNL     1      -5.640   4.276 -33.904  1.00  0.00     0.171 HD
HETATM   31  N   UNL     1      -0.917   6.990 -33.207  1.00  0.00    -0.177 NA
BRANCH  25  32
HETATM   32  C   UNL     1      -0.788   6.480 -30.843  1.00  0.00     0.060 A 
HETATM   33  C   UNL     1      -0.883   7.603 -30.007  1.00  0.00     0.034 A 
HETATM   34  C   UNL     1      -0.229   7.613 -28.771  1.00  0.00     0.044 A 
HETATM   35  C   UNL     1       0.522   6.512 -28.378  1.00  0.00     0.116 A 
HETATM   36  F   UNL     1       1.156   6.533 -27.198  1.00  0.00    -0.206 F 
HETATM   37  C   UNL     1       0.631   5.393 -29.193  1.00  0.00     0.044 A 
HETATM   38  C   UNL     1      -0.030   5.371 -30.423  1.00  0.00     0.034 A 
ENDBRANCH  25  32
ENDBRANCH  20  21
ENDBRANCH   1  20
TORSDOF 8
ENDMDL
MODEL 3
REMARK VINA RESULT:      -9.6      4.443      7.907
REMARK  8 active torsions:
REMARK  status: ('A' for Active; 'I' for Inactive)
REMARK    1  A    between atoms: C_2  and  O_3 
REMARK    2  A    between atoms: O_3  and  C_4 
REMARK    3  A    between atoms: C_4  and  C_5 
REMARK    4  A    between atoms: C_6  and  N_7 
REMARK       I    between atoms: N_7  and  C_8 
REMARK    5  A    between atoms: C_8  and  C_9 
REMARK    6  A    between atoms: C_9  and  S_10 
REMARK    7  A    between atoms: S_10  and  C_11 
REMARK    8  A    between atoms: N_18  and  C_19 
ROOT
HETATM    1  C   UNL     1      -6.954   4.568 -32.580  1.00  0.00     0.185 C 
ENDROOT
BRANCH   1   2
HETATM    2  C   UNL     1      -8.364   4.107 -32.247  1.00  0.00     0.232 C 
HETATM    3  N   UNL     1      -9.124   3.842 -33.377  1.00  0.00    -0.320 N 
HETATM    4  H   UNL     1      -8.747   4.107 -34.287  1.00  0.00     0.169 HD
HETATM    5  O   UNL     1      -8.709   3.972 -31.076  1.00  0.00    -0.272 OA
BRANCH   3   6
HETATM    6  C   UNL     1     -10.370   3.227 -33.426  1.00  0.00     0.094 A 
HETATM    7  C   UNL     1     -10.612   1.872 -33.643  1.00  0.00     0.080 A 
HETATM    8  C   UNL     1     -12.038   1.591 -33.603  1.00  0.00    -0.026 A 
HETATM    9  C   UNL     1     -12.765   2.728 -33.301  1.00  0.00    -0.008 A 
HETATM   10  C   UNL     1     -12.719   0.258 -33.769  1.00  0.00     0.041 C 
HETATM   11  S   UNL     1     -11.796   4.107 -33.162  1.00  0.00    -0.075 SA
HETATM   12  C   UNL     1     -14.249   2.792 -33.118  1.00  0.00     0.047 C 
HETATM   13  C   UNL     1     -14.811   1.388 -32.859  1.00  0.00     0.005 C 
HETATM   14  C   UNL     1     -14.248   0.377 -33.864  1.00  0.00     0.005 C 
BRANCH   7  15
HETATM   15  C   UNL     1      -9.514   0.918 -33.840  1.00  0.00     0.296 C 
HETATM   16  O   UNL     1      -8.741   0.989 -34.791  1.00  0.00    -0.259 OA
BRANCH  15  17
HETATM   17  O   UNL     1      -9.440  -0.025 -32.862  1.00  0.00    -0.318 OA
BRANCH  17  18
HETATM   18  C   UNL     1      -9.261   0.469 -31.528  1.00  0.00     0.174 C 
HETATM   19  C   UNL     1      -7.772   0.518 -31.248  1.00  0.00     0.034 C 
ENDBRANCH  17  18
ENDBRANCH  15  17
ENDBRANCH   7  15
ENDBRANCH   3   6
ENDBRANCH   1   2
BRANCH   1  20
HETATM   20  S   UNL     1      -6.341   3.735 -34.074  1.00  0.00    -0.083 SA
BRANCH  20  21
HETATM   21  C   UNL     1      -5.275   2.600 -33.322  1.00  0.00     0.171 A 
HETATM   22  N   UNL     1      -5.443   1.320 -33.448  1.00  0.00    -0.204 NA
HETATM   23  C   UNL     1      -4.526   0.590 -32.750  1.00  0.00     0.171 A 
HETATM   24  C   UNL     1      -3.541   1.099 -31.935  1.00  0.00     0.099 A 
HETATM   25  N   UNL     1      -4.403  -0.796 -32.684  1.00  0.00    -0.215 N 
HETATM   26  C   UNL     1      -3.375   2.519 -31.831  1.00  0.00     0.263 A 
HETATM   27  C   UNL     1      -2.923   0.000 -31.346  1.00  0.00     0.160 A 
HETATM   28  O   UNL     1      -2.529   3.065 -31.134  1.00  0.00    -0.267 OA
HETATM   29  N   UNL     1      -4.290   3.214 -32.590  1.00  0.00    -0.301 N 
HETATM   30  H   UNL     1      -4.245   4.221 -32.566  1.00  0.00     0.171 HD
HETATM   31  N   UNL     1      -3.462  -1.152 -31.750  1.00  0.00    -0.177 NA
BRANCH  25  32
HETATM   32  C   UNL     1      -5.069  -1.805 -33.440  1.00  0.00     0.060 A 
HETATM   33  C   UNL     1      -6.415  -1.677 -33.814  1.00  0.00     0.034 A 
HETATM   34  C   UNL     1      -7.024  -2.668 -34.591  1.00  0.00     0.044 A 
HETATM   35  C   UNL     1      -6.295  -3.783 -34.983  1.00  0.00     0.116 A 
HETATM   36  F   UNL     1      -6.886  -4.735 -35.716  1.00  0.00    -0.206 F 
HETATM   37  C   UNL     1      -4.962  -3.930 -34.619  1.00  0.00     0.044 A 
HETATM   38  C   UNL     1      -4.345  -2.939 -33.854  1.00  0.00     0.034 A 
ENDBRANCH  25  32
ENDBRANCH  20  21
ENDBRANCH   1  20
TORSDOF 8
ENDMDL
MODEL 4
REMARK VINA RESULT:      -9.1      3.371      9.565
REMARK  8 active torsions:
REMARK  status: ('A' for Active; 'I' for Inactive)
REMARK    1  A    between atoms: C_2  and  O_3 
REMARK    2  A    between atoms: O_3  and  C_4 
REMARK    3  A    between atoms: C_4  and  C_5 
REMARK    4  A    between atoms: C_6  and  N_7 
REMARK       I    between atoms: N_7  and  C_8 
REMARK    5  A    between atoms: C_8  and  C_9 
REMARK    6  A    between atoms: C_9  and  S_10 
REMARK    7  A    between atoms: S_10  and  C_11 
REMARK    8  A    between atoms: N_18  and  C_19 
ROOT
HETATM    1  C   UNL     1      -5.494   6.075 -32.632  1.00  0.00     0.185 C 
ENDROOT
BRANCH   1   2
HETATM    2  C   UNL     1      -4.439   5.952 -31.544  1.00  0.00     0.232 C 
HETATM    3  N   UNL     1      -3.538   7.007 -31.548  1.00  0.00    -0.320 N 
HETATM    4  H   UNL     1      -3.564   7.664 -32.328  1.00  0.00     0.169 HD
HETATM    5  O   UNL     1      -4.468   5.008 -30.760  1.00  0.00    -0.272 OA
BRANCH   3   6
HETATM    6  C   UNL     1      -2.583   7.300 -30.581  1.00  0.00     0.094 A 
HETATM    7  C   UNL     1      -1.362   6.652 -30.405  1.00  0.00     0.080 A 
HETATM    8  C   UNL     1      -0.616   7.247 -29.308  1.00  0.00    -0.026 A 
HETATM    9  C   UNL     1      -1.288   8.331 -28.775  1.00  0.00    -0.008 A 
HETATM   10  C   UNL     1       0.750   6.859 -28.806  1.00  0.00     0.041 C 
HETATM   11  S   UNL     1      -2.801   8.580 -29.489  1.00  0.00    -0.075 SA
HETATM   12  C   UNL     1      -0.785   9.216 -27.677  1.00  0.00     0.047 C 
HETATM   13  C   UNL     1       0.733   9.060 -27.525  1.00  0.00     0.005 C 
HETATM   14  C   UNL     1       1.134   7.581 -27.504  1.00  0.00     0.005 C 
BRANCH   7  15
HETATM   15  C   UNL     1      -0.947   5.548 -31.279  1.00  0.00     0.296 C 
HETATM   16  O   UNL     1      -0.602   4.454 -30.843  1.00  0.00    -0.259 OA
BRANCH  15  17
HETATM   17  O   UNL     1      -0.999   5.863 -32.602  1.00  0.00    -0.318 OA
BRANCH  17  18
HETATM   18  C   UNL     1      -1.491   4.834 -33.471  1.00  0.00     0.174 C 
HETATM   19  C   UNL     1      -1.492   5.382 -34.885  1.00  0.00     0.034 C 
ENDBRANCH  17  18
ENDBRANCH  15  17
ENDBRANCH   7  15
ENDBRANCH   3   6
ENDBRANCH   1   2
BRANCH   1  20
HETATM   20  S   UNL     1      -5.231   4.829 -33.928  1.00  0.00    -0.083 SA
BRANCH  20  21
HETATM   21  C   UNL     1      -6.388   3.656 -33.401  1.00  0.00     0.171 A 
HETATM   22  N   UNL     1      -6.216   2.387 -33.611  1.00  0.00    -0.204 NA
HETATM   23  C   UNL     1      -7.253   1.626 -33.159  1.00  0.00     0.171 A 
HETATM   24  C   UNL     1      -8.411   2.100 -32.585  1.00  0.00     0.099 A 
HETATM   25  N   UNL     1      -7.383   0.239 -33.200  1.00  0.00    -0.215 N 
HETATM   26  C   UNL     1      -8.561   3.507 -32.355  1.00  0.00     0.263 A 
HETATM   27  C   UNL     1      -9.225   0.988 -32.385  1.00  0.00     0.160 A 
HETATM   28  O   UNL     1      -9.551   4.022 -31.851  1.00  0.00    -0.267 OA
HETATM   29  N   UNL     1      -7.470   4.230 -32.782  1.00  0.00    -0.301 N 
HETATM   30  H   UNL     1      -7.499   5.231 -32.663  1.00  0.00     0.171 HD
HETATM   31  N   UNL     1      -8.639  -0.139 -32.795  1.00  0.00    -0.177 NA
BRANCH  25  32
HETATM   32  C   UNL     1      -6.424  -0.753 -33.558  1.00  0.00     0.060 A 
HETATM   33  C   UNL     1      -5.191  -0.859 -32.896  1.00  0.00     0.034 A 
HETATM   34  C   UNL     1      -4.292  -1.871 -33.246  1.00  0.00     0.044 A 
HETATM   35  C   UNL     1      -4.619  -2.766 -34.257  1.00  0.00     0.116 A 
HETATM   36  F   UNL     1      -3.749  -3.726 -34.596  1.00  0.00    -0.206 F 
HETATM   37  C   UNL     1      -5.833  -2.676 -34.926  1.00  0.00     0.044 A 
HETATM   38  C   UNL     1      -6.741  -1.675 -34.573  1.00  0.00     0.034 A 
ENDBRANCH  25  32
ENDBRANCH  20  21
ENDBRANCH   1  20
TORSDOF 8
ENDMDL
MODEL 5
REMARK VINA RESULT:      -9.0      3.686      9.568
REMARK  8 active torsions:
REMARK  status: ('A' for Active; 'I' for Inactive)
REMARK    1  A    between atoms: C_2  and  O_3 
REMARK    2  A    between atoms: O_3  and  C_4 
REMARK    3  A    between atoms: C_4  and  C_5 
REMARK    4  A    between atoms: C_6  and  N_7 
REMARK       I    between atoms: N_7  and  C_8 
REMARK    5  A    between atoms: C_8  and  C_9 
REMARK    6  A    between atoms: C_9  and  S_10 
REMARK    7  A    between atoms: S_10  and  C_11 
REMARK    8  A    between atoms: N_18  and  C_19 
ROOT
HETATM    1  C   UNL     1      -2.531   4.262 -33.630  1.00  0.00     0.185 C 
ENDROOT
BRANCH   1   2
HETATM    2  C   UNL     1      -1.940   4.697 -32.298  1.00  0.00     0.232 C 
HETATM    3  N   UNL     1      -1.554   6.030 -32.292  1.00  0.00    -0.320 N 
HETATM    4  H   UNL     1      -1.557   6.540 -33.175  1.00  0.00     0.169 HD
HETATM    5  O   UNL     1      -1.880   3.905 -31.361  1.00  0.00    -0.272 OA
BRANCH   3   6
HETATM    6  C   UNL     1      -1.165   6.786 -31.192  1.00  0.00     0.094 A 
HETATM    7  C   UNL     1      -1.955   7.702 -30.500  1.00  0.00     0.080 A 
HETATM    8  C   UNL     1      -1.217   8.284 -29.390  1.00  0.00    -0.026 A 
HETATM    9  C   UNL     1       0.045   7.730 -29.282  1.00  0.00    -0.008 A 
HETATM   10  C   UNL     1      -1.707   9.295 -28.387  1.00  0.00     0.041 C 
HETATM   11  S   UNL     1       0.382   6.621 -30.514  1.00  0.00    -0.075 SA
HETATM   12  C   UNL     1       1.050   8.047 -28.218  1.00  0.00     0.047 C 
HETATM   13  C   UNL     1       0.360   8.710 -27.020  1.00  0.00     0.005 C 
HETATM   14  C   UNL     1      -0.587   9.825 -27.478  1.00  0.00     0.005 C 
BRANCH   7  15
HETATM   15  C   UNL     1      -3.348   7.958 -30.884  1.00  0.00     0.296 C 
HETATM   16  O   UNL     1      -4.227   7.107 -30.787  1.00  0.00    -0.259 OA
BRANCH  15  17
HETATM   17  O   UNL     1      -3.555   9.224 -31.338  1.00  0.00    -0.318 OA
BRANCH  17  18
HETATM   18  C   UNL     1      -4.741   9.873 -30.861  1.00  0.00     0.174 C 
HETATM   19  C   UNL     1      -4.333  11.210 -30.273  1.00  0.00     0.034 C 
ENDBRANCH  17  18
ENDBRANCH  15  17
ENDBRANCH   7  15
ENDBRANCH   3   6
ENDBRANCH   1   2
BRANCH   1  20
HETATM   20  S   UNL     1      -4.049   5.191 -33.996  1.00  0.00    -0.083 SA
BRANCH  20  21
HETATM   21  C   UNL     1      -5.156   4.269 -33.039  1.00  0.00     0.171 A 
HETATM   22  N   UNL     1      -5.390   3.016 -33.285  1.00  0.00    -0.204 NA
HETATM   23  C   UNL     1      -6.321   2.473 -32.449  1.00  0.00     0.171 A 
HETATM   24  C   UNL     1      -7.014   3.146 -31.469  1.00  0.00     0.099 A 
HETATM   25  N   UNL     1      -6.786   1.160 -32.419  1.00  0.00    -0.215 N 
HETATM   26  C   UNL     1      -6.720   4.526 -31.215  1.00  0.00     0.263 A 
HETATM   27  C   UNL     1      -7.929   2.234 -30.950  1.00  0.00     0.160 A 
HETATM   28  O   UNL     1      -7.282   5.206 -30.367  1.00  0.00    -0.267 OA
HETATM   29  N   UNL     1      -5.741   5.018 -32.049  1.00  0.00    -0.301 N 
HETATM   30  H   UNL     1      -5.480   5.985 -31.941  1.00  0.00     0.171 HD
HETATM   31  N   UNL     1      -7.837   1.042 -31.544  1.00  0.00    -0.177 NA
BRANCH  25  32
HETATM   32  C   UNL     1      -6.310   0.011 -33.116  1.00  0.00     0.060 A 
HETATM   33  C   UNL     1      -5.003  -0.469 -32.939  1.00  0.00     0.034 A 
HETATM   34  C   UNL     1      -4.584  -1.623 -33.607  1.00  0.00     0.044 A 
HETATM   35  C   UNL     1      -5.462  -2.289 -34.453  1.00  0.00     0.116 A 
HETATM   36  F   UNL     1      -5.051  -3.387 -35.100  1.00  0.00    -0.206 F 
HETATM   37  C   UNL     1      -6.758  -1.827 -34.644  1.00  0.00     0.044 A 
HETATM   38  C   UNL     1      -7.187  -0.682 -33.970  1.00  0.00     0.034 A 
ENDBRANCH  25  32
ENDBRANCH  20  21
ENDBRANCH   1  20
TORSDOF 8
ENDMDL
MODEL 6
REMARK VINA RESULT:      -9.0      3.299      8.926
REMARK  8 active torsions:
REMARK  status: ('A' for Active; 'I' for Inactive)
REMARK    1  A    between atoms: C_2  and  O_3 
REMARK    2  A    between atoms: O_3  and  C_4 
REMARK    3  A    between atoms: C_4  and  C_5 
REMARK    4  A    between atoms: C_6  and  N_7 
REMARK       I    between atoms: N_7  and  C_8 
REMARK    5  A    between atoms: C_8  and  C_9 
REMARK    6  A    between atoms: C_9  and  S_10 
REMARK    7  A    between atoms: S_10  and  C_11 
REMARK    8  A    between atoms: N_18  and  C_19 
ROOT
HETATM    1  C   UNL     1      -2.174   4.515 -33.765  1.00  0.00     0.185 C 
ENDROOT
BRANCH   1   2
HETATM    2  C   UNL     1      -1.737   4.736 -32.325  1.00  0.00     0.232 C 
HETATM    3  N   UNL     1      -1.043   5.924 -32.150  1.00  0.00    -0.320 N 
HETATM    4  H   UNL     1      -0.765   6.450 -32.979  1.00  0.00     0.169 HD
HETATM    5  O   UNL     1      -2.037   3.921 -31.456  1.00  0.00    -0.272 OA
BRANCH   3   6
HETATM    6  C   UNL     1      -0.678   6.514 -30.945  1.00  0.00     0.094 A 
HETATM    7  C   UNL     1      -1.198   7.693 -30.414  1.00  0.00     0.080 A 
HETATM    8  C   UNL     1      -0.592   7.988 -29.125  1.00  0.00    -0.026 A 
HETATM    9  C   UNL     1       0.288   6.992 -28.744  1.00  0.00    -0.008 A 
HETATM   10  C   UNL     1      -0.887   9.151 -28.214  1.00  0.00     0.041 C 
HETATM   11  S   UNL     1       0.465   5.790 -29.921  1.00  0.00    -0.075 SA
HETATM   12  C   UNL     1       1.039   6.938 -27.451  1.00  0.00     0.047 C 
HETATM   13  C   UNL     1       0.384   7.866 -26.420  1.00  0.00     0.005 C 
HETATM   14  C   UNL     1       0.087   9.241 -27.029  1.00  0.00     0.005 C 
BRANCH   7  15
HETATM   15  C   UNL     1      -2.241   8.454 -31.111  1.00  0.00     0.296 C 
HETATM   16  O   UNL     1      -2.035   9.038 -32.171  1.00  0.00    -0.259 OA
BRANCH  15  17
HETATM   17  O   UNL     1      -3.443   8.427 -30.473  1.00  0.00    -0.318 OA
BRANCH  17  18
HETATM   18  C   UNL     1      -4.492   7.720 -31.145  1.00  0.00     0.174 C 
HETATM   19  C   UNL     1      -4.610   6.349 -30.507  1.00  0.00     0.034 C 
ENDBRANCH  17  18
ENDBRANCH  15  17
ENDBRANCH   7  15
ENDBRANCH   3   6
ENDBRANCH   1   2
BRANCH   1  20
HETATM   20  S   UNL     1      -3.461   5.708 -34.236  1.00  0.00    -0.083 SA
BRANCH  20  21
HETATM   21  C   UNL     1      -4.853   4.762 -33.836  1.00  0.00     0.171 A 
HETATM   22  N   UNL     1      -4.765   3.492 -33.587  1.00  0.00    -0.204 NA
HETATM   23  C   UNL     1      -5.973   2.913 -33.331  1.00  0.00     0.171 A 
HETATM   24  C   UNL     1      -7.196   3.545 -33.376  1.00  0.00     0.099 A 
HETATM   25  N   UNL     1      -6.238   1.585 -33.005  1.00  0.00    -0.215 N 
HETATM   26  C   UNL     1      -7.254   4.953 -33.641  1.00  0.00     0.263 A 
HETATM   27  C   UNL     1      -8.149   2.554 -33.161  1.00  0.00     0.160 A 
HETATM   28  O   UNL     1      -8.291   5.601 -33.700  1.00  0.00    -0.267 OA
HETATM   29  N   UNL     1      -6.008   5.503 -33.843  1.00  0.00    -0.301 N 
HETATM   30  H   UNL     1      -5.962   6.490 -34.043  1.00  0.00     0.171 HD
HETATM   31  N   UNL     1      -7.591   1.354 -32.982  1.00  0.00    -0.177 NA
BRANCH  25  32
HETATM   32  C   UNL     1      -5.333   0.530 -32.687  1.00  0.00     0.060 A 
HETATM   33  C   UNL     1      -4.510   0.582 -31.552  1.00  0.00     0.034 A 
HETATM   34  C   UNL     1      -3.665  -0.490 -31.248  1.00  0.00     0.044 A 
HETATM   35  C   UNL     1      -3.637  -1.603 -32.079  1.00  0.00     0.116 A 
HETATM   36  F   UNL     1      -2.816  -2.621 -31.790  1.00  0.00    -0.206 F 
HETATM   37  C   UNL     1      -4.441  -1.672 -33.209  1.00  0.00     0.044 A 
HETATM   38  C   UNL     1      -5.296  -0.611 -33.511  1.00  0.00     0.034 A 
ENDBRANCH  25  32
ENDBRANCH  20  21
ENDBRANCH   1  20
TORSDOF 8
ENDMDL
MODEL 7
REMARK VINA RESULT:      -8.9      2.004      4.089
REMARK  8 active torsions:
REMARK  status: ('A' for Active; 'I' for Inactive)
REMARK    1  A    between atoms: C_2  and  O_3 
REMARK    2  A    between atoms: O_3  and  C_4 
REMARK    3  A    between atoms: C_4  and  C_5 
REMARK    4  A    between atoms: C_6  and  N_7 
REMARK       I    between atoms: N_7  and  C_8 
REMARK    5  A    between atoms: C_8  and  C_9 
REMARK    6  A    between atoms: C_9  and  S_10 
REMARK    7  A    between atoms: S_10  and  C_11 
REMARK    8  A    between atoms: N_18  and  C_19 
ROOT
HETATM    1  C   UNL     1      -5.745   3.677 -30.393  1.00  0.00     0.185 C 
ENDROOT
BRANCH   1   2
HETATM    2  C   UNL     1      -7.186   3.681 -30.880  1.00  0.00     0.232 C 
HETATM    3  N   UNL     1      -7.288   3.546 -32.257  1.00  0.00    -0.320 N 
HETATM    4  H   UNL     1      -6.435   3.603 -32.814  1.00  0.00     0.169 HD
HETATM    5  O   UNL     1      -8.109   3.763 -30.074  1.00  0.00    -0.272 OA
BRANCH   3   6
HETATM    6  C   UNL     1      -8.444   3.320 -32.995  1.00  0.00     0.094 A 
HETATM    7  C   UNL     1      -9.124   2.109 -33.112  1.00  0.00     0.080 A 
HETATM    8  C   UNL     1     -10.304   2.261 -33.948  1.00  0.00    -0.026 A 
HETATM    9  C   UNL     1     -10.470   3.573 -34.349  1.00  0.00    -0.008 A 
HETATM   10  C   UNL     1     -11.318   1.207 -34.309  1.00  0.00     0.041 C 
HETATM   11  S   UNL     1      -9.213   4.580 -33.832  1.00  0.00    -0.075 SA
HETATM   12  C   UNL     1     -11.610   4.100 -35.163  1.00  0.00     0.047 C 
HETATM   13  C   UNL     1     -12.790   3.121 -35.118  1.00  0.00     0.005 C 
HETATM   14  C   UNL     1     -12.322   1.684 -35.371  1.00  0.00     0.005 C 
BRANCH   7  15
HETATM   15  C   UNL     1      -8.661   0.900 -32.422  1.00  0.00     0.296 C 
HETATM   16  O   UNL     1      -9.294   0.377 -31.510  1.00  0.00    -0.259 OA
BRANCH  15  17
HETATM   17  O   UNL     1      -7.482   0.423 -32.907  1.00  0.00    -0.318 OA
BRANCH  17  18
HETATM   18  C   UNL     1      -7.584  -0.548 -33.956  1.00  0.00     0.174 C 
HETATM   19  C   UNL     1      -7.178   0.125 -35.253  1.00  0.00     0.034 C 
ENDBRANCH  17  18
ENDBRANCH  15  17
ENDBRANCH   7  15
ENDBRANCH   3   6
ENDBRANCH   1   2
BRANCH   1  20
HETATM   20  S   UNL     1      -4.685   2.736 -31.530  1.00  0.00    -0.083 SA
BRANCH  20  21
HETATM   21  C   UNL     1      -3.776   4.052 -32.189  1.00  0.00     0.171 A 
HETATM   22  N   UNL     1      -2.956   4.745 -31.463  1.00  0.00    -0.204 NA
HETATM   23  C   UNL     1      -2.364   5.764 -32.150  1.00  0.00     0.171 A 
HETATM   24  C   UNL     1      -2.614   6.104 -33.460  1.00  0.00     0.099 A 
HETATM   25  N   UNL     1      -1.422   6.679 -31.686  1.00  0.00    -0.215 N 
HETATM   26  C   UNL     1      -3.516   5.307 -34.238  1.00  0.00     0.263 A 
HETATM   27  C   UNL     1      -1.879   7.261 -33.703  1.00  0.00     0.160 A 
HETATM   28  O   UNL     1      -3.800   5.530 -35.407  1.00  0.00    -0.267 OA
HETATM   29  N   UNL     1      -4.051   4.263 -33.517  1.00  0.00    -0.301 N 
HETATM   30  H   UNL     1      -4.703   3.656 -33.991  1.00  0.00     0.171 HD
HETATM   31  N   UNL     1      -1.189   7.650 -32.628  1.00  0.00    -0.177 NA
BRANCH  25  32
HETATM   32  C   UNL     1      -0.706   6.702 -30.453  1.00  0.00     0.060 A 
HETATM   33  C   UNL     1       0.014   5.586 -30.000  1.00  0.00     0.034 A 
HETATM   34  C   UNL     1       0.739   5.657 -28.806  1.00  0.00     0.044 A 
HETATM   35  C   UNL     1       0.737   6.833 -28.066  1.00  0.00     0.116 A 
HETATM   36  F   UNL     1       1.422   6.892 -26.918  1.00  0.00    -0.206 F 
HETATM   37  C   UNL     1       0.027   7.947 -28.497  1.00  0.00     0.044 A 
HETATM   38  C   UNL     1      -0.688   7.886 -29.694  1.00  0.00     0.034 A 
ENDBRANCH  25  32
ENDBRANCH  20  21
ENDBRANCH   1  20
TORSDOF 8
ENDMDL
MODEL 8
REMARK VINA RESULT:      -8.8      2.576      3.795
REMARK  8 active torsions:
REMARK  status: ('A' for Active; 'I' for Inactive)
REMARK    1  A    between atoms: C_2  and  O_3 
REMARK    2  A    between atoms: O_3  and  C_4 
REMARK    3  A    between atoms: C_4  and  C_5 
REMARK    4  A    between atoms: C_6  and  N_7 
REMARK       I    between atoms: N_7  and  C_8 
REMARK    5  A    between atoms: C_8  and  C_9 
REMARK    6  A    between atoms: C_9  and  S_10 
REMARK    7  A    between atoms: S_10  and  C_11 
REMARK    8  A    between atoms: N_18  and  C_19 
ROOT
HETATM    1  C   UNL     1      -7.730   3.145 -32.462  1.00  0.00     0.185 C 
ENDROOT
BRANCH   1   2
HETATM    2  C   UNL     1      -7.577   1.636 -32.569  1.00  0.00     0.232 C 
HETATM    3  N   UNL     1      -6.657   1.257 -33.536  1.00  0.00    -0.320 N 
HETATM    4  H   UNL     1      -6.292   1.972 -34.165  1.00  0.00     0.169 HD
HETATM    5  O   UNL     1      -8.207   0.896 -31.818  1.00  0.00    -0.272 OA
BRANCH   3   6
HETATM    6  C   UNL     1      -6.144  -0.017 -33.753  1.00  0.00     0.094 A 
HETATM    7  C   UNL     1      -5.035  -0.578 -33.122  1.00  0.00     0.080 A 
HETATM    8  C   UNL     1      -4.811  -1.938 -33.587  1.00  0.00    -0.026 A 
HETATM    9  C   UNL     1      -5.790  -2.330 -34.481  1.00  0.00    -0.008 A 
HETATM   10  C   UNL     1      -3.737  -2.896 -33.145  1.00  0.00     0.041 C 
HETATM   11  S   UNL     1      -6.889  -1.094 -34.833  1.00  0.00    -0.075 SA
HETATM   12  C   UNL     1      -5.907  -3.684 -35.109  1.00  0.00     0.047 C 
HETATM   13  C   UNL     1      -5.093  -4.709 -34.311  1.00  0.00     0.005 C 
HETATM   14  C   UNL     1      -3.691  -4.175 -33.997  1.00  0.00     0.005 C 
BRANCH   7  15
HETATM   15  C   UNL     1      -4.274   0.162 -32.108  1.00  0.00     0.296 C 
HETATM   16  O   UNL     1      -3.939  -0.339 -31.039  1.00  0.00    -0.259 OA
BRANCH  15  17
HETATM   17  O   UNL     1      -3.974   1.434 -32.485  1.00  0.00    -0.318 OA
BRANCH  17  18
HETATM   18  C   UNL     1      -4.010   2.420 -31.446  1.00  0.00     0.174 C 
HETATM   19  C   UNL     1      -2.896   3.414 -31.710  1.00  0.00     0.034 C 
ENDBRANCH  17  18
ENDBRANCH  15  17
ENDBRANCH   7  15
ENDBRANCH   3   6
ENDBRANCH   1   2
BRANCH   1  20
HETATM   20  S   UNL     1      -6.839   3.979 -33.808  1.00  0.00    -0.083 SA
BRANCH  20  21
HETATM   21  C   UNL     1      -6.584   5.510 -33.044  1.00  0.00     0.171 A 
HETATM   22  N   UNL     1      -5.422   5.856 -32.583  1.00  0.00    -0.204 NA
HETATM   23  C   UNL     1      -5.429   7.080 -31.981  1.00  0.00     0.171 A 
HETATM   24  C   UNL     1      -6.533   7.883 -31.801  1.00  0.00     0.099 A 
HETATM   25  N   UNL     1      -4.359   7.760 -31.405  1.00  0.00    -0.215 N 
HETATM   26  C   UNL     1      -7.798   7.475 -32.336  1.00  0.00     0.263 A 
HETATM   27  C   UNL     1      -6.098   8.970 -31.048  1.00  0.00     0.160 A 
HETATM   28  O   UNL     1      -8.833   8.120 -32.228  1.00  0.00    -0.267 OA
HETATM   29  N   UNL     1      -7.732   6.258 -32.977  1.00  0.00    -0.301 N 
HETATM   30  H   UNL     1      -8.584   5.895 -33.376  1.00  0.00     0.171 HD
HETATM   31  N   UNL     1      -4.797   8.889 -30.760  1.00  0.00    -0.177 NA
BRANCH  25  32
HETATM   32  C   UNL     1      -2.966   7.456 -31.435  1.00  0.00     0.060 A 
HETATM   33  C   UNL     1      -2.214   7.563 -32.615  1.00  0.00     0.034 A 
HETATM   34  C   UNL     1      -0.842   7.297 -32.598  1.00  0.00     0.044 A 
HETATM   35  C   UNL     1      -0.227   6.916 -31.412  1.00  0.00     0.116 A 
HETATM   36  F   UNL     1       1.086   6.650 -31.404  1.00  0.00    -0.206 F 
HETATM   37  C   UNL     1      -0.954   6.801 -30.234  1.00  0.00     0.044 A 
HETATM   38  C   UNL     1      -2.323   7.078 -30.242  1.00  0.00     0.034 A 
ENDBRANCH  25  32
ENDBRANCH  20  21
ENDBRANCH   1  20
TORSDOF 8
ENDMDL
MODEL 9
REMARK VINA RESULT:      -8.8      2.814      3.919
REMARK  8 active torsions:
REMARK  status: ('A' for Active; 'I' for Inactive)
REMARK    1  A    between atoms: C_2  and  O_3 
REMARK    2  A    between atoms: O_3  and  C_4 
REMARK    3  A    between atoms: C_4  and  C_5 
REMARK    4  A    between atoms: C_6  and  N_7 
REMARK       I    between atoms: N_7  and  C_8 
REMARK    5  A    between atoms: C_8  and  C_9 
REMARK    6  A    between atoms: C_9  and  S_10 
REMARK    7  A    between atoms: S_10  and  C_11 
REMARK    8  A    between atoms: N_18  and  C_19 
ROOT
HETATM    1  C   UNL     1      -8.167   3.734 -30.445  1.00  0.00     0.185 C 
ENDROOT
BRANCH   1   2
HETATM    2  C   UNL     1      -7.375   2.894 -31.436  1.00  0.00     0.232 C 
HETATM    3  N   UNL     1      -7.305   1.557 -31.071  1.00  0.00    -0.320 N 
HETATM    4  H   UNL     1      -7.642   1.288 -30.146  1.00  0.00     0.169 HD
HETATM    5  O   UNL     1      -6.907   3.409 -32.447  1.00  0.00    -0.272 OA
BRANCH   3   6
HETATM    6  C   UNL     1      -6.832   0.500 -31.841  1.00  0.00     0.094 A 
HETATM    7  C   UNL     1      -7.537  -0.176 -32.835  1.00  0.00     0.080 A 
HETATM    8  C   UNL     1      -6.710  -1.208 -33.441  1.00  0.00    -0.026 A 
HETATM    9  C   UNL     1      -5.432  -1.201 -32.913  1.00  0.00    -0.008 A 
HETATM   10  C   UNL     1      -7.081  -2.146 -34.559  1.00  0.00     0.041 C 
HETATM   11  S   UNL     1      -5.243  -0.070 -31.671  1.00  0.00    -0.075 SA
HETATM   12  C   UNL     1      -4.304  -2.083 -33.347  1.00  0.00     0.047 C 
HETATM   13  C   UNL     1      -4.596  -2.673 -34.732  1.00  0.00     0.005 C 
HETATM   14  C   UNL     1      -6.021  -3.233 -34.803  1.00  0.00     0.005 C 
BRANCH   7  15
HETATM   15  C   UNL     1      -8.913   0.192 -33.185  1.00  0.00     0.296 C 
HETATM   16  O   UNL     1      -9.890  -0.402 -32.738  1.00  0.00    -0.259 OA
BRANCH  15  17
HETATM   17  O   UNL     1      -8.986   1.254 -34.033  1.00  0.00    -0.318 OA
BRANCH  17  18
HETATM   18  C   UNL     1     -10.196   2.020 -33.974  1.00  0.00     0.174 C 
HETATM   19  C   UNL     1      -9.847   3.463 -34.282  1.00  0.00     0.034 C 
ENDBRANCH  17  18
ENDBRANCH  15  17
ENDBRANCH   7  15
ENDBRANCH   3   6
ENDBRANCH   1   2
BRANCH   1  20
HETATM   20  S   UNL     1      -8.285   5.456 -31.013  1.00  0.00    -0.083 SA
BRANCH  20  21
HETATM   21  C   UNL     1      -6.842   6.071 -30.285  1.00  0.00     0.171 A 
HETATM   22  N   UNL     1      -5.691   5.990 -30.879  1.00  0.00    -0.204 NA
HETATM   23  C   UNL     1      -4.668   6.493 -30.132  1.00  0.00     0.171 A 
HETATM   24  C   UNL     1      -4.773   6.993 -28.853  1.00  0.00     0.099 A 
HETATM   25  N   UNL     1      -3.320   6.584 -30.472  1.00  0.00    -0.215 N 
HETATM   26  C   UNL     1      -6.062   7.080 -28.233  1.00  0.00     0.263 A 
HETATM   27  C   UNL     1      -3.474   7.283 -28.446  1.00  0.00     0.160 A 
HETATM   28  O   UNL     1      -6.256   7.510 -27.103  1.00  0.00    -0.267 OA
HETATM   29  N   UNL     1      -7.070   6.607 -29.043  1.00  0.00    -0.301 N 
HETATM   30  H   UNL     1      -8.010   6.627 -28.678  1.00  0.00     0.171 HD
HETATM   31  N   UNL     1      -2.578   6.998 -29.394  1.00  0.00    -0.177 NA
BRANCH  25  32
HETATM   32  C   UNL     1      -2.680   6.346 -31.723  1.00  0.00     0.060 A 
HETATM   33  C   UNL     1      -2.208   7.399 -32.522  1.00  0.00     0.034 A 
HETATM   34  C   UNL     1      -1.548   7.126 -33.724  1.00  0.00     0.044 A 
HETATM   35  C   UNL     1      -1.369   5.809 -34.130  1.00  0.00     0.116 A 
HETATM   36  F   UNL     1      -0.747   5.554 -35.288  1.00  0.00    -0.206 F 
HETATM   37  C   UNL     1      -1.832   4.753 -33.355  1.00  0.00     0.044 A 
HETATM   38  C   UNL     1      -2.481   5.019 -32.147  1.00  0.00     0.034 A 
ENDBRANCH  25  32
ENDBRANCH  20  21
ENDBRANCH   1  20
TORSDOF 8
ENDMDL
MODEL 10
REMARK VINA RESULT:      -8.8      2.675      3.702
REMARK  8 active torsions:
REMARK  status: ('A' for Active; 'I' for Inactive)
REMARK    1  A    between atoms: C_2  and  O_3 
REMARK    2  A    between atoms: O_3  and  C_4 
REMARK    3  A    between atoms: C_4  and  C_5 
REMARK    4  A    between atoms: C_6  and  N_7 
REMARK       I    between atoms: N_7  and  C_8 
REMARK    5  A    between atoms: C_8  and  C_9 
REMARK    6  A    between atoms: C_9  and  S_10 
REMARK    7  A    between atoms: S_10  and  C_11 
REMARK    8  A    between atoms: N_18  and  C_19 
ROOT
HETATM    1  C   UNL     1      -6.595   3.671 -32.073  1.00  0.00     0.185 C 
ENDROOT
BRANCH   1   2
HETATM    2  C   UNL     1      -6.802   2.185 -32.320  1.00  0.00     0.232 C 
HETATM    3  N   UNL     1      -5.975   1.685 -33.316  1.00  0.00    -0.320 N 
HETATM    4  H   UNL     1      -5.434   2.346 -33.873  1.00  0.00     0.169 HD
HETATM    5  O   UNL     1      -7.610   1.553 -31.644  1.00  0.00    -0.272 OA
BRANCH   3   6
HETATM    6  C   UNL     1      -5.774   0.350 -33.649  1.00  0.00     0.094 A 
HETATM    7  C   UNL     1      -4.792  -0.491 -33.130  1.00  0.00     0.080 A 
HETATM    8  C   UNL     1      -4.904  -1.825 -33.697  1.00  0.00    -0.026 A 
HETATM    9  C   UNL     1      -5.989  -1.919 -34.549  1.00  0.00    -0.008 A 
HETATM   10  C   UNL     1      -4.055  -3.030 -33.390  1.00  0.00     0.041 C 
HETATM   11  S   UNL     1      -6.795  -0.445 -34.746  1.00  0.00    -0.075 SA
HETATM   12  C   UNL     1      -6.439  -3.159 -35.256  1.00  0.00     0.047 C 
HETATM   13  C   UNL     1      -5.840  -4.399 -34.582  1.00  0.00     0.005 C 
HETATM   14  C   UNL     1      -4.340  -4.216 -34.326  1.00  0.00     0.005 C 
BRANCH   7  15
HETATM   15  C   UNL     1      -3.835  -0.021 -32.121  1.00  0.00     0.296 C 
HETATM   16  O   UNL     1      -3.454  -0.727 -31.193  1.00  0.00    -0.259 OA
BRANCH  15  17
HETATM   17  O   UNL     1      -3.414   1.255 -32.335  1.00  0.00    -0.318 OA
BRANCH  17  18
HETATM   18  C   UNL     1      -3.227   2.057 -31.162  1.00  0.00     0.174 C 
HETATM   19  C   UNL     1      -2.776   3.435 -31.608  1.00  0.00     0.034 C 
ENDBRANCH  17  18
ENDBRANCH  15  17
ENDBRANCH   7  15
ENDBRANCH   3   6
ENDBRANCH   1   2
BRANCH   1  20
HETATM   20  S   UNL     1      -6.650   4.597 -33.636  1.00  0.00    -0.083 SA
BRANCH  20  21
HETATM   21  C   UNL     1      -5.131   5.413 -33.510  1.00  0.00     0.171 A 
HETATM   22  N   UNL     1      -4.936   6.361 -32.645  1.00  0.00    -0.204 NA
HETATM   23  C   UNL     1      -3.689   6.908 -32.725  1.00  0.00     0.171 A 
HETATM   24  C   UNL     1      -2.719   6.574 -33.642  1.00  0.00     0.099 A 
HETATM   25  N   UNL     1      -3.144   7.920 -31.938  1.00  0.00    -0.215 N 
HETATM   26  C   UNL     1      -2.964   5.513 -34.574  1.00  0.00     0.263 A 
HETATM   27  C   UNL     1      -1.665   7.457 -33.426  1.00  0.00     0.160 A 
HETATM   28  O   UNL     1      -2.164   5.144 -35.425  1.00  0.00    -0.267 OA
HETATM   29  N   UNL     1      -4.215   4.957 -34.424  1.00  0.00    -0.301 N 
HETATM   30  H   UNL     1      -4.469   4.207 -35.048  1.00  0.00     0.171 HD
HETATM   31  N   UNL     1      -1.923   8.308 -32.431  1.00  0.00    -0.177 NA
BRANCH  25  32
HETATM   32  C   UNL     1      -3.656   8.527 -30.754  1.00  0.00     0.060 A 
HETATM   33  C   UNL     1      -3.316   8.055 -29.478  1.00  0.00     0.034 A 
HETATM   34  C   UNL     1      -3.804   8.701 -28.338  1.00  0.00     0.044 A 
HETATM   35  C   UNL     1      -4.635   9.807 -28.473  1.00  0.00     0.116 A 
HETATM   36  F   UNL     1      -5.110  10.414 -27.378  1.00  0.00    -0.206 F 
HETATM   37  C   UNL     1      -4.986  10.287 -29.728  1.00  0.00     0.044 A 
HETATM   38  C   UNL     1      -4.492   9.654 -30.870  1.00  0.00     0.034 A 
ENDBRANCH  25  32
ENDBRANCH  20  21
ENDBRANCH   1  20
TORSDOF 8
ENDMDL
