MODEL 1
REMARK VINA RESULT:      -8.7      0.000      0.000
REMARK  5 active torsions:
REMARK  status: ('A' for Active; 'I' for Inactive)
REMARK    1  A    between atoms: C_4  and  N_5 
REMARK    2  A    between atoms: N_8  and  C_10 
REMARK    3  A    between atoms: N_13  and  C_15 
REMARK    4  A    between atoms: C_15  and  C_16 
REMARK    5  A    between atoms: C_17  and  O_18 
ROOT
HETATM    1  C   UNL     1      -7.892   4.148 -32.206  1.00  0.00     0.191 C 
HETATM    2  C   UNL     1      -7.403   5.073 -33.328  1.00  0.00     0.061 C 
HETATM    3  C   UNL     1      -5.979   4.824 -33.827  1.00  0.00     0.237 C 
HETATM    4  N   UNL     1      -5.002   4.547 -32.722  1.00  0.00    -0.067 N 
HETATM    5  H   UNL     1      -4.741   5.443 -32.264  1.00  0.00     0.280 HD
HETATM    6  C   UNL     1      -5.473   3.610 -31.644  1.00  0.00     0.237 C 
HETATM    7  C   UNL     1      -6.820   4.060 -31.121  1.00  0.00     0.061 C 
ENDROOT
BRANCH   1   8
HETATM    8  N   UNL     1      -8.456   2.798 -32.688  1.00  0.00    -0.064 N 
HETATM    9  C   UNL     1      -8.006   2.249 -34.058  1.00  0.00     0.255 C 
HETATM   10  C   UNL     1      -8.672   0.897 -34.396  1.00  0.00     0.150 C 
HETATM   11  N   UNL     1      -8.390  -0.061 -33.315  1.00  0.00    -0.378 N 
HETATM   12  C   UNL     1      -9.046   0.354 -32.060  1.00  0.00     0.150 C 
HETATM   13  C   UNL     1      -8.451   1.695 -31.577  1.00  0.00     0.255 C 
HETATM   14  H   UNL     1      -9.466   2.963 -32.828  1.00  0.00     0.280 HD
BRANCH  11  15
HETATM   15  C   UNL     1      -7.114  -0.650 -33.285  1.00  0.00     0.030 A 
HETATM   16  C   UNL     1      -6.188  -0.425 -32.251  1.00  0.00     0.029 A 
HETATM   17  C   UNL     1      -4.899  -0.981 -32.267  1.00  0.00     0.002 A 
HETATM   18  C   UNL     1      -4.508  -1.811 -33.307  1.00  0.00     0.000 A 
HETATM   19  C   UNL     1      -5.415  -2.109 -34.313  1.00  0.00     0.002 A 
HETATM   20  C   UNL     1      -6.699  -1.545 -34.290  1.00  0.00     0.029 A 
ENDBRANCH  11  15
ENDBRANCH   1   8
BRANCH   4  21
HETATM   21  C   UNL     1      -3.652   4.104 -33.308  1.00  0.00     0.276 C 
BRANCH  21  22
HETATM   22  C   UNL     1      -2.511   5.015 -32.960  1.00  0.00     0.002 A 
HETATM   23  C   UNL     1      -2.245   6.154 -33.727  1.00  0.00     0.073 A 
HETATM   24  C   UNL     1      -1.197   7.013 -33.405  1.00  0.00     0.038 A 
HETATM   25  C   UNL     1      -0.406   6.743 -32.287  1.00  0.00     0.022 A 
HETATM   26  C   UNL     1      -0.666   5.618 -31.508  1.00  0.00     0.011 A 
HETATM   27 BR   UNL     1       0.377   5.270 -29.972  1.00  0.00    -0.051 Br
HETATM   28  C   UNL     1      -1.706   4.750 -31.841  1.00  0.00     0.030 A 
BRANCH  23  29
HETATM   29  O   UNL     1      -3.075   6.425 -34.781  1.00  0.00    -0.360 OA
HETATM   30  H   UNL     1      -3.630   5.629 -34.932  1.00  0.00     0.217 HD
ENDBRANCH  23  29
ENDBRANCH  21  22
ENDBRANCH   4  21
TORSDOF 5
ENDMDL
MODEL 2
REMARK VINA RESULT:      -8.6      3.470      7.396
REMARK  5 active torsions:
REMARK  status: ('A' for Active; 'I' for Inactive)
REMARK    1  A    between atoms: C_4  and  N_5 
REMARK    2  A    between atoms: N_8  and  C_10 
REMARK    3  A    between atoms: N_13  and  C_15 
REMARK    4  A    between atoms: C_15  and  C_16 
REMARK    5  A    between atoms: C_17  and  O_18 
ROOT
HETATM    1  C   UNL     1      -7.584   2.374 -32.258  1.00  0.00     0.191 C 
HETATM    2  C   UNL     1      -7.406   1.230 -31.252  1.00  0.00     0.061 C 
HETATM    3  C   UNL     1      -6.099   0.443 -31.357  1.00  0.00     0.237 C 
HETATM    4  N   UNL     1      -5.694   0.151 -32.773  1.00  0.00    -0.067 N 
HETATM    5  H   UNL     1      -6.262  -0.642 -33.134  1.00  0.00     0.280 HD
HETATM    6  C   UNL     1      -5.835   1.287 -33.748  1.00  0.00     0.237 C 
HETATM    7  C   UNL     1      -7.227   1.875 -33.658  1.00  0.00     0.061 C 
ENDROOT
BRANCH   1   8
HETATM    8  N   UNL     1      -6.924   3.702 -31.842  1.00  0.00    -0.064 N 
HETATM    9  C   UNL     1      -5.574   3.662 -31.096  1.00  0.00     0.255 C 
HETATM   10  C   UNL     1      -5.057   5.074 -30.741  1.00  0.00     0.150 C 
HETATM   11  N   UNL     1      -4.967   5.876 -31.973  1.00  0.00    -0.378 N 
HETATM   12  C   UNL     1      -6.307   6.120 -32.540  1.00  0.00     0.150 C 
HETATM   13  C   UNL     1      -6.943   4.782 -32.976  1.00  0.00     0.255 C 
HETATM   14  H   UNL     1      -7.562   4.111 -31.140  1.00  0.00     0.280 HD
BRANCH  11  15
HETATM   15  C   UNL     1      -3.871   5.643 -32.821  1.00  0.00     0.030 A 
HETATM   16  C   UNL     1      -3.984   5.574 -34.221  1.00  0.00     0.029 A 
HETATM   17  C   UNL     1      -2.886   5.288 -35.047  1.00  0.00     0.002 A 
HETATM   18  C   UNL     1      -1.628   5.095 -34.497  1.00  0.00     0.000 A 
HETATM   19  C   UNL     1      -1.463   5.219 -33.125  1.00  0.00     0.002 A 
HETATM   20  C   UNL     1      -2.567   5.501 -32.308  1.00  0.00     0.029 A 
ENDBRANCH  11  15
ENDBRANCH   1   8
BRANCH   4  21
HETATM   21  C   UNL     1      -4.280  -0.452 -32.805  1.00  0.00     0.276 C 
BRANCH  21  22
HETATM   22  C   UNL     1      -4.251  -1.914 -33.141  1.00  0.00     0.002 A 
HETATM   23  C   UNL     1      -3.350  -2.776 -32.507  1.00  0.00     0.073 A 
HETATM   24  C   UNL     1      -3.323  -4.137 -32.801  1.00  0.00     0.038 A 
HETATM   25  C   UNL     1      -4.223  -4.656 -33.734  1.00  0.00     0.022 A 
HETATM   26  C   UNL     1      -5.132  -3.811 -34.365  1.00  0.00     0.011 A 
HETATM   27 BR   UNL     1      -6.377  -4.515 -35.600  1.00  0.00    -0.051 Br
HETATM   28  C   UNL     1      -5.147  -2.446 -34.081  1.00  0.00     0.030 A 
BRANCH  23  29
HETATM   29  O   UNL     1      -2.522  -2.249 -31.552  1.00  0.00    -0.360 OA
HETATM   30  H   UNL     1      -3.065  -1.658 -30.986  1.00  0.00     0.217 HD
ENDBRANCH  23  29
ENDBRANCH  21  22
ENDBRANCH   4  21
TORSDOF 5
ENDMDL
MODEL 3
REMARK VINA RESULT:      -8.4      5.510      8.064
REMARK  5 active torsions:
REMARK  status: ('A' for Active; 'I' for Inactive)
REMARK    1  A    between atoms: C_4  and  N_5 
REMARK    2  A    between atoms: N_8  and  C_10 
REMARK    3  A    between atoms: N_13  and  C_15 
REMARK    4  A    between atoms: C_15  and  C_16 
REMARK    5  A    between atoms: C_17  and  O_18 
ROOT
HETATM    1  C   UNL     1      -9.021   0.416 -31.948  1.00  0.00     0.191 C 
HETATM    2  C   UNL     1     -10.262  -0.242 -32.563  1.00  0.00     0.061 C 
HETATM    3  C   UNL     1     -11.129   0.657 -33.445  1.00  0.00     0.237 C 
HETATM    4  N   UNL     1     -11.319   2.036 -32.882  1.00  0.00    -0.067 N 
HETATM    5  H   UNL     1     -12.032   2.001 -32.126  1.00  0.00     0.280 HD
HETATM    6  C   UNL     1     -10.091   2.692 -32.314  1.00  0.00     0.237 C 
HETATM    7  C   UNL     1      -9.414   1.760 -31.333  1.00  0.00     0.061 C 
ENDROOT
BRANCH   1   8
HETATM    8  N   UNL     1      -7.788   0.448 -32.870  1.00  0.00    -0.064 N 
HETATM    9  C   UNL     1      -6.432  -0.040 -32.318  1.00  0.00     0.255 C 
HETATM   10  C   UNL     1      -5.299   0.069 -33.363  1.00  0.00     0.150 C 
HETATM   11  N   UNL     1      -5.687  -0.676 -34.572  1.00  0.00    -0.378 N 
HETATM   12  C   UNL     1      -6.843  -0.041 -35.233  1.00  0.00     0.150 C 
HETATM   13  C   UNL     1      -8.077  -0.105 -34.306  1.00  0.00     0.255 C 
HETATM   14  H   UNL     1      -7.614   1.450 -33.052  1.00  0.00     0.280 HD
BRANCH  11  15
HETATM   15  C   UNL     1      -5.575  -2.077 -34.535  1.00  0.00     0.030 A 
HETATM   16  C   UNL     1      -4.402  -2.743 -34.139  1.00  0.00     0.029 A 
HETATM   17  C   UNL     1      -4.292  -4.142 -34.161  1.00  0.00     0.002 A 
HETATM   18  C   UNL     1      -5.371  -4.923 -34.548  1.00  0.00     0.000 A 
HETATM   19  C   UNL     1      -6.566  -4.305 -34.885  1.00  0.00     0.002 A 
HETATM   20  C   UNL     1      -6.664  -2.907 -34.864  1.00  0.00     0.029 A 
ENDBRANCH  11  15
ENDBRANCH   1   8
BRANCH   4  21
HETATM   21  C   UNL     1     -12.018   2.936 -33.913  1.00  0.00     0.276 C 
BRANCH  21  22
HETATM   22  C   UNL     1     -13.131   3.763 -33.341  1.00  0.00     0.002 A 
HETATM   23  C   UNL     1     -14.155   3.168 -32.596  1.00  0.00     0.073 A 
HETATM   24  C   UNL     1     -15.186   3.928 -32.049  1.00  0.00     0.038 A 
HETATM   25  C   UNL     1     -15.192   5.312 -32.233  1.00  0.00     0.022 A 
HETATM   26  C   UNL     1     -14.174   5.919 -32.965  1.00  0.00     0.011 A 
HETATM   27 BR   UNL     1     -14.157   7.795 -33.184  1.00  0.00    -0.051 Br
HETATM   28  C   UNL     1     -13.150   5.155 -33.525  1.00  0.00     0.030 A 
BRANCH  23  29
HETATM   29  O   UNL     1     -14.089   1.818 -32.381  1.00  0.00    -0.360 OA
HETATM   30  H   UNL     1     -15.000   1.506 -32.187  1.00  0.00     0.217 HD
ENDBRANCH  23  29
ENDBRANCH  21  22
ENDBRANCH   4  21
TORSDOF 5
ENDMDL
MODEL 4
REMARK VINA RESULT:      -8.3      2.701      4.029
REMARK  5 active torsions:
REMARK  status: ('A' for Active; 'I' for Inactive)
REMARK    1  A    between atoms: C_4  and  N_5 
REMARK    2  A    between atoms: N_8  and  C_10 
REMARK    3  A    between atoms: N_13  and  C_15 
REMARK    4  A    between atoms: C_15  and  C_16 
REMARK    5  A    between atoms: C_17  and  O_18 
ROOT
HETATM    1  C   UNL     1      -4.478   4.102 -32.217  1.00  0.00     0.191 C 
HETATM    2  C   UNL     1      -3.524   4.175 -33.417  1.00  0.00     0.061 C 
HETATM    3  C   UNL     1      -2.064   4.493 -33.093  1.00  0.00     0.237 C 
HETATM    4  N   UNL     1      -1.906   5.564 -32.053  1.00  0.00    -0.067 N 
HETATM    5  H   UNL     1      -2.066   6.493 -32.493  1.00  0.00     0.280 HD
HETATM    6  C   UNL     1      -2.818   5.467 -30.861  1.00  0.00     0.237 C 
HETATM    7  C   UNL     1      -4.252   5.318 -31.319  1.00  0.00     0.061 C 
ENDROOT
BRANCH   1   8
HETATM    8  N   UNL     1      -4.497   2.741 -31.495  1.00  0.00    -0.064 N 
HETATM    9  C   UNL     1      -5.855   2.058 -31.231  1.00  0.00     0.255 C 
HETATM   10  C   UNL     1      -5.700   0.712 -30.489  1.00  0.00     0.150 C 
HETATM   11  N   UNL     1      -4.800  -0.161 -31.260  1.00  0.00    -0.378 N 
HETATM   12  C   UNL     1      -3.431   0.389 -31.288  1.00  0.00     0.150 C 
HETATM   13  C   UNL     1      -3.424   1.739 -32.038  1.00  0.00     0.255 C 
HETATM   14  H   UNL     1      -4.151   2.938 -30.542  1.00  0.00     0.280 HD
BRANCH  11  15
HETATM   15  C   UNL     1      -5.329  -0.800 -32.394  1.00  0.00     0.030 A 
HETATM   16  C   UNL     1      -6.669  -0.664 -32.798  1.00  0.00     0.029 A 
HETATM   17  C   UNL     1      -7.191  -1.353 -33.904  1.00  0.00     0.002 A 
HETATM   18  C   UNL     1      -6.375  -2.178 -34.664  1.00  0.00     0.000 A 
HETATM   19  C   UNL     1      -5.032  -2.288 -34.335  1.00  0.00     0.002 A 
HETATM   20  C   UNL     1      -4.521  -1.599 -33.226  1.00  0.00     0.029 A 
ENDBRANCH  11  15
ENDBRANCH   1   8
BRANCH   4  21
HETATM   21  C   UNL     1      -0.432   5.679 -31.633  1.00  0.00     0.276 C 
BRANCH  21  22
HETATM   22  C   UNL     1      -0.237   6.193 -30.236  1.00  0.00     0.002 A 
HETATM   23  C   UNL     1       0.428   5.422 -29.277  1.00  0.00     0.073 A 
HETATM   24  C   UNL     1       0.627   5.894 -27.982  1.00  0.00     0.038 A 
HETATM   25  C   UNL     1       0.168   7.166 -27.636  1.00  0.00     0.022 A 
HETATM   26  C   UNL     1      -0.487   7.949 -28.585  1.00  0.00     0.011 A 
HETATM   27 BR   UNL     1      -1.075   9.686 -28.133  1.00  0.00    -0.051 Br
HETATM   28  C   UNL     1      -0.699   7.468 -29.877  1.00  0.00     0.030 A 
BRANCH  23  29
HETATM   29  O   UNL     1       0.920   4.204 -29.662  1.00  0.00    -0.360 OA
HETATM   30  H   UNL     1       1.888   4.212 -29.499  1.00  0.00     0.217 HD
ENDBRANCH  23  29
ENDBRANCH  21  22
ENDBRANCH   4  21
TORSDOF 5
ENDMDL
MODEL 5
REMARK VINA RESULT:      -8.3      1.927      3.692
REMARK  5 active torsions:
REMARK  status: ('A' for Active; 'I' for Inactive)
REMARK    1  A    between atoms: C_4  and  N_5 
REMARK    2  A    between atoms: N_8  and  C_10 
REMARK    3  A    between atoms: N_13  and  C_15 
REMARK    4  A    between atoms: C_15  and  C_16 
REMARK    5  A    between atoms: C_17  and  O_18 
ROOT
HETATM    1  C   UNL     1      -7.637   4.041 -32.519  1.00  0.00     0.191 C 
HETATM    2  C   UNL     1      -7.116   4.704 -33.800  1.00  0.00     0.061 C 
HETATM    3  C   UNL     1      -5.637   4.479 -34.117  1.00  0.00     0.237 C 
HETATM    4  N   UNL     1      -4.750   4.578 -32.910  1.00  0.00    -0.067 N 
HETATM    5  H   UNL     1      -4.601   5.580 -32.677  1.00  0.00     0.280 HD
HETATM    6  C   UNL     1      -5.247   3.894 -31.667  1.00  0.00     0.237 C 
HETATM    7  C   UNL     1      -6.667   4.326 -31.373  1.00  0.00     0.061 C 
ENDROOT
BRANCH   1   8
HETATM    8  N   UNL     1      -8.050   2.566 -32.683  1.00  0.00    -0.064 N 
HETATM    9  C   UNL     1      -9.120   1.983 -31.736  1.00  0.00     0.255 C 
HETATM   10  C   UNL     1      -9.409   0.493 -32.024  1.00  0.00     0.150 C 
HETATM   11  N   UNL     1      -9.802   0.344 -33.435  1.00  0.00    -0.378 N 
HETATM   12  C   UNL     1      -8.675   0.667 -34.331  1.00  0.00     0.150 C 
HETATM   13  C   UNL     1      -8.290   2.154 -34.174  1.00  0.00     0.255 C 
HETATM   14  H   UNL     1      -7.206   2.022 -32.439  1.00  0.00     0.280 HD
BRANCH  11  15
HETATM   15  C   UNL     1     -11.113   0.709 -33.786  1.00  0.00     0.030 A 
HETATM   16  C   UNL     1     -11.412   1.838 -34.569  1.00  0.00     0.029 A 
HETATM   17  C   UNL     1     -12.731   2.215 -34.865  1.00  0.00     0.002 A 
HETATM   18  C   UNL     1     -13.796   1.450 -34.413  1.00  0.00     0.000 A 
HETATM   19  C   UNL     1     -13.539   0.294 -33.692  1.00  0.00     0.002 A 
HETATM   20  C   UNL     1     -12.218  -0.072 -33.398  1.00  0.00     0.029 A 
ENDBRANCH  11  15
ENDBRANCH   1   8
BRANCH   4  21
HETATM   21  C   UNL     1      -3.321   4.137 -33.267  1.00  0.00     0.276 C 
BRANCH  21  22
HETATM   22  C   UNL     1      -2.259   5.097 -32.817  1.00  0.00     0.002 A 
HETATM   23  C   UNL     1      -2.026   6.285 -33.518  1.00  0.00     0.073 A 
HETATM   24  C   UNL     1      -1.052   7.190 -33.101  1.00  0.00     0.038 A 
HETATM   25  C   UNL     1      -0.304   6.915 -31.955  1.00  0.00     0.022 A 
HETATM   26  C   UNL     1      -0.533   5.740 -31.242  1.00  0.00     0.011 A 
HETATM   27 BR   UNL     1       0.449   5.383 -29.668  1.00  0.00    -0.051 Br
HETATM   28  C   UNL     1      -1.498   4.828 -31.669  1.00  0.00     0.030 A 
BRANCH  23  29
HETATM   29  O   UNL     1      -2.816   6.556 -34.602  1.00  0.00    -0.360 OA
HETATM   30  H   UNL     1      -2.371   7.261 -35.122  1.00  0.00     0.217 HD
ENDBRANCH  23  29
ENDBRANCH  21  22
ENDBRANCH   4  21
TORSDOF 5
ENDMDL
MODEL 6
REMARK VINA RESULT:      -8.3      1.548      2.060
REMARK  5 active torsions:
REMARK  status: ('A' for Active; 'I' for Inactive)
REMARK    1  A    between atoms: C_4  and  N_5 
REMARK    2  A    between atoms: N_8  and  C_10 
REMARK    3  A    between atoms: N_13  and  C_15 
REMARK    4  A    between atoms: C_15  and  C_16 
REMARK    5  A    between atoms: C_17  and  O_18 
ROOT
HETATM    1  C   UNL     1      -6.164   1.904 -31.335  1.00  0.00     0.191 C 
HETATM    2  C   UNL     1      -6.866   3.157 -30.796  1.00  0.00     0.061 C 
HETATM    3  C   UNL     1      -6.478   4.479 -31.459  1.00  0.00     0.237 C 
HETATM    4  N   UNL     1      -5.004   4.602 -31.718  1.00  0.00    -0.067 N 
HETATM    5  H   UNL     1      -4.521   4.845 -30.830  1.00  0.00     0.280 HD
HETATM    6  C   UNL     1      -4.328   3.383 -32.281  1.00  0.00     0.237 C 
HETATM    7  C   UNL     1      -4.663   2.172 -31.439  1.00  0.00     0.061 C 
ENDROOT
BRANCH   1   8
HETATM    8  N   UNL     1      -6.815   1.293 -32.590  1.00  0.00    -0.064 N 
HETATM    9  C   UNL     1      -5.952   1.094 -33.854  1.00  0.00     0.255 C 
HETATM   10  C   UNL     1      -6.757   0.486 -35.024  1.00  0.00     0.150 C 
HETATM   11  N   UNL     1      -7.363  -0.781 -34.582  1.00  0.00    -0.378 N 
HETATM   12  C   UNL     1      -8.379  -0.542 -33.539  1.00  0.00     0.150 C 
HETATM   13  C   UNL     1      -7.706   0.045 -32.278  1.00  0.00     0.255 C 
HETATM   14  H   UNL     1      -7.513   1.990 -32.897  1.00  0.00     0.280 HD
BRANCH  11  15
HETATM   15  C   UNL     1      -6.529  -1.911 -34.513  1.00  0.00     0.030 A 
HETATM   16  C   UNL     1      -5.165  -1.840 -34.182  1.00  0.00     0.029 A 
HETATM   17  C   UNL     1      -4.338  -2.973 -34.171  1.00  0.00     0.002 A 
HETATM   18  C   UNL     1      -4.862  -4.225 -34.458  1.00  0.00     0.000 A 
HETATM   19  C   UNL     1      -6.217  -4.345 -34.727  1.00  0.00     0.002 A 
HETATM   20  C   UNL     1      -7.034  -3.206 -34.740  1.00  0.00     0.029 A 
ENDBRANCH  11  15
ENDBRANCH   1   8
BRANCH   4  21
HETATM   21  C   UNL     1      -4.719   5.853 -32.566  1.00  0.00     0.276 C 
BRANCH  21  22
HETATM   22  C   UNL     1      -3.276   6.261 -32.581  1.00  0.00     0.002 A 
HETATM   23  C   UNL     1      -2.587   6.409 -33.789  1.00  0.00     0.073 A 
HETATM   24  C   UNL     1      -1.250   6.801 -33.816  1.00  0.00     0.038 A 
HETATM   25  C   UNL     1      -0.588   7.066 -32.615  1.00  0.00     0.022 A 
HETATM   26  C   UNL     1      -1.265   6.932 -31.405  1.00  0.00     0.011 A 
HETATM   27 BR   UNL     1      -0.385   7.328 -29.781  1.00  0.00    -0.051 Br
HETATM   28  C   UNL     1      -2.599   6.525 -31.380  1.00  0.00     0.030 A 
BRANCH  23  29
HETATM   29  O   UNL     1      -3.279   6.201 -34.952  1.00  0.00    -0.360 OA
HETATM   30  H   UNL     1      -2.890   5.412 -35.389  1.00  0.00     0.217 HD
ENDBRANCH  23  29
ENDBRANCH  21  22
ENDBRANCH   4  21
TORSDOF 5
ENDMDL
MODEL 7
REMARK VINA RESULT:      -8.2      2.959      4.005
REMARK  5 active torsions:
REMARK  status: ('A' for Active; 'I' for Inactive)
REMARK    1  A    between atoms: C_4  and  N_5 
REMARK    2  A    between atoms: N_8  and  C_10 
REMARK    3  A    between atoms: N_13  and  C_15 
REMARK    4  A    between atoms: C_15  and  C_16 
REMARK    5  A    between atoms: C_17  and  O_18 
ROOT
HETATM    1  C   UNL     1      -4.104   3.991 -32.995  1.00  0.00     0.191 C 
HETATM    2  C   UNL     1      -2.603   4.100 -33.292  1.00  0.00     0.061 C 
HETATM    3  C   UNL     1      -1.764   4.826 -32.240  1.00  0.00     0.237 C 
HETATM    4  N   UNL     1      -2.425   6.061 -31.701  1.00  0.00    -0.067 N 
HETATM    5  H   UNL     1      -2.322   6.832 -32.392  1.00  0.00     0.280 HD
HETATM    6  C   UNL     1      -3.888   5.938 -31.377  1.00  0.00     0.237 C 
HETATM    7  C   UNL     1      -4.632   5.357 -32.560  1.00  0.00     0.061 C 
ENDROOT
BRANCH   1   8
HETATM    8  N   UNL     1      -4.494   2.811 -32.085  1.00  0.00    -0.064 N 
HETATM    9  C   UNL     1      -5.943   2.283 -32.131  1.00  0.00     0.255 C 
HETATM   10  C   UNL     1      -6.172   1.110 -31.152  1.00  0.00     0.150 C 
HETATM   11  N   UNL     1      -5.202   0.043 -31.446  1.00  0.00    -0.378 N 
HETATM   12  C   UNL     1      -3.826   0.487 -31.153  1.00  0.00     0.150 C 
HETATM   13  C   UNL     1      -3.441   1.653 -32.091  1.00  0.00     0.255 C 
HETATM   14  H   UNL     1      -4.413   3.176 -31.122  1.00  0.00     0.280 HD
BRANCH  11  15
HETATM   15  C   UNL     1      -5.458  -0.780 -32.557  1.00  0.00     0.030 A 
HETATM   16  C   UNL     1      -6.707  -0.834 -33.201  1.00  0.00     0.029 A 
HETATM   17  C   UNL     1      -6.958  -1.701 -34.275  1.00  0.00     0.002 A 
HETATM   18  C   UNL     1      -5.951  -2.522 -34.762  1.00  0.00     0.000 A 
HETATM   19  C   UNL     1      -4.688  -2.451 -34.195  1.00  0.00     0.002 A 
HETATM   20  C   UNL     1      -4.448  -1.584 -33.119  1.00  0.00     0.029 A 
ENDBRANCH  11  15
ENDBRANCH   1   8
BRANCH   4  21
HETATM   21  C   UNL     1      -1.624   6.614 -30.511  1.00  0.00     0.276 C 
BRANCH  21  22
HETATM   22  C   UNL     1      -2.078   7.967 -30.050  1.00  0.00     0.002 A 
HETATM   23  C   UNL     1      -2.162   9.038 -30.947  1.00  0.00     0.073 A 
HETATM   24  C   UNL     1      -2.594  10.296 -30.533  1.00  0.00     0.038 A 
HETATM   25  C   UNL     1      -2.968  10.490 -29.202  1.00  0.00     0.022 A 
HETATM   26  C   UNL     1      -2.899   9.430 -28.301  1.00  0.00     0.011 A 
HETATM   27 BR   UNL     1      -3.440   9.678 -26.507  1.00  0.00    -0.051 Br
HETATM   28  C   UNL     1      -2.451   8.175 -28.713  1.00  0.00     0.030 A 
BRANCH  23  29
HETATM   29  O   UNL     1      -1.847   8.801 -32.258  1.00  0.00    -0.360 OA
HETATM   30  H   UNL     1      -2.603   9.112 -32.803  1.00  0.00     0.217 HD
ENDBRANCH  23  29
ENDBRANCH  21  22
ENDBRANCH   4  21
TORSDOF 5
ENDMDL
MODEL 8
REMARK VINA RESULT:      -8.1      2.758      7.315
REMARK  5 active torsions:
REMARK  status: ('A' for Active; 'I' for Inactive)
REMARK    1  A    between atoms: C_4  and  N_5 
REMARK    2  A    between atoms: N_8  and  C_10 
REMARK    3  A    between atoms: N_13  and  C_15 
REMARK    4  A    between atoms: C_15  and  C_16 
REMARK    5  A    between atoms: C_17  and  O_18 
ROOT
HETATM    1  C   UNL     1      -6.259   4.143 -30.848  1.00  0.00     0.191 C 
HETATM    2  C   UNL     1      -6.261   2.908 -29.939  1.00  0.00     0.061 C 
HETATM    3  C   UNL     1      -7.032   1.695 -30.461  1.00  0.00     0.237 C 
HETATM    4  N   UNL     1      -8.344   2.054 -31.097  1.00  0.00    -0.067 N 
HETATM    5  H   UNL     1      -9.044   2.244 -30.353  1.00  0.00     0.280 HD
HETATM    6  C   UNL     1      -8.328   3.244 -32.017  1.00  0.00     0.237 C 
HETATM    7  C   UNL     1      -7.685   4.424 -31.322  1.00  0.00     0.061 C 
ENDROOT
BRANCH   1   8
HETATM    8  N   UNL     1      -5.186   4.125 -31.953  1.00  0.00    -0.064 N 
HETATM    9  C   UNL     1      -4.760   5.459 -32.600  1.00  0.00     0.255 C 
HETATM   10  C   UNL     1      -3.689   5.264 -33.696  1.00  0.00     0.150 C 
HETATM   11  N   UNL     1      -2.536   4.555 -33.119  1.00  0.00    -0.378 N 
HETATM   12  C   UNL     1      -2.904   3.179 -32.734  1.00  0.00     0.150 C 
HETATM   13  C   UNL     1      -3.960   3.215 -31.607  1.00  0.00     0.255 C 
HETATM   14  H   UNL     1      -5.621   3.616 -32.740  1.00  0.00     0.280 HD
BRANCH  11  15
HETATM   15  C   UNL     1      -1.646   5.299 -32.324  1.00  0.00     0.030 A 
HETATM   16  C   UNL     1      -1.270   6.620 -32.622  1.00  0.00     0.029 A 
HETATM   17  C   UNL     1      -0.340   7.327 -31.845  1.00  0.00     0.002 A 
HETATM   18  C   UNL     1       0.219   6.742 -30.719  1.00  0.00     0.000 A 
HETATM   19  C   UNL     1      -0.175   5.463 -30.355  1.00  0.00     0.002 A 
HETATM   20  C   UNL     1      -1.102   4.763 -31.141  1.00  0.00     0.029 A 
ENDBRANCH  11  15
ENDBRANCH   1   8
BRANCH   4  21
HETATM   21  C   UNL     1      -8.957   0.819 -31.778  1.00  0.00     0.276 C 
BRANCH  21  22
HETATM   22  C   UNL     1      -8.136   0.280 -32.912  1.00  0.00     0.002 A 
HETATM   23  C   UNL     1      -8.551   0.446 -34.237  1.00  0.00     0.073 A 
HETATM   24  C   UNL     1      -7.790  -0.038 -35.299  1.00  0.00     0.038 A 
HETATM   25  C   UNL     1      -6.583  -0.689 -35.038  1.00  0.00     0.022 A 
HETATM   26  C   UNL     1      -6.152  -0.852 -33.723  1.00  0.00     0.011 A 
HETATM   27 BR   UNL     1      -4.501  -1.697 -33.367  1.00  0.00    -0.051 Br
HETATM   28  C   UNL     1      -6.923  -0.380 -32.661  1.00  0.00     0.030 A 
BRANCH  23  29
HETATM   29  O   UNL     1      -9.708   1.141 -34.465  1.00  0.00    -0.360 OA
HETATM   30  H   UNL     1      -9.477   1.931 -35.000  1.00  0.00     0.217 HD
ENDBRANCH  23  29
ENDBRANCH  21  22
ENDBRANCH   4  21
TORSDOF 5
ENDMDL
MODEL 9
REMARK VINA RESULT:      -7.8      1.835      2.063
REMARK  5 active torsions:
REMARK  status: ('A' for Active; 'I' for Inactive)
REMARK    1  A    between atoms: C_4  and  N_5 
REMARK    2  A    between atoms: N_8  and  C_10 
REMARK    3  A    between atoms: N_13  and  C_15 
REMARK    4  A    between atoms: C_15  and  C_16 
REMARK    5  A    between atoms: C_17  and  O_18 
ROOT
HETATM    1  C   UNL     1      -8.788   3.645 -31.424  1.00  0.00     0.191 C 
HETATM    2  C   UNL     1      -7.960   4.767 -32.062  1.00  0.00     0.061 C 
HETATM    3  C   UNL     1      -6.447   4.551 -32.086  1.00  0.00     0.237 C 
HETATM    4  N   UNL     1      -5.909   3.972 -30.809  1.00  0.00    -0.067 N 
HETATM    5  H   UNL     1      -5.843   4.725 -30.094  1.00  0.00     0.280 HD
HETATM    6  C   UNL     1      -6.705   2.847 -30.208  1.00  0.00     0.237 C 
HETATM    7  C   UNL     1      -8.158   3.249 -30.088  1.00  0.00     0.061 C 
ENDROOT
BRANCH   1   8
HETATM    8  N   UNL     1      -9.120   2.475 -32.370  1.00  0.00    -0.064 N 
HETATM    9  C   UNL     1      -8.347   2.350 -33.699  1.00  0.00     0.255 C 
HETATM   10  C   UNL     1      -8.809   1.135 -34.535  1.00  0.00     0.150 C 
HETATM   11  N   UNL     1      -8.679  -0.084 -33.720  1.00  0.00    -0.378 N 
HETATM   12  C   UNL     1      -9.617  -0.059 -32.582  1.00  0.00     0.150 C 
HETATM   13  C   UNL     1      -9.254   1.102 -31.630  1.00  0.00     0.255 C 
HETATM   14  H   UNL     1     -10.089   2.650 -32.684  1.00  0.00     0.280 HD
BRANCH  11  15
HETATM   15  C   UNL     1      -7.391  -0.628 -33.565  1.00  0.00     0.030 A 
HETATM   16  C   UNL     1      -6.570  -0.353 -32.457  1.00  0.00     0.029 A 
HETATM   17  C   UNL     1      -5.268  -0.864 -32.346  1.00  0.00     0.002 A 
HETATM   18  C   UNL     1      -4.757  -1.697 -33.330  1.00  0.00     0.000 A 
HETATM   19  C   UNL     1      -5.559  -2.043 -34.407  1.00  0.00     0.002 A 
HETATM   20  C   UNL     1      -6.858  -1.525 -34.511  1.00  0.00     0.029 A 
ENDBRANCH  11  15
ENDBRANCH   1   8
BRANCH   4  21
HETATM   21  C   UNL     1      -4.429   3.592 -30.983  1.00  0.00     0.276 C 
BRANCH  21  22
HETATM   22  C   UNL     1      -3.569   4.714 -31.483  1.00  0.00     0.002 A 
HETATM   23  C   UNL     1      -3.374   5.865 -30.712  1.00  0.00     0.073 A 
HETATM   24  C   UNL     1      -2.566   6.908 -31.160  1.00  0.00     0.038 A 
HETATM   25  C   UNL     1      -1.925   6.797 -32.395  1.00  0.00     0.022 A 
HETATM   26  C   UNL     1      -2.102   5.653 -33.169  1.00  0.00     0.011 A 
HETATM   27 BR   UNL     1      -1.205   5.482 -34.823  1.00  0.00    -0.051 Br
HETATM   28  C   UNL     1      -2.923   4.616 -32.725  1.00  0.00     0.030 A 
BRANCH  23  29
HETATM   29  O   UNL     1      -3.967   5.918 -29.479  1.00  0.00    -0.360 OA
HETATM   30  H   UNL     1      -3.582   6.684 -29.000  1.00  0.00     0.217 HD
ENDBRANCH  23  29
ENDBRANCH  21  22
ENDBRANCH   4  21
TORSDOF 5
ENDMDL
MODEL 10
REMARK VINA RESULT:      -7.8      1.989      3.853
REMARK  5 active torsions:
REMARK  status: ('A' for Active; 'I' for Inactive)
REMARK    1  A    between atoms: C_4  and  N_5 
REMARK    2  A    between atoms: N_8  and  C_10 
REMARK    3  A    between atoms: N_13  and  C_15 
REMARK    4  A    between atoms: C_15  and  C_16 
REMARK    5  A    between atoms: C_17  and  O_18 
ROOT
HETATM    1  C   UNL     1      -6.799   2.447 -31.102  1.00  0.00     0.191 C 
HETATM    2  C   UNL     1      -6.694   3.907 -31.560  1.00  0.00     0.061 C 
HETATM    3  C   UNL     1      -5.521   4.236 -32.483  1.00  0.00     0.237 C 
HETATM    4  N   UNL     1      -4.237   3.576 -32.070  1.00  0.00    -0.067 N 
HETATM    5  H   UNL     1      -3.825   4.101 -31.273  1.00  0.00     0.280 HD
HETATM    6  C   UNL     1      -4.339   2.134 -31.657  1.00  0.00     0.237 C 
HETATM    7  C   UNL     1      -5.428   1.970 -30.620  1.00  0.00     0.061 C 
ENDROOT
BRANCH   1   8
HETATM    8  N   UNL     1      -7.512   1.512 -32.096  1.00  0.00    -0.064 N 
HETATM    9  C   UNL     1      -8.880   0.914 -31.706  1.00  0.00     0.255 C 
HETATM   10  C   UNL     1      -9.452  -0.010 -32.804  1.00  0.00     0.150 C 
HETATM   11  N   UNL     1      -9.534   0.741 -34.068  1.00  0.00    -0.378 N 
HETATM   12  C   UNL     1      -8.188   1.089 -34.561  1.00  0.00     0.150 C 
HETATM   13  C   UNL     1      -7.497   2.048 -33.567  1.00  0.00     0.255 C 
HETATM   14  H   UNL     1      -6.907   0.677 -32.161  1.00  0.00     0.280 HD
BRANCH  11  15
HETATM   15  C   UNL     1     -10.599   1.647 -34.217  1.00  0.00     0.030 A 
HETATM   16  C   UNL     1     -11.932   1.324 -33.907  1.00  0.00     0.029 A 
HETATM   17  C   UNL     1     -12.988   2.225 -34.113  1.00  0.00     0.002 A 
HETATM   18  C   UNL     1     -12.736   3.497 -34.607  1.00  0.00     0.000 A 
HETATM   19  C   UNL     1     -11.427   3.875 -34.864  1.00  0.00     0.002 A 
HETATM   20  C   UNL     1     -10.380   2.966 -34.658  1.00  0.00     0.029 A 
ENDBRANCH  11  15
ENDBRANCH   1   8
BRANCH   4  21
HETATM   21  C   UNL     1      -3.165   3.783 -33.152  1.00  0.00     0.276 C 
BRANCH  21  22
HETATM   22  C   UNL     1      -2.397   5.064 -33.010  1.00  0.00     0.002 A 
HETATM   23  C   UNL     1      -2.515   6.078 -33.966  1.00  0.00     0.073 A 
HETATM   24  C   UNL     1      -1.817   7.277 -33.837  1.00  0.00     0.038 A 
HETATM   25  C   UNL     1      -0.997   7.478 -32.725  1.00  0.00     0.022 A 
HETATM   26  C   UNL     1      -0.878   6.481 -31.761  1.00  0.00     0.011 A 
HETATM   27 BR   UNL     1       0.200   6.764 -30.235  1.00  0.00    -0.051 Br
HETATM   28  C   UNL     1      -1.565   5.275 -31.899  1.00  0.00     0.030 A 
BRANCH  23  29
HETATM   29  O   UNL     1      -3.373   5.876 -35.012  1.00  0.00    -0.360 OA
HETATM   30  H   UNL     1      -3.196   4.979 -35.370  1.00  0.00     0.217 HD
ENDBRANCH  23  29
ENDBRANCH  21  22
ENDBRANCH   4  21
TORSDOF 5
ENDMDL
