MODEL 1
REMARK VINA RESULT:      -9.1      0.000      0.000
REMARK  5 active torsions:
REMARK  status: ('A' for Active; 'I' for Inactive)
REMARK       I    between atoms: C_2  and  N_3 
REMARK    1  A    between atoms: N_3  and  C_4 
REMARK    2  A    between atoms: C_7  and  C_8 
REMARK    3  A    between atoms: C_8  and  N_9 
REMARK    4  A    between atoms: C_12  and  C_13 
REMARK    5  A    between atoms: C_14  and  O_15 
ROOT
HETATM    1  N   UNL     1      -8.919   1.459 -33.869  1.00  0.00    -0.060 N 
HETATM    2  H   UNL     1      -8.250   2.217 -34.043  1.00  0.00     0.280 HD
HETATM    3  C   UNL     1      -8.236   0.119 -34.191  1.00  0.00     0.272 C 
HETATM    4  C   UNL     1      -6.987  -0.207 -33.342  1.00  0.00     0.190 C 
HETATM    5  O   UNL     1      -7.361  -0.413 -31.968  1.00  0.00    -0.339 OA
HETATM    6  C   UNL     1      -7.241   0.763 -31.281  1.00  0.00     0.077 A 
HETATM    7  C   UNL     1      -8.167   1.789 -31.490  1.00  0.00     0.001 A 
HETATM    8  C   UNL     1      -9.330   1.577 -32.415  1.00  0.00     0.276 C 
HETATM    9  C   UNL     1      -6.185   0.900 -30.385  1.00  0.00     0.037 A 
HETATM   10  C   UNL     1      -6.016   2.104 -29.708  1.00  0.00     0.003 A 
HETATM   11  C   UNL     1      -6.908   3.154 -29.924  1.00  0.00     0.001 A 
HETATM   12  C   UNL     1      -7.982   2.999 -30.806  1.00  0.00     0.012 A 
ENDROOT
BRANCH   1  13
HETATM   13  C   UNL     1     -10.074   1.637 -34.836  1.00  0.00     0.273 C 
BRANCH  13  14
HETATM   14  C   UNL     1     -11.448   1.786 -34.244  1.00  0.00    -0.032 A 
HETATM   15  C   UNL     1     -12.023   3.043 -34.029  1.00  0.00     0.011 A 
HETATM   16  C   UNL     1     -13.337   3.151 -33.547  1.00  0.00     0.030 A 
HETATM   17  C   UNL     1     -14.099   2.011 -33.279  1.00  0.00     0.034 A 
HETATM   18  C   UNL     1     -13.515   0.756 -33.471  1.00  0.00     0.030 A 
HETATM   19  C   UNL     1     -12.205   0.643 -33.948  1.00  0.00     0.011 A 
BRANCH  17  20
HETATM   20  N   UNL     1     -15.443   2.034 -32.854  1.00  0.00    -0.328 N 
HETATM   21  C   UNL     1     -16.079   3.027 -32.132  1.00  0.00     0.218 C 
HETATM   22  C   UNL     1     -17.556   2.767 -31.952  1.00  0.00     0.117 C 
HETATM   23  O   UNL     1     -15.564   4.048 -31.690  1.00  0.00    -0.274 OA
HETATM   24  H   UNL     1     -16.017   1.251 -33.143  1.00  0.00     0.169 HD
ENDBRANCH  17  20
ENDBRANCH  13  14
ENDBRANCH   1  13
BRANCH   4  25
HETATM   25  C   UNL     1      -6.342  -1.501 -33.821  1.00  0.00     0.006 A 
HETATM   26  C   UNL     1      -4.960  -1.720 -33.671  1.00  0.00     0.077 A 
HETATM   27  C   UNL     1      -4.378  -2.895 -34.159  1.00  0.00     0.037 A 
HETATM   28  C   UNL     1      -5.166  -3.878 -34.758  1.00  0.00     0.003 A 
HETATM   29  C   UNL     1      -6.541  -3.697 -34.865  1.00  0.00     0.001 A 
HETATM   30  C   UNL     1      -7.126  -2.523 -34.393  1.00  0.00     0.012 A 
BRANCH  26  31
HETATM   31  O   UNL     1      -4.236  -0.721 -33.073  1.00  0.00    -0.355 OA
HETATM   32  C   UNL     1      -3.419  -1.139 -31.978  1.00  0.00     0.210 C 
ENDBRANCH  26  31
ENDBRANCH   4  25
TORSDOF 5
ENDMDL
MODEL 2
REMARK VINA RESULT:      -9.1      3.732      8.814
REMARK  5 active torsions:
REMARK  status: ('A' for Active; 'I' for Inactive)
REMARK       I    between atoms: C_2  and  N_3 
REMARK    1  A    between atoms: N_3  and  C_4 
REMARK    2  A    between atoms: C_7  and  C_8 
REMARK    3  A    between atoms: C_8  and  N_9 
REMARK    4  A    between atoms: C_12  and  C_13 
REMARK    5  A    between atoms: C_14  and  O_15 
ROOT
HETATM    1  N   UNL     1      -6.269   1.554 -31.768  1.00  0.00    -0.060 N 
HETATM    2  H   UNL     1      -5.698   1.806 -32.582  1.00  0.00     0.280 HD
HETATM    3  C   UNL     1      -7.751   1.756 -32.126  1.00  0.00     0.272 C 
HETATM    4  C   UNL     1      -8.271   0.893 -33.298  1.00  0.00     0.190 C 
HETATM    5  O   UNL     1      -8.264  -0.498 -32.930  1.00  0.00    -0.339 OA
HETATM    6  C   UNL     1      -7.089  -1.070 -33.329  1.00  0.00     0.077 A 
HETATM    7  C   UNL     1      -5.904  -0.776 -32.648  1.00  0.00     0.001 A 
HETATM    8  C   UNL     1      -5.932   0.113 -31.439  1.00  0.00     0.276 C 
HETATM    9  C   UNL     1      -7.112  -1.939 -34.416  1.00  0.00     0.037 A 
HETATM   10  C   UNL     1      -5.921  -2.498 -34.869  1.00  0.00     0.003 A 
HETATM   11  C   UNL     1      -4.722  -2.193 -34.225  1.00  0.00     0.001 A 
HETATM   12  C   UNL     1      -4.711  -1.341 -33.117  1.00  0.00     0.012 A 
ENDROOT
BRANCH   1  13
HETATM   13  C   UNL     1      -5.924   2.521 -30.652  1.00  0.00     0.273 C 
BRANCH  13  14
HETATM   14  C   UNL     1      -4.812   3.500 -30.911  1.00  0.00    -0.032 A 
HETATM   15  C   UNL     1      -4.887   4.829 -30.479  1.00  0.00     0.011 A 
HETATM   16  C   UNL     1      -3.803   5.699 -30.667  1.00  0.00     0.030 A 
HETATM   17  C   UNL     1      -2.627   5.260 -31.279  1.00  0.00     0.034 A 
HETATM   18  C   UNL     1      -2.562   3.939 -31.732  1.00  0.00     0.030 A 
HETATM   19  C   UNL     1      -3.641   3.068 -31.550  1.00  0.00     0.011 A 
BRANCH  17  20
HETATM   20  N   UNL     1      -1.474   6.053 -31.447  1.00  0.00    -0.328 N 
HETATM   21  C   UNL     1      -0.392   6.155 -30.592  1.00  0.00     0.218 C 
HETATM   22  C   UNL     1       0.718   7.014 -31.149  1.00  0.00     0.117 C 
HETATM   23  O   UNL     1      -0.272   5.603 -29.503  1.00  0.00    -0.274 OA
HETATM   24  H   UNL     1      -1.414   6.578 -32.311  1.00  0.00     0.169 HD
ENDBRANCH  17  20
ENDBRANCH  13  14
ENDBRANCH   1  13
BRANCH   4  25
HETATM   25  C   UNL     1      -9.714   1.255 -33.624  1.00  0.00     0.006 A 
HETATM   26  C   UNL     1     -10.030   2.478 -34.244  1.00  0.00     0.077 A 
HETATM   27  C   UNL     1     -11.366   2.813 -34.494  1.00  0.00     0.037 A 
HETATM   28  C   UNL     1     -12.391   1.923 -34.172  1.00  0.00     0.003 A 
HETATM   29  C   UNL     1     -12.087   0.690 -33.606  1.00  0.00     0.001 A 
HETATM   30  C   UNL     1     -10.760   0.354 -33.343  1.00  0.00     0.012 A 
BRANCH  26  31
HETATM   31  O   UNL     1      -8.983   3.312 -34.542  1.00  0.00    -0.355 OA
HETATM   32  C   UNL     1      -9.167   4.675 -34.157  1.00  0.00     0.210 C 
ENDBRANCH  26  31
ENDBRANCH   4  25
TORSDOF 5
ENDMDL
MODEL 3
REMARK VINA RESULT:      -9.0      2.158      2.566
REMARK  5 active torsions:
REMARK  status: ('A' for Active; 'I' for Inactive)
REMARK       I    between atoms: C_2  and  N_3 
REMARK    1  A    between atoms: N_3  and  C_4 
REMARK    2  A    between atoms: C_7  and  C_8 
REMARK    3  A    between atoms: C_8  and  N_9 
REMARK    4  A    between atoms: C_12  and  C_13 
REMARK    5  A    between atoms: C_14  and  O_15 
ROOT
HETATM    1  N   UNL     1      -9.244   0.922 -32.962  1.00  0.00    -0.060 N 
HETATM    2  H   UNL     1      -8.863   1.741 -33.449  1.00  0.00     0.280 HD
HETATM    3  C   UNL     1      -8.497  -0.330 -33.451  1.00  0.00     0.272 C 
HETATM    4  C   UNL     1      -6.975  -0.339 -33.182  1.00  0.00     0.190 C 
HETATM    5  O   UNL     1      -6.723  -0.404 -31.767  1.00  0.00    -0.339 OA
HETATM    6  C   UNL     1      -6.573   0.861 -31.272  1.00  0.00     0.077 A 
HETATM    7  C   UNL     1      -7.687   1.695 -31.142  1.00  0.00     0.001 A 
HETATM    8  C   UNL     1      -9.056   1.180 -31.481  1.00  0.00     0.276 C 
HETATM    9  C   UNL     1      -5.296   1.281 -30.909  1.00  0.00     0.037 A 
HETATM   10  C   UNL     1      -5.112   2.580 -30.445  1.00  0.00     0.003 A 
HETATM   11  C   UNL     1      -6.204   3.441 -30.337  1.00  0.00     0.001 A 
HETATM   12  C   UNL     1      -7.487   3.002 -30.678  1.00  0.00     0.012 A 
ENDROOT
BRANCH   1  13
HETATM   13  C   UNL     1     -10.699   0.785 -33.368  1.00  0.00     0.273 C 
BRANCH  13  14
HETATM   14  C   UNL     1     -11.373   2.007 -33.928  1.00  0.00    -0.032 A 
HETATM   15  C   UNL     1     -11.783   2.072 -35.264  1.00  0.00     0.011 A 
HETATM   16  C   UNL     1     -12.479   3.194 -35.740  1.00  0.00     0.030 A 
HETATM   17  C   UNL     1     -12.783   4.262 -34.893  1.00  0.00     0.034 A 
HETATM   18  C   UNL     1     -12.352   4.207 -33.565  1.00  0.00     0.030 A 
HETATM   19  C   UNL     1     -11.656   3.092 -33.086  1.00  0.00     0.011 A 
BRANCH  17  20
HETATM   20  N   UNL     1     -13.532   5.394 -35.277  1.00  0.00    -0.328 N 
HETATM   21  C   UNL     1     -13.048   6.602 -35.746  1.00  0.00     0.218 C 
HETATM   22  C   UNL     1     -14.146   7.549 -36.168  1.00  0.00     0.117 C 
HETATM   23  O   UNL     1     -11.869   6.916 -35.863  1.00  0.00    -0.274 OA
HETATM   24  H   UNL     1     -14.539   5.298 -35.240  1.00  0.00     0.169 HD
ENDBRANCH  17  20
ENDBRANCH  13  14
ENDBRANCH   1  13
BRANCH   4  25
HETATM   25  C   UNL     1      -6.334  -1.575 -33.800  1.00  0.00     0.006 A 
HETATM   26  C   UNL     1      -4.935  -1.700 -33.882  1.00  0.00     0.077 A 
HETATM   27  C   UNL     1      -4.365  -2.821 -34.496  1.00  0.00     0.037 A 
HETATM   28  C   UNL     1      -5.174  -3.843 -34.992  1.00  0.00     0.003 A 
HETATM   29  C   UNL     1      -6.556  -3.756 -34.871  1.00  0.00     0.001 A 
HETATM   30  C   UNL     1      -7.132  -2.636 -34.272  1.00  0.00     0.012 A 
BRANCH  26  31
HETATM   31  O   UNL     1      -4.189  -0.666 -33.376  1.00  0.00    -0.355 OA
HETATM   32  C   UNL     1      -3.204  -1.045 -32.414  1.00  0.00     0.210 C 
ENDBRANCH  26  31
ENDBRANCH   4  25
TORSDOF 5
ENDMDL
MODEL 4
REMARK VINA RESULT:      -8.8      5.109      8.943
REMARK  5 active torsions:
REMARK  status: ('A' for Active; 'I' for Inactive)
REMARK       I    between atoms: C_2  and  N_3 
REMARK    1  A    between atoms: N_3  and  C_4 
REMARK    2  A    between atoms: C_7  and  C_8 
REMARK    3  A    between atoms: C_8  and  N_9 
REMARK    4  A    between atoms: C_12  and  C_13 
REMARK    5  A    between atoms: C_14  and  O_15 
ROOT
HETATM    1  N   UNL     1      -5.519   4.068 -32.781  1.00  0.00    -0.060 N 
HETATM    2  H   UNL     1      -4.750   3.403 -32.645  1.00  0.00     0.280 HD
HETATM    3  C   UNL     1      -5.661   4.922 -31.510  1.00  0.00     0.272 C 
HETATM    4  C   UNL     1      -4.421   5.769 -31.141  1.00  0.00     0.190 C 
HETATM    5  O   UNL     1      -4.205   6.788 -32.134  1.00  0.00    -0.339 OA
HETATM    6  C   UNL     1      -3.328   6.328 -33.077  1.00  0.00     0.077 A 
HETATM    7  C   UNL     1      -3.742   5.366 -34.002  1.00  0.00     0.001 A 
HETATM    8  C   UNL     1      -5.165   4.887 -34.005  1.00  0.00     0.276 C 
HETATM    9  C   UNL     1      -2.034   6.841 -33.082  1.00  0.00     0.037 A 
HETATM   10  C   UNL     1      -1.111   6.355 -34.002  1.00  0.00     0.003 A 
HETATM   11  C   UNL     1      -1.492   5.371 -34.915  1.00  0.00     0.001 A 
HETATM   12  C   UNL     1      -2.801   4.881 -34.921  1.00  0.00     0.012 A 
ENDROOT
BRANCH   1  13
HETATM   13  C   UNL     1      -6.794   3.264 -32.945  1.00  0.00     0.273 C 
BRANCH  13  14
HETATM   14  C   UNL     1      -6.649   1.820 -33.341  1.00  0.00    -0.032 A 
HETATM   15  C   UNL     1      -6.277   0.839 -32.417  1.00  0.00     0.011 A 
HETATM   16  C   UNL     1      -6.224  -0.512 -32.797  1.00  0.00     0.030 A 
HETATM   17  C   UNL     1      -6.548  -0.905 -34.097  1.00  0.00     0.034 A 
HETATM   18  C   UNL     1      -6.896   0.080 -35.027  1.00  0.00     0.030 A 
HETATM   19  C   UNL     1      -6.948   1.427 -34.654  1.00  0.00     0.011 A 
BRANCH  17  20
HETATM   20  N   UNL     1      -6.581  -2.243 -34.539  1.00  0.00    -0.328 N 
HETATM   21  C   UNL     1      -5.503  -3.079 -34.768  1.00  0.00     0.218 C 
HETATM   22  C   UNL     1      -5.918  -4.486 -35.128  1.00  0.00     0.117 C 
HETATM   23  O   UNL     1      -4.317  -2.780 -34.671  1.00  0.00    -0.274 OA
HETATM   24  H   UNL     1      -7.499  -2.650 -34.668  1.00  0.00     0.169 HD
ENDBRANCH  17  20
ENDBRANCH  13  14
ENDBRANCH   1  13
BRANCH   4  25
HETATM   25  C   UNL     1      -4.643   6.486 -29.816  1.00  0.00     0.006 A 
HETATM   26  C   UNL     1      -3.555   6.949 -29.053  1.00  0.00     0.077 A 
HETATM   27  C   UNL     1      -3.776   7.564 -27.816  1.00  0.00     0.037 A 
HETATM   28  C   UNL     1      -5.075   7.763 -27.347  1.00  0.00     0.003 A 
HETATM   29  C   UNL     1      -6.160   7.357 -28.115  1.00  0.00     0.001 A 
HETATM   30  C   UNL     1      -5.947   6.732 -29.343  1.00  0.00     0.012 A 
BRANCH  26  31
HETATM   31  O   UNL     1      -2.301   6.729 -29.564  1.00  0.00    -0.355 OA
HETATM   32  C   UNL     1      -1.430   7.861 -29.537  1.00  0.00     0.210 C 
ENDBRANCH  26  31
ENDBRANCH   4  25
TORSDOF 5
ENDMDL
MODEL 5
REMARK VINA RESULT:      -8.7      2.300      3.370
REMARK  5 active torsions:
REMARK  status: ('A' for Active; 'I' for Inactive)
REMARK       I    between atoms: C_2  and  N_3 
REMARK    1  A    between atoms: N_3  and  C_4 
REMARK    2  A    between atoms: C_7  and  C_8 
REMARK    3  A    between atoms: C_8  and  N_9 
REMARK    4  A    between atoms: C_12  and  C_13 
REMARK    5  A    between atoms: C_14  and  O_15 
ROOT
HETATM    1  N   UNL     1      -7.470   0.642 -32.826  1.00  0.00    -0.060 N 
HETATM    2  H   UNL     1      -7.292   1.098 -33.728  1.00  0.00     0.280 HD
HETATM    3  C   UNL     1      -6.662  -0.666 -32.769  1.00  0.00     0.272 C 
HETATM    4  C   UNL     1      -5.129  -0.500 -32.870  1.00  0.00     0.190 C 
HETATM    5  O   UNL     1      -4.628   0.184 -31.707  1.00  0.00    -0.339 OA
HETATM    6  C   UNL     1      -4.561   1.526 -31.960  1.00  0.00     0.077 A 
HETATM    7  C   UNL     1      -5.735   2.281 -32.029  1.00  0.00     0.001 A 
HETATM    8  C   UNL     1      -7.062   1.635 -31.757  1.00  0.00     0.276 C 
HETATM    9  C   UNL     1      -3.307   2.102 -32.145  1.00  0.00     0.037 A 
HETATM   10  C   UNL     1      -3.217   3.456 -32.449  1.00  0.00     0.003 A 
HETATM   11  C   UNL     1      -4.377   4.224 -32.554  1.00  0.00     0.001 A 
HETATM   12  C   UNL     1      -5.631   3.643 -32.340  1.00  0.00     0.012 A 
ENDROOT
BRANCH   1  13
HETATM   13  C   UNL     1      -8.943   0.281 -32.781  1.00  0.00     0.273 C 
BRANCH  13  14
HETATM   14  C   UNL     1      -9.894   1.187 -33.514  1.00  0.00    -0.032 A 
HETATM   15  C   UNL     1     -11.274   0.957 -33.514  1.00  0.00     0.011 A 
HETATM   16  C   UNL     1     -12.145   1.861 -34.141  1.00  0.00     0.030 A 
HETATM   17  C   UNL     1     -11.657   3.009 -34.771  1.00  0.00     0.034 A 
HETATM   18  C   UNL     1     -10.276   3.224 -34.791  1.00  0.00     0.030 A 
HETATM   19  C   UNL     1      -9.404   2.325 -34.170  1.00  0.00     0.011 A 
BRANCH  17  20
HETATM   20  N   UNL     1     -12.468   3.995 -35.367  1.00  0.00    -0.328 N 
HETATM   21  C   UNL     1     -12.801   5.235 -34.851  1.00  0.00     0.218 C 
HETATM   22  C   UNL     1     -13.599   6.077 -35.817  1.00  0.00     0.117 C 
HETATM   23  O   UNL     1     -12.483   5.673 -33.750  1.00  0.00    -0.274 OA
HETATM   24  H   UNL     1     -12.817   3.788 -36.295  1.00  0.00     0.169 HD
ENDBRANCH  17  20
ENDBRANCH  13  14
ENDBRANCH   1  13
BRANCH   4  25
HETATM   25  C   UNL     1      -4.449  -1.862 -32.906  1.00  0.00     0.006 A 
HETATM   26  C   UNL     1      -4.721  -2.779 -33.938  1.00  0.00     0.077 A 
HETATM   27  C   UNL     1      -4.122  -4.044 -33.929  1.00  0.00     0.037 A 
HETATM   28  C   UNL     1      -3.219  -4.392 -32.925  1.00  0.00     0.003 A 
HETATM   29  C   UNL     1      -2.902  -3.476 -31.928  1.00  0.00     0.001 A 
HETATM   30  C   UNL     1      -3.504  -2.218 -31.923  1.00  0.00     0.012 A 
BRANCH  26  31
HETATM   31  O   UNL     1      -5.614  -2.383 -34.900  1.00  0.00    -0.355 OA
HETATM   32  C   UNL     1      -6.611  -3.349 -35.235  1.00  0.00     0.210 C 
ENDBRANCH  26  31
ENDBRANCH   4  25
TORSDOF 5
ENDMDL
MODEL 6
REMARK VINA RESULT:      -8.5      5.122      9.107
REMARK  5 active torsions:
REMARK  status: ('A' for Active; 'I' for Inactive)
REMARK       I    between atoms: C_2  and  N_3 
REMARK    1  A    between atoms: N_3  and  C_4 
REMARK    2  A    between atoms: C_7  and  C_8 
REMARK    3  A    between atoms: C_8  and  N_9 
REMARK    4  A    between atoms: C_12  and  C_13 
REMARK    5  A    between atoms: C_14  and  O_15 
ROOT
HETATM    1  N   UNL     1      -4.419   4.113 -32.381  1.00  0.00    -0.060 N 
HETATM    2  H   UNL     1      -4.293   4.001 -31.369  1.00  0.00     0.280 HD
HETATM    3  C   UNL     1      -4.581   2.721 -33.014  1.00  0.00     0.272 C 
HETATM    4  C   UNL     1      -5.797   1.907 -32.518  1.00  0.00     0.190 C 
HETATM    5  O   UNL     1      -7.020   2.540 -32.933  1.00  0.00    -0.339 OA
HETATM    6  C   UNL     1      -7.461   3.373 -31.943  1.00  0.00     0.077 A 
HETATM    7  C   UNL     1      -6.796   4.578 -31.698  1.00  0.00     0.001 A 
HETATM    8  C   UNL     1      -5.642   4.990 -32.564  1.00  0.00     0.276 C 
HETATM    9  C   UNL     1      -8.574   2.986 -31.201  1.00  0.00     0.037 A 
HETATM   10  C   UNL     1      -9.014   3.795 -30.158  1.00  0.00     0.003 A 
HETATM   11  C   UNL     1      -8.347   4.987 -29.874  1.00  0.00     0.001 A 
HETATM   12  C   UNL     1      -7.246   5.381 -30.641  1.00  0.00     0.012 A 
ENDROOT
BRANCH   1  13
HETATM   13  C   UNL     1      -3.150   4.732 -32.934  1.00  0.00     0.273 C 
BRANCH  13  14
HETATM   14  C   UNL     1      -2.217   5.381 -31.949  1.00  0.00    -0.032 A 
HETATM   15  C   UNL     1      -0.827   5.307 -32.095  1.00  0.00     0.011 A 
HETATM   16  C   UNL     1       0.018   5.987 -31.204  1.00  0.00     0.030 A 
HETATM   17  C   UNL     1      -0.507   6.755 -30.161  1.00  0.00     0.034 A 
HETATM   18  C   UNL     1      -1.895   6.808 -30.002  1.00  0.00     0.030 A 
HETATM   19  C   UNL     1      -2.741   6.130 -30.886  1.00  0.00     0.011 A 
BRANCH  17  20
HETATM   20  N   UNL     1       0.270   7.516 -29.265  1.00  0.00    -0.328 N 
HETATM   21  C   UNL     1       0.589   7.206 -27.955  1.00  0.00     0.218 C 
HETATM   22  C   UNL     1       1.537   8.202 -27.331  1.00  0.00     0.117 C 
HETATM   23  O   UNL     1       0.204   6.226 -27.326  1.00  0.00    -0.274 OA
HETATM   24  H   UNL     1       0.672   8.370 -29.634  1.00  0.00     0.169 HD
ENDBRANCH  17  20
ENDBRANCH  13  14
ENDBRANCH   1  13
BRANCH   4  25
HETATM   25  C   UNL     1      -5.791   0.514 -33.135  1.00  0.00     0.006 A 
HETATM   26  C   UNL     1      -5.056  -0.533 -32.551  1.00  0.00     0.077 A 
HETATM   27  C   UNL     1      -5.025  -1.794 -33.159  1.00  0.00     0.037 A 
HETATM   28  C   UNL     1      -5.756  -2.036 -34.322  1.00  0.00     0.003 A 
HETATM   29  C   UNL     1      -6.528  -1.024 -34.880  1.00  0.00     0.001 A 
HETATM   30  C   UNL     1      -6.553   0.238 -34.288  1.00  0.00     0.012 A 
BRANCH  26  31
HETATM   31  O   UNL     1      -4.359  -0.239 -31.407  1.00  0.00    -0.355 OA
HETATM   32  C   UNL     1      -2.943  -0.390 -31.505  1.00  0.00     0.210 C 
ENDBRANCH  26  31
ENDBRANCH   4  25
TORSDOF 5
ENDMDL
MODEL 7
REMARK VINA RESULT:      -8.4      3.707      7.775
REMARK  5 active torsions:
REMARK  status: ('A' for Active; 'I' for Inactive)
REMARK       I    between atoms: C_2  and  N_3 
REMARK    1  A    between atoms: N_3  and  C_4 
REMARK    2  A    between atoms: C_7  and  C_8 
REMARK    3  A    between atoms: C_8  and  N_9 
REMARK    4  A    between atoms: C_12  and  C_13 
REMARK    5  A    between atoms: C_14  and  O_15 
ROOT
HETATM    1  N   UNL     1      -8.186   4.180 -33.449  1.00  0.00    -0.060 N 
HETATM    2  H   UNL     1      -8.560   4.190 -32.493  1.00  0.00     0.280 HD
HETATM    3  C   UNL     1      -7.393   2.877 -33.652  1.00  0.00     0.272 C 
HETATM    4  C   UNL     1      -8.211   1.575 -33.498  1.00  0.00     0.190 C 
HETATM    5  O   UNL     1      -9.182   1.473 -34.554  1.00  0.00    -0.339 OA
HETATM    6  C   UNL     1     -10.371   2.001 -34.134  1.00  0.00     0.077 A 
HETATM    7  C   UNL     1     -10.510   3.385 -33.997  1.00  0.00     0.001 A 
HETATM    8  C   UNL     1      -9.378   4.295 -34.376  1.00  0.00     0.276 C 
HETATM    9  C   UNL     1     -11.418   1.128 -33.851  1.00  0.00     0.037 A 
HETATM   10  C   UNL     1     -12.623   1.639 -33.378  1.00  0.00     0.003 A 
HETATM   11  C   UNL     1     -12.774   3.014 -33.203  1.00  0.00     0.001 A 
HETATM   12  C   UNL     1     -11.726   3.886 -33.515  1.00  0.00     0.012 A 
ENDROOT
BRANCH   1  13
HETATM   13  C   UNL     1      -7.215   5.339 -33.570  1.00  0.00     0.273 C 
BRANCH  13  14
HETATM   14  C   UNL     1      -5.794   5.092 -33.147  1.00  0.00    -0.032 A 
HETATM   15  C   UNL     1      -4.758   4.979 -34.081  1.00  0.00     0.011 A 
HETATM   16  C   UNL     1      -3.430   4.826 -33.654  1.00  0.00     0.030 A 
HETATM   17  C   UNL     1      -3.113   4.790 -32.294  1.00  0.00     0.034 A 
HETATM   18  C   UNL     1      -4.151   4.878 -31.362  1.00  0.00     0.030 A 
HETATM   19  C   UNL     1      -5.476   5.028 -31.782  1.00  0.00     0.011 A 
BRANCH  17  20
HETATM   20  N   UNL     1      -1.801   4.702 -31.785  1.00  0.00    -0.328 N 
HETATM   21  C   UNL     1      -0.852   5.707 -31.730  1.00  0.00     0.218 C 
HETATM   22  C   UNL     1       0.409   5.285 -31.014  1.00  0.00     0.117 C 
HETATM   23  O   UNL     1      -0.975   6.848 -32.164  1.00  0.00    -0.274 OA
HETATM   24  H   UNL     1      -1.536   3.813 -31.380  1.00  0.00     0.169 HD
ENDBRANCH  17  20
ENDBRANCH  13  14
ENDBRANCH   1  13
BRANCH   4  25
HETATM   25  C   UNL     1      -7.302   0.359 -33.618  1.00  0.00     0.006 A 
HETATM   26  C   UNL     1      -6.465  -0.026 -32.554  1.00  0.00     0.077 A 
HETATM   27  C   UNL     1      -5.602  -1.118 -32.700  1.00  0.00     0.037 A 
HETATM   28  C   UNL     1      -5.593  -1.860 -33.881  1.00  0.00     0.003 A 
HETATM   29  C   UNL     1      -6.453  -1.521 -34.920  1.00  0.00     0.001 A 
HETATM   30  C   UNL     1      -7.306  -0.427 -34.787  1.00  0.00     0.012 A 
BRANCH  26  31
HETATM   31  O   UNL     1      -6.517   0.738 -31.416  1.00  0.00    -0.355 OA
HETATM   32  C   UNL     1      -5.256   1.222 -30.954  1.00  0.00     0.210 C 
ENDBRANCH  26  31
ENDBRANCH   4  25
TORSDOF 5
ENDMDL
MODEL 8
REMARK VINA RESULT:      -8.3      2.440      4.815
REMARK  5 active torsions:
REMARK  status: ('A' for Active; 'I' for Inactive)
REMARK       I    between atoms: C_2  and  N_3 
REMARK    1  A    between atoms: N_3  and  C_4 
REMARK    2  A    between atoms: C_7  and  C_8 
REMARK    3  A    between atoms: C_8  and  N_9 
REMARK    4  A    between atoms: C_12  and  C_13 
REMARK    5  A    between atoms: C_14  and  O_15 
ROOT
HETATM    1  N   UNL     1      -8.277  -0.178 -32.610  1.00  0.00    -0.060 N 
HETATM    2  H   UNL     1      -8.058  -0.939 -31.956  1.00  0.00     0.280 HD
HETATM    3  C   UNL     1      -7.246   0.946 -32.417  1.00  0.00     0.272 C 
HETATM    4  C   UNL     1      -5.778   0.551 -32.695  1.00  0.00     0.190 C 
HETATM    5  O   UNL     1      -5.601   0.252 -34.091  1.00  0.00    -0.339 OA
HETATM    6  C   UNL     1      -5.762  -1.090 -34.295  1.00  0.00     0.077 A 
HETATM    7  C   UNL     1      -7.038  -1.656 -34.226  1.00  0.00     0.001 A 
HETATM    8  C   UNL     1      -8.238  -0.784 -33.998  1.00  0.00     0.276 C 
HETATM    9  C   UNL     1      -4.633  -1.857 -34.566  1.00  0.00     0.037 A 
HETATM   10  C   UNL     1      -4.767  -3.232 -34.731  1.00  0.00     0.003 A 
HETATM   11  C   UNL     1      -6.026  -3.825 -34.636  1.00  0.00     0.001 A 
HETATM   12  C   UNL     1      -7.158  -3.043 -34.390  1.00  0.00     0.012 A 
ENDROOT
BRANCH   1  13
HETATM   13  C   UNL     1      -9.640   0.370 -32.232  1.00  0.00     0.273 C 
BRANCH  13  14
HETATM   14  C   UNL     1     -10.288   1.323 -33.197  1.00  0.00    -0.032 A 
HETATM   15  C   UNL     1     -11.461   0.989 -33.884  1.00  0.00     0.011 A 
HETATM   16  C   UNL     1     -12.086   1.926 -34.720  1.00  0.00     0.030 A 
HETATM   17  C   UNL     1     -11.560   3.210 -34.880  1.00  0.00     0.034 A 
HETATM   18  C   UNL     1     -10.375   3.535 -34.212  1.00  0.00     0.030 A 
HETATM   19  C   UNL     1      -9.746   2.603 -33.380  1.00  0.00     0.011 A 
BRANCH  17  20
HETATM   20  N   UNL     1     -12.161   4.227 -35.649  1.00  0.00    -0.328 N 
HETATM   21  C   UNL     1     -13.002   5.231 -35.205  1.00  0.00     0.218 C 
HETATM   22  C   UNL     1     -13.367   6.214 -36.292  1.00  0.00     0.117 C 
HETATM   23  O   UNL     1     -13.413   5.381 -34.059  1.00  0.00    -0.274 OA
HETATM   24  H   UNL     1     -11.919   4.246 -36.632  1.00  0.00     0.169 HD
ENDBRANCH  17  20
ENDBRANCH  13  14
ENDBRANCH   1  13
BRANCH   4  25
HETATM   25  C   UNL     1      -4.845   1.712 -32.372  1.00  0.00     0.006 A 
HETATM   26  C   UNL     1      -3.754   1.542 -31.501  1.00  0.00     0.077 A 
HETATM   27  C   UNL     1      -2.935   2.631 -31.180  1.00  0.00     0.037 A 
HETATM   28  C   UNL     1      -3.167   3.882 -31.752  1.00  0.00     0.003 A 
HETATM   29  C   UNL     1      -4.210   4.051 -32.654  1.00  0.00     0.001 A 
HETATM   30  C   UNL     1      -5.038   2.973 -32.969  1.00  0.00     0.012 A 
BRANCH  26  31
HETATM   31  O   UNL     1      -3.572   0.290 -30.971  1.00  0.00    -0.355 OA
HETATM   32  C   UNL     1      -2.626  -0.528 -31.660  1.00  0.00     0.210 C 
ENDBRANCH  26  31
ENDBRANCH   4  25
TORSDOF 5
ENDMDL
MODEL 9
REMARK VINA RESULT:      -8.2     15.419     17.493
REMARK  5 active torsions:
REMARK  status: ('A' for Active; 'I' for Inactive)
REMARK       I    between atoms: C_2  and  N_3 
REMARK    1  A    between atoms: N_3  and  C_4 
REMARK    2  A    between atoms: C_7  and  C_8 
REMARK    3  A    between atoms: C_8  and  N_9 
REMARK    4  A    between atoms: C_12  and  C_13 
REMARK    5  A    between atoms: C_14  and  O_15 
ROOT
HETATM    1  N   UNL     1      -6.148 -14.076 -34.842  1.00  0.00    -0.060 N 
HETATM    2  H   UNL     1      -5.619 -13.210 -34.693  1.00  0.00     0.280 HD
HETATM    3  C   UNL     1      -7.154 -13.847 -35.982  1.00  0.00     0.272 C 
HETATM    4  C   UNL     1      -6.532 -13.483 -37.349  1.00  0.00     0.190 C 
HETATM    5  O   UNL     1      -5.784 -14.598 -37.864  1.00  0.00    -0.339 OA
HETATM    6  C   UNL     1      -4.473 -14.479 -37.493  1.00  0.00     0.077 A 
HETATM    7  C   UNL     1      -4.103 -14.708 -36.165  1.00  0.00     0.001 A 
HETATM    8  C   UNL     1      -5.128 -15.150 -35.163  1.00  0.00     0.276 C 
HETATM    9  C   UNL     1      -3.540 -14.128 -38.465  1.00  0.00     0.037 A 
HETATM   10  C   UNL     1      -2.208 -13.956 -38.100  1.00  0.00     0.003 A 
HETATM   11  C   UNL     1      -1.820 -14.148 -36.775  1.00  0.00     0.001 A 
HETATM   12  C   UNL     1      -2.759 -14.527 -35.811  1.00  0.00     0.012 A 
ENDROOT
BRANCH   1  13
HETATM   13  C   UNL     1      -6.935 -14.354 -33.575  1.00  0.00     0.273 C 
BRANCH  13  14
HETATM   14  C   UNL     1      -6.275 -15.213 -32.532  1.00  0.00    -0.032 A 
HETATM   15  C   UNL     1      -5.074 -14.835 -31.921  1.00  0.00     0.011 A 
HETATM   16  C   UNL     1      -4.522 -15.618 -30.895  1.00  0.00     0.030 A 
HETATM   17  C   UNL     1      -5.158 -16.782 -30.459  1.00  0.00     0.034 A 
HETATM   18  C   UNL     1      -6.345 -17.172 -31.087  1.00  0.00     0.030 A 
HETATM   19  C   UNL     1      -6.898 -16.397 -32.111  1.00  0.00     0.011 A 
BRANCH  17  20
HETATM   20  N   UNL     1      -4.702 -17.587 -29.395  1.00  0.00    -0.328 N 
HETATM   21  C   UNL     1      -4.475 -17.201 -28.086  1.00  0.00     0.218 C 
HETATM   22  C   UNL     1      -4.097 -18.357 -27.191  1.00  0.00     0.117 C 
HETATM   23  O   UNL     1      -4.586 -16.066 -27.634  1.00  0.00    -0.274 OA
HETATM   24  H   UNL     1      -4.561 -18.568 -29.604  1.00  0.00     0.169 HD
ENDBRANCH  17  20
ENDBRANCH  13  14
ENDBRANCH   1  13
BRANCH   4  25
HETATM   25  C   UNL     1      -7.625 -13.180 -38.366  1.00  0.00     0.006 A 
HETATM   26  C   UNL     1      -7.343 -12.449 -39.535  1.00  0.00     0.077 A 
HETATM   27  C   UNL     1      -8.370 -12.140 -40.434  1.00  0.00     0.037 A 
HETATM   28  C   UNL     1      -9.670 -12.588 -40.204  1.00  0.00     0.003 A 
HETATM   29  C   UNL     1      -9.952 -13.356 -39.080  1.00  0.00     0.001 A 
HETATM   30  C   UNL     1      -8.937 -13.657 -38.172  1.00  0.00     0.012 A 
BRANCH  26  31
HETATM   31  O   UNL     1      -6.047 -12.036 -39.711  1.00  0.00    -0.355 OA
HETATM   32  C   UNL     1      -5.435 -12.466 -40.927  1.00  0.00     0.210 C 
ENDBRANCH  26  31
ENDBRANCH   4  25
TORSDOF 5
ENDMDL
MODEL 10
REMARK VINA RESULT:      -8.2      6.052     10.224
REMARK  5 active torsions:
REMARK  status: ('A' for Active; 'I' for Inactive)
REMARK       I    between atoms: C_2  and  N_3 
REMARK    1  A    between atoms: N_3  and  C_4 
REMARK    2  A    between atoms: C_7  and  C_8 
REMARK    3  A    between atoms: C_8  and  N_9 
REMARK    4  A    between atoms: C_12  and  C_13 
REMARK    5  A    between atoms: C_14  and  O_15 
ROOT
HETATM    1  N   UNL     1      -2.957   4.650 -32.106  1.00  0.00    -0.060 N 
HETATM    2  H   UNL     1      -3.321   4.865 -31.171  1.00  0.00     0.280 HD
HETATM    3  C   UNL     1      -3.245   3.172 -32.417  1.00  0.00     0.272 C 
HETATM    4  C   UNL     1      -4.740   2.781 -32.440  1.00  0.00     0.190 C 
HETATM    5  O   UNL     1      -5.404   3.428 -33.540  1.00  0.00    -0.339 OA
HETATM    6  C   UNL     1      -5.953   4.605 -33.113  1.00  0.00     0.077 A 
HETATM    7  C   UNL     1      -5.127   5.697 -32.831  1.00  0.00     0.001 A 
HETATM    8  C   UNL     1      -3.647   5.601 -33.063  1.00  0.00     0.276 C 
HETATM    9  C   UNL     1      -7.336   4.676 -32.970  1.00  0.00     0.037 A 
HETATM   10  C   UNL     1      -7.913   5.849 -32.493  1.00  0.00     0.003 A 
HETATM   11  C   UNL     1      -7.106   6.941 -32.175  1.00  0.00     0.001 A 
HETATM   12  C   UNL     1      -5.721   6.871 -32.347  1.00  0.00     0.012 A 
ENDROOT
BRANCH   1  13
HETATM   13  C   UNL     1      -1.452   4.832 -32.061  1.00  0.00     0.273 C 
BRANCH  13  14
HETATM   14  C   UNL     1      -0.872   5.461 -30.824  1.00  0.00    -0.032 A 
HETATM   15  C   UNL     1      -1.492   6.545 -30.192  1.00  0.00     0.011 A 
HETATM   16  C   UNL     1      -0.970   7.062 -28.996  1.00  0.00     0.030 A 
HETATM   17  C   UNL     1       0.168   6.506 -28.409  1.00  0.00     0.034 A 
HETATM   18  C   UNL     1       0.800   5.439 -29.054  1.00  0.00     0.030 A 
HETATM   19  C   UNL     1       0.286   4.921 -30.247  1.00  0.00     0.011 A 
BRANCH  17  20
HETATM   20  N   UNL     1       0.715   6.926 -27.179  1.00  0.00    -0.328 N 
HETATM   21  C   UNL     1       1.522   8.026 -26.951  1.00  0.00     0.218 C 
HETATM   22  C   UNL     1       1.830   8.233 -25.487  1.00  0.00     0.117 C 
HETATM   23  O   UNL     1       1.945   8.806 -27.797  1.00  0.00    -0.274 OA
HETATM   24  H   UNL     1       0.458   6.381 -26.365  1.00  0.00     0.169 HD
ENDBRANCH  17  20
ENDBRANCH  13  14
ENDBRANCH   1  13
BRANCH   4  25
HETATM   25  C   UNL     1      -4.893   1.281 -32.655  1.00  0.00     0.006 A 
HETATM   26  C   UNL     1      -6.149   0.657 -32.536  1.00  0.00     0.077 A 
HETATM   27  C   UNL     1      -6.262  -0.729 -32.691  1.00  0.00     0.037 A 
HETATM   28  C   UNL     1      -5.142  -1.499 -33.007  1.00  0.00     0.003 A 
HETATM   29  C   UNL     1      -3.905  -0.888 -33.178  1.00  0.00     0.001 A 
HETATM   30  C   UNL     1      -3.782   0.491 -33.012  1.00  0.00     0.012 A 
BRANCH  26  31
HETATM   31  O   UNL     1      -7.215   1.464 -32.228  1.00  0.00    -0.355 OA
HETATM   32  C   UNL     1      -8.286   0.815 -31.542  1.00  0.00     0.210 C 
ENDBRANCH  26  31
ENDBRANCH   4  25
TORSDOF 5
ENDMDL
