MODEL 1
REMARK VINA RESULT:      -7.8      0.000      0.000
REMARK  10 active torsions:
REMARK  status: ('A' for Active; 'I' for Inactive)
REMARK    1  A    between atoms: C_2  and  O_3 
REMARK    2  A    between atoms: O_3  and  C_4 
REMARK    3  A    between atoms: C_4  and  O_5 
REMARK    4  A    between atoms: C_4  and  C_8 
REMARK    5  A    between atoms: C_4  and  C_14 
REMARK    6  A    between atoms: O_5  and  C_6 
REMARK    7  A    between atoms: C_14  and  N_15 
REMARK       I    between atoms: N_15  and  C_16 
REMARK    8  A    between atoms: C_16  and  C_17 
REMARK    9  A    between atoms: C_19  and  N_20 
REMARK       I    between atoms: N_20  and  C_21 
REMARK   10  A    between atoms: C_21  and  C_22 
ROOT
HETATM    1  N   UNL     1      -5.611   2.972 -33.667  1.00  0.00    -0.351 N 
HETATM    2  C   UNL     1      -5.445   4.311 -33.939  1.00  0.00     0.251 C 
HETATM    3  O   UNL     1      -6.365   5.067 -34.221  1.00  0.00    -0.268 OA
HETATM    4  H   UNL     1      -4.854   2.457 -33.231  1.00  0.00     0.162 HD
ENDROOT
BRANCH   2   5
HETATM    5  C   UNL     1      -4.047   4.813 -33.851  1.00  0.00     0.034 A 
HETATM    6  C   UNL     1      -3.518   5.237 -32.623  1.00  0.00     0.046 A 
HETATM    7  C   UNL     1      -2.215   5.727 -32.540  1.00  0.00     0.035 A 
HETATM    8  C   UNL     1      -1.435   5.765 -33.703  1.00  0.00     0.029 A 
HETATM    9  C   UNL     1      -1.947   5.314 -34.923  1.00  0.00     0.003 A 
HETATM   10  C   UNL     1      -3.253   4.834 -34.998  1.00  0.00     0.017 A 
BRANCH   7  11
HETATM   11  N   UNL     1      -1.634   6.200 -31.346  1.00  0.00    -0.322 N 
HETATM   12  C   UNL     1      -0.704   5.564 -30.537  1.00  0.00     0.263 C 
HETATM   13  O   UNL     1      -0.200   4.472 -30.790  1.00  0.00    -0.267 OA
HETATM   14  H   UNL     1      -1.934   7.113 -31.025  1.00  0.00     0.169 HD
BRANCH  12  15
HETATM   15  C   UNL     1      -0.342   6.292 -29.321  1.00  0.00     0.072 A 
HETATM   16  S   UNL     1      -1.173   7.699 -28.800  1.00  0.00    -0.097 SA
HETATM   17  C   UNL     1      -0.193   7.850 -27.408  1.00  0.00     0.050 A 
HETATM   18  C   UNL     1       0.758   6.859 -27.336  1.00  0.00     0.009 A 
HETATM   19  C   UNL     1       0.672   5.961 -28.438  1.00  0.00     0.025 A 
ENDBRANCH  12  15
ENDBRANCH   7  11
ENDBRANCH   2   5
BRANCH   1  20
HETATM   20  C   UNL     1      -6.913   2.323 -33.788  1.00  0.00     0.198 C 
BRANCH  20  21
HETATM   21  C   UNL     1      -7.157   1.075 -32.867  1.00  0.00     0.227 C 
BRANCH  21  22
HETATM   22  O   UNL     1      -8.554   0.859 -32.579  1.00  0.00    -0.349 OA
BRANCH  22  23
HETATM   23  C   UNL     1      -9.492   1.543 -33.400  1.00  0.00     0.167 C 
HETATM   24  C   UNL     1     -10.757   0.708 -33.471  1.00  0.00     0.033 C 
ENDBRANCH  22  23
ENDBRANCH  21  22
BRANCH  21  25
HETATM   25  O   UNL     1      -6.461   1.289 -31.611  1.00  0.00    -0.349 OA
BRANCH  25  26
HETATM   26  C   UNL     1      -7.148   2.124 -30.685  1.00  0.00     0.167 C 
HETATM   27  C   UNL     1      -6.143   3.100 -30.103  1.00  0.00     0.033 C 
ENDBRANCH  25  26
ENDBRANCH  21  25
BRANCH  21  28
HETATM   28  C   UNL     1      -6.480  -0.199 -33.438  1.00  0.00     0.097 A 
HETATM   29  N   UNL     1      -5.129  -0.340 -33.317  1.00  0.00    -0.260 NA
HETATM   30  C   UNL     1      -4.548  -1.439 -33.843  1.00  0.00     0.117 A 
HETATM   31  C   UNL     1      -5.248  -2.448 -34.476  1.00  0.00     0.019 A 
HETATM   32  C   UNL     1      -6.623  -2.316 -34.592  1.00  0.00     0.004 A 
HETATM   33  C   UNL     1      -7.247  -1.179 -34.080  1.00  0.00     0.033 A 
ENDBRANCH  21  28
ENDBRANCH  20  21
ENDBRANCH   1  20
TORSDOF 10
ENDMDL
MODEL 2
REMARK VINA RESULT:      -7.7      2.980      9.126
REMARK  10 active torsions:
REMARK  status: ('A' for Active; 'I' for Inactive)
REMARK    1  A    between atoms: C_2  and  O_3 
REMARK    2  A    between atoms: O_3  and  C_4 
REMARK    3  A    between atoms: C_4  and  O_5 
REMARK    4  A    between atoms: C_4  and  C_8 
REMARK    5  A    between atoms: C_4  and  C_14 
REMARK    6  A    between atoms: O_5  and  C_6 
REMARK    7  A    between atoms: C_14  and  N_15 
REMARK       I    between atoms: N_15  and  C_16 
REMARK    8  A    between atoms: C_16  and  C_17 
REMARK    9  A    between atoms: C_19  and  N_20 
REMARK       I    between atoms: N_20  and  C_21 
REMARK   10  A    between atoms: C_21  and  C_22 
ROOT
HETATM    1  N   UNL     1      -4.263   2.222 -32.106  1.00  0.00    -0.351 N 
HETATM    2  C   UNL     1      -4.109   0.854 -32.138  1.00  0.00     0.251 C 
HETATM    3  O   UNL     1      -3.228   0.255 -31.537  1.00  0.00    -0.268 OA
HETATM    4  H   UNL     1      -5.130   2.630 -32.438  1.00  0.00     0.162 HD
ENDROOT
BRANCH   2   5
HETATM    5  C   UNL     1      -5.113   0.116 -32.950  1.00  0.00     0.034 A 
HETATM    6  C   UNL     1      -6.403   0.636 -33.136  1.00  0.00     0.046 A 
HETATM    7  C   UNL     1      -7.353  -0.063 -33.880  1.00  0.00     0.035 A 
HETATM    8  C   UNL     1      -6.988  -1.284 -34.460  1.00  0.00     0.029 A 
HETATM    9  C   UNL     1      -5.694  -1.791 -34.306  1.00  0.00     0.003 A 
HETATM   10  C   UNL     1      -4.754  -1.090 -33.553  1.00  0.00     0.017 A 
BRANCH   7  11
HETATM   11  N   UNL     1      -8.675   0.386 -34.076  1.00  0.00    -0.322 N 
HETATM   12  C   UNL     1      -9.667   0.565 -33.123  1.00  0.00     0.263 C 
HETATM   13  O   UNL     1      -9.505   0.396 -31.917  1.00  0.00    -0.267 OA
HETATM   14  H   UNL     1      -8.946   0.597 -35.028  1.00  0.00     0.169 HD
BRANCH  12  15
HETATM   15  C   UNL     1     -10.965   0.982 -33.653  1.00  0.00     0.072 A 
HETATM   16  S   UNL     1     -11.190   2.458 -34.498  1.00  0.00    -0.097 SA
HETATM   17  C   UNL     1     -12.850   2.140 -34.755  1.00  0.00     0.050 A 
HETATM   18  C   UNL     1     -13.237   0.940 -34.205  1.00  0.00     0.009 A 
HETATM   19  C   UNL     1     -12.151   0.273 -33.571  1.00  0.00     0.025 A 
ENDBRANCH  12  15
ENDBRANCH   7  11
ENDBRANCH   2   5
BRANCH   1  20
HETATM   20  C   UNL     1      -3.311   3.082 -31.412  1.00  0.00     0.198 C 
BRANCH  20  21
HETATM   21  C   UNL     1      -2.895   4.402 -32.154  1.00  0.00     0.227 C 
BRANCH  21  22
HETATM   22  O   UNL     1      -4.013   5.280 -32.398  1.00  0.00    -0.349 OA
BRANCH  22  23
HETATM   23  C   UNL     1      -4.996   5.368 -31.374  1.00  0.00     0.167 C 
HETATM   24  C   UNL     1      -6.364   5.240 -32.019  1.00  0.00     0.033 C 
ENDBRANCH  22  23
ENDBRANCH  21  22
BRANCH  21  25
HETATM   25  O   UNL     1      -2.311   4.043 -33.434  1.00  0.00    -0.349 OA
BRANCH  25  26
HETATM   26  C   UNL     1      -2.530   4.988 -34.475  1.00  0.00     0.167 C 
HETATM   27  C   UNL     1      -1.177   5.490 -34.942  1.00  0.00     0.033 C 
ENDBRANCH  25  26
ENDBRANCH  21  25
BRANCH  21  28
HETATM   28  C   UNL     1      -1.736   5.130 -31.424  1.00  0.00     0.097 A 
HETATM   29  N   UNL     1      -0.750   4.387 -30.844  1.00  0.00    -0.260 NA
HETATM   30  C   UNL     1       0.238   5.030 -30.187  1.00  0.00     0.117 A 
HETATM   31  C   UNL     1       0.324   6.406 -30.089  1.00  0.00     0.019 A 
HETATM   32  C   UNL     1      -0.669   7.167 -30.687  1.00  0.00     0.004 A 
HETATM   33  C   UNL     1      -1.715   6.528 -31.351  1.00  0.00     0.033 A 
ENDBRANCH  21  28
ENDBRANCH  20  21
ENDBRANCH   1  20
TORSDOF 10
ENDMDL
MODEL 3
REMARK VINA RESULT:      -7.3      1.737      2.782
REMARK  10 active torsions:
REMARK  status: ('A' for Active; 'I' for Inactive)
REMARK    1  A    between atoms: C_2  and  O_3 
REMARK    2  A    between atoms: O_3  and  C_4 
REMARK    3  A    between atoms: C_4  and  O_5 
REMARK    4  A    between atoms: C_4  and  C_8 
REMARK    5  A    between atoms: C_4  and  C_14 
REMARK    6  A    between atoms: O_5  and  C_6 
REMARK    7  A    between atoms: C_14  and  N_15 
REMARK       I    between atoms: N_15  and  C_16 
REMARK    8  A    between atoms: C_16  and  C_17 
REMARK    9  A    between atoms: C_19  and  N_20 
REMARK       I    between atoms: N_20  and  C_21 
REMARK   10  A    between atoms: C_21  and  C_22 
ROOT
HETATM    1  N   UNL     1      -3.959   3.480 -31.037  1.00  0.00    -0.351 N 
HETATM    2  C   UNL     1      -2.942   3.457 -31.965  1.00  0.00     0.251 C 
HETATM    3  O   UNL     1      -2.717   2.508 -32.703  1.00  0.00    -0.268 OA
HETATM    4  H   UNL     1      -4.229   4.364 -30.619  1.00  0.00     0.162 HD
ENDROOT
BRANCH   2   5
HETATM    5  C   UNL     1      -2.118   4.694 -32.042  1.00  0.00     0.034 A 
HETATM    6  C   UNL     1      -1.643   5.307 -30.873  1.00  0.00     0.046 A 
HETATM    7  C   UNL     1      -0.887   6.478 -30.940  1.00  0.00     0.035 A 
HETATM    8  C   UNL     1      -0.590   7.015 -32.199  1.00  0.00     0.029 A 
HETATM    9  C   UNL     1      -1.034   6.390 -33.367  1.00  0.00     0.003 A 
HETATM   10  C   UNL     1      -1.796   5.225 -33.291  1.00  0.00     0.017 A 
BRANCH   7  11
HETATM   11  N   UNL     1      -0.408   7.163 -29.806  1.00  0.00    -0.322 N 
HETATM   12  C   UNL     1       0.381   6.668 -28.777  1.00  0.00     0.263 C 
HETATM   13  O   UNL     1       0.831   5.526 -28.741  1.00  0.00    -0.267 OA
HETATM   14  H   UNL     1      -0.677   8.136 -29.715  1.00  0.00     0.169 HD
BRANCH  12  15
HETATM   15  C   UNL     1       0.658   7.617 -27.699  1.00  0.00     0.072 A 
HETATM   16  S   UNL     1      -0.218   9.079 -27.503  1.00  0.00    -0.097 SA
HETATM   17  C   UNL     1       0.671   9.507 -26.107  1.00  0.00     0.050 A 
HETATM   18  C   UNL     1       1.624   8.566 -25.792  1.00  0.00     0.009 A 
HETATM   19  C   UNL     1       1.616   7.477 -26.710  1.00  0.00     0.025 A 
ENDBRANCH  12  15
ENDBRANCH   7  11
ENDBRANCH   2   5
BRANCH   1  20
HETATM   20  C   UNL     1      -4.802   2.313 -30.797  1.00  0.00     0.198 C 
BRANCH  20  21
HETATM   21  C   UNL     1      -6.182   2.284 -31.545  1.00  0.00     0.227 C 
BRANCH  21  22
HETATM   22  O   UNL     1      -6.439   3.493 -32.288  1.00  0.00    -0.349 OA
BRANCH  22  23
HETATM   23  C   UNL     1      -6.231   3.440 -33.694  1.00  0.00     0.167 C 
HETATM   24  C   UNL     1      -5.563   4.732 -34.124  1.00  0.00     0.033 C 
ENDBRANCH  22  23
ENDBRANCH  21  22
BRANCH  21  25
HETATM   25  O   UNL     1      -7.234   2.124 -30.558  1.00  0.00    -0.349 OA
BRANCH  25  26
HETATM   26  C   UNL     1      -7.946   3.317 -30.247  1.00  0.00     0.167 C 
HETATM   27  C   UNL     1      -9.418   3.063 -30.509  1.00  0.00     0.033 C 
ENDBRANCH  25  26
ENDBRANCH  21  25
BRANCH  21  28
HETATM   28  C   UNL     1      -6.328   1.019 -32.431  1.00  0.00     0.097 A 
HETATM   29  N   UNL     1      -5.203   0.407 -32.900  1.00  0.00    -0.260 NA
HETATM   30  C   UNL     1      -5.344  -0.676 -33.694  1.00  0.00     0.117 A 
HETATM   31  C   UNL     1      -6.567  -1.220 -34.039  1.00  0.00     0.019 A 
HETATM   32  C   UNL     1      -7.714  -0.609 -33.555  1.00  0.00     0.004 A 
HETATM   33  C   UNL     1      -7.598   0.526 -32.754  1.00  0.00     0.033 A 
ENDBRANCH  21  28
ENDBRANCH  20  21
ENDBRANCH   1  20
TORSDOF 10
ENDMDL
MODEL 4
REMARK VINA RESULT:      -7.2      3.471      9.477
REMARK  10 active torsions:
REMARK  status: ('A' for Active; 'I' for Inactive)
REMARK    1  A    between atoms: C_2  and  O_3 
REMARK    2  A    between atoms: O_3  and  C_4 
REMARK    3  A    between atoms: C_4  and  O_5 
REMARK    4  A    between atoms: C_4  and  C_8 
REMARK    5  A    between atoms: C_4  and  C_14 
REMARK    6  A    between atoms: O_5  and  C_6 
REMARK    7  A    between atoms: C_14  and  N_15 
REMARK       I    between atoms: N_15  and  C_16 
REMARK    8  A    between atoms: C_16  and  C_17 
REMARK    9  A    between atoms: C_19  and  N_20 
REMARK       I    between atoms: N_20  and  C_21 
REMARK   10  A    between atoms: C_21  and  C_22 
ROOT
HETATM    1  N   UNL     1      -3.294   4.768 -30.701  1.00  0.00    -0.351 N 
HETATM    2  C   UNL     1      -3.190   3.627 -31.465  1.00  0.00     0.251 C 
HETATM    3  O   UNL     1      -2.293   3.430 -32.274  1.00  0.00    -0.268 OA
HETATM    4  H   UNL     1      -3.922   4.775 -29.905  1.00  0.00     0.162 HD
ENDROOT
BRANCH   2   5
HETATM    5  C   UNL     1      -4.247   2.605 -31.236  1.00  0.00     0.034 A 
HETATM    6  C   UNL     1      -4.241   1.400 -31.955  1.00  0.00     0.046 A 
HETATM    7  C   UNL     1      -5.241   0.449 -31.757  1.00  0.00     0.035 A 
HETATM    8  C   UNL     1      -6.239   0.708 -30.809  1.00  0.00     0.029 A 
HETATM    9  C   UNL     1      -6.231   1.893 -30.067  1.00  0.00     0.003 A 
HETATM   10  C   UNL     1      -5.232   2.843 -30.278  1.00  0.00     0.017 A 
BRANCH   7  11
HETATM   11  N   UNL     1      -5.314  -0.766 -32.469  1.00  0.00    -0.322 N 
HETATM   12  C   UNL     1      -5.753  -0.970 -33.769  1.00  0.00     0.263 C 
HETATM   13  O   UNL     1      -6.108  -0.071 -34.528  1.00  0.00    -0.267 OA
HETATM   14  H   UNL     1      -5.021  -1.600 -31.975  1.00  0.00     0.169 HD
BRANCH  12  15
HETATM   15  C   UNL     1      -5.771  -2.367 -34.203  1.00  0.00     0.072 A 
HETATM   16  S   UNL     1      -4.384  -3.374 -34.142  1.00  0.00    -0.097 SA
HETATM   17  C   UNL     1      -5.246  -4.718 -34.752  1.00  0.00     0.050 A 
HETATM   18  C   UNL     1      -6.562  -4.414 -35.009  1.00  0.00     0.009 A 
HETATM   19  C   UNL     1      -6.865  -3.059 -34.692  1.00  0.00     0.025 A 
ENDBRANCH  12  15
ENDBRANCH   7  11
ENDBRANCH   2   5
BRANCH   1  20
HETATM   20  C   UNL     1      -2.373   5.888 -30.870  1.00  0.00     0.198 C 
BRANCH  20  21
HETATM   21  C   UNL     1      -2.972   7.192 -31.507  1.00  0.00     0.227 C 
BRANCH  21  22
HETATM   22  O   UNL     1      -4.375   7.068 -31.817  1.00  0.00    -0.349 OA
BRANCH  22  23
HETATM   23  C   UNL     1      -5.293   7.381 -30.776  1.00  0.00     0.167 C 
HETATM   24  C   UNL     1      -6.369   8.283 -31.349  1.00  0.00     0.033 C 
ENDBRANCH  22  23
ENDBRANCH  21  22
BRANCH  21  25
HETATM   25  O   UNL     1      -2.257   7.469 -32.740  1.00  0.00    -0.349 OA
BRANCH  25  26
HETATM   26  C   UNL     1      -2.578   6.602 -33.823  1.00  0.00     0.167 C 
HETATM   27  C   UNL     1      -1.280   6.042 -34.373  1.00  0.00     0.033 C 
ENDBRANCH  25  26
ENDBRANCH  21  25
BRANCH  21  28
HETATM   28  C   UNL     1      -2.680   8.442 -30.637  1.00  0.00     0.097 A 
HETATM   29  N   UNL     1      -3.008   9.675 -31.119  1.00  0.00    -0.260 NA
HETATM   30  C   UNL     1      -2.722  10.757 -30.365  1.00  0.00     0.117 A 
HETATM   31  C   UNL     1      -2.138  10.688 -29.115  1.00  0.00     0.019 A 
HETATM   32  C   UNL     1      -1.813   9.437 -28.614  1.00  0.00     0.004 A 
HETATM   33  C   UNL     1      -2.073   8.303 -29.382  1.00  0.00     0.033 A 
ENDBRANCH  21  28
ENDBRANCH  20  21
ENDBRANCH   1  20
TORSDOF 10
ENDMDL
MODEL 5
REMARK VINA RESULT:      -7.2      1.042      3.042
REMARK  10 active torsions:
REMARK  status: ('A' for Active; 'I' for Inactive)
REMARK    1  A    between atoms: C_2  and  O_3 
REMARK    2  A    between atoms: O_3  and  C_4 
REMARK    3  A    between atoms: C_4  and  O_5 
REMARK    4  A    between atoms: C_4  and  C_8 
REMARK    5  A    between atoms: C_4  and  C_14 
REMARK    6  A    between atoms: O_5  and  C_6 
REMARK    7  A    between atoms: C_14  and  N_15 
REMARK       I    between atoms: N_15  and  C_16 
REMARK    8  A    between atoms: C_16  and  C_17 
REMARK    9  A    between atoms: C_19  and  N_20 
REMARK       I    between atoms: N_20  and  C_21 
REMARK   10  A    between atoms: C_21  and  C_22 
ROOT
HETATM    1  N   UNL     1      -5.314   3.179 -33.859  1.00  0.00    -0.351 N 
HETATM    2  C   UNL     1      -5.201   4.548 -33.943  1.00  0.00     0.251 C 
HETATM    3  O   UNL     1      -6.149   5.297 -34.136  1.00  0.00    -0.268 OA
HETATM    4  H   UNL     1      -4.541   2.640 -33.483  1.00  0.00     0.162 HD
ENDROOT
BRANCH   2   5
HETATM    5  C   UNL     1      -3.828   5.090 -33.760  1.00  0.00     0.034 A 
HETATM    6  C   UNL     1      -3.368   5.454 -32.486  1.00  0.00     0.046 A 
HETATM    7  C   UNL     1      -2.088   5.980 -32.314  1.00  0.00     0.035 A 
HETATM    8  C   UNL     1      -1.260   6.117 -33.435  1.00  0.00     0.029 A 
HETATM    9  C   UNL     1      -1.702   5.726 -34.703  1.00  0.00     0.003 A 
HETATM   10  C   UNL     1      -2.986   5.209 -34.867  1.00  0.00     0.017 A 
BRANCH   7  11
HETATM   11  N   UNL     1      -1.577   6.397 -31.068  1.00  0.00    -0.322 N 
HETATM   12  C   UNL     1      -0.724   5.707 -30.220  1.00  0.00     0.263 C 
HETATM   13  O   UNL     1      -0.236   4.608 -30.475  1.00  0.00    -0.267 OA
HETATM   14  H   UNL     1      -1.872   7.308 -30.738  1.00  0.00     0.169 HD
BRANCH  12  15
HETATM   15  C   UNL     1      -0.425   6.384 -28.958  1.00  0.00     0.072 A 
HETATM   16  S   UNL     1      -1.528   7.454 -28.196  1.00  0.00    -0.097 SA
HETATM   17  C   UNL     1      -0.466   7.730 -26.886  1.00  0.00     0.050 A 
HETATM   18  C   UNL     1       0.713   7.033 -27.021  1.00  0.00     0.009 A 
HETATM   19  C   UNL     1       0.736   6.257 -28.215  1.00  0.00     0.025 A 
ENDBRANCH  12  15
ENDBRANCH   7  11
ENDBRANCH   2   5
BRANCH   1  20
HETATM   20  C   UNL     1      -6.585   2.500 -34.091  1.00  0.00     0.198 C 
BRANCH  20  21
HETATM   21  C   UNL     1      -7.190   1.717 -32.872  1.00  0.00     0.227 C 
BRANCH  21  22
HETATM   22  O   UNL     1      -7.030   2.420 -31.623  1.00  0.00    -0.349 OA
BRANCH  22  23
HETATM   23  C   UNL     1      -6.254   1.776 -30.619  1.00  0.00     0.167 C 
HETATM   24  C   UNL     1      -5.040   2.641 -30.332  1.00  0.00     0.033 C 
ENDBRANCH  22  23
ENDBRANCH  21  22
BRANCH  21  25
HETATM   25  O   UNL     1      -6.509   0.439 -32.766  1.00  0.00    -0.349 OA
BRANCH  25  26
HETATM   26  C   UNL     1      -6.088  -0.117 -34.007  1.00  0.00     0.167 C 
HETATM   27  C   UNL     1      -5.990  -1.621 -33.836  1.00  0.00     0.033 C 
ENDBRANCH  25  26
ENDBRANCH  21  25
BRANCH  21  28
HETATM   28  C   UNL     1      -8.667   1.315 -33.125  1.00  0.00     0.097 A 
HETATM   29  N   UNL     1      -9.165   0.206 -32.506  1.00  0.00    -0.260 NA
HETATM   30  C   UNL     1     -10.442  -0.150 -32.757  1.00  0.00     0.117 A 
HETATM   31  C   UNL     1     -11.288   0.560 -33.587  1.00  0.00     0.019 A 
HETATM   32  C   UNL     1     -10.791   1.695 -34.210  1.00  0.00     0.004 A 
HETATM   33  C   UNL     1      -9.467   2.072 -33.989  1.00  0.00     0.033 A 
ENDBRANCH  21  28
ENDBRANCH  20  21
ENDBRANCH   1  20
TORSDOF 10
ENDMDL
MODEL 6
REMARK VINA RESULT:      -7.1      3.303      8.739
REMARK  10 active torsions:
REMARK  status: ('A' for Active; 'I' for Inactive)
REMARK    1  A    between atoms: C_2  and  O_3 
REMARK    2  A    between atoms: O_3  and  C_4 
REMARK    3  A    between atoms: C_4  and  O_5 
REMARK    4  A    between atoms: C_4  and  C_8 
REMARK    5  A    between atoms: C_4  and  C_14 
REMARK    6  A    between atoms: O_5  and  C_6 
REMARK    7  A    between atoms: C_14  and  N_15 
REMARK       I    between atoms: N_15  and  C_16 
REMARK    8  A    between atoms: C_16  and  C_17 
REMARK    9  A    between atoms: C_19  and  N_20 
REMARK       I    between atoms: N_20  and  C_21 
REMARK   10  A    between atoms: C_21  and  C_22 
ROOT
HETATM    1  N   UNL     1      -3.654   2.914 -32.674  1.00  0.00    -0.351 N 
HETATM    2  C   UNL     1      -3.750   1.636 -32.170  1.00  0.00     0.251 C 
HETATM    3  O   UNL     1      -3.013   1.190 -31.302  1.00  0.00    -0.268 OA
HETATM    4  H   UNL     1      -4.420   3.289 -33.222  1.00  0.00     0.162 HD
ENDROOT
BRANCH   2   5
HETATM    5  C   UNL     1      -4.845   0.805 -32.739  1.00  0.00     0.034 A 
HETATM    6  C   UNL     1      -6.058   1.392 -33.129  1.00  0.00     0.046 A 
HETATM    7  C   UNL     1      -7.094   0.613 -33.644  1.00  0.00     0.035 A 
HETATM    8  C   UNL     1      -6.891  -0.765 -33.788  1.00  0.00     0.029 A 
HETATM    9  C   UNL     1      -5.674  -1.351 -33.431  1.00  0.00     0.003 A 
HETATM   10  C   UNL     1      -4.647  -0.566 -32.908  1.00  0.00     0.017 A 
BRANCH   7  11
HETATM   11  N   UNL     1      -8.347   1.135 -34.023  1.00  0.00    -0.322 N 
HETATM   12  C   UNL     1      -9.486   1.274 -33.242  1.00  0.00     0.263 C 
HETATM   13  O   UNL     1      -9.543   0.996 -32.047  1.00  0.00    -0.267 OA
HETATM   14  H   UNL     1      -8.442   1.438 -34.985  1.00  0.00     0.169 HD
BRANCH  12  15
HETATM   15  C   UNL     1     -10.659   1.792 -33.948  1.00  0.00     0.072 A 
HETATM   16  S   UNL     1     -12.202   1.050 -33.851  1.00  0.00    -0.097 SA
HETATM   17  C   UNL     1     -12.912   2.230 -34.863  1.00  0.00     0.050 A 
HETATM   18  C   UNL     1     -11.999   3.170 -35.280  1.00  0.00     0.009 A 
HETATM   19  C   UNL     1     -10.700   2.918 -34.752  1.00  0.00     0.025 A 
ENDBRANCH  12  15
ENDBRANCH   7  11
ENDBRANCH   2   5
BRANCH   1  20
HETATM   20  C   UNL     1      -2.583   3.818 -32.266  1.00  0.00     0.198 C 
BRANCH  20  21
HETATM   21  C   UNL     1      -2.981   5.323 -32.066  1.00  0.00     0.227 C 
BRANCH  21  22
HETATM   22  O   UNL     1      -2.738   6.125 -33.239  1.00  0.00    -0.349 OA
BRANCH  22  23
HETATM   23  C   UNL     1      -2.383   5.431 -34.429  1.00  0.00     0.167 C 
HETATM   24  C   UNL     1      -3.622   5.315 -35.297  1.00  0.00     0.033 C 
ENDBRANCH  22  23
ENDBRANCH  21  22
BRANCH  21  25
HETATM   25  O   UNL     1      -2.192   5.864 -30.974  1.00  0.00    -0.349 OA
BRANCH  25  26
HETATM   26  C   UNL     1      -0.853   5.384 -30.912  1.00  0.00     0.167 C 
HETATM   27  C   UNL     1       0.077   6.569 -31.092  1.00  0.00     0.033 C 
ENDBRANCH  25  26
ENDBRANCH  21  25
BRANCH  21  28
HETATM   28  C   UNL     1      -4.440   5.468 -31.557  1.00  0.00     0.097 A 
HETATM   29  N   UNL     1      -4.843   4.727 -30.485  1.00  0.00    -0.260 NA
HETATM   30  C   UNL     1      -6.122   4.840 -30.071  1.00  0.00     0.117 A 
HETATM   31  C   UNL     1      -7.046   5.687 -30.654  1.00  0.00     0.019 A 
HETATM   32  C   UNL     1      -6.638   6.452 -31.737  1.00  0.00     0.004 A 
HETATM   33  C   UNL     1      -5.329   6.336 -32.202  1.00  0.00     0.033 A 
ENDBRANCH  21  28
ENDBRANCH  20  21
ENDBRANCH   1  20
TORSDOF 10
ENDMDL
MODEL 7
REMARK VINA RESULT:      -7.1      4.563      9.150
REMARK  10 active torsions:
REMARK  status: ('A' for Active; 'I' for Inactive)
REMARK    1  A    between atoms: C_2  and  O_3 
REMARK    2  A    between atoms: O_3  and  C_4 
REMARK    3  A    between atoms: C_4  and  O_5 
REMARK    4  A    between atoms: C_4  and  C_8 
REMARK    5  A    between atoms: C_4  and  C_14 
REMARK    6  A    between atoms: O_5  and  C_6 
REMARK    7  A    between atoms: C_14  and  N_15 
REMARK       I    between atoms: N_15  and  C_16 
REMARK    8  A    between atoms: C_16  and  C_17 
REMARK    9  A    between atoms: C_19  and  N_20 
REMARK       I    between atoms: N_20  and  C_21 
REMARK   10  A    between atoms: C_21  and  C_22 
ROOT
HETATM    1  N   UNL     1      -9.371   1.273 -32.347  1.00  0.00    -0.351 N 
HETATM    2  C   UNL     1     -10.285   0.341 -32.784  1.00  0.00     0.251 C 
HETATM    3  O   UNL     1     -10.170  -0.863 -32.597  1.00  0.00    -0.268 OA
HETATM    4  H   UNL     1      -9.630   2.254 -32.339  1.00  0.00     0.162 HD
ENDROOT
BRANCH   2   5
HETATM    5  C   UNL     1     -11.467   0.890 -33.501  1.00  0.00     0.034 A 
HETATM    6  C   UNL     1     -11.417   2.163 -34.089  1.00  0.00     0.046 A 
HETATM    7  C   UNL     1     -12.530   2.689 -34.744  1.00  0.00     0.035 A 
HETATM    8  C   UNL     1     -13.692   1.912 -34.826  1.00  0.00     0.029 A 
HETATM    9  C   UNL     1     -13.737   0.631 -34.270  1.00  0.00     0.003 A 
HETATM   10  C   UNL     1     -12.623   0.116 -33.609  1.00  0.00     0.017 A 
BRANCH   7  11
HETATM   11  N   UNL     1     -12.558   3.973 -35.325  1.00  0.00    -0.322 N 
HETATM   12  C   UNL     1     -12.936   5.171 -34.736  1.00  0.00     0.263 C 
HETATM   13  O   UNL     1     -13.265   5.287 -33.558  1.00  0.00    -0.267 OA
HETATM   14  H   UNL     1     -12.278   4.038 -36.297  1.00  0.00     0.169 HD
BRANCH  12  15
HETATM   15  C   UNL     1     -12.919   6.330 -35.628  1.00  0.00     0.072 A 
HETATM   16  S   UNL     1     -11.673   7.509 -35.593  1.00  0.00    -0.097 SA
HETATM   17  C   UNL     1     -12.379   8.396 -36.872  1.00  0.00     0.050 A 
HETATM   18  C   UNL     1     -13.545   7.820 -37.318  1.00  0.00     0.009 A 
HETATM   19  C   UNL     1     -13.856   6.629 -36.602  1.00  0.00     0.025 A 
ENDBRANCH  12  15
ENDBRANCH   7  11
ENDBRANCH   2   5
BRANCH   1  20
HETATM   20  C   UNL     1      -8.127   0.877 -31.695  1.00  0.00     0.198 C 
BRANCH  20  21
HETATM   21  C   UNL     1      -6.803   1.165 -32.488  1.00  0.00     0.227 C 
BRANCH  21  22
HETATM   22  O   UNL     1      -5.804   1.827 -31.685  1.00  0.00    -0.349 OA
BRANCH  22  23
HETATM   23  C   UNL     1      -6.084   1.964 -30.297  1.00  0.00     0.167 C 
HETATM   24  C   UNL     1      -5.866   3.415 -29.911  1.00  0.00     0.033 C 
ENDBRANCH  22  23
ENDBRANCH  21  22
BRANCH  21  25
HETATM   25  O   UNL     1      -7.122   2.023 -33.615  1.00  0.00    -0.349 OA
BRANCH  25  26
HETATM   26  C   UNL     1      -6.149   3.025 -33.895  1.00  0.00     0.167 C 
HETATM   27  C   UNL     1      -6.836   4.376 -33.817  1.00  0.00     0.033 C 
ENDBRANCH  25  26
ENDBRANCH  21  25
BRANCH  21  28
HETATM   28  C   UNL     1      -6.247  -0.117 -33.162  1.00  0.00     0.097 A 
HETATM   29  N   UNL     1      -4.955  -0.482 -32.924  1.00  0.00    -0.260 NA
HETATM   30  C   UNL     1      -4.474  -1.582 -33.539  1.00  0.00     0.117 A 
HETATM   31  C   UNL     1      -5.226  -2.382 -34.379  1.00  0.00     0.019 A 
HETATM   32  C   UNL     1      -6.544  -2.022 -34.615  1.00  0.00     0.004 A 
HETATM   33  C   UNL     1      -7.060  -0.876 -34.013  1.00  0.00     0.033 A 
ENDBRANCH  21  28
ENDBRANCH  20  21
ENDBRANCH   1  20
TORSDOF 10
ENDMDL
MODEL 8
REMARK VINA RESULT:      -7.0      1.447      3.520
REMARK  10 active torsions:
REMARK  status: ('A' for Active; 'I' for Inactive)
REMARK    1  A    between atoms: C_2  and  O_3 
REMARK    2  A    between atoms: O_3  and  C_4 
REMARK    3  A    between atoms: C_4  and  O_5 
REMARK    4  A    between atoms: C_4  and  C_8 
REMARK    5  A    between atoms: C_4  and  C_14 
REMARK    6  A    between atoms: O_5  and  C_6 
REMARK    7  A    between atoms: C_14  and  N_15 
REMARK       I    between atoms: N_15  and  C_16 
REMARK    8  A    between atoms: C_16  and  C_17 
REMARK    9  A    between atoms: C_19  and  N_20 
REMARK       I    between atoms: N_20  and  C_21 
REMARK   10  A    between atoms: C_21  and  C_22 
ROOT
HETATM    1  N   UNL     1      -5.528   3.087 -33.781  1.00  0.00    -0.351 N 
HETATM    2  C   UNL     1      -5.363   4.441 -33.969  1.00  0.00     0.251 C 
HETATM    3  O   UNL     1      -6.280   5.208 -34.229  1.00  0.00    -0.268 OA
HETATM    4  H   UNL     1      -4.779   2.551 -33.357  1.00  0.00     0.162 HD
ENDROOT
BRANCH   2   5
HETATM    5  C   UNL     1      -3.971   4.944 -33.817  1.00  0.00     0.034 A 
HETATM    6  C   UNL     1      -3.456   5.242 -32.547  1.00  0.00     0.046 A 
HETATM    7  C   UNL     1      -2.158   5.732 -32.402  1.00  0.00     0.035 A 
HETATM    8  C   UNL     1      -1.369   5.897 -33.547  1.00  0.00     0.029 A 
HETATM    9  C   UNL     1      -1.867   5.571 -34.812  1.00  0.00     0.003 A 
HETATM   10  C   UNL     1      -3.168   5.090 -34.949  1.00  0.00     0.017 A 
BRANCH   7  11
HETATM   11  N   UNL     1      -1.591   6.084 -31.160  1.00  0.00    -0.322 N 
HETATM   12  C   UNL     1      -1.581   7.329 -30.547  1.00  0.00     0.263 C 
HETATM   13  O   UNL     1      -2.133   8.328 -31.002  1.00  0.00    -0.267 OA
HETATM   14  H   UNL     1      -1.123   5.346 -30.649  1.00  0.00     0.169 HD
BRANCH  12  15
HETATM   15  C   UNL     1      -0.849   7.388 -29.282  1.00  0.00     0.072 A 
HETATM   16  S   UNL     1      -1.635   7.428 -27.757  1.00  0.00    -0.097 SA
HETATM   17  C   UNL     1      -0.149   7.455 -26.913  1.00  0.00     0.050 A 
HETATM   18  C   UNL     1       0.931   7.442 -27.765  1.00  0.00     0.009 A 
HETATM   19  C   UNL     1       0.527   7.403 -29.130  1.00  0.00     0.025 A 
ENDBRANCH  12  15
ENDBRANCH   7  11
ENDBRANCH   2   5
BRANCH   1  20
HETATM   20  C   UNL     1      -6.823   2.441 -33.972  1.00  0.00     0.198 C 
BRANCH  20  21
HETATM   21  C   UNL     1      -7.626   2.092 -32.669  1.00  0.00     0.227 C 
BRANCH  21  22
HETATM   22  O   UNL     1      -7.565   0.690 -32.335  1.00  0.00    -0.349 OA
BRANCH  22  23
HETATM   23  C   UNL     1      -6.624  -0.100 -33.050  1.00  0.00     0.167 C 
HETATM   24  C   UNL     1      -7.384  -1.176 -33.803  1.00  0.00     0.033 C 
ENDBRANCH  22  23
ENDBRANCH  21  22
BRANCH  21  25
HETATM   25  O   UNL     1      -9.017   2.450 -32.879  1.00  0.00    -0.349 OA
BRANCH  25  26
HETATM   26  C   UNL     1      -9.573   1.985 -34.105  1.00  0.00     0.167 C 
HETATM   27  C   UNL     1     -10.773   1.118 -33.774  1.00  0.00     0.033 C 
ENDBRANCH  25  26
ENDBRANCH  21  25
BRANCH  21  28
HETATM   28  C   UNL     1      -7.203   2.990 -31.476  1.00  0.00     0.097 A 
HETATM   29  N   UNL     1      -6.007   2.756 -30.865  1.00  0.00    -0.260 NA
HETATM   30  C   UNL     1      -5.664   3.525 -29.810  1.00  0.00     0.117 A 
HETATM   31  C   UNL     1      -6.444   4.558 -29.327  1.00  0.00     0.019 A 
HETATM   32  C   UNL     1      -7.656   4.808 -29.953  1.00  0.00     0.004 A 
HETATM   33  C   UNL     1      -8.048   4.013 -31.029  1.00  0.00     0.033 A 
ENDBRANCH  21  28
ENDBRANCH  20  21
ENDBRANCH   1  20
TORSDOF 10
ENDMDL
MODEL 9
REMARK VINA RESULT:      -7.0      2.956      8.765
REMARK  10 active torsions:
REMARK  status: ('A' for Active; 'I' for Inactive)
REMARK    1  A    between atoms: C_2  and  O_3 
REMARK    2  A    between atoms: O_3  and  C_4 
REMARK    3  A    between atoms: C_4  and  O_5 
REMARK    4  A    between atoms: C_4  and  C_8 
REMARK    5  A    between atoms: C_4  and  C_14 
REMARK    6  A    between atoms: O_5  and  C_6 
REMARK    7  A    between atoms: C_14  and  N_15 
REMARK       I    between atoms: N_15  and  C_16 
REMARK    8  A    between atoms: C_16  and  C_17 
REMARK    9  A    between atoms: C_19  and  N_20 
REMARK       I    between atoms: N_20  and  C_21 
REMARK   10  A    between atoms: C_21  and  C_22 
ROOT
HETATM    1  N   UNL     1      -4.602   6.288 -31.033  1.00  0.00    -0.351 N 
HETATM    2  C   UNL     1      -5.338   5.200 -30.621  1.00  0.00     0.251 C 
HETATM    3  O   UNL     1      -5.399   4.822 -29.459  1.00  0.00    -0.268 OA
HETATM    4  H   UNL     1      -4.767   6.677 -31.956  1.00  0.00     0.162 HD
ENDROOT
BRANCH   2   5
HETATM    5  C   UNL     1      -6.097   4.497 -31.690  1.00  0.00     0.034 A 
HETATM    6  C   UNL     1      -5.756   3.189 -32.065  1.00  0.00     0.046 A 
HETATM    7  C   UNL     1      -6.452   2.535 -33.081  1.00  0.00     0.035 A 
HETATM    8  C   UNL     1      -7.515   3.200 -33.704  1.00  0.00     0.029 A 
HETATM    9  C   UNL     1      -7.880   4.491 -33.313  1.00  0.00     0.003 A 
HETATM   10  C   UNL     1      -7.173   5.141 -32.303  1.00  0.00     0.017 A 
BRANCH   7  11
HETATM   11  N   UNL     1      -6.139   1.236 -33.529  1.00  0.00    -0.322 N 
HETATM   12  C   UNL     1      -6.595   0.025 -33.026  1.00  0.00     0.263 C 
HETATM   13  O   UNL     1      -7.410  -0.081 -32.113  1.00  0.00    -0.267 OA
HETATM   14  H   UNL     1      -5.494   1.166 -34.307  1.00  0.00     0.169 HD
BRANCH  12  15
HETATM   15  C   UNL     1      -6.032  -1.162 -33.669  1.00  0.00     0.072 A 
HETATM   16  S   UNL     1      -4.373  -1.584 -33.549  1.00  0.00    -0.097 SA
HETATM   17  C   UNL     1      -4.590  -2.995 -34.488  1.00  0.00     0.050 A 
HETATM   18  C   UNL     1      -5.895  -3.148 -34.898  1.00  0.00     0.009 A 
HETATM   19  C   UNL     1      -6.725  -2.091 -34.425  1.00  0.00     0.025 A 
ENDBRANCH  12  15
ENDBRANCH   7  11
ENDBRANCH   2   5
BRANCH   1  20
HETATM   20  C   UNL     1      -3.750   7.030 -30.110  1.00  0.00     0.198 C 
BRANCH  20  21
HETATM   21  C   UNL     1      -2.255   7.228 -30.549  1.00  0.00     0.227 C 
BRANCH  21  22
HETATM   22  O   UNL     1      -1.317   6.819 -29.533  1.00  0.00    -0.349 OA
BRANCH  22  23
HETATM   23  C   UNL     1       0.036   7.223 -29.708  1.00  0.00     0.167 C 
HETATM   24  C   UNL     1       0.706   7.236 -28.348  1.00  0.00     0.033 C 
ENDBRANCH  22  23
ENDBRANCH  21  22
BRANCH  21  25
HETATM   25  O   UNL     1      -2.043   8.638 -30.823  1.00  0.00    -0.349 OA
BRANCH  25  26
HETATM   26  C   UNL     1      -2.954   9.516 -30.171  1.00  0.00     0.167 C 
HETATM   27  C   UNL     1      -2.145  10.490 -29.335  1.00  0.00     0.033 C 
ENDBRANCH  25  26
ENDBRANCH  21  25
BRANCH  21  28
HETATM   28  C   UNL     1      -1.963   6.551 -31.913  1.00  0.00     0.097 A 
HETATM   29  N   UNL     1      -2.063   5.195 -32.013  1.00  0.00    -0.260 NA
HETATM   30  C   UNL     1      -1.778   4.615 -33.198  1.00  0.00     0.117 A 
HETATM   31  C   UNL     1      -1.414   5.320 -34.330  1.00  0.00     0.019 A 
HETATM   32  C   UNL     1      -1.323   6.701 -34.237  1.00  0.00     0.004 A 
HETATM   33  C   UNL     1      -1.587   7.324 -33.019  1.00  0.00     0.033 A 
ENDBRANCH  21  28
ENDBRANCH  20  21
ENDBRANCH   1  20
TORSDOF 10
ENDMDL
MODEL 10
REMARK VINA RESULT:      -7.0      3.029      6.231
REMARK  10 active torsions:
REMARK  status: ('A' for Active; 'I' for Inactive)
REMARK    1  A    between atoms: C_2  and  O_3 
REMARK    2  A    between atoms: O_3  and  C_4 
REMARK    3  A    between atoms: C_4  and  O_5 
REMARK    4  A    between atoms: C_4  and  C_8 
REMARK    5  A    between atoms: C_4  and  C_14 
REMARK    6  A    between atoms: O_5  and  C_6 
REMARK    7  A    between atoms: C_14  and  N_15 
REMARK       I    between atoms: N_15  and  C_16 
REMARK    8  A    between atoms: C_16  and  C_17 
REMARK    9  A    between atoms: C_19  and  N_20 
REMARK       I    between atoms: N_20  and  C_21 
REMARK   10  A    between atoms: C_21  and  C_22 
ROOT
HETATM    1  N   UNL     1      -9.963   1.237 -34.555  1.00  0.00    -0.351 N 
HETATM    2  C   UNL     1      -9.496   0.430 -33.543  1.00  0.00     0.251 C 
HETATM    3  O   UNL     1     -10.219  -0.117 -32.722  1.00  0.00    -0.268 OA
HETATM    4  H   UNL     1      -9.345   1.477 -35.323  1.00  0.00     0.162 HD
ENDROOT
BRANCH   2   5
HETATM    5  C   UNL     1      -8.022   0.234 -33.510  1.00  0.00     0.034 A 
HETATM    6  C   UNL     1      -7.175   1.262 -33.068  1.00  0.00     0.046 A 
HETATM    7  C   UNL     1      -5.792   1.089 -33.054  1.00  0.00     0.035 A 
HETATM    8  C   UNL     1      -5.263  -0.141 -33.467  1.00  0.00     0.029 A 
HETATM    9  C   UNL     1      -6.104  -1.179 -33.878  1.00  0.00     0.003 A 
HETATM   10  C   UNL     1      -7.485  -0.995 -33.897  1.00  0.00     0.017 A 
BRANCH   7  11
HETATM   11  N   UNL     1      -4.884   2.091 -32.655  1.00  0.00    -0.322 N 
HETATM   12  C   UNL     1      -4.724   3.362 -33.189  1.00  0.00     0.263 C 
HETATM   13  O   UNL     1      -5.419   3.825 -34.090  1.00  0.00    -0.267 OA
HETATM   14  H   UNL     1      -4.259   1.860 -31.892  1.00  0.00     0.169 HD
BRANCH  12  15
HETATM   15  C   UNL     1      -3.644   4.149 -32.596  1.00  0.00     0.072 A 
HETATM   16  S   UNL     1      -3.886   5.199 -31.261  1.00  0.00    -0.097 SA
HETATM   17  C   UNL     1      -2.236   5.641 -31.217  1.00  0.00     0.050 A 
HETATM   18  C   UNL     1      -1.507   5.013 -32.201  1.00  0.00     0.009 A 
HETATM   19  C   UNL     1      -2.319   4.153 -32.995  1.00  0.00     0.025 A 
ENDBRANCH  12  15
ENDBRANCH   7  11
ENDBRANCH   2   5
BRANCH   1  20
HETATM   20  C   UNL     1     -11.377   1.580 -34.669  1.00  0.00     0.198 C 
BRANCH  20  21
HETATM   21  C   UNL     1     -11.817   2.943 -34.026  1.00  0.00     0.227 C 
BRANCH  21  22
HETATM   22  O   UNL     1     -12.937   2.801 -33.129  1.00  0.00    -0.349 OA
BRANCH  22  23
HETATM   23  C   UNL     1     -13.652   1.573 -33.184  1.00  0.00     0.167 C 
HETATM   24  C   UNL     1     -15.073   1.831 -32.720  1.00  0.00     0.033 C 
ENDBRANCH  22  23
ENDBRANCH  21  22
BRANCH  21  25
HETATM   25  O   UNL     1     -12.202   3.850 -35.093  1.00  0.00    -0.349 OA
BRANCH  25  26
HETATM   26  C   UNL     1     -13.115   4.871 -34.707  1.00  0.00     0.167 C 
HETATM   27  C   UNL     1     -13.014   5.995 -35.722  1.00  0.00     0.033 C 
ENDBRANCH  25  26
ENDBRANCH  21  25
BRANCH  21  28
HETATM   28  C   UNL     1     -10.625   3.671 -33.352  1.00  0.00     0.097 A 
HETATM   29  N   UNL     1      -9.674   4.252 -34.140  1.00  0.00    -0.260 NA
HETATM   30  C   UNL     1      -8.626   4.857 -33.542  1.00  0.00     0.117 A 
HETATM   31  C   UNL     1      -8.472   4.947 -32.172  1.00  0.00     0.019 A 
HETATM   32  C   UNL     1      -9.441   4.368 -31.366  1.00  0.00     0.004 A 
HETATM   33  C   UNL     1     -10.521   3.715 -31.957  1.00  0.00     0.033 A 
ENDBRANCH  21  28
ENDBRANCH  20  21
ENDBRANCH   1  20
TORSDOF 10
ENDMDL
