MODEL 1
REMARK VINA RESULT:      -8.0      0.000      0.000
REMARK  5 active torsions:
REMARK  status: ('A' for Active; 'I' for Inactive)
REMARK    1  A    between atoms: C_2  and  C_3 
REMARK    2  A    between atoms: C_3  and  N_4 
REMARK       I    between atoms: N_4  and  C_5 
REMARK    3  A    between atoms: C_5  and  C_6 
REMARK    4  A    between atoms: C_10  and  N_11 
REMARK       I    between atoms: N_11  and  C_12 
REMARK       I    between atoms: C_12  and  N_13 
REMARK    5  A    between atoms: N_13  and  C_14 
ROOT
HETATM    1  C   UNL     1      -6.963  -0.225 -33.249  1.00  0.00     0.053 A 
HETATM    2  C   UNL     1      -7.441   0.114 -31.977  1.00  0.00     0.051 A 
HETATM    3 CL   UNL     1      -6.501  -0.051 -30.532  1.00  0.00    -0.083 Cl
HETATM    4  C   UNL     1      -8.725   0.663 -31.828  1.00  0.00     0.054 A 
HETATM    5  C   UNL     1      -9.545   0.879 -32.938  1.00  0.00     0.038 A 
HETATM    6  C   UNL     1      -9.065   0.552 -34.207  1.00  0.00     0.030 A 
HETATM    7  C   UNL     1      -7.786   0.008 -34.362  1.00  0.00     0.021 A 
ENDROOT
BRANCH   5   8
HETATM    8  N   UNL     1     -10.826   1.463 -32.863  1.00  0.00    -0.309 N 
HETATM    9  C   UNL     1     -11.140   2.795 -32.922  1.00  0.00     0.325 C 
HETATM   10  N   UNL     1     -12.470   3.101 -33.030  1.00  0.00    -0.306 N 
HETATM   11  O   UNL     1     -10.335   3.719 -32.833  1.00  0.00    -0.247 OA
HETATM   12  H   UNL     1     -12.658   4.087 -32.888  1.00  0.00     0.171 HD
HETATM   13  H   UNL     1     -11.572   0.869 -32.531  1.00  0.00     0.170 HD
BRANCH  10  14
HETATM   14  C   UNL     1     -13.531   2.324 -33.452  1.00  0.00     0.072 A 
HETATM   15  C   UNL     1     -13.719   1.472 -34.563  1.00  0.00     0.169 A 
HETATM   16  N   UNL     1     -14.928   0.904 -34.575  1.00  0.00    -0.185 NA
HETATM   17  N   UNL     1     -15.534   1.429 -33.498  1.00  0.00    -0.287 N 
HETATM   18  H   UNL     1     -16.493   1.155 -33.304  1.00  0.00     0.188 HD
HETATM   19  C   UNL     1     -14.742   2.293 -32.799  1.00  0.00     0.140 A 
ENDBRANCH  10  14
ENDBRANCH   5   8
BRANCH   1  20
HETATM   20  C   UNL     1      -5.611  -0.779 -33.538  1.00  0.00     0.253 C 
HETATM   21  N   UNL     1      -5.545  -1.997 -34.177  1.00  0.00    -0.356 N 
HETATM   22  H   UNL     1      -6.397  -2.542 -34.232  1.00  0.00     0.162 HD
HETATM   23  O   UNL     1      -4.619  -0.122 -33.234  1.00  0.00    -0.268 OA
BRANCH  21  24
HETATM   24  C   UNL     1      -4.284  -2.702 -34.312  1.00  0.00     0.126 C 
BRANCH  24  25
HETATM   25  C   UNL     1      -4.464  -4.203 -34.577  1.00  0.00    -0.005 C 
HETATM   26  C   UNL     1      -5.935  -4.590 -34.738  1.00  0.00     0.011 C 
HETATM   27  C   UNL     1      -3.842  -5.007 -33.434  1.00  0.00     0.011 C 
ENDBRANCH  24  25
ENDBRANCH  21  24
ENDBRANCH   1  20
TORSDOF 5
ENDMDL
MODEL 2
REMARK VINA RESULT:      -7.5      1.195      1.470
REMARK  5 active torsions:
REMARK  status: ('A' for Active; 'I' for Inactive)
REMARK    1  A    between atoms: C_2  and  C_3 
REMARK    2  A    between atoms: C_3  and  N_4 
REMARK       I    between atoms: N_4  and  C_5 
REMARK    3  A    between atoms: C_5  and  C_6 
REMARK    4  A    between atoms: C_10  and  N_11 
REMARK       I    between atoms: N_11  and  C_12 
REMARK       I    between atoms: C_12  and  N_13 
REMARK    5  A    between atoms: N_13  and  C_14 
ROOT
HETATM    1  C   UNL     1      -7.188   0.013 -32.673  1.00  0.00     0.053 A 
HETATM    2  C   UNL     1      -7.212   1.311 -32.149  1.00  0.00     0.051 A 
HETATM    3 CL   UNL     1      -5.804   2.124 -31.553  1.00  0.00    -0.083 Cl
HETATM    4  C   UNL     1      -8.411   2.042 -32.130  1.00  0.00     0.054 A 
HETATM    5  C   UNL     1      -9.594   1.493 -32.630  1.00  0.00     0.038 A 
HETATM    6  C   UNL     1      -9.567   0.202 -33.164  1.00  0.00     0.030 A 
HETATM    7  C   UNL     1      -8.376  -0.529 -33.188  1.00  0.00     0.021 A 
ENDROOT
BRANCH   5   8
HETATM    8  N   UNL     1     -10.820   2.185 -32.679  1.00  0.00    -0.309 N 
HETATM    9  C   UNL     1     -11.218   3.112 -33.606  1.00  0.00     0.325 C 
HETATM   10  N   UNL     1     -12.531   3.496 -33.556  1.00  0.00    -0.306 N 
HETATM   11  O   UNL     1     -10.485   3.653 -34.429  1.00  0.00    -0.247 OA
HETATM   12  H   UNL     1     -12.726   4.305 -34.135  1.00  0.00     0.171 HD
HETATM   13  H   UNL     1     -11.387   2.156 -31.843  1.00  0.00     0.170 HD
BRANCH  10  14
HETATM   14  C   UNL     1     -13.621   2.869 -32.985  1.00  0.00     0.072 A 
HETATM   15  C   UNL     1     -14.399   3.143 -31.838  1.00  0.00     0.169 A 
HETATM   16  N   UNL     1     -15.381   2.254 -31.660  1.00  0.00    -0.185 NA
HETATM   17  N   UNL     1     -15.203   1.382 -32.664  1.00  0.00    -0.287 N 
HETATM   18  H   UNL     1     -15.834   0.588 -32.729  1.00  0.00     0.188 HD
HETATM   19  C   UNL     1     -14.156   1.701 -33.479  1.00  0.00     0.140 A 
ENDBRANCH  10  14
ENDBRANCH   5   8
BRANCH   1  20
HETATM   20  C   UNL     1      -5.976  -0.847 -32.780  1.00  0.00     0.253 C 
HETATM   21  N   UNL     1      -5.722  -1.441 -33.996  1.00  0.00    -0.356 N 
HETATM   22  H   UNL     1      -6.465  -1.433 -34.684  1.00  0.00     0.162 HD
HETATM   23  O   UNL     1      -5.238  -0.964 -31.805  1.00  0.00    -0.268 OA
BRANCH  21  24
HETATM   24  C   UNL     1      -4.688  -2.451 -34.133  1.00  0.00     0.126 C 
BRANCH  24  25
HETATM   25  C   UNL     1      -5.181  -3.717 -34.847  1.00  0.00    -0.005 C 
HETATM   26  C   UNL     1      -6.707  -3.821 -34.855  1.00  0.00     0.011 C 
HETATM   27  C   UNL     1      -4.583  -4.954 -34.175  1.00  0.00     0.011 C 
ENDBRANCH  24  25
ENDBRANCH  21  24
ENDBRANCH   1  20
TORSDOF 5
ENDMDL
MODEL 3
REMARK VINA RESULT:      -7.5      6.149      8.640
REMARK  5 active torsions:
REMARK  status: ('A' for Active; 'I' for Inactive)
REMARK    1  A    between atoms: C_2  and  C_3 
REMARK    2  A    between atoms: C_3  and  N_4 
REMARK       I    between atoms: N_4  and  C_5 
REMARK    3  A    between atoms: C_5  and  C_6 
REMARK    4  A    between atoms: C_10  and  N_11 
REMARK       I    between atoms: N_11  and  C_12 
REMARK       I    between atoms: C_12  and  N_13 
REMARK    5  A    between atoms: N_13  and  C_14 
ROOT
HETATM    1  C   UNL     1      -5.283   1.085 -32.588  1.00  0.00     0.053 A 
HETATM    2  C   UNL     1      -5.439   2.421 -32.976  1.00  0.00     0.051 A 
HETATM    3 CL   UNL     1      -6.779   2.989 -33.915  1.00  0.00    -0.083 Cl
HETATM    4  C   UNL     1      -4.508   3.389 -32.567  1.00  0.00     0.054 A 
HETATM    5  C   UNL     1      -3.416   3.040 -31.768  1.00  0.00     0.038 A 
HETATM    6  C   UNL     1      -3.267   1.710 -31.370  1.00  0.00     0.030 A 
HETATM    7  C   UNL     1      -4.192   0.742 -31.773  1.00  0.00     0.021 A 
ENDROOT
BRANCH   5   8
HETATM    8  N   UNL     1      -2.469   3.967 -31.288  1.00  0.00    -0.309 N 
HETATM    9  C   UNL     1      -1.702   4.831 -32.024  1.00  0.00     0.325 C 
HETATM   10  N   UNL     1      -1.002   5.774 -31.319  1.00  0.00    -0.306 N 
HETATM   11  O   UNL     1      -1.556   4.790 -33.243  1.00  0.00    -0.247 OA
HETATM   12  H   UNL     1      -0.320   6.262 -31.887  1.00  0.00     0.171 HD
HETATM   13  H   UNL     1      -2.172   3.851 -30.330  1.00  0.00     0.170 HD
BRANCH  10  14
HETATM   14  C   UNL     1      -1.197   6.253 -30.038  1.00  0.00     0.072 A 
HETATM   15  C   UNL     1      -2.196   7.063 -29.454  1.00  0.00     0.169 A 
HETATM   16  N   UNL     1      -1.986   7.280 -28.153  1.00  0.00    -0.185 NA
HETATM   17  N   UNL     1      -0.825   6.650 -27.912  1.00  0.00    -0.287 N 
HETATM   18  H   UNL     1      -0.442   6.690 -26.972  1.00  0.00     0.188 HD
HETATM   19  C   UNL     1      -0.308   6.029 -29.011  1.00  0.00     0.140 A 
ENDBRANCH  10  14
ENDBRANCH   5   8
BRANCH   1  20
HETATM   20  C   UNL     1      -6.219  -0.023 -32.928  1.00  0.00     0.253 C 
HETATM   21  N   UNL     1      -5.761  -1.007 -33.776  1.00  0.00    -0.356 N 
HETATM   22  H   UNL     1      -4.901  -0.825 -34.279  1.00  0.00     0.162 HD
HETATM   23  O   UNL     1      -7.337  -0.039 -32.420  1.00  0.00    -0.268 OA
BRANCH  21  24
HETATM   24  C   UNL     1      -6.663  -2.004 -34.321  1.00  0.00     0.126 C 
BRANCH  24  25
HETATM   25  C   UNL     1      -5.931  -3.135 -35.055  1.00  0.00    -0.005 C 
HETATM   26  C   UNL     1      -6.653  -4.477 -34.918  1.00  0.00     0.011 C 
HETATM   27  C   UNL     1      -4.504  -3.261 -34.518  1.00  0.00     0.011 C 
ENDBRANCH  24  25
ENDBRANCH  21  24
ENDBRANCH   1  20
TORSDOF 5
ENDMDL
MODEL 4
REMARK VINA RESULT:      -7.2     13.628     16.107
REMARK  5 active torsions:
REMARK  status: ('A' for Active; 'I' for Inactive)
REMARK    1  A    between atoms: C_2  and  C_3 
REMARK    2  A    between atoms: C_3  and  N_4 
REMARK       I    between atoms: N_4  and  C_5 
REMARK    3  A    between atoms: C_5  and  C_6 
REMARK    4  A    between atoms: C_10  and  N_11 
REMARK       I    between atoms: N_11  and  C_12 
REMARK       I    between atoms: C_12  and  N_13 
REMARK    5  A    between atoms: N_13  and  C_14 
ROOT
HETATM    1  C   UNL     1      -0.238   7.229 -28.126  1.00  0.00     0.053 A 
HETATM    2  C   UNL     1      -0.223   6.962 -26.752  1.00  0.00     0.051 A 
HETATM    3 CL   UNL     1      -1.334   5.881 -25.980  1.00  0.00    -0.083 Cl
HETATM    4  C   UNL     1       0.754   7.546 -25.929  1.00  0.00     0.054 A 
HETATM    5  C   UNL     1       1.725   8.397 -26.463  1.00  0.00     0.038 A 
HETATM    6  C   UNL     1       1.718   8.654 -27.836  1.00  0.00     0.030 A 
HETATM    7  C   UNL     1       0.749   8.074 -28.660  1.00  0.00     0.021 A 
ENDROOT
BRANCH   5   8
HETATM    8  N   UNL     1       2.756   8.983 -25.702  1.00  0.00    -0.309 N 
HETATM    9  C   UNL     1       2.667  10.071 -24.875  1.00  0.00     0.325 C 
HETATM   10  N   UNL     1       3.759  10.328 -24.089  1.00  0.00    -0.306 N 
HETATM   11  O   UNL     1       1.719  10.850 -24.825  1.00  0.00    -0.247 OA
HETATM   12  H   UNL     1       3.713  11.233 -23.638  1.00  0.00     0.171 HD
HETATM   13  H   UNL     1       3.699   8.709 -25.938  1.00  0.00     0.170 HD
BRANCH  10  14
HETATM   14  C   UNL     1       4.794   9.498 -23.706  1.00  0.00     0.072 A 
HETATM   15  C   UNL     1       4.850   8.334 -22.906  1.00  0.00     0.169 A 
HETATM   16  N   UNL     1       6.088   7.843 -22.801  1.00  0.00    -0.185 NA
HETATM   17  N   UNL     1       6.835   8.718 -23.492  1.00  0.00    -0.287 N 
HETATM   18  H   UNL     1       7.837   8.562 -23.542  1.00  0.00     0.188 HD
HETATM   19  C   UNL     1       6.107   9.733 -24.044  1.00  0.00     0.140 A 
ENDBRANCH  10  14
ENDBRANCH   5   8
BRANCH   1  20
HETATM   20  C   UNL     1      -1.198   6.645 -29.104  1.00  0.00     0.253 C 
HETATM   21  N   UNL     1      -0.740   5.636 -29.922  1.00  0.00    -0.356 N 
HETATM   22  H   UNL     1       0.261   5.486 -29.962  1.00  0.00     0.162 HD
HETATM   23  O   UNL     1      -2.356   7.053 -29.121  1.00  0.00    -0.268 OA
BRANCH  21  24
HETATM   24  C   UNL     1      -1.538   5.156 -31.035  1.00  0.00     0.126 C 
BRANCH  24  25
HETATM   25  C   UNL     1      -0.914   5.475 -32.400  1.00  0.00    -0.005 C 
HETATM   26  C   UNL     1      -0.747   6.979 -32.624  1.00  0.00     0.011 C 
HETATM   27  C   UNL     1      -1.777   4.881 -33.514  1.00  0.00     0.011 C 
ENDBRANCH  24  25
ENDBRANCH  21  24
ENDBRANCH   1  20
TORSDOF 5
ENDMDL
MODEL 5
REMARK VINA RESULT:      -7.0      5.995      8.387
REMARK  5 active torsions:
REMARK  status: ('A' for Active; 'I' for Inactive)
REMARK    1  A    between atoms: C_2  and  C_3 
REMARK    2  A    between atoms: C_3  and  N_4 
REMARK       I    between atoms: N_4  and  C_5 
REMARK    3  A    between atoms: C_5  and  C_6 
REMARK    4  A    between atoms: C_10  and  N_11 
REMARK       I    between atoms: N_11  and  C_12 
REMARK       I    between atoms: C_12  and  N_13 
REMARK    5  A    between atoms: N_13  and  C_14 
ROOT
HETATM    1  C   UNL     1      -5.487   1.018 -32.657  1.00  0.00     0.053 A 
HETATM    2  C   UNL     1      -4.374   0.938 -31.812  1.00  0.00     0.051 A 
HETATM    3 CL   UNL     1      -3.750  -0.556 -31.198  1.00  0.00    -0.083 Cl
HETATM    4  C   UNL     1      -3.671   2.102 -31.457  1.00  0.00     0.054 A 
HETATM    5  C   UNL     1      -4.067   3.352 -31.938  1.00  0.00     0.038 A 
HETATM    6  C   UNL     1      -5.170   3.431 -32.791  1.00  0.00     0.030 A 
HETATM    7  C   UNL     1      -5.871   2.276 -33.149  1.00  0.00     0.021 A 
ENDROOT
BRANCH   5   8
HETATM    8  N   UNL     1      -3.383   4.552 -31.655  1.00  0.00    -0.309 N 
HETATM    9  C   UNL     1      -3.792   5.570 -30.835  1.00  0.00     0.325 C 
HETATM   10  N   UNL     1      -2.865   6.540 -30.562  1.00  0.00    -0.306 N 
HETATM   11  O   UNL     1      -4.924   5.703 -30.376  1.00  0.00    -0.247 OA
HETATM   12  H   UNL     1      -3.268   7.351 -30.106  1.00  0.00     0.171 HD
HETATM   13  H   UNL     1      -2.614   4.786 -32.265  1.00  0.00     0.170 HD
BRANCH  10  14
HETATM   14  C   UNL     1      -1.488   6.508 -30.662  1.00  0.00     0.072 A 
HETATM   15  C   UNL     1      -0.480   5.888 -29.890  1.00  0.00     0.169 A 
HETATM   16  N   UNL     1       0.747   6.126 -30.362  1.00  0.00    -0.185 NA
HETATM   17  N   UNL     1       0.531   6.938 -31.408  1.00  0.00    -0.287 N 
HETATM   18  H   UNL     1       1.334   7.276 -31.930  1.00  0.00     0.188 HD
HETATM   19  C   UNL     1      -0.790   7.205 -31.622  1.00  0.00     0.140 A 
ENDBRANCH  10  14
ENDBRANCH   5   8
BRANCH   1  20
HETATM   20  C   UNL     1      -6.290  -0.143 -33.132  1.00  0.00     0.253 C 
HETATM   21  N   UNL     1      -5.703  -0.994 -34.043  1.00  0.00    -0.356 N 
HETATM   22  H   UNL     1      -4.852  -0.680 -34.493  1.00  0.00     0.162 HD
HETATM   23  O   UNL     1      -7.415  -0.318 -32.674  1.00  0.00    -0.268 OA
BRANCH  21  24
HETATM   24  C   UNL     1      -6.478  -2.023 -34.710  1.00  0.00     0.126 C 
BRANCH  24  25
HETATM   25  C   UNL     1      -5.625  -3.216 -35.160  1.00  0.00    -0.005 C 
HETATM   26  C   UNL     1      -6.407  -4.531 -35.134  1.00  0.00     0.011 C 
HETATM   27  C   UNL     1      -4.390  -3.334 -34.265  1.00  0.00     0.011 C 
ENDBRANCH  24  25
ENDBRANCH  21  24
ENDBRANCH   1  20
TORSDOF 5
ENDMDL
MODEL 6
REMARK VINA RESULT:      -7.0      6.031      8.006
REMARK  5 active torsions:
REMARK  status: ('A' for Active; 'I' for Inactive)
REMARK    1  A    between atoms: C_2  and  C_3 
REMARK    2  A    between atoms: C_3  and  N_4 
REMARK       I    between atoms: N_4  and  C_5 
REMARK    3  A    between atoms: C_5  and  C_6 
REMARK    4  A    between atoms: C_10  and  N_11 
REMARK       I    between atoms: N_11  and  C_12 
REMARK       I    between atoms: C_12  and  N_13 
REMARK    5  A    between atoms: N_13  and  C_14 
ROOT
HETATM    1  C   UNL     1      -6.061   1.537 -32.244  1.00  0.00     0.053 A 
HETATM    2  C   UNL     1      -5.665   1.623 -30.904  1.00  0.00     0.051 A 
HETATM    3 CL   UNL     1      -6.056   0.424 -29.717  1.00  0.00    -0.083 Cl
HETATM    4  C   UNL     1      -4.869   2.696 -30.470  1.00  0.00     0.054 A 
HETATM    5  C   UNL     1      -4.460   3.691 -31.361  1.00  0.00     0.038 A 
HETATM    6  C   UNL     1      -4.846   3.600 -32.700  1.00  0.00     0.030 A 
HETATM    7  C   UNL     1      -5.636   2.533 -33.138  1.00  0.00     0.021 A 
ENDROOT
BRANCH   5   8
HETATM    8  N   UNL     1      -3.629   4.771 -31.001  1.00  0.00    -0.309 N 
HETATM    9  C   UNL     1      -2.280   4.889 -31.207  1.00  0.00     0.325 C 
HETATM   10  N   UNL     1      -1.732   6.118 -30.950  1.00  0.00    -0.306 N 
HETATM   11  O   UNL     1      -1.531   3.978 -31.549  1.00  0.00    -0.247 OA
HETATM   12  H   UNL     1      -0.719   6.101 -30.944  1.00  0.00     0.171 HD
HETATM   13  H   UNL     1      -4.015   5.437 -30.348  1.00  0.00     0.170 HD
BRANCH  10  14
HETATM   14  C   UNL     1      -2.330   7.359 -30.867  1.00  0.00     0.072 A 
HETATM   15  C   UNL     1      -2.666   8.334 -31.833  1.00  0.00     0.169 A 
HETATM   16  N   UNL     1      -3.249   9.410 -31.295  1.00  0.00    -0.185 NA
HETATM   17  N   UNL     1      -3.243   9.147 -29.979  1.00  0.00    -0.287 N 
HETATM   18  H   UNL     1      -3.627   9.844 -29.347  1.00  0.00     0.188 HD
HETATM   19  C   UNL     1      -2.694   7.936 -29.671  1.00  0.00     0.140 A 
ENDBRANCH  10  14
ENDBRANCH   5   8
BRANCH   1  20
HETATM   20  C   UNL     1      -6.872   0.434 -32.830  1.00  0.00     0.253 C 
HETATM   21  N   UNL     1      -6.196  -0.614 -33.414  1.00  0.00    -0.356 N 
HETATM   22  H   UNL     1      -5.207  -0.488 -33.595  1.00  0.00     0.162 HD
HETATM   23  O   UNL     1      -8.096   0.481 -32.743  1.00  0.00    -0.268 OA
BRANCH  21  24
HETATM   24  C   UNL     1      -6.900  -1.621 -34.186  1.00  0.00     0.126 C 
BRANCH  24  25
HETATM   25  C   UNL     1      -5.956  -2.626 -34.859  1.00  0.00    -0.005 C 
HETATM   26  C   UNL     1      -6.560  -4.030 -34.929  1.00  0.00     0.011 C 
HETATM   27  C   UNL     1      -4.628  -2.674 -34.101  1.00  0.00     0.011 C 
ENDBRANCH  24  25
ENDBRANCH  21  24
ENDBRANCH   1  20
TORSDOF 5
ENDMDL
MODEL 7
REMARK VINA RESULT:      -6.9      5.061      8.770
REMARK  5 active torsions:
REMARK  status: ('A' for Active; 'I' for Inactive)
REMARK    1  A    between atoms: C_2  and  C_3 
REMARK    2  A    between atoms: C_3  and  N_4 
REMARK       I    between atoms: N_4  and  C_5 
REMARK    3  A    between atoms: C_5  and  C_6 
REMARK    4  A    between atoms: C_10  and  N_11 
REMARK       I    between atoms: N_11  and  C_12 
REMARK       I    between atoms: C_12  and  N_13 
REMARK    5  A    between atoms: N_13  and  C_14 
ROOT
HETATM    1  C   UNL     1      -8.092   1.635 -32.847  1.00  0.00     0.053 A 
HETATM    2  C   UNL     1      -7.096   1.563 -33.828  1.00  0.00     0.051 A 
HETATM    3 CL   UNL     1      -7.286   0.694 -35.315  1.00  0.00    -0.083 Cl
HETATM    4  C   UNL     1      -5.885   2.253 -33.659  1.00  0.00     0.054 A 
HETATM    5  C   UNL     1      -5.652   3.021 -32.515  1.00  0.00     0.038 A 
HETATM    6  C   UNL     1      -6.650   3.103 -31.541  1.00  0.00     0.030 A 
HETATM    7  C   UNL     1      -7.858   2.420 -31.706  1.00  0.00     0.021 A 
ENDROOT
BRANCH   5   8
HETATM    8  N   UNL     1      -4.478   3.771 -32.300  1.00  0.00    -0.309 N 
HETATM    9  C   UNL     1      -3.260   3.308 -31.880  1.00  0.00     0.325 C 
HETATM   10  N   UNL     1      -2.219   4.196 -31.940  1.00  0.00    -0.306 N 
HETATM   11  O   UNL     1      -3.046   2.192 -31.412  1.00  0.00    -0.247 OA
HETATM   12  H   UNL     1      -1.393   3.865 -31.454  1.00  0.00     0.171 HD
HETATM   13  H   UNL     1      -4.587   4.773 -32.252  1.00  0.00     0.170 HD
BRANCH  10  14
HETATM   14  C   UNL     1      -2.080   5.356 -32.676  1.00  0.00     0.072 A 
HETATM   15  C   UNL     1      -1.735   5.606 -34.023  1.00  0.00     0.169 A 
HETATM   16  N   UNL     1      -1.725   6.910 -34.316  1.00  0.00    -0.185 NA
HETATM   17  N   UNL     1      -2.016   7.499 -33.145  1.00  0.00    -0.287 N 
HETATM   18  H   UNL     1      -2.049   8.514 -33.112  1.00  0.00     0.188 HD
HETATM   19  C   UNL     1      -2.226   6.611 -32.131  1.00  0.00     0.140 A 
ENDBRANCH  10  14
ENDBRANCH   5   8
BRANCH   1  20
HETATM   20  C   UNL     1      -9.427   0.979 -32.928  1.00  0.00     0.253 C 
HETATM   21  N   UNL     1     -10.458   1.698 -33.492  1.00  0.00    -0.356 N 
HETATM   22  H   UNL     1     -10.312   2.690 -33.632  1.00  0.00     0.162 HD
HETATM   23  O   UNL     1      -9.550  -0.175 -32.527  1.00  0.00    -0.268 OA
BRANCH  21  24
HETATM   24  C   UNL     1     -11.826   1.220 -33.424  1.00  0.00     0.126 C 
BRANCH  24  25
HETATM   25  C   UNL     1     -12.553   1.297 -34.773  1.00  0.00    -0.005 C 
HETATM   26  C   UNL     1     -12.390   2.662 -35.443  1.00  0.00     0.011 C 
HETATM   27  C   UNL     1     -14.039   0.994 -34.576  1.00  0.00     0.011 C 
ENDBRANCH  24  25
ENDBRANCH  21  24
ENDBRANCH   1  20
TORSDOF 5
ENDMDL
MODEL 8
REMARK VINA RESULT:      -6.8      7.012      9.802
REMARK  5 active torsions:
REMARK  status: ('A' for Active; 'I' for Inactive)
REMARK    1  A    between atoms: C_2  and  C_3 
REMARK    2  A    between atoms: C_3  and  N_4 
REMARK       I    between atoms: N_4  and  C_5 
REMARK    3  A    between atoms: C_5  and  C_6 
REMARK    4  A    between atoms: C_10  and  N_11 
REMARK       I    between atoms: N_11  and  C_12 
REMARK       I    between atoms: C_12  and  N_13 
REMARK    5  A    between atoms: N_13  and  C_14 
ROOT
HETATM    1  C   UNL     1      -5.469   3.101 -32.343  1.00  0.00     0.053 A 
HETATM    2  C   UNL     1      -5.478   4.363 -31.736  1.00  0.00     0.051 A 
HETATM    3 CL   UNL     1      -6.926   5.265 -31.439  1.00  0.00    -0.083 Cl
HETATM    4  C   UNL     1      -4.279   4.941 -31.290  1.00  0.00     0.054 A 
HETATM    5  C   UNL     1      -3.061   4.272 -31.441  1.00  0.00     0.038 A 
HETATM    6  C   UNL     1      -3.053   3.009 -32.035  1.00  0.00     0.030 A 
HETATM    7  C   UNL     1      -4.244   2.427 -32.479  1.00  0.00     0.021 A 
ENDROOT
BRANCH   5   8
HETATM    8  N   UNL     1      -1.829   4.776 -30.980  1.00  0.00    -0.309 N 
HETATM    9  C   UNL     1      -0.848   5.383 -31.718  1.00  0.00     0.325 C 
HETATM   10  N   UNL     1       0.170   5.968 -31.013  1.00  0.00    -0.306 N 
HETATM   11  O   UNL     1      -0.787   5.396 -32.945  1.00  0.00    -0.247 OA
HETATM   12  H   UNL     1       0.949   6.239 -31.601  1.00  0.00     0.171 HD
HETATM   13  H   UNL     1      -1.542   4.487 -30.056  1.00  0.00     0.170 HD
BRANCH  10  14
HETATM   14  C   UNL     1       0.218   6.377 -29.695  1.00  0.00     0.072 A 
HETATM   15  C   UNL     1       0.595   5.729 -28.498  1.00  0.00     0.169 A 
HETATM   16  N   UNL     1       0.487   6.522 -27.428  1.00  0.00    -0.185 NA
HETATM   17  N   UNL     1      -0.006   7.665 -27.931  1.00  0.00    -0.287 N 
HETATM   18  H   UNL     1      -0.194   8.431 -27.291  1.00  0.00     0.188 HD
HETATM   19  C   UNL     1      -0.194   7.624 -29.282  1.00  0.00     0.140 A 
ENDBRANCH  10  14
ENDBRANCH   5   8
BRANCH   1  20
HETATM   20  C   UNL     1      -6.675   2.370 -32.824  1.00  0.00     0.253 C 
HETATM   21  N   UNL     1      -6.951   1.149 -32.251  1.00  0.00    -0.356 N 
HETATM   22  H   UNL     1      -6.224   0.722 -31.690  1.00  0.00     0.162 HD
HETATM   23  O   UNL     1      -7.388   2.892 -33.677  1.00  0.00    -0.268 OA
BRANCH  21  24
HETATM   24  C   UNL     1      -7.978   0.282 -32.799  1.00  0.00     0.126 C 
BRANCH  24  25
HETATM   25  C   UNL     1      -7.419  -0.765 -33.772  1.00  0.00    -0.005 C 
HETATM   26  C   UNL     1      -5.974  -1.147 -33.444  1.00  0.00     0.011 C 
HETATM   27  C   UNL     1      -7.498  -0.233 -35.204  1.00  0.00     0.011 C 
ENDBRANCH  24  25
ENDBRANCH  21  24
ENDBRANCH   1  20
TORSDOF 5
ENDMDL
MODEL 9
REMARK VINA RESULT:      -6.8      1.924      8.541
REMARK  5 active torsions:
REMARK  status: ('A' for Active; 'I' for Inactive)
REMARK    1  A    between atoms: C_2  and  C_3 
REMARK    2  A    between atoms: C_3  and  N_4 
REMARK       I    between atoms: N_4  and  C_5 
REMARK    3  A    between atoms: C_5  and  C_6 
REMARK    4  A    between atoms: C_10  and  N_11 
REMARK       I    between atoms: N_11  and  C_12 
REMARK       I    between atoms: C_12  and  N_13 
REMARK    5  A    between atoms: N_13  and  C_14 
ROOT
HETATM    1  C   UNL     1      -9.312   1.828 -33.181  1.00  0.00     0.053 A 
HETATM    2  C   UNL     1      -8.119   2.329 -33.716  1.00  0.00     0.051 A 
HETATM    3 CL   UNL     1      -7.819   4.017 -33.958  1.00  0.00    -0.083 Cl
HETATM    4  C   UNL     1      -7.070   1.454 -34.044  1.00  0.00     0.054 A 
HETATM    5  C   UNL     1      -7.195   0.077 -33.842  1.00  0.00     0.038 A 
HETATM    6  C   UNL     1      -8.381  -0.421 -33.298  1.00  0.00     0.030 A 
HETATM    7  C   UNL     1      -9.427   0.445 -32.968  1.00  0.00     0.021 A 
ENDROOT
BRANCH   5   8
HETATM    8  N   UNL     1      -6.169  -0.850 -34.111  1.00  0.00    -0.309 N 
HETATM    9  C   UNL     1      -4.889  -0.841 -33.621  1.00  0.00     0.325 C 
HETATM   10  N   UNL     1      -4.137  -1.959 -33.867  1.00  0.00    -0.306 N 
HETATM   11  O   UNL     1      -4.359   0.099 -33.035  1.00  0.00    -0.247 OA
HETATM   12  H   UNL     1      -3.157  -1.828 -33.646  1.00  0.00     0.171 HD
HETATM   13  H   UNL     1      -6.315  -1.469 -34.895  1.00  0.00     0.170 HD
BRANCH  10  14
HETATM   14  C   UNL     1      -4.530  -3.239 -34.202  1.00  0.00     0.072 A 
HETATM   15  C   UNL     1      -5.661  -3.756 -34.873  1.00  0.00     0.169 A 
HETATM   16  N   UNL     1      -5.630  -5.087 -34.982  1.00  0.00    -0.185 NA
HETATM   17  N   UNL     1      -4.503  -5.430 -34.337  1.00  0.00    -0.287 N 
HETATM   18  H   UNL     1      -4.269  -6.416 -34.269  1.00  0.00     0.188 HD
HETATM   19  C   UNL     1      -3.816  -4.360 -33.843  1.00  0.00     0.140 A 
ENDBRANCH  10  14
ENDBRANCH   5   8
BRANCH   1  20
HETATM   20  C   UNL     1     -10.479   2.654 -32.763  1.00  0.00     0.253 C 
HETATM   21  N   UNL     1     -11.666   2.469 -33.437  1.00  0.00    -0.356 N 
HETATM   22  H   UNL     1     -11.634   1.941 -34.300  1.00  0.00     0.162 HD
HETATM   23  O   UNL     1     -10.353   3.434 -31.823  1.00  0.00    -0.268 OA
BRANCH  21  24
HETATM   24  C   UNL     1     -12.787   3.368 -33.237  1.00  0.00     0.126 C 
BRANCH  24  25
HETATM   25  C   UNL     1     -13.763   2.875 -32.161  1.00  0.00    -0.005 C 
HETATM   26  C   UNL     1     -14.951   2.118 -32.759  1.00  0.00     0.011 C 
HETATM   27  C   UNL     1     -14.270   4.063 -31.341  1.00  0.00     0.011 C 
ENDBRANCH  24  25
ENDBRANCH  21  24
ENDBRANCH   1  20
TORSDOF 5
ENDMDL
MODEL 10
REMARK VINA RESULT:      -6.7      6.820      8.806
REMARK  5 active torsions:
REMARK  status: ('A' for Active; 'I' for Inactive)
REMARK    1  A    between atoms: C_2  and  C_3 
REMARK    2  A    between atoms: C_3  and  N_4 
REMARK       I    between atoms: N_4  and  C_5 
REMARK    3  A    between atoms: C_5  and  C_6 
REMARK    4  A    between atoms: C_10  and  N_11 
REMARK       I    between atoms: N_11  and  C_12 
REMARK       I    between atoms: C_12  and  N_13 
REMARK    5  A    between atoms: N_13  and  C_14 
ROOT
HETATM    1  C   UNL     1      -3.101   5.507 -31.062  1.00  0.00     0.053 A 
HETATM    2  C   UNL     1      -2.408   4.764 -32.025  1.00  0.00     0.051 A 
HETATM    3 CL   UNL     1      -0.780   5.111 -32.505  1.00  0.00    -0.083 Cl
HETATM    4  C   UNL     1      -3.010   3.645 -32.622  1.00  0.00     0.054 A 
HETATM    5  C   UNL     1      -4.304   3.254 -32.269  1.00  0.00     0.038 A 
HETATM    6  C   UNL     1      -4.992   3.988 -31.300  1.00  0.00     0.030 A 
HETATM    7  C   UNL     1      -4.396   5.102 -30.700  1.00  0.00     0.021 A 
ENDROOT
BRANCH   5   8
HETATM    8  N   UNL     1      -4.952   2.120 -32.798  1.00  0.00    -0.309 N 
HETATM    9  C   UNL     1      -4.953   0.848 -32.290  1.00  0.00     0.325 C 
HETATM   10  N   UNL     1      -5.819  -0.039 -32.872  1.00  0.00    -0.306 N 
HETATM   11  O   UNL     1      -4.210   0.437 -31.402  1.00  0.00    -0.247 OA
HETATM   12  H   UNL     1      -5.652  -0.996 -32.585  1.00  0.00     0.171 HD
HETATM   13  H   UNL     1      -5.280   2.193 -33.750  1.00  0.00     0.170 HD
BRANCH  10  14
HETATM   14  C   UNL     1      -6.948   0.191 -33.634  1.00  0.00     0.072 A 
HETATM   15  C   UNL     1      -8.262   0.596 -33.311  1.00  0.00     0.169 A 
HETATM   16  N   UNL     1      -9.047   0.697 -34.387  1.00  0.00    -0.185 NA
HETATM   17  N   UNL     1      -8.251   0.309 -35.396  1.00  0.00    -0.287 N 
HETATM   18  H   UNL     1      -8.640   0.285 -36.334  1.00  0.00     0.188 HD
HETATM   19  C   UNL     1      -6.988  -0.014 -34.995  1.00  0.00     0.140 A 
ENDBRANCH  10  14
ENDBRANCH   5   8
BRANCH   1  20
HETATM   20  C   UNL     1      -2.558   6.689 -30.334  1.00  0.00     0.253 C 
HETATM   21  N   UNL     1      -1.602   6.459 -29.370  1.00  0.00    -0.356 N 
HETATM   22  H   UNL     1      -1.468   5.503 -29.065  1.00  0.00     0.162 HD
HETATM   23  O   UNL     1      -2.951   7.811 -30.640  1.00  0.00    -0.268 OA
BRANCH  21  24
HETATM   24  C   UNL     1      -1.173   7.519 -28.476  1.00  0.00     0.126 C 
BRANCH  24  25
HETATM   25  C   UNL     1       0.185   7.234 -27.821  1.00  0.00    -0.005 C 
HETATM   26  C   UNL     1       1.205   8.342 -28.096  1.00  0.00     0.011 C 
HETATM   27  C   UNL     1       0.731   5.896 -28.323  1.00  0.00     0.011 C 
ENDBRANCH  24  25
ENDBRANCH  21  24
ENDBRANCH   1  20
TORSDOF 5
ENDMDL
