MODEL 1
REMARK VINA RESULT:      -8.8      0.000      0.000
REMARK  10 active torsions:
REMARK  status: ('A' for Active; 'I' for Inactive)
REMARK    1  A    between atoms: C_2  and  C_3 
REMARK    2  A    between atoms: C_3  and  C_4 
REMARK    3  A    between atoms: N_7  and  C_9 
REMARK    4  A    between atoms: C_9  and  C_10 
REMARK    5  A    between atoms: C_12  and  O_13 
REMARK    6  A    between atoms: O_13  and  C_14 
REMARK    7  A    between atoms: C_16  and  O_17 
REMARK    8  A    between atoms: N_25  and  C_26 
REMARK    9  A    between atoms: C_26  and  C_27 
REMARK   10  A    between atoms: C_27  and  C_28 
ROOT
HETATM    1  C   UNL     1      -6.946   1.623 -31.398  1.00  0.00     0.026 C 
HETATM    2  C   UNL     1      -5.658   2.421 -31.095  1.00  0.00     0.035 C 
HETATM    3  C   UNL     1      -4.370   1.760 -31.570  1.00  0.00     0.235 C 
HETATM    4  N   UNL     1      -4.265   0.357 -31.025  1.00  0.00    -0.067 N 
HETATM    5  H   UNL     1      -4.150   0.448 -30.007  1.00  0.00     0.280 HD
HETATM    6  C   UNL     1      -5.487  -0.490 -31.284  1.00  0.00     0.235 C 
HETATM    7  C   UNL     1      -6.756   0.208 -30.821  1.00  0.00     0.035 C 
ENDROOT
BRANCH   1   8
HETATM    8  C   UNL     1      -7.453   1.696 -32.887  1.00  0.00     0.119 A 
HETATM    9  N   UNL     1      -7.058   2.916 -33.546  1.00  0.00    -0.324 N 
HETATM   10  C   UNL     1      -8.133   3.735 -33.820  1.00  0.00     0.326 A 
HETATM   11  H   UNL     1      -6.201   3.073 -34.064  1.00  0.00     0.165 HD
HETATM   12  O   UNL     1      -7.996   4.843 -34.306  1.00  0.00    -0.247 OA
HETATM   13  N   UNL     1      -9.271   3.125 -33.400  1.00  0.00    -0.268 N 
HETATM   14  C   UNL     1      -8.986   1.897 -32.865  1.00  0.00     0.256 A 
HETATM   15  O   UNL     1      -9.781   1.113 -32.368  1.00  0.00    -0.270 OA
BRANCH   8  16
HETATM   16  C   UNL     1      -7.075   0.452 -33.713  1.00  0.00     0.037 C 
HETATM   17  C   UNL     1      -7.554   0.471 -35.164  1.00  0.00     0.008 C 
ENDBRANCH   8  16
BRANCH  13  18
HETATM   18  C   UNL     1     -10.581   3.756 -33.345  1.00  0.00     0.142 C 
BRANCH  18  19
HETATM   19  C   UNL     1     -11.624   3.113 -34.262  1.00  0.00     0.068 C 
BRANCH  19  20
HETATM   20  C   UNL     1     -12.891   2.837 -33.511  1.00  0.00     0.010 A 
HETATM   21  S   UNL     1     -13.638   4.070 -32.573  1.00  0.00    -0.085 SA
HETATM   22  C   UNL     1     -14.851   2.959 -32.103  1.00  0.00     0.166 A 
HETATM   23  N   UNL     1     -14.743   1.747 -32.597  1.00  0.00    -0.258 NA
HETATM   24  C   UNL     1     -13.630   1.667 -33.418  1.00  0.00     0.044 A 
HETATM   25  C   UNL     1     -13.344   0.371 -34.089  1.00  0.00     0.071 C 
ENDBRANCH  19  20
ENDBRANCH  18  19
ENDBRANCH  13  18
ENDBRANCH   1   8
BRANCH   4  26
HETATM   26  C   UNL     1      -3.026  -0.376 -31.528  1.00  0.00     0.273 C 
BRANCH  26  27
HETATM   27  C   UNL     1      -3.275  -1.698 -32.200  1.00  0.00    -0.030 A 
HETATM   28  C   UNL     1      -3.988  -1.739 -33.417  1.00  0.00     0.048 A 
HETATM   29  C   UNL     1      -4.237  -2.954 -34.057  1.00  0.00     0.102 A 
HETATM   30  C   UNL     1      -3.735  -4.126 -33.489  1.00  0.00     0.099 A 
HETATM   31  C   UNL     1      -3.036  -4.110 -32.288  1.00  0.00     0.040 A 
HETATM   32  C   UNL     1      -2.816  -2.898 -31.633  1.00  0.00     0.012 A 
BRANCH  29  33
HETATM   33  O   UNL     1      -4.927  -3.119 -35.228  1.00  0.00    -0.349 OA
BRANCH  33  34
HETATM   34  C   UNL     1      -6.350  -3.002 -35.157  1.00  0.00     0.171 C 
HETATM   35  C   UNL     1      -6.941  -4.400 -35.194  1.00  0.00     0.034 C 
ENDBRANCH  33  34
ENDBRANCH  29  33
BRANCH  30  36
HETATM   36  O   UNL     1      -3.934  -5.332 -34.099  1.00  0.00    -0.358 OA
HETATM   37  H   UNL     1      -4.896  -5.501 -34.052  1.00  0.00     0.218 HD
ENDBRANCH  30  36
ENDBRANCH  26  27
ENDBRANCH   4  26
TORSDOF 10
ENDMDL
MODEL 2
REMARK VINA RESULT:      -8.6      2.999      5.881
REMARK  10 active torsions:
REMARK  status: ('A' for Active; 'I' for Inactive)
REMARK    1  A    between atoms: C_2  and  C_3 
REMARK    2  A    between atoms: C_3  and  C_4 
REMARK    3  A    between atoms: N_7  and  C_9 
REMARK    4  A    between atoms: C_9  and  C_10 
REMARK    5  A    between atoms: C_12  and  O_13 
REMARK    6  A    between atoms: O_13  and  C_14 
REMARK    7  A    between atoms: C_16  and  O_17 
REMARK    8  A    between atoms: N_25  and  C_26 
REMARK    9  A    between atoms: C_26  and  C_27 
REMARK   10  A    between atoms: C_27  and  C_28 
ROOT
HETATM    1  C   UNL     1      -9.202   1.858 -32.243  1.00  0.00     0.026 C 
HETATM    2  C   UNL     1      -7.883   1.247 -31.720  1.00  0.00     0.035 C 
HETATM    3  C   UNL     1      -6.930   0.760 -32.805  1.00  0.00     0.235 C 
HETATM    4  N   UNL     1      -7.631  -0.205 -33.729  1.00  0.00    -0.067 N 
HETATM    5  H   UNL     1      -7.840  -1.043 -33.171  1.00  0.00     0.280 HD
HETATM    6  C   UNL     1      -8.932   0.321 -34.285  1.00  0.00     0.235 C 
HETATM    7  C   UNL     1      -9.849   0.822 -33.180  1.00  0.00     0.035 C 
ENDROOT
BRANCH   1   8
HETATM    8  C   UNL     1      -9.092   3.323 -32.810  1.00  0.00     0.119 A 
HETATM    9  N   UNL     1      -8.061   3.451 -33.811  1.00  0.00    -0.324 N 
HETATM   10  C   UNL     1      -7.008   4.230 -33.380  1.00  0.00     0.326 A 
HETATM   11  H   UNL     1      -8.167   3.311 -34.809  1.00  0.00     0.165 HD
HETATM   12  O   UNL     1      -6.008   4.396 -34.053  1.00  0.00    -0.247 OA
HETATM   13  N   UNL     1      -7.271   4.673 -32.124  1.00  0.00    -0.268 N 
HETATM   14  C   UNL     1      -8.495   4.224 -31.705  1.00  0.00     0.256 A 
HETATM   15  O   UNL     1      -9.011   4.416 -30.613  1.00  0.00    -0.270 OA
BRANCH   8  16
HETATM   16  C   UNL     1     -10.441   3.881 -33.303  1.00  0.00     0.037 C 
HETATM   17  C   UNL     1     -10.445   4.373 -34.750  1.00  0.00     0.008 C 
ENDBRANCH   8  16
BRANCH  13  18
HETATM   18  C   UNL     1      -6.316   5.361 -31.268  1.00  0.00     0.142 C 
BRANCH  18  19
HETATM   19  C   UNL     1      -5.330   4.430 -30.557  1.00  0.00     0.068 C 
BRANCH  19  20
HETATM   20  C   UNL     1      -3.953   4.584 -31.126  1.00  0.00     0.010 A 
HETATM   21  S   UNL     1      -3.109   6.075 -30.984  1.00  0.00    -0.085 SA
HETATM   22  C   UNL     1      -1.801   5.405 -31.860  1.00  0.00     0.166 A 
HETATM   23  N   UNL     1      -1.946   4.156 -32.242  1.00  0.00    -0.258 NA
HETATM   24  C   UNL     1      -3.170   3.669 -31.815  1.00  0.00     0.044 A 
HETATM   25  C   UNL     1      -3.515   2.259 -32.138  1.00  0.00     0.071 C 
ENDBRANCH  19  20
ENDBRANCH  18  19
ENDBRANCH  13  18
ENDBRANCH   1   8
BRANCH   4  26
HETATM   26  C   UNL     1      -6.741  -0.670 -34.876  1.00  0.00     0.273 C 
BRANCH  26  27
HETATM   27  C   UNL     1      -6.178  -2.059 -34.747  1.00  0.00    -0.030 A 
HETATM   28  C   UNL     1      -4.954  -2.256 -34.073  1.00  0.00     0.048 A 
HETATM   29  C   UNL     1      -4.409  -3.534 -33.945  1.00  0.00     0.102 A 
HETATM   30  C   UNL     1      -5.117  -4.620 -34.464  1.00  0.00     0.099 A 
HETATM   31  C   UNL     1      -6.320  -4.449 -35.136  1.00  0.00     0.040 A 
HETATM   32  C   UNL     1      -6.848  -3.167 -35.291  1.00  0.00     0.012 A 
BRANCH  29  33
HETATM   33  O   UNL     1      -3.227  -3.845 -33.329  1.00  0.00    -0.349 OA
BRANCH  33  34
HETATM   34  C   UNL     1      -3.126  -3.536 -31.937  1.00  0.00     0.171 C 
HETATM   35  C   UNL     1      -2.829  -2.054 -31.802  1.00  0.00     0.034 C 
ENDBRANCH  33  34
ENDBRANCH  29  33
BRANCH  30  36
HETATM   36  O   UNL     1      -4.630  -5.890 -34.334  1.00  0.00    -0.358 OA
HETATM   37  H   UNL     1      -4.659  -6.091 -33.377  1.00  0.00     0.218 HD
ENDBRANCH  30  36
ENDBRANCH  26  27
ENDBRANCH   4  26
TORSDOF 10
ENDMDL
MODEL 3
REMARK VINA RESULT:      -8.5      3.566      6.492
REMARK  10 active torsions:
REMARK  status: ('A' for Active; 'I' for Inactive)
REMARK    1  A    between atoms: C_2  and  C_3 
REMARK    2  A    between atoms: C_3  and  C_4 
REMARK    3  A    between atoms: N_7  and  C_9 
REMARK    4  A    between atoms: C_9  and  C_10 
REMARK    5  A    between atoms: C_12  and  O_13 
REMARK    6  A    between atoms: O_13  and  C_14 
REMARK    7  A    between atoms: C_16  and  O_17 
REMARK    8  A    between atoms: N_25  and  C_26 
REMARK    9  A    between atoms: C_26  and  C_27 
REMARK   10  A    between atoms: C_27  and  C_28 
ROOT
HETATM    1  C   UNL     1      -7.634   2.347 -31.273  1.00  0.00     0.026 C 
HETATM    2  C   UNL     1      -6.173   1.879 -31.463  1.00  0.00     0.035 C 
HETATM    3  C   UNL     1      -5.869   1.271 -32.827  1.00  0.00     0.235 C 
HETATM    4  N   UNL     1      -6.829   0.149 -33.131  1.00  0.00    -0.067 N 
HETATM    5  H   UNL     1      -6.621  -0.602 -32.460  1.00  0.00     0.280 HD
HETATM    6  C   UNL     1      -8.281   0.529 -32.971  1.00  0.00     0.235 C 
HETATM    7  C   UNL     1      -8.546   1.153 -31.610  1.00  0.00     0.035 C 
ENDROOT
BRANCH   1   8
HETATM    8  C   UNL     1      -8.003   3.711 -31.967  1.00  0.00     0.119 A 
HETATM    9  N   UNL     1      -7.525   3.786 -33.326  1.00  0.00    -0.324 N 
HETATM   10  C   UNL     1      -6.523   4.722 -33.477  1.00  0.00     0.326 A 
HETATM   11  H   UNL     1      -8.019   3.485 -34.158  1.00  0.00     0.165 HD
HETATM   12  O   UNL     1      -5.940   4.881 -34.534  1.00  0.00    -0.247 OA
HETATM   13  N   UNL     1      -6.296   5.324 -32.282  1.00  0.00    -0.268 N 
HETATM   14  C   UNL     1      -7.142   4.826 -31.327  1.00  0.00     0.256 A 
HETATM   15  O   UNL     1      -7.171   5.130 -30.144  1.00  0.00    -0.270 OA
BRANCH   8  16
HETATM   16  C   UNL     1      -9.502   4.051 -31.868  1.00  0.00     0.037 C 
HETATM   17  C   UNL     1     -10.103   3.915 -30.470  1.00  0.00     0.008 C 
ENDBRANCH   8  16
BRANCH  13  18
HETATM   18  C   UNL     1      -5.189   6.225 -32.002  1.00  0.00     0.142 C 
BRANCH  18  19
HETATM   19  C   UNL     1      -3.868   5.516 -31.690  1.00  0.00     0.068 C 
BRANCH  19  20
HETATM   20  C   UNL     1      -2.835   5.840 -32.726  1.00  0.00     0.010 A 
HETATM   21  S   UNL     1      -2.419   4.691 -33.935  1.00  0.00    -0.085 SA
HETATM   22  C   UNL     1      -1.268   5.790 -34.564  1.00  0.00     0.166 A 
HETATM   23  N   UNL     1      -1.178   6.944 -33.945  1.00  0.00    -0.258 NA
HETATM   24  C   UNL     1      -2.082   6.992 -32.896  1.00  0.00     0.044 A 
HETATM   25  C   UNL     1      -2.144   8.233 -32.079  1.00  0.00     0.071 C 
ENDBRANCH  19  20
ENDBRANCH  18  19
ENDBRANCH  13  18
ENDBRANCH   1   8
BRANCH   4  26
HETATM   26  C   UNL     1      -6.613  -0.449 -34.518  1.00  0.00     0.273 C 
BRANCH  26  27
HETATM   27  C   UNL     1      -6.137  -1.875 -34.549  1.00  0.00    -0.030 A 
HETATM   28  C   UNL     1      -4.903  -2.213 -33.954  1.00  0.00     0.048 A 
HETATM   29  C   UNL     1      -4.438  -3.528 -33.975  1.00  0.00     0.102 A 
HETATM   30  C   UNL     1      -5.235  -4.511 -34.564  1.00  0.00     0.099 A 
HETATM   31  C   UNL     1      -6.450  -4.202 -35.161  1.00  0.00     0.040 A 
HETATM   32  C   UNL     1      -6.899  -2.880 -35.167  1.00  0.00     0.012 A 
BRANCH  29  33
HETATM   33  O   UNL     1      -3.255  -3.971 -33.447  1.00  0.00    -0.349 OA
BRANCH  33  34
HETATM   34  C   UNL     1      -3.102  -3.858 -32.030  1.00  0.00     0.171 C 
HETATM   35  C   UNL     1      -2.735  -2.420 -31.708  1.00  0.00     0.034 C 
ENDBRANCH  33  34
ENDBRANCH  29  33
BRANCH  30  36
HETATM   36  O   UNL     1      -4.828  -5.816 -34.580  1.00  0.00    -0.358 OA
HETATM   37  H   UNL     1      -4.098  -5.877 -33.931  1.00  0.00     0.218 HD
ENDBRANCH  30  36
ENDBRANCH  26  27
ENDBRANCH   4  26
TORSDOF 10
ENDMDL
MODEL 4
REMARK VINA RESULT:      -8.4      3.168      8.904
REMARK  10 active torsions:
REMARK  status: ('A' for Active; 'I' for Inactive)
REMARK    1  A    between atoms: C_2  and  C_3 
REMARK    2  A    between atoms: C_3  and  C_4 
REMARK    3  A    between atoms: N_7  and  C_9 
REMARK    4  A    between atoms: C_9  and  C_10 
REMARK    5  A    between atoms: C_12  and  O_13 
REMARK    6  A    between atoms: O_13  and  C_14 
REMARK    7  A    between atoms: C_16  and  O_17 
REMARK    8  A    between atoms: N_25  and  C_26 
REMARK    9  A    between atoms: C_26  and  C_27 
REMARK   10  A    between atoms: C_27  and  C_28 
ROOT
HETATM    1  C   UNL     1      -7.558   3.114 -32.012  1.00  0.00     0.026 C 
HETATM    2  C   UNL     1      -8.352   1.963 -31.355  1.00  0.00     0.035 C 
HETATM    3  C   UNL     1      -9.267   1.195 -32.302  1.00  0.00     0.235 C 
HETATM    4  N   UNL     1     -10.199   2.142 -33.018  1.00  0.00    -0.067 N 
HETATM    5  H   UNL     1     -10.829   2.526 -32.302  1.00  0.00     0.280 HD
HETATM    6  C   UNL     1      -9.497   3.296 -33.690  1.00  0.00     0.235 C 
HETATM    7  C   UNL     1      -8.574   4.025 -32.725  1.00  0.00     0.035 C 
ENDROOT
BRANCH   1   8
HETATM    8  C   UNL     1      -6.311   2.675 -32.867  1.00  0.00     0.119 A 
HETATM    9  N   UNL     1      -6.682   2.171 -34.166  1.00  0.00    -0.324 N 
HETATM   10  C   UNL     1      -6.435   0.820 -34.294  1.00  0.00     0.326 A 
HETATM   11  H   UNL     1      -6.794   2.713 -35.015  1.00  0.00     0.165 HD
HETATM   12  O   UNL     1      -6.749   0.197 -35.292  1.00  0.00    -0.247 OA
HETATM   13  N   UNL     1      -5.881   0.361 -33.143  1.00  0.00    -0.268 N 
HETATM   14  C   UNL     1      -5.730   1.383 -32.244  1.00  0.00     0.256 A 
HETATM   15  O   UNL     1      -5.296   1.298 -31.105  1.00  0.00    -0.270 OA
BRANCH   8  16
HETATM   16  C   UNL     1      -5.231   3.769 -32.964  1.00  0.00     0.037 C 
HETATM   17  C   UNL     1      -5.234   4.563 -34.270  1.00  0.00     0.008 C 
ENDBRANCH   8  16
BRANCH  13  18
HETATM   18  C   UNL     1      -5.658  -1.041 -32.829  1.00  0.00     0.142 C 
BRANCH  18  19
HETATM   19  C   UNL     1      -4.605  -1.720 -33.710  1.00  0.00     0.068 C 
BRANCH  19  20
HETATM   20  C   UNL     1      -5.127  -3.013 -34.258  1.00  0.00     0.010 A 
HETATM   21  S   UNL     1      -6.639  -3.070 -35.076  1.00  0.00    -0.085 SA
HETATM   22  C   UNL     1      -6.450  -4.758 -35.279  1.00  0.00     0.166 A 
HETATM   23  N   UNL     1      -5.346  -5.276 -34.791  1.00  0.00    -0.258 NA
HETATM   24  C   UNL     1      -4.571  -4.283 -34.214  1.00  0.00     0.044 A 
HETATM   25  C   UNL     1      -3.266  -4.670 -33.616  1.00  0.00     0.071 C 
ENDBRANCH  19  20
ENDBRANCH  18  19
ENDBRANCH  13  18
ENDBRANCH   1   8
BRANCH   4  26
HETATM   26  C   UNL     1     -11.090   1.432 -34.032  1.00  0.00     0.273 C 
BRANCH  26  27
HETATM   27  C   UNL     1     -12.571   1.532 -33.785  1.00  0.00    -0.030 A 
HETATM   28  C   UNL     1     -13.070   2.541 -32.934  1.00  0.00     0.048 A 
HETATM   29  C   UNL     1     -14.438   2.650 -32.686  1.00  0.00     0.102 A 
HETATM   30  C   UNL     1     -15.308   1.765 -33.324  1.00  0.00     0.099 A 
HETATM   31  C   UNL     1     -14.839   0.761 -34.161  1.00  0.00     0.040 A 
HETATM   32  C   UNL     1     -13.468   0.632 -34.383  1.00  0.00     0.012 A 
BRANCH  29  33
HETATM   33  O   UNL     1     -15.036   3.574 -31.871  1.00  0.00    -0.349 OA
BRANCH  33  34
HETATM   34  C   UNL     1     -14.501   4.900 -31.902  1.00  0.00     0.171 C 
HETATM   35  C   UNL     1     -15.104   5.679 -30.747  1.00  0.00     0.034 C 
ENDBRANCH  33  34
ENDBRANCH  29  33
BRANCH  30  36
HETATM   36  O   UNL     1     -16.658   1.858 -33.129  1.00  0.00    -0.358 OA
HETATM   37  H   UNL     1     -16.964   0.949 -32.939  1.00  0.00     0.218 HD
ENDBRANCH  30  36
ENDBRANCH  26  27
ENDBRANCH   4  26
TORSDOF 10
ENDMDL
MODEL 5
REMARK VINA RESULT:      -8.4      5.699      8.924
REMARK  10 active torsions:
REMARK  status: ('A' for Active; 'I' for Inactive)
REMARK    1  A    between atoms: C_2  and  C_3 
REMARK    2  A    between atoms: C_3  and  C_4 
REMARK    3  A    between atoms: N_7  and  C_9 
REMARK    4  A    between atoms: C_9  and  C_10 
REMARK    5  A    between atoms: C_12  and  O_13 
REMARK    6  A    between atoms: O_13  and  C_14 
REMARK    7  A    between atoms: C_16  and  O_17 
REMARK    8  A    between atoms: N_25  and  C_26 
REMARK    9  A    between atoms: C_26  and  C_27 
REMARK   10  A    between atoms: C_27  and  C_28 
ROOT
HETATM    1  C   UNL     1      -5.590   5.934 -32.082  1.00  0.00     0.026 C 
HETATM    2  C   UNL     1      -4.552   5.943 -33.226  1.00  0.00     0.035 C 
HETATM    3  C   UNL     1      -3.158   6.406 -32.821  1.00  0.00     0.235 C 
HETATM    4  N   UNL     1      -3.224   7.758 -32.155  1.00  0.00    -0.067 N 
HETATM    5  H   UNL     1      -3.519   8.425 -32.878  1.00  0.00     0.280 HD
HETATM    6  C   UNL     1      -4.217   7.830 -31.020  1.00  0.00     0.235 C 
HETATM    7  C   UNL     1      -5.590   7.338 -31.450  1.00  0.00     0.035 C 
ENDROOT
BRANCH   1   8
HETATM    8  C   UNL     1      -5.478   4.728 -31.075  1.00  0.00     0.119 A 
HETATM    9  N   UNL     1      -4.109   4.364 -30.801  1.00  0.00    -0.324 N 
HETATM   10  C   UNL     1      -3.785   3.126 -31.315  1.00  0.00     0.326 A 
HETATM   11  H   UNL     1      -3.519   4.741 -30.069  1.00  0.00     0.165 HD
HETATM   12  O   UNL     1      -2.656   2.675 -31.251  1.00  0.00    -0.247 OA
HETATM   13  N   UNL     1      -4.880   2.596 -31.918  1.00  0.00    -0.268 N 
HETATM   14  C   UNL     1      -5.947   3.447 -31.804  1.00  0.00     0.256 A 
HETATM   15  O   UNL     1      -7.066   3.283 -32.267  1.00  0.00    -0.270 OA
BRANCH   8  16
HETATM   16  C   UNL     1      -6.282   4.948 -29.780  1.00  0.00     0.037 C 
HETATM   17  C   UNL     1      -5.442   5.287 -28.549  1.00  0.00     0.008 C 
ENDBRANCH   8  16
BRANCH  13  18
HETATM   18  C   UNL     1      -4.878   1.394 -32.737  1.00  0.00     0.142 C 
BRANCH  18  19
HETATM   19  C   UNL     1      -5.301   0.127 -31.988  1.00  0.00     0.068 C 
BRANCH  19  20
HETATM   20  C   UNL     1      -5.057  -1.090 -32.827  1.00  0.00     0.010 A 
HETATM   21  S   UNL     1      -3.698  -2.101 -32.527  1.00  0.00    -0.085 SA
HETATM   22  C   UNL     1      -4.161  -3.091 -33.844  1.00  0.00     0.166 A 
HETATM   23  N   UNL     1      -5.250  -2.727 -34.481  1.00  0.00    -0.258 NA
HETATM   24  C   UNL     1      -5.782  -1.588 -33.899  1.00  0.00     0.044 A 
HETATM   25  C   UNL     1      -7.035  -1.027 -34.471  1.00  0.00     0.071 C 
ENDBRANCH  19  20
ENDBRANCH  18  19
ENDBRANCH  13  18
ENDBRANCH   1   8
BRANCH   4  26
HETATM   26  C   UNL     1      -1.861   8.237 -31.665  1.00  0.00     0.273 C 
BRANCH  26  27
HETATM   27  C   UNL     1      -1.017   7.206 -30.968  1.00  0.00    -0.030 A 
HETATM   28  C   UNL     1      -1.042   7.120 -29.559  1.00  0.00     0.048 A 
HETATM   29  C   UNL     1      -0.263   6.175 -28.890  1.00  0.00     0.102 A 
HETATM   30  C   UNL     1       0.514   5.292 -29.642  1.00  0.00     0.099 A 
HETATM   31  C   UNL     1       0.559   5.363 -31.028  1.00  0.00     0.040 A 
HETATM   32  C   UNL     1      -0.196   6.329 -31.695  1.00  0.00     0.012 A 
BRANCH  29  33
HETATM   33  O   UNL     1      -0.193   6.008 -27.533  1.00  0.00    -0.349 OA
BRANCH  33  34
HETATM   34  C   UNL     1      -0.019   7.190 -26.748  1.00  0.00     0.171 C 
HETATM   35  C   UNL     1       1.465   7.501 -26.684  1.00  0.00     0.034 C 
ENDBRANCH  33  34
ENDBRANCH  29  33
BRANCH  30  36
HETATM   36  O   UNL     1       1.269   4.335 -29.024  1.00  0.00    -0.358 OA
HETATM   37  H   UNL     1       0.954   4.301 -28.099  1.00  0.00     0.218 HD
ENDBRANCH  30  36
ENDBRANCH  26  27
ENDBRANCH   4  26
TORSDOF 10
ENDMDL
MODEL 6
REMARK VINA RESULT:      -8.4      4.422      7.532
REMARK  10 active torsions:
REMARK  status: ('A' for Active; 'I' for Inactive)
REMARK    1  A    between atoms: C_2  and  C_3 
REMARK    2  A    between atoms: C_3  and  C_4 
REMARK    3  A    between atoms: N_7  and  C_9 
REMARK    4  A    between atoms: C_9  and  C_10 
REMARK    5  A    between atoms: C_12  and  O_13 
REMARK    6  A    between atoms: O_13  and  C_14 
REMARK    7  A    between atoms: C_16  and  O_17 
REMARK    8  A    between atoms: N_25  and  C_26 
REMARK    9  A    between atoms: C_26  and  C_27 
REMARK   10  A    between atoms: C_27  and  C_28 
ROOT
HETATM    1  C   UNL     1      -6.231   4.636 -32.938  1.00  0.00     0.026 C 
HETATM    2  C   UNL     1      -7.418   4.362 -31.988  1.00  0.00     0.035 C 
HETATM    3  C   UNL     1      -7.622   2.896 -31.625  1.00  0.00     0.235 C 
HETATM    4  N   UNL     1      -7.736   2.055 -32.873  1.00  0.00    -0.067 N 
HETATM    5  H   UNL     1      -8.613   2.333 -33.332  1.00  0.00     0.280 HD
HETATM    6  C   UNL     1      -6.608   2.264 -33.853  1.00  0.00     0.235 C 
HETATM    7  C   UNL     1      -6.416   3.738 -34.175  1.00  0.00     0.035 C 
ENDROOT
BRANCH   1   8
HETATM    8  C   UNL     1      -4.806   4.599 -32.269  1.00  0.00     0.119 A 
HETATM    9  N   UNL     1      -4.861   4.794 -30.841  1.00  0.00    -0.324 N 
HETATM   10  C   UNL     1      -4.302   5.994 -30.455  1.00  0.00     0.326 A 
HETATM   11  H   UNL     1      -4.966   4.073 -30.137  1.00  0.00     0.165 HD
HETATM   12  O   UNL     1      -4.319   6.373 -29.298  1.00  0.00    -0.247 OA
HETATM   13  N   UNL     1      -3.834   6.638 -31.555  1.00  0.00    -0.268 N 
HETATM   14  C   UNL     1      -4.049   5.885 -32.678  1.00  0.00     0.256 A 
HETATM   15  O   UNL     1      -3.778   6.193 -33.829  1.00  0.00    -0.270 OA
BRANCH   8  16
HETATM   16  C   UNL     1      -3.996   3.344 -32.645  1.00  0.00     0.037 C 
HETATM   17  C   UNL     1      -3.226   2.704 -31.491  1.00  0.00     0.008 C 
ENDBRANCH   8  16
BRANCH  13  18
HETATM   18  C   UNL     1      -3.351   8.010 -31.572  1.00  0.00     0.142 C 
BRANCH  18  19
HETATM   19  C   UNL     1      -1.831   8.137 -31.701  1.00  0.00     0.068 C 
BRANCH  19  20
HETATM   20  C   UNL     1      -1.140   7.315 -30.656  1.00  0.00     0.010 A 
HETATM   21  S   UNL     1      -0.981   7.899 -29.047  1.00  0.00    -0.085 SA
HETATM   22  C   UNL     1      -0.123   6.479 -28.630  1.00  0.00     0.166 A 
HETATM   23  N   UNL     1       0.046   5.606 -29.596  1.00  0.00    -0.258 NA
HETATM   24  C   UNL     1      -0.545   6.066 -30.761  1.00  0.00     0.044 A 
HETATM   25  C   UNL     1      -0.474   5.206 -31.971  1.00  0.00     0.071 C 
ENDBRANCH  19  20
ENDBRANCH  18  19
ENDBRANCH  13  18
ENDBRANCH   1   8
BRANCH   4  26
HETATM   26  C   UNL     1      -7.870   0.567 -32.566  1.00  0.00     0.273 C 
BRANCH  26  27
HETATM   27  C   UNL     1      -6.581  -0.204 -32.488  1.00  0.00    -0.030 A 
HETATM   28  C   UNL     1      -6.263  -1.137 -33.498  1.00  0.00     0.048 A 
HETATM   29  C   UNL     1      -5.076  -1.868 -33.444  1.00  0.00     0.102 A 
HETATM   30  C   UNL     1      -4.190  -1.632 -32.391  1.00  0.00     0.099 A 
HETATM   31  C   UNL     1      -4.485  -0.723 -31.383  1.00  0.00     0.040 A 
HETATM   32  C   UNL     1      -5.688  -0.017 -31.421  1.00  0.00     0.012 A 
BRANCH  29  33
HETATM   33  O   UNL     1      -4.669  -2.808 -34.352  1.00  0.00    -0.349 OA
BRANCH  33  34
HETATM   34  C   UNL     1      -5.618  -3.190 -35.350  1.00  0.00     0.171 C 
HETATM   35  C   UNL     1      -6.187  -4.544 -34.966  1.00  0.00     0.034 C 
ENDBRANCH  33  34
ENDBRANCH  29  33
BRANCH  30  36
HETATM   36  O   UNL     1      -3.005  -2.308 -32.318  1.00  0.00    -0.358 OA
HETATM   37  H   UNL     1      -2.946  -2.835 -33.139  1.00  0.00     0.218 HD
ENDBRANCH  30  36
ENDBRANCH  26  27
ENDBRANCH   4  26
TORSDOF 10
ENDMDL
MODEL 7
REMARK VINA RESULT:      -8.3      3.275      8.175
REMARK  10 active torsions:
REMARK  status: ('A' for Active; 'I' for Inactive)
REMARK    1  A    between atoms: C_2  and  C_3 
REMARK    2  A    between atoms: C_3  and  C_4 
REMARK    3  A    between atoms: N_7  and  C_9 
REMARK    4  A    between atoms: C_9  and  C_10 
REMARK    5  A    between atoms: C_12  and  O_13 
REMARK    6  A    between atoms: O_13  and  C_14 
REMARK    7  A    between atoms: C_16  and  O_17 
REMARK    8  A    between atoms: N_25  and  C_26 
REMARK    9  A    between atoms: C_26  and  C_27 
REMARK   10  A    between atoms: C_27  and  C_28 
ROOT
HETATM    1  C   UNL     1      -7.316   1.924 -30.875  1.00  0.00     0.026 C 
HETATM    2  C   UNL     1      -8.552   1.088 -31.278  1.00  0.00     0.035 C 
HETATM    3  C   UNL     1      -9.670   1.880 -31.946  1.00  0.00     0.235 C 
HETATM    4  N   UNL     1     -10.078   3.048 -31.081  1.00  0.00    -0.067 N 
HETATM    5  H   UNL     1     -10.510   2.649 -30.238  1.00  0.00     0.280 HD
HETATM    6  C   UNL     1      -8.924   3.917 -30.647  1.00  0.00     0.235 C 
HETATM    7  C   UNL     1      -7.816   3.094 -30.008  1.00  0.00     0.035 C 
ENDROOT
BRANCH   1   8
HETATM    8  C   UNL     1      -6.346   2.309 -32.055  1.00  0.00     0.119 A 
HETATM    9  N   UNL     1      -7.004   2.294 -33.338  1.00  0.00    -0.324 N 
HETATM   10  C   UNL     1      -6.544   1.278 -34.150  1.00  0.00     0.326 A 
HETATM   11  H   UNL     1      -7.486   3.069 -33.779  1.00  0.00     0.165 HD
HETATM   12  O   UNL     1      -7.028   1.056 -35.244  1.00  0.00    -0.247 OA
HETATM   13  N   UNL     1      -5.572   0.594 -33.494  1.00  0.00    -0.268 N 
HETATM   14  C   UNL     1      -5.350   1.143 -32.259  1.00  0.00     0.256 A 
HETATM   15  O   UNL     1      -4.568   0.743 -31.410  1.00  0.00    -0.270 OA
BRANCH   8  16
HETATM   16  C   UNL     1      -5.597   3.632 -31.811  1.00  0.00     0.037 C 
HETATM   17  C   UNL     1      -5.873   4.729 -32.838  1.00  0.00     0.008 C 
ENDBRANCH   8  16
BRANCH  13  18
HETATM   18  C   UNL     1      -4.984  -0.656 -33.949  1.00  0.00     0.142 C 
BRANCH  18  19
HETATM   19  C   UNL     1      -5.983  -1.811 -34.066  1.00  0.00     0.068 C 
BRANCH  19  20
HETATM   20  C   UNL     1      -5.272  -3.130 -34.042  1.00  0.00     0.010 A 
HETATM   21  S   UNL     1      -3.828  -3.329 -33.130  1.00  0.00    -0.085 SA
HETATM   22  C   UNL     1      -3.722  -4.947 -33.676  1.00  0.00     0.166 A 
HETATM   23  N   UNL     1      -4.683  -5.347 -34.477  1.00  0.00    -0.258 NA
HETATM   24  C   UNL     1      -5.587  -4.318 -34.685  1.00  0.00     0.044 A 
HETATM   25  C   UNL     1      -6.761  -4.582 -35.557  1.00  0.00     0.071 C 
ENDBRANCH  19  20
ENDBRANCH  18  19
ENDBRANCH  13  18
ENDBRANCH   1   8
BRANCH   4  26
HETATM   26  C   UNL     1     -11.147   3.916 -31.736  1.00  0.00     0.273 C 
BRANCH  26  27
HETATM   27  C   UNL     1     -11.451   3.606 -33.177  1.00  0.00    -0.030 A 
HETATM   28  C   UNL     1     -12.423   2.633 -33.491  1.00  0.00     0.048 A 
HETATM   29  C   UNL     1     -12.718   2.324 -34.819  1.00  0.00     0.102 A 
HETATM   30  C   UNL     1     -12.059   3.022 -35.832  1.00  0.00     0.099 A 
HETATM   31  C   UNL     1     -11.094   3.980 -35.546  1.00  0.00     0.040 A 
HETATM   32  C   UNL     1     -10.777   4.264 -34.218  1.00  0.00     0.012 A 
BRANCH  29  33
HETATM   33  O   UNL     1     -13.626   1.392 -35.245  1.00  0.00    -0.349 OA
BRANCH  33  34
HETATM   34  C   UNL     1     -14.510   0.858 -34.257  1.00  0.00     0.171 C 
HETATM   35  C   UNL     1     -13.905  -0.429 -33.728  1.00  0.00     0.034 C 
ENDBRANCH  33  34
ENDBRANCH  29  33
BRANCH  30  36
HETATM   36  O   UNL     1     -12.340   2.769 -37.145  1.00  0.00    -0.358 OA
HETATM   37  H   UNL     1     -13.187   3.222 -37.330  1.00  0.00     0.218 HD
ENDBRANCH  30  36
ENDBRANCH  26  27
ENDBRANCH   4  26
TORSDOF 10
ENDMDL
MODEL 8
REMARK VINA RESULT:      -8.2      3.907      6.988
REMARK  10 active torsions:
REMARK  status: ('A' for Active; 'I' for Inactive)
REMARK    1  A    between atoms: C_2  and  C_3 
REMARK    2  A    between atoms: C_3  and  C_4 
REMARK    3  A    between atoms: N_7  and  C_9 
REMARK    4  A    between atoms: C_9  and  C_10 
REMARK    5  A    between atoms: C_12  and  O_13 
REMARK    6  A    between atoms: O_13  and  C_14 
REMARK    7  A    between atoms: C_16  and  O_17 
REMARK    8  A    between atoms: N_25  and  C_26 
REMARK    9  A    between atoms: C_26  and  C_27 
REMARK   10  A    between atoms: C_27  and  C_28 
ROOT
HETATM    1  C   UNL     1      -5.562   2.366 -30.411  1.00  0.00     0.026 C 
HETATM    2  C   UNL     1      -4.497   2.137 -31.506  1.00  0.00     0.035 C 
HETATM    3  C   UNL     1      -5.041   1.596 -32.823  1.00  0.00     0.235 C 
HETATM    4  N   UNL     1      -5.839   0.338 -32.588  1.00  0.00    -0.067 N 
HETATM    5  H   UNL     1      -5.171  -0.376 -32.270  1.00  0.00     0.280 HD
HETATM    6  C   UNL     1      -6.906   0.483 -31.530  1.00  0.00     0.235 C 
HETATM    7  C   UNL     1      -6.336   1.047 -30.238  1.00  0.00     0.035 C 
ENDROOT
BRANCH   1   8
HETATM    8  C   UNL     1      -6.443   3.661 -30.583  1.00  0.00     0.119 A 
HETATM    9  N   UNL     1      -6.597   4.043 -31.966  1.00  0.00    -0.324 N 
HETATM   10  C   UNL     1      -5.950   5.225 -32.257  1.00  0.00     0.326 A 
HETATM   11  H   UNL     1      -7.323   3.734 -32.601  1.00  0.00     0.165 HD
HETATM   12  O   UNL     1      -5.902   5.676 -33.387  1.00  0.00    -0.247 OA
HETATM   13  N   UNL     1      -5.368   5.701 -31.126  1.00  0.00    -0.268 N 
HETATM   14  C   UNL     1      -5.627   4.870 -30.069  1.00  0.00     0.256 A 
HETATM   15  O   UNL     1      -5.220   4.995 -28.923  1.00  0.00    -0.270 OA
BRANCH   8  16
HETATM   16  C   UNL     1      -7.799   3.568 -29.861  1.00  0.00     0.037 C 
HETATM   17  C   UNL     1      -9.017   3.868 -30.733  1.00  0.00     0.008 C 
ENDBRANCH   8  16
BRANCH  13  18
HETATM   18  C   UNL     1      -4.442   6.822 -31.077  1.00  0.00     0.142 C 
BRANCH  18  19
HETATM   19  C   UNL     1      -3.000   6.458 -31.442  1.00  0.00     0.068 C 
BRANCH  19  20
HETATM   20  C   UNL     1      -2.100   6.597 -30.252  1.00  0.00     0.010 A 
HETATM   21  S   UNL     1      -2.642   7.410 -28.837  1.00  0.00    -0.085 SA
HETATM   22  C   UNL     1      -1.113   7.147 -28.116  1.00  0.00     0.166 A 
HETATM   23  N   UNL     1      -0.237   6.496 -28.848  1.00  0.00    -0.258 NA
HETATM   24  C   UNL     1      -0.796   6.163 -30.071  1.00  0.00     0.044 A 
HETATM   25  C   UNL     1       0.039   5.404 -31.039  1.00  0.00     0.071 C 
ENDBRANCH  19  20
ENDBRANCH  18  19
ENDBRANCH  13  18
ENDBRANCH   1   8
BRANCH   4  26
HETATM   26  C   UNL     1      -6.466  -0.207 -33.867  1.00  0.00     0.273 C 
BRANCH  26  27
HETATM   27  C   UNL     1      -6.151  -1.642 -34.191  1.00  0.00    -0.030 A 
HETATM   28  C   UNL     1      -4.858  -2.146 -33.938  1.00  0.00     0.048 A 
HETATM   29  C   UNL     1      -4.541  -3.472 -34.235  1.00  0.00     0.102 A 
HETATM   30  C   UNL     1      -5.537  -4.301 -34.753  1.00  0.00     0.099 A 
HETATM   31  C   UNL     1      -6.815  -3.824 -35.016  1.00  0.00     0.040 A 
HETATM   32  C   UNL     1      -7.122  -2.489 -34.748  1.00  0.00     0.012 A 
BRANCH  29  33
HETATM   33  O   UNL     1      -3.322  -4.067 -34.049  1.00  0.00    -0.349 OA
BRANCH  33  34
HETATM   34  C   UNL     1      -3.065  -4.614 -32.754  1.00  0.00     0.171 C 
HETATM   35  C   UNL     1      -2.956  -3.464 -31.769  1.00  0.00     0.034 C 
ENDBRANCH  33  34
ENDBRANCH  29  33
BRANCH  30  36
HETATM   36  O   UNL     1      -5.274  -5.612 -35.031  1.00  0.00    -0.358 OA
HETATM   37  H   UNL     1      -6.105  -6.096 -34.852  1.00  0.00     0.218 HD
ENDBRANCH  30  36
ENDBRANCH  26  27
ENDBRANCH   4  26
TORSDOF 10
ENDMDL
MODEL 9
REMARK VINA RESULT:      -8.2      6.436      9.257
REMARK  10 active torsions:
REMARK  status: ('A' for Active; 'I' for Inactive)
REMARK    1  A    between atoms: C_2  and  C_3 
REMARK    2  A    between atoms: C_3  and  C_4 
REMARK    3  A    between atoms: N_7  and  C_9 
REMARK    4  A    between atoms: C_9  and  C_10 
REMARK    5  A    between atoms: C_12  and  O_13 
REMARK    6  A    between atoms: O_13  and  C_14 
REMARK    7  A    between atoms: C_16  and  O_17 
REMARK    8  A    between atoms: N_25  and  C_26 
REMARK    9  A    between atoms: C_26  and  C_27 
REMARK   10  A    between atoms: C_27  and  C_28 
ROOT
HETATM    1  C   UNL     1      -2.969   6.208 -32.454  1.00  0.00     0.026 C 
HETATM    2  C   UNL     1      -4.397   6.124 -31.872  1.00  0.00     0.035 C 
HETATM    3  C   UNL     1      -4.658   4.910 -30.989  1.00  0.00     0.235 C 
HETATM    4  N   UNL     1      -4.310   3.639 -31.724  1.00  0.00    -0.067 N 
HETATM    5  H   UNL     1      -4.987   3.552 -32.492  1.00  0.00     0.280 HD
HETATM    6  C   UNL     1      -2.924   3.641 -32.321  1.00  0.00     0.235 C 
HETATM    7  C   UNL     1      -2.688   4.877 -33.176  1.00  0.00     0.035 C 
ENDROOT
BRANCH   1   8
HETATM    8  C   UNL     1      -1.856   6.694 -31.451  1.00  0.00     0.119 A 
HETATM    9  N   UNL     1      -2.074   6.210 -30.109  1.00  0.00    -0.324 N 
HETATM   10  C   UNL     1      -2.397   7.225 -29.234  1.00  0.00     0.326 A 
HETATM   11  H   UNL     1      -1.734   5.340 -29.718  1.00  0.00     0.165 HD
HETATM   12  O   UNL     1      -2.690   7.009 -28.072  1.00  0.00    -0.247 OA
HETATM   13  N   UNL     1      -2.391   8.406 -29.904  1.00  0.00    -0.268 N 
HETATM   14  C   UNL     1      -2.048   8.210 -31.215  1.00  0.00     0.256 A 
HETATM   15  O   UNL     1      -1.985   9.061 -32.090  1.00  0.00    -0.270 OA
BRANCH   8  16
HETATM   16  C   UNL     1      -0.428   6.392 -31.943  1.00  0.00     0.037 C 
HETATM   17  C   UNL     1       0.676   6.660 -30.922  1.00  0.00     0.008 C 
ENDBRANCH   8  16
BRANCH  13  18
HETATM   18  C   UNL     1      -2.866   9.670 -29.364  1.00  0.00     0.142 C 
BRANCH  18  19
HETATM   19  C   UNL     1      -1.759  10.567 -28.803  1.00  0.00     0.068 C 
BRANCH  19  20
HETATM   20  C   UNL     1      -1.381  10.138 -27.418  1.00  0.00     0.010 A 
HETATM   21  S   UNL     1      -2.339  10.603 -26.067  1.00  0.00    -0.085 SA
HETATM   22  C   UNL     1      -1.246   9.792 -25.030  1.00  0.00     0.166 A 
HETATM   23  N   UNL     1      -0.230   9.200 -25.616  1.00  0.00    -0.258 NA
HETATM   24  C   UNL     1      -0.303   9.379 -26.988  1.00  0.00     0.044 A 
HETATM   25  C   UNL     1       0.755   8.765 -27.833  1.00  0.00     0.071 C 
ENDBRANCH  19  20
ENDBRANCH  18  19
ENDBRANCH  13  18
ENDBRANCH   1   8
BRANCH   4  26
HETATM   26  C   UNL     1      -4.485   2.395 -30.859  1.00  0.00     0.273 C 
BRANCH  26  27
HETATM   27  C   UNL     1      -4.344   1.077 -31.572  1.00  0.00    -0.030 A 
HETATM   28  C   UNL     1      -5.148   0.804 -32.699  1.00  0.00     0.048 A 
HETATM   29  C   UNL     1      -5.040  -0.413 -33.373  1.00  0.00     0.102 A 
HETATM   30  C   UNL     1      -4.094  -1.341 -32.934  1.00  0.00     0.099 A 
HETATM   31  C   UNL     1      -3.297  -1.096 -31.823  1.00  0.00     0.040 A 
HETATM   32  C   UNL     1      -3.429   0.109 -31.131  1.00  0.00     0.012 A 
BRANCH  29  33
HETATM   33  O   UNL     1      -5.773  -0.795 -34.464  1.00  0.00    -0.349 OA
BRANCH  33  34
HETATM   34  C   UNL     1      -7.192  -0.855 -34.295  1.00  0.00     0.171 C 
HETATM   35  C   UNL     1      -7.821   0.162 -35.230  1.00  0.00     0.034 C 
ENDBRANCH  33  34
ENDBRANCH  29  33
BRANCH  30  36
HETATM   36  O   UNL     1      -3.938  -2.532 -33.584  1.00  0.00    -0.358 OA
HETATM   37  H   UNL     1      -4.104  -3.226 -32.916  1.00  0.00     0.218 HD
ENDBRANCH  30  36
ENDBRANCH  26  27
ENDBRANCH   4  26
TORSDOF 10
ENDMDL
MODEL 10
REMARK VINA RESULT:      -8.2      5.657      8.924
REMARK  10 active torsions:
REMARK  status: ('A' for Active; 'I' for Inactive)
REMARK    1  A    between atoms: C_2  and  C_3 
REMARK    2  A    between atoms: C_3  and  C_4 
REMARK    3  A    between atoms: N_7  and  C_9 
REMARK    4  A    between atoms: C_9  and  C_10 
REMARK    5  A    between atoms: C_12  and  O_13 
REMARK    6  A    between atoms: O_13  and  C_14 
REMARK    7  A    between atoms: C_16  and  O_17 
REMARK    8  A    between atoms: N_25  and  C_26 
REMARK    9  A    between atoms: C_26  and  C_27 
REMARK   10  A    between atoms: C_27  and  C_28 
ROOT
HETATM    1  C   UNL     1      -4.044   6.594 -32.608  1.00  0.00     0.026 C 
HETATM    2  C   UNL     1      -4.445   6.521 -31.118  1.00  0.00     0.035 C 
HETATM    3  C   UNL     1      -4.542   5.110 -30.549  1.00  0.00     0.235 C 
HETATM    4  N   UNL     1      -5.468   4.266 -31.389  1.00  0.00    -0.067 N 
HETATM    5  H   UNL     1      -6.410   4.659 -31.269  1.00  0.00     0.280 HD
HETATM    6  C   UNL     1      -5.140   4.282 -32.862  1.00  0.00     0.235 C 
HETATM    7  C   UNL     1      -5.026   5.703 -33.392  1.00  0.00     0.035 C 
ENDROOT
BRANCH   1   8
HETATM    8  C   UNL     1      -2.516   6.363 -32.911  1.00  0.00     0.119 A 
HETATM    9  N   UNL     1      -1.993   5.193 -32.249  1.00  0.00    -0.324 N 
HETATM   10  C   UNL     1      -1.087   5.512 -31.260  1.00  0.00     0.326 A 
HETATM   11  H   UNL     1      -1.980   4.247 -32.613  1.00  0.00     0.165 HD
HETATM   12  O   UNL     1      -0.591   4.667 -30.538  1.00  0.00    -0.247 OA
HETATM   13  N   UNL     1      -0.935   6.861 -31.218  1.00  0.00    -0.268 N 
HETATM   14  C   UNL     1      -1.709   7.459 -32.177  1.00  0.00     0.256 A 
HETATM   15  O   UNL     1      -1.826   8.659 -32.380  1.00  0.00    -0.270 OA
BRANCH   8  16
HETATM   16  C   UNL     1      -2.194   6.360 -34.417  1.00  0.00     0.037 C 
HETATM   17  C   UNL     1      -1.701   5.023 -34.969  1.00  0.00     0.008 C 
ENDBRANCH   8  16
BRANCH  13  18
HETATM   18  C   UNL     1      -0.212   7.585 -30.185  1.00  0.00     0.142 C 
BRANCH  18  19
HETATM   19  C   UNL     1      -1.111   8.254 -29.142  1.00  0.00     0.068 C 
BRANCH  19  20
HETATM   20  C   UNL     1      -1.185   7.425 -27.896  1.00  0.00     0.010 A 
HETATM   21  S   UNL     1       0.155   6.468 -27.402  1.00  0.00    -0.085 SA
HETATM   22  C   UNL     1      -0.755   5.907 -26.066  1.00  0.00     0.166 A 
HETATM   23  N   UNL     1      -1.974   6.384 -25.961  1.00  0.00    -0.258 NA
HETATM   24  C   UNL     1      -2.230   7.267 -26.997  1.00  0.00     0.044 A 
HETATM   25  C   UNL     1      -3.560   7.929 -27.043  1.00  0.00     0.071 C 
ENDBRANCH  19  20
ENDBRANCH  18  19
ENDBRANCH  13  18
ENDBRANCH   1   8
BRANCH   4  26
HETATM   26  C   UNL     1      -5.546   2.822 -30.904  1.00  0.00     0.273 C 
BRANCH  26  27
HETATM   27  C   UNL     1      -6.720   2.026 -31.404  1.00  0.00    -0.030 A 
HETATM   28  C   UNL     1      -6.499   0.868 -32.180  1.00  0.00     0.048 A 
HETATM   29  C   UNL     1      -7.573   0.117 -32.659  1.00  0.00     0.102 A 
HETATM   30  C   UNL     1      -8.870   0.511 -32.326  1.00  0.00     0.099 A 
HETATM   31  C   UNL     1      -9.111   1.651 -31.569  1.00  0.00     0.040 A 
HETATM   32  C   UNL     1      -8.037   2.419 -31.117  1.00  0.00     0.012 A 
BRANCH  29  33
HETATM   33  O   UNL     1      -7.484  -1.011 -33.430  1.00  0.00    -0.349 OA
BRANCH  33  34
HETATM   34  C   UNL     1      -6.746  -0.898 -34.650  1.00  0.00     0.171 C 
HETATM   35  C   UNL     1      -7.301   0.279 -35.430  1.00  0.00     0.034 C 
ENDBRANCH  33  34
ENDBRANCH  29  33
BRANCH  30  36
HETATM   36  O   UNL     1      -9.946  -0.214 -32.752  1.00  0.00    -0.358 OA
HETATM   37  H   UNL     1      -9.614  -0.791 -33.468  1.00  0.00     0.218 HD
ENDBRANCH  30  36
ENDBRANCH  26  27
ENDBRANCH   4  26
TORSDOF 10
ENDMDL
