MODEL 1
REMARK VINA RESULT:      -8.3      0.000      0.000
REMARK  3 active torsions:
REMARK  status: ('A' for Active; 'I' for Inactive)
REMARK    1  A    between atoms: C_7  and  C_8 
REMARK    2  A    between atoms: C_17  and  C_18 
REMARK       I    between atoms: C_18  and  N_19 
REMARK    3  A    between atoms: N_19  and  C_20 
ROOT
HETATM    1  C   UNL     1      -7.099   2.331 -30.785  1.00  0.00     0.206 C 
HETATM    2  N   UNL     1      -6.833   3.589 -30.078  1.00  0.00    -0.084 N 
HETATM    3  C   UNL     1      -5.599   4.178 -30.002  1.00  0.00     0.725 A 
HETATM    4  N   UNL     1      -5.687   5.288 -29.317  1.00  0.00    -0.054 NA
HETATM    5  C   UNL     1      -7.011   5.319 -28.958  1.00  0.00     0.275 A 
HETATM    6  N   UNL     1      -7.753   4.289 -29.381  1.00  0.00    -0.149 NA
HETATM    7  N   UNL     1      -4.539   3.563 -30.562  1.00  0.00    -0.192 N 
HETATM    8  C   UNL     1      -4.595   2.262 -31.055  1.00  0.00     0.037 C 
HETATM    9  C   UNL     1      -3.261   1.613 -31.326  1.00  0.00     0.070 C 
HETATM   10  C   UNL     1      -5.798   1.648 -31.187  1.00  0.00     0.063 C 
HETATM   11  H   UNL     1      -3.618   3.960 -30.388  1.00  0.00     0.184 HD
ENDROOT
BRANCH  10  12
HETATM   12  C   UNL     1      -5.970   0.232 -31.610  1.00  0.00     0.256 C 
HETATM   13  N   UNL     1      -5.791   0.033 -32.961  1.00  0.00    -0.323 N 
HETATM   14  H   UNL     1      -5.622   0.853 -33.530  1.00  0.00     0.169 HD
HETATM   15  O   UNL     1      -6.272  -0.599 -30.763  1.00  0.00    -0.267 OA
BRANCH  13  16
HETATM   16  C   UNL     1      -5.776  -1.201 -33.647  1.00  0.00     0.035 A 
HETATM   17  C   UNL     1      -6.922  -1.854 -34.106  1.00  0.00     0.029 A 
HETATM   18  C   UNL     1      -6.823  -3.091 -34.751  1.00  0.00     0.002 A 
HETATM   19  C   UNL     1      -5.580  -3.689 -34.937  1.00  0.00     0.000 A 
HETATM   20  C   UNL     1      -4.431  -3.047 -34.484  1.00  0.00     0.002 A 
HETATM   21  C   UNL     1      -4.528  -1.806 -33.848  1.00  0.00     0.029 A 
ENDBRANCH  13  16
ENDBRANCH  10  12
BRANCH   1  22
HETATM   22  C   UNL     1      -7.970   2.607 -31.984  1.00  0.00     0.015 A 
HETATM   23  C   UNL     1      -8.982   1.825 -32.525  1.00  0.00     0.036 A 
HETATM   24  C   UNL     1      -9.512   0.498 -32.117  1.00  0.00     0.070 C 
HETATM   25  N   UNL     1      -9.492   2.547 -33.576  1.00  0.00    -0.278 N 
HETATM   26  C   UNL     1     -10.615   2.213 -34.422  1.00  0.00     0.179 C 
HETATM   27  N   UNL     1      -8.829   3.695 -33.805  1.00  0.00    -0.185 NA
HETATM   28  C   UNL     1      -7.934   3.749 -32.822  1.00  0.00     0.150 A 
ENDBRANCH   1  22
TORSDOF 3
ENDMDL
MODEL 2
REMARK VINA RESULT:      -8.1      2.059      4.322
REMARK  3 active torsions:
REMARK  status: ('A' for Active; 'I' for Inactive)
REMARK    1  A    between atoms: C_7  and  C_8 
REMARK    2  A    between atoms: C_17  and  C_18 
REMARK       I    between atoms: C_18  and  N_19 
REMARK    3  A    between atoms: N_19  and  C_20 
ROOT
HETATM    1  C   UNL     1      -7.685   2.892 -33.490  1.00  0.00     0.206 C 
HETATM    2  N   UNL     1      -8.639   3.888 -32.987  1.00  0.00    -0.084 N 
HETATM    3  C   UNL     1      -9.795   3.574 -32.325  1.00  0.00     0.725 A 
HETATM    4  N   UNL     1     -10.422   4.674 -31.998  1.00  0.00    -0.054 NA
HETATM    5  C   UNL     1      -9.614   5.651 -32.522  1.00  0.00     0.275 A 
HETATM    6  N   UNL     1      -8.519   5.222 -33.158  1.00  0.00    -0.149 NA
HETATM    7  N   UNL     1     -10.125   2.280 -32.150  1.00  0.00    -0.192 N 
HETATM    8  C   UNL     1      -9.445   1.237 -32.773  1.00  0.00     0.037 C 
HETATM    9  C   UNL     1     -10.144  -0.099 -32.748  1.00  0.00     0.070 C 
HETATM   10  C   UNL     1      -8.274   1.489 -33.410  1.00  0.00     0.063 C 
HETATM   11  H   UNL     1     -11.044   2.076 -31.762  1.00  0.00     0.184 HD
ENDROOT
BRANCH  10  12
HETATM   12  C   UNL     1      -7.513   0.475 -34.190  1.00  0.00     0.256 C 
HETATM   13  N   UNL     1      -6.973  -0.527 -33.415  1.00  0.00    -0.323 N 
HETATM   14  H   UNL     1      -7.092  -0.450 -32.412  1.00  0.00     0.169 HD
HETATM   15  O   UNL     1      -7.410   0.624 -35.401  1.00  0.00    -0.267 OA
BRANCH  13  16
HETATM   16  C   UNL     1      -6.300  -1.684 -33.863  1.00  0.00     0.035 A 
HETATM   17  C   UNL     1      -4.912  -1.835 -33.850  1.00  0.00     0.029 A 
HETATM   18  C   UNL     1      -4.320  -3.003 -34.343  1.00  0.00     0.002 A 
HETATM   19  C   UNL     1      -5.110  -4.027 -34.857  1.00  0.00     0.000 A 
HETATM   20  C   UNL     1      -6.495  -3.888 -34.874  1.00  0.00     0.002 A 
HETATM   21  C   UNL     1      -7.087  -2.725 -34.374  1.00  0.00     0.029 A 
ENDBRANCH  13  16
ENDBRANCH  10  12
BRANCH   1  22
HETATM   22  C   UNL     1      -6.400   2.995 -32.710  1.00  0.00     0.015 A 
HETATM   23  C   UNL     1      -5.252   3.716 -33.014  1.00  0.00     0.036 A 
HETATM   24  C   UNL     1      -4.925   4.584 -34.175  1.00  0.00     0.070 C 
HETATM   25  N   UNL     1      -4.393   3.514 -31.961  1.00  0.00    -0.278 N 
HETATM   26  C   UNL     1      -3.092   4.105 -31.750  1.00  0.00     0.179 C 
HETATM   27  N   UNL     1      -4.867   2.650 -31.046  1.00  0.00    -0.185 NA
HETATM   28  C   UNL     1      -6.093   2.365 -31.479  1.00  0.00     0.150 A 
ENDBRANCH   1  22
TORSDOF 3
ENDMDL
MODEL 3
REMARK VINA RESULT:      -7.9      2.957      6.113
REMARK  3 active torsions:
REMARK  status: ('A' for Active; 'I' for Inactive)
REMARK    1  A    between atoms: C_7  and  C_8 
REMARK    2  A    between atoms: C_17  and  C_18 
REMARK       I    between atoms: C_18  and  N_19 
REMARK    3  A    between atoms: N_19  and  C_20 
ROOT
HETATM    1  C   UNL     1      -5.749   1.819 -33.327  1.00  0.00     0.206 C 
HETATM    2  N   UNL     1      -6.156   0.528 -33.895  1.00  0.00    -0.084 N 
HETATM    3  C   UNL     1      -5.705  -0.682 -33.442  1.00  0.00     0.725 A 
HETATM    4  N   UNL     1      -6.256  -1.642 -34.140  1.00  0.00    -0.054 NA
HETATM    5  C   UNL     1      -7.022  -0.955 -35.047  1.00  0.00     0.275 A 
HETATM    6  N   UNL     1      -6.980   0.379 -34.954  1.00  0.00    -0.149 NA
HETATM    7  N   UNL     1      -4.797  -0.719 -32.448  1.00  0.00    -0.192 N 
HETATM    8  C   UNL     1      -4.147   0.419 -31.978  1.00  0.00     0.037 C 
HETATM    9  C   UNL     1      -2.933   0.165 -31.120  1.00  0.00     0.070 C 
HETATM   10  C   UNL     1      -4.581   1.645 -32.365  1.00  0.00     0.063 C 
HETATM   11  H   UNL     1      -4.390  -1.622 -32.213  1.00  0.00     0.184 HD
ENDROOT
BRANCH  10  12
HETATM   12  C   UNL     1      -3.906   2.922 -32.005  1.00  0.00     0.256 C 
HETATM   13  N   UNL     1      -3.005   3.356 -32.952  1.00  0.00    -0.323 N 
HETATM   14  H   UNL     1      -2.849   2.755 -33.751  1.00  0.00     0.169 HD
HETATM   15  O   UNL     1      -4.175   3.443 -30.930  1.00  0.00    -0.267 OA
BRANCH  13  16
HETATM   16  C   UNL     1      -2.294   4.576 -32.956  1.00  0.00     0.035 A 
HETATM   17  C   UNL     1      -1.299   4.904 -32.034  1.00  0.00     0.029 A 
HETATM   18  C   UNL     1      -0.663   6.148 -32.089  1.00  0.00     0.002 A 
HETATM   19  C   UNL     1      -1.020   7.077 -33.062  1.00  0.00     0.000 A 
HETATM   20  C   UNL     1      -2.011   6.761 -33.987  1.00  0.00     0.002 A 
HETATM   21  C   UNL     1      -2.640   5.514 -33.939  1.00  0.00     0.029 A 
ENDBRANCH  13  16
ENDBRANCH  10  12
BRANCH   1  22
HETATM   22  C   UNL     1      -6.932   2.460 -32.648  1.00  0.00     0.015 A 
HETATM   23  C   UNL     1      -7.439   3.743 -32.809  1.00  0.00     0.036 A 
HETATM   24  C   UNL     1      -6.990   4.869 -33.668  1.00  0.00     0.070 C 
HETATM   25  N   UNL     1      -8.548   3.811 -32.001  1.00  0.00    -0.278 N 
HETATM   26  C   UNL     1      -9.481   4.905 -31.863  1.00  0.00     0.179 C 
HETATM   27  N   UNL     1      -8.743   2.699 -31.268  1.00  0.00    -0.185 NA
HETATM   28  C   UNL     1      -7.789   1.870 -31.686  1.00  0.00     0.150 A 
ENDBRANCH   1  22
TORSDOF 3
ENDMDL
MODEL 4
REMARK VINA RESULT:      -7.8      1.919      2.086
REMARK  3 active torsions:
REMARK  status: ('A' for Active; 'I' for Inactive)
REMARK    1  A    between atoms: C_7  and  C_8 
REMARK    2  A    between atoms: C_17  and  C_18 
REMARK       I    between atoms: C_18  and  N_19 
REMARK    3  A    between atoms: N_19  and  C_20 
ROOT
HETATM    1  C   UNL     1      -8.285   2.533 -32.431  1.00  0.00     0.206 C 
HETATM    2  N   UNL     1      -8.374   3.523 -31.352  1.00  0.00    -0.084 N 
HETATM    3  C   UNL     1      -7.418   4.471 -31.103  1.00  0.00     0.725 A 
HETATM    4  N   UNL     1      -7.788   5.208 -30.088  1.00  0.00    -0.054 NA
HETATM    5  C   UNL     1      -8.982   4.641 -29.721  1.00  0.00     0.275 A 
HETATM    6  N   UNL     1      -9.377   3.590 -30.450  1.00  0.00    -0.149 NA
HETATM    7  N   UNL     1      -6.296   4.489 -31.849  1.00  0.00    -0.192 N 
HETATM    8  C   UNL     1      -5.969   3.473 -32.743  1.00  0.00     0.037 C 
HETATM    9  C   UNL     1      -4.542   3.474 -33.232  1.00  0.00     0.070 C 
HETATM   10  C   UNL     1      -6.895   2.531 -33.054  1.00  0.00     0.063 C 
HETATM   11  H   UNL     1      -5.553   5.123 -31.566  1.00  0.00     0.184 HD
ENDROOT
BRANCH  10  12
HETATM   12  C   UNL     1      -6.627   1.350 -33.918  1.00  0.00     0.256 C 
HETATM   13  N   UNL     1      -6.250   0.227 -33.217  1.00  0.00    -0.323 N 
HETATM   14  H   UNL     1      -6.138   0.324 -32.215  1.00  0.00     0.169 HD
HETATM   15  O   UNL     1      -6.731   1.477 -35.132  1.00  0.00    -0.267 OA
BRANCH  13  16
HETATM   16  C   UNL     1      -6.037  -1.070 -33.733  1.00  0.00     0.035 A 
HETATM   17  C   UNL     1      -7.058  -1.906 -34.191  1.00  0.00     0.029 A 
HETATM   18  C   UNL     1      -6.765  -3.191 -34.659  1.00  0.00     0.002 A 
HETATM   19  C   UNL     1      -5.452  -3.653 -34.669  1.00  0.00     0.000 A 
HETATM   20  C   UNL     1      -4.427  -2.828 -34.215  1.00  0.00     0.002 A 
HETATM   21  C   UNL     1      -4.717  -1.541 -33.755  1.00  0.00     0.029 A 
ENDBRANCH  13  16
ENDBRANCH  10  12
BRANCH   1  22
HETATM   22  C   UNL     1      -9.350   2.819 -33.459  1.00  0.00     0.015 A 
HETATM   23  C   UNL     1     -10.409   2.017 -33.863  1.00  0.00     0.036 A 
HETATM   24  C   UNL     1     -10.819   0.654 -33.435  1.00  0.00     0.070 C 
HETATM   25  N   UNL     1     -11.110   2.757 -34.784  1.00  0.00    -0.278 N 
HETATM   26  C   UNL     1     -12.343   2.409 -35.450  1.00  0.00     0.179 C 
HETATM   27  N   UNL     1     -10.533   3.940 -35.066  1.00  0.00    -0.185 NA
HETATM   28  C   UNL     1      -9.491   3.993 -34.239  1.00  0.00     0.150 A 
ENDBRANCH   1  22
TORSDOF 3
ENDMDL
MODEL 5
REMARK VINA RESULT:      -7.8      2.371      4.116
REMARK  3 active torsions:
REMARK  status: ('A' for Active; 'I' for Inactive)
REMARK    1  A    between atoms: C_7  and  C_8 
REMARK    2  A    between atoms: C_17  and  C_18 
REMARK       I    between atoms: C_18  and  N_19 
REMARK    3  A    between atoms: N_19  and  C_20 
ROOT
HETATM    1  C   UNL     1      -5.260   3.425 -32.191  1.00  0.00     0.206 C 
HETATM    2  N   UNL     1      -6.011   4.423 -31.421  1.00  0.00    -0.084 N 
HETATM    3  C   UNL     1      -6.383   4.260 -30.114  1.00  0.00     0.725 A 
HETATM    4  N   UNL     1      -7.028   5.322 -29.708  1.00  0.00    -0.054 NA
HETATM    5  C   UNL     1      -7.057   6.107 -30.832  1.00  0.00     0.275 A 
HETATM    6  N   UNL     1      -6.467   5.594 -31.917  1.00  0.00    -0.149 NA
HETATM    7  N   UNL     1      -6.095   3.103 -29.485  1.00  0.00    -0.192 N 
HETATM    8  C   UNL     1      -5.601   1.985 -30.153  1.00  0.00     0.037 C 
HETATM    9  C   UNL     1      -5.659   0.691 -29.379  1.00  0.00     0.070 C 
HETATM   10  C   UNL     1      -5.182   2.104 -31.438  1.00  0.00     0.063 C 
HETATM   11  H   UNL     1      -6.486   2.961 -28.557  1.00  0.00     0.184 HD
ENDROOT
BRANCH  10  12
HETATM   12  C   UNL     1      -4.729   0.961 -32.276  1.00  0.00     0.256 C 
HETATM   13  N   UNL     1      -5.699   0.003 -32.475  1.00  0.00    -0.323 N 
HETATM   14  H   UNL     1      -6.582   0.134 -31.998  1.00  0.00     0.169 HD
HETATM   15  O   UNL     1      -3.573   0.953 -32.680  1.00  0.00    -0.267 OA
BRANCH  13  16
HETATM   16  C   UNL     1      -5.617  -1.134 -33.307  1.00  0.00     0.035 A 
HETATM   17  C   UNL     1      -4.469  -1.917 -33.450  1.00  0.00     0.029 A 
HETATM   18  C   UNL     1      -4.461  -3.012 -34.320  1.00  0.00     0.002 A 
HETATM   19  C   UNL     1      -5.597  -3.330 -35.060  1.00  0.00     0.000 A 
HETATM   20  C   UNL     1      -6.747  -2.557 -34.925  1.00  0.00     0.002 A 
HETATM   21  C   UNL     1      -6.759  -1.468 -34.049  1.00  0.00     0.029 A 
ENDBRANCH  13  16
ENDBRANCH  10  12
BRANCH   1  22
HETATM   22  C   UNL     1      -3.887   3.965 -32.500  1.00  0.00     0.015 A 
HETATM   23  C   UNL     1      -3.448   4.633 -33.637  1.00  0.00     0.036 A 
HETATM   24  C   UNL     1      -4.165   5.013 -34.882  1.00  0.00     0.070 C 
HETATM   25  N   UNL     1      -2.134   4.952 -33.399  1.00  0.00    -0.278 N 
HETATM   26  C   UNL     1      -1.240   5.719 -34.237  1.00  0.00     0.179 C 
HETATM   27  N   UNL     1      -1.669   4.465 -32.235  1.00  0.00    -0.185 NA
HETATM   28  C   UNL     1      -2.737   3.901 -31.675  1.00  0.00     0.150 A 
ENDBRANCH   1  22
TORSDOF 3
ENDMDL
MODEL 6
REMARK VINA RESULT:      -7.8      1.620      4.696
REMARK  3 active torsions:
REMARK  status: ('A' for Active; 'I' for Inactive)
REMARK    1  A    between atoms: C_7  and  C_8 
REMARK    2  A    between atoms: C_17  and  C_18 
REMARK       I    between atoms: C_18  and  N_19 
REMARK    3  A    between atoms: N_19  and  C_20 
ROOT
HETATM    1  C   UNL     1      -8.415   3.227 -33.509  1.00  0.00     0.206 C 
HETATM    2  N   UNL     1      -9.308   4.213 -34.131  1.00  0.00    -0.084 N 
HETATM    3  C   UNL     1     -10.656   4.035 -34.281  1.00  0.00     0.725 A 
HETATM    4  N   UNL     1     -11.173   5.088 -34.859  1.00  0.00    -0.054 NA
HETATM    5  C   UNL     1     -10.077   5.883 -35.077  1.00  0.00     0.275 A 
HETATM    6  N   UNL     1      -8.904   5.383 -34.670  1.00  0.00    -0.149 NA
HETATM    7  N   UNL     1     -11.218   2.876 -33.885  1.00  0.00    -0.192 N 
HETATM    8  C   UNL     1     -10.468   1.768 -33.501  1.00  0.00     0.037 C 
HETATM    9  C   UNL     1     -11.228   0.467 -33.421  1.00  0.00     0.070 C 
HETATM   10  C   UNL     1      -9.133   1.900 -33.299  1.00  0.00     0.063 C 
HETATM   11  H   UNL     1     -12.197   2.723 -34.118  1.00  0.00     0.184 HD
ENDROOT
BRANCH  10  12
HETATM   12  C   UNL     1      -8.220   0.769 -32.982  1.00  0.00     0.256 C 
HETATM   13  N   UNL     1      -7.516   0.305 -34.071  1.00  0.00    -0.323 N 
HETATM   14  H   UNL     1      -7.723   0.727 -34.967  1.00  0.00     0.169 HD
HETATM   15  O   UNL     1      -8.193   0.342 -31.834  1.00  0.00    -0.267 OA
BRANCH  13  16
HETATM   16  C   UNL     1      -6.499  -0.674 -34.075  1.00  0.00     0.035 A 
HETATM   17  C   UNL     1      -5.214  -0.468 -33.569  1.00  0.00     0.029 A 
HETATM   18  C   UNL     1      -4.253  -1.482 -33.640  1.00  0.00     0.002 A 
HETATM   19  C   UNL     1      -4.566  -2.707 -34.221  1.00  0.00     0.000 A 
HETATM   20  C   UNL     1      -5.844  -2.924 -34.728  1.00  0.00     0.002 A 
HETATM   21  C   UNL     1      -6.808  -1.915 -34.650  1.00  0.00     0.029 A 
ENDBRANCH  13  16
ENDBRANCH  10  12
BRANCH   1  22
HETATM   22  C   UNL     1      -7.890   3.781 -32.209  1.00  0.00     0.015 A 
HETATM   23  C   UNL     1      -6.586   3.791 -31.729  1.00  0.00     0.036 A 
HETATM   24  C   UNL     1      -5.327   3.267 -32.318  1.00  0.00     0.070 C 
HETATM   25  N   UNL     1      -6.635   4.454 -30.527  1.00  0.00    -0.278 N 
HETATM   26  C   UNL     1      -5.534   4.802 -29.659  1.00  0.00     0.179 C 
HETATM   27  N   UNL     1      -7.883   4.794 -30.156  1.00  0.00    -0.185 NA
HETATM   28  C   UNL     1      -8.636   4.421 -31.188  1.00  0.00     0.150 A 
ENDBRANCH   1  22
TORSDOF 3
ENDMDL
MODEL 7
REMARK VINA RESULT:      -7.6      2.389      5.601
REMARK  3 active torsions:
REMARK  status: ('A' for Active; 'I' for Inactive)
REMARK    1  A    between atoms: C_7  and  C_8 
REMARK    2  A    between atoms: C_17  and  C_18 
REMARK       I    between atoms: C_18  and  N_19 
REMARK    3  A    between atoms: N_19  and  C_20 
ROOT
HETATM    1  C   UNL     1      -7.177   2.952 -33.489  1.00  0.00     0.206 C 
HETATM    2  N   UNL     1      -6.170   4.013 -33.607  1.00  0.00    -0.084 N 
HETATM    3  C   UNL     1      -5.910   4.933 -32.627  1.00  0.00     0.725 A 
HETATM    4  N   UNL     1      -4.958   5.736 -33.024  1.00  0.00    -0.054 NA
HETATM    5  C   UNL     1      -4.687   5.282 -34.290  1.00  0.00     0.275 A 
HETATM    6  N   UNL     1      -5.418   4.241 -34.705  1.00  0.00    -0.149 NA
HETATM    7  N   UNL     1      -6.639   4.915 -31.494  1.00  0.00    -0.192 N 
HETATM    8  C   UNL     1      -7.775   4.125 -31.341  1.00  0.00     0.037 C 
HETATM    9  C   UNL     1      -8.655   4.475 -30.167  1.00  0.00     0.070 C 
HETATM   10  C   UNL     1      -8.057   3.171 -32.265  1.00  0.00     0.063 C 
HETATM   11  H   UNL     1      -6.507   5.679 -30.836  1.00  0.00     0.184 HD
ENDROOT
BRANCH  10  12
HETATM   12  C   UNL     1      -9.290   2.338 -32.255  1.00  0.00     0.256 C 
HETATM   13  N   UNL     1     -10.333   2.887 -32.968  1.00  0.00    -0.323 N 
HETATM   14  H   UNL     1     -10.185   3.805 -33.369  1.00  0.00     0.169 HD
HETATM   15  O   UNL     1      -9.285   1.293 -31.619  1.00  0.00    -0.267 OA
BRANCH  13  16
HETATM   16  C   UNL     1     -11.585   2.296 -33.239  1.00  0.00     0.035 A 
HETATM   17  C   UNL     1     -11.746   1.080 -33.908  1.00  0.00     0.029 A 
HETATM   18  C   UNL     1     -13.026   0.577 -34.166  1.00  0.00     0.002 A 
HETATM   19  C   UNL     1     -14.154   1.286 -33.762  1.00  0.00     0.000 A 
HETATM   20  C   UNL     1     -14.005   2.498 -33.094  1.00  0.00     0.002 A 
HETATM   21  C   UNL     1     -12.727   2.997 -32.829  1.00  0.00     0.029 A 
ENDBRANCH  13  16
ENDBRANCH  10  12
BRANCH   1  22
HETATM   22  C   UNL     1      -6.487   1.613 -33.439  1.00  0.00     0.015 A 
HETATM   23  C   UNL     1      -6.750   0.469 -34.181  1.00  0.00     0.036 A 
HETATM   24  C   UNL     1      -7.771   0.197 -35.226  1.00  0.00     0.070 C 
HETATM   25  N   UNL     1      -5.810  -0.454 -33.792  1.00  0.00    -0.278 N 
HETATM   26  C   UNL     1      -5.599  -1.783 -34.317  1.00  0.00     0.179 C 
HETATM   27  N   UNL     1      -5.019  -0.020 -32.794  1.00  0.00    -0.185 NA
HETATM   28  C   UNL     1      -5.402   1.241 -32.607  1.00  0.00     0.150 A 
ENDBRANCH   1  22
TORSDOF 3
ENDMDL
MODEL 8
REMARK VINA RESULT:      -7.5      2.111      5.399
REMARK  3 active torsions:
REMARK  status: ('A' for Active; 'I' for Inactive)
REMARK    1  A    between atoms: C_7  and  C_8 
REMARK    2  A    between atoms: C_17  and  C_18 
REMARK       I    between atoms: C_18  and  N_19 
REMARK    3  A    between atoms: N_19  and  C_20 
ROOT
HETATM    1  C   UNL     1      -6.283   1.103 -31.873  1.00  0.00     0.206 C 
HETATM    2  N   UNL     1      -4.921   0.566 -31.784  1.00  0.00    -0.084 N 
HETATM    3  C   UNL     1      -4.460  -0.478 -32.539  1.00  0.00     0.725 A 
HETATM    4  N   UNL     1      -3.209  -0.716 -32.239  1.00  0.00    -0.054 NA
HETATM    5  C   UNL     1      -2.955   0.203 -31.252  1.00  0.00     0.275 A 
HETATM    6  N   UNL     1      -3.978   0.999 -30.920  1.00  0.00    -0.149 NA
HETATM    7  N   UNL     1      -5.299  -1.099 -33.391  1.00  0.00    -0.192 N 
HETATM    8  C   UNL     1      -6.670  -0.856 -33.409  1.00  0.00     0.037 C 
HETATM    9  C   UNL     1      -7.497  -1.864 -34.167  1.00  0.00     0.070 C 
HETATM   10  C   UNL     1      -7.173   0.192 -32.709  1.00  0.00     0.063 C 
HETATM   11  H   UNL     1      -4.966  -1.944 -33.849  1.00  0.00     0.184 HD
ENDROOT
BRANCH  10  12
HETATM   12  C   UNL     1      -8.626   0.488 -32.578  1.00  0.00     0.256 C 
HETATM   13  N   UNL     1      -9.204   0.939 -33.744  1.00  0.00    -0.323 N 
HETATM   14  H   UNL     1      -8.593   1.078 -34.539  1.00  0.00     0.169 HD
HETATM   15  O   UNL     1      -9.157   0.340 -31.486  1.00  0.00    -0.267 OA
BRANCH  13  16
HETATM   16  C   UNL     1     -10.573   1.196 -33.973  1.00  0.00     0.035 A 
HETATM   17  C   UNL     1     -11.606   0.346 -33.569  1.00  0.00     0.029 A 
HETATM   18  C   UNL     1     -12.937   0.660 -33.863  1.00  0.00     0.002 A 
HETATM   19  C   UNL     1     -13.248   1.820 -34.566  1.00  0.00     0.000 A 
HETATM   20  C   UNL     1     -12.226   2.675 -34.972  1.00  0.00     0.002 A 
HETATM   21  C   UNL     1     -10.896   2.367 -34.672  1.00  0.00     0.029 A 
ENDBRANCH  13  16
ENDBRANCH  10  12
BRANCH   1  22
HETATM   22  C   UNL     1      -6.233   2.497 -32.443  1.00  0.00     0.015 A 
HETATM   23  C   UNL     1      -6.290   3.715 -31.776  1.00  0.00     0.036 A 
HETATM   24  C   UNL     1      -6.425   4.028 -30.330  1.00  0.00     0.070 C 
HETATM   25  N   UNL     1      -6.155   4.679 -32.744  1.00  0.00    -0.278 N 
HETATM   26  C   UNL     1      -6.071   6.110 -32.567  1.00  0.00     0.179 C 
HETATM   27  N   UNL     1      -6.102   4.178 -33.992  1.00  0.00    -0.185 NA
HETATM   28  C   UNL     1      -6.112   2.860 -33.808  1.00  0.00     0.150 A 
ENDBRANCH   1  22
TORSDOF 3
ENDMDL
MODEL 9
REMARK VINA RESULT:      -7.2      2.206      4.190
REMARK  3 active torsions:
REMARK  status: ('A' for Active; 'I' for Inactive)
REMARK    1  A    between atoms: C_7  and  C_8 
REMARK    2  A    between atoms: C_17  and  C_18 
REMARK       I    between atoms: C_18  and  N_19 
REMARK    3  A    between atoms: N_19  and  C_20 
ROOT
HETATM    1  C   UNL     1      -6.596   2.709 -33.781  1.00  0.00     0.206 C 
HETATM    2  N   UNL     1      -7.206   4.014 -33.500  1.00  0.00    -0.084 N 
HETATM    3  C   UNL     1      -8.555   4.225 -33.415  1.00  0.00     0.725 A 
HETATM    4  N   UNL     1      -8.784   5.484 -33.145  1.00  0.00    -0.054 NA
HETATM    5  C   UNL     1      -7.522   6.020 -33.108  1.00  0.00     0.275 A 
HETATM    6  N   UNL     1      -6.519   5.166 -33.341  1.00  0.00    -0.149 NA
HETATM    7  N   UNL     1      -9.400   3.200 -33.645  1.00  0.00    -0.192 N 
HETATM    8  C   UNL     1      -8.977   1.974 -34.151  1.00  0.00     0.037 C 
HETATM    9  C   UNL     1     -10.072   1.073 -34.666  1.00  0.00     0.070 C 
HETATM   10  C   UNL     1      -7.650   1.700 -34.218  1.00  0.00     0.063 C 
HETATM   11  H   UNL     1     -10.394   3.411 -33.694  1.00  0.00     0.184 HD
ENDROOT
BRANCH  10  12
HETATM   12  C   UNL     1      -7.083   0.466 -34.827  1.00  0.00     0.256 C 
HETATM   13  N   UNL     1      -6.681  -0.472 -33.902  1.00  0.00    -0.323 N 
HETATM   14  H   UNL     1      -6.754  -0.218 -32.925  1.00  0.00     0.169 HD
HETATM   15  O   UNL     1      -6.997   0.401 -36.047  1.00  0.00    -0.267 OA
BRANCH  13  16
HETATM   16  C   UNL     1      -6.211  -1.778 -34.161  1.00  0.00     0.035 A 
HETATM   17  C   UNL     1      -4.867  -2.153 -34.092  1.00  0.00     0.029 A 
HETATM   18  C   UNL     1      -4.480  -3.463 -34.394  1.00  0.00     0.002 A 
HETATM   19  C   UNL     1      -5.431  -4.407 -34.772  1.00  0.00     0.000 A 
HETATM   20  C   UNL     1      -6.773  -4.044 -34.843  1.00  0.00     0.002 A 
HETATM   21  C   UNL     1      -7.162  -2.738 -34.533  1.00  0.00     0.029 A 
ENDBRANCH  13  16
ENDBRANCH  10  12
BRANCH   1  22
HETATM   22  C   UNL     1      -5.851   2.234 -32.560  1.00  0.00     0.015 A 
HETATM   23  C   UNL     1      -6.360   1.798 -31.343  1.00  0.00     0.036 A 
HETATM   24  C   UNL     1      -7.760   1.671 -30.861  1.00  0.00     0.070 C 
HETATM   25  N   UNL     1      -5.271   1.433 -30.590  1.00  0.00    -0.278 N 
HETATM   26  C   UNL     1      -5.259   0.841 -29.273  1.00  0.00     0.179 C 
HETATM   27  N   UNL     1      -4.097   1.683 -31.197  1.00  0.00    -0.185 NA
HETATM   28  C   UNL     1      -4.447   2.131 -32.401  1.00  0.00     0.150 A 
ENDBRANCH   1  22
TORSDOF 3
ENDMDL
MODEL 10
REMARK VINA RESULT:      -7.1      2.052      5.228
REMARK  3 active torsions:
REMARK  status: ('A' for Active; 'I' for Inactive)
REMARK    1  A    between atoms: C_7  and  C_8 
REMARK    2  A    between atoms: C_17  and  C_18 
REMARK       I    between atoms: C_18  and  N_19 
REMARK    3  A    between atoms: N_19  and  C_20 
ROOT
HETATM    1  C   UNL     1      -4.729   3.166 -32.198  1.00  0.00     0.206 C 
HETATM    2  N   UNL     1      -3.590   4.085 -32.318  1.00  0.00    -0.084 N 
HETATM    3  C   UNL     1      -3.281   5.044 -31.392  1.00  0.00     0.725 A 
HETATM    4  N   UNL     1      -2.211   5.691 -31.774  1.00  0.00    -0.054 NA
HETATM    5  C   UNL     1      -1.916   5.104 -32.978  1.00  0.00     0.275 A 
HETATM    6  N   UNL     1      -2.744   4.127 -33.369  1.00  0.00    -0.149 NA
HETATM    7  N   UNL     1      -4.081   5.209 -30.320  1.00  0.00    -0.192 N 
HETATM    8  C   UNL     1      -5.315   4.578 -30.196  1.00  0.00     0.037 C 
HETATM    9  C   UNL     1      -6.220   5.128 -29.121  1.00  0.00     0.070 C 
HETATM   10  C   UNL     1      -5.653   3.592 -31.064  1.00  0.00     0.063 C 
HETATM   11  H   UNL     1      -3.897   6.005 -29.713  1.00  0.00     0.184 HD
ENDROOT
BRANCH  10  12
HETATM   12  C   UNL     1      -6.979   2.917 -31.087  1.00  0.00     0.256 C 
HETATM   13  N   UNL     1      -7.624   3.008 -32.300  1.00  0.00    -0.323 N 
HETATM   14  H   UNL     1      -7.175   3.557 -33.022  1.00  0.00     0.169 HD
HETATM   15  O   UNL     1      -7.383   2.385 -30.061  1.00  0.00    -0.267 OA
BRANCH  13  16
HETATM   16  C   UNL     1      -8.835   2.383 -32.671  1.00  0.00     0.035 A 
HETATM   17  C   UNL     1      -8.990   1.003 -32.813  1.00  0.00     0.029 A 
HETATM   18  C   UNL     1     -10.217   0.465 -33.215  1.00  0.00     0.002 A 
HETATM   19  C   UNL     1     -11.296   1.301 -33.485  1.00  0.00     0.000 A 
HETATM   20  C   UNL     1     -11.153   2.679 -33.346  1.00  0.00     0.002 A 
HETATM   21  C   UNL     1      -9.930   3.217 -32.935  1.00  0.00     0.029 A 
ENDBRANCH  13  16
ENDBRANCH  10  12
BRANCH   1  22
HETATM   22  C   UNL     1      -4.218   1.763 -31.995  1.00  0.00     0.015 A 
HETATM   23  C   UNL     1      -4.627   0.588 -32.615  1.00  0.00     0.036 A 
HETATM   24  C   UNL     1      -5.674   0.340 -33.639  1.00  0.00     0.070 C 
HETATM   25  N   UNL     1      -3.815  -0.401 -32.115  1.00  0.00    -0.278 N 
HETATM   26  C   UNL     1      -3.778  -1.794 -32.493  1.00  0.00     0.179 C 
HETATM   27  N   UNL     1      -2.974   0.033 -31.159  1.00  0.00    -0.185 NA
HETATM   28  C   UNL     1      -3.191   1.346 -31.112  1.00  0.00     0.150 A 
ENDBRANCH   1  22
TORSDOF 3
ENDMDL
