MODEL 1
REMARK VINA RESULT:      -9.4      0.000      0.000
REMARK  8 active torsions:
REMARK  status: ('A' for Active; 'I' for Inactive)
REMARK    1  A    between atoms: C_2  and  O_3 
REMARK    2  A    between atoms: O_3  and  C_4 
REMARK    3  A    between atoms: C_5  and  C_6 
REMARK    4  A    between atoms: C_6  and  N_7 
REMARK    5  A    between atoms: C_23  and  C_24 
REMARK    6  A    between atoms: N_25  and  N_26 
REMARK       I    between atoms: N_26  and  C_27 
REMARK    7  A    between atoms: C_27  and  C_28 
REMARK    8  A    between atoms: C_32  and  C_33 
ROOT
HETATM    1  C   UNL     1      -5.311  -1.046 -33.462  1.00  0.00     0.076 A 
HETATM    2  C   UNL     1      -5.681   0.313 -33.517  1.00  0.00     0.002 A 
HETATM    3  C   UNL     1      -4.967   1.224 -32.729  1.00  0.00     0.024 A 
HETATM    4  C   UNL     1      -3.867   0.819 -31.960  1.00  0.00    -0.016 A 
HETATM    5  C   UNL     1      -3.504  -0.521 -31.913  1.00  0.00     0.016 A 
HETATM    6  C   UNL     1      -4.235  -1.453 -32.659  1.00  0.00     0.038 A 
ENDROOT
BRANCH   2   7
HETATM    7  C   UNL     1      -6.860   0.732 -34.369  1.00  0.00     0.276 C 
BRANCH   7   8
HETATM    8  N   UNL     1      -8.247   0.277 -33.911  1.00  0.00    -0.066 N 
HETATM    9  H   UNL     1      -8.273  -0.705 -34.210  1.00  0.00     0.280 HD
HETATM   10  C   UNL     1      -8.459   0.230 -32.404  1.00  0.00     0.246 C 
HETATM   11  C   UNL     1      -9.101   1.505 -31.824  1.00  0.00     0.062 C 
HETATM   12  C   UNL     1     -10.388   1.823 -32.571  1.00  0.00     0.020 C 
HETATM   13  C   UNL     1      -8.147   2.680 -31.865  1.00  0.00     0.020 A 
HETATM   14  C   UNL     1     -10.013   2.127 -34.012  1.00  0.00     0.031 C 
HETATM   15  C   UNL     1      -9.128   3.376 -34.059  1.00  0.00     0.138 C 
HETATM   16  C   UNL     1      -9.383   0.902 -34.681  1.00  0.00     0.241 C 
HETATM   17  N   UNL     1      -8.138   3.508 -32.991  1.00  0.00    -0.317 N 
HETATM   18  C   UNL     1      -7.258   4.593 -33.113  1.00  0.00     0.247 A 
HETATM   19  O   UNL     1      -7.206   5.324 -34.098  1.00  0.00    -0.268 OA
HETATM   20  C   UNL     1      -6.338   4.829 -31.974  1.00  0.00     0.074 A 
HETATM   21  C   UNL     1      -6.381   4.030 -30.903  1.00  0.00     0.007 A 
HETATM   22  C   UNL     1      -7.305   2.928 -30.847  1.00  0.00     0.026 A 
ENDBRANCH   7   8
ENDBRANCH   2   7
BRANCH   1  23
HETATM   23  O   UNL     1      -6.078  -1.883 -34.228  1.00  0.00    -0.351 OA
BRANCH  23  24
HETATM   24  C   UNL     1      -5.463  -3.063 -34.752  1.00  0.00     0.171 C 
HETATM   25  C   UNL     1      -6.559  -4.082 -35.003  1.00  0.00     0.034 C 
ENDBRANCH  23  24
ENDBRANCH   1  23
BRANCH   4  26
HETATM   26  C   UNL     1      -3.087   1.853 -31.248  1.00  0.00     0.150 C 
HETATM   27  N   UNL     1      -3.017   3.032 -31.773  1.00  0.00    -0.184 NA
BRANCH  27  28
HETATM   28  N   UNL     1      -2.283   3.965 -31.124  1.00  0.00    -0.242 N 
HETATM   29  C   UNL     1      -1.545   4.888 -31.852  1.00  0.00     0.292 C 
HETATM   30  O   UNL     1      -1.498   4.928 -33.082  1.00  0.00    -0.264 OA
HETATM   31  H   UNL     1      -2.238   4.022 -30.107  1.00  0.00     0.192 HD
BRANCH  29  32
HETATM   32  C   UNL     1      -0.811   5.827 -30.994  1.00  0.00     0.148 A 
HETATM   33  N   UNL     1       0.382   6.344 -31.350  1.00  0.00    -0.169 NA
HETATM   34  N   UNL     1       0.709   7.146 -30.319  1.00  0.00    -0.281 N 
HETATM   35  H   UNL     1       1.583   7.662 -30.371  1.00  0.00     0.189 HD
HETATM   36  C   UNL     1      -0.212   7.157 -29.301  1.00  0.00     0.038 A 
HETATM   37  C   UNL     1      -1.217   6.314 -29.729  1.00  0.00     0.066 A 
BRANCH  36  38
HETATM   38  C   UNL     1      -0.054   7.993 -28.048  1.00  0.00    -0.007 C 
HETATM   39  C   UNL     1      -0.427   7.143 -26.821  1.00  0.00     0.021 C 
HETATM   40  C   UNL     1       1.404   8.471 -27.893  1.00  0.00     0.021 C 
HETATM   41  C   UNL     1      -0.956   9.241 -28.096  1.00  0.00     0.021 C 
ENDBRANCH  36  38
ENDBRANCH  29  32
ENDBRANCH  27  28
ENDBRANCH   4  26
TORSDOF 8
ENDMDL
MODEL 2
REMARK VINA RESULT:      -8.4      2.027      4.535
REMARK  8 active torsions:
REMARK  status: ('A' for Active; 'I' for Inactive)
REMARK    1  A    between atoms: C_2  and  O_3 
REMARK    2  A    between atoms: O_3  and  C_4 
REMARK    3  A    between atoms: C_5  and  C_6 
REMARK    4  A    between atoms: C_6  and  N_7 
REMARK    5  A    between atoms: C_23  and  C_24 
REMARK    6  A    between atoms: N_25  and  N_26 
REMARK       I    between atoms: N_26  and  C_27 
REMARK    7  A    between atoms: C_27  and  C_28 
REMARK    8  A    between atoms: C_32  and  C_33 
ROOT
HETATM    1  C   UNL     1      -9.641   3.739 -30.895  1.00  0.00     0.076 A 
HETATM    2  C   UNL     1      -8.479   2.940 -30.891  1.00  0.00     0.002 A 
HETATM    3  C   UNL     1      -7.275   3.528 -30.483  1.00  0.00     0.024 A 
HETATM    4  C   UNL     1      -7.228   4.850 -30.022  1.00  0.00    -0.016 A 
HETATM    5  C   UNL     1      -8.376   5.631 -30.024  1.00  0.00     0.016 A 
HETATM    6  C   UNL     1      -9.580   5.075 -30.470  1.00  0.00     0.038 A 
ENDROOT
BRANCH   2   7
HETATM    7  C   UNL     1      -8.557   1.508 -31.376  1.00  0.00     0.276 C 
BRANCH   7   8
HETATM    8  N   UNL     1      -8.891   1.290 -32.853  1.00  0.00    -0.066 N 
HETATM    9  H   UNL     1      -9.899   1.481 -32.886  1.00  0.00     0.280 HD
HETATM   10  C   UNL     1      -8.273   2.290 -33.821  1.00  0.00     0.246 C 
HETATM   11  C   UNL     1      -6.945   1.818 -34.443  1.00  0.00     0.062 C 
HETATM   12  C   UNL     1      -7.128   0.447 -35.078  1.00  0.00     0.020 C 
HETATM   13  C   UNL     1      -5.826   1.795 -33.422  1.00  0.00     0.020 A 
HETATM   14  C   UNL     1      -7.472  -0.528 -33.963  1.00  0.00     0.031 C 
HETATM   15  C   UNL     1      -6.298  -0.622 -32.985  1.00  0.00     0.138 C 
HETATM   16  C   UNL     1      -8.797  -0.148 -33.297  1.00  0.00     0.241 C 
HETATM   17  N   UNL     1      -5.600   0.628 -32.689  1.00  0.00    -0.317 N 
HETATM   18  C   UNL     1      -4.605   0.547 -31.703  1.00  0.00     0.247 A 
HETATM   19  O   UNL     1      -4.397  -0.454 -31.023  1.00  0.00    -0.268 OA
HETATM   20  C   UNL     1      -3.790   1.766 -31.485  1.00  0.00     0.074 A 
HETATM   21  C   UNL     1      -4.019   2.863 -32.213  1.00  0.00     0.007 A 
HETATM   22  C   UNL     1      -5.063   2.880 -33.204  1.00  0.00     0.026 A 
ENDBRANCH   7   8
ENDBRANCH   2   7
BRANCH   1  23
HETATM   23  O   UNL     1     -10.771   3.109 -31.342  1.00  0.00    -0.351 OA
BRANCH  23  24
HETATM   24  C   UNL     1     -11.582   3.791 -32.302  1.00  0.00     0.171 C 
HETATM   25  C   UNL     1     -12.206   2.743 -33.206  1.00  0.00     0.034 C 
ENDBRANCH  23  24
ENDBRANCH   1  23
BRANCH   4  26
HETATM   26  C   UNL     1      -5.946   5.365 -29.494  1.00  0.00     0.150 C 
HETATM   27  N   UNL     1      -4.974   5.546 -30.325  1.00  0.00    -0.184 NA
BRANCH  27  28
HETATM   28  N   UNL     1      -3.800   5.999 -29.828  1.00  0.00    -0.242 N 
HETATM   29  C   UNL     1      -2.778   6.357 -30.696  1.00  0.00     0.292 C 
HETATM   30  O   UNL     1      -2.851   6.292 -31.923  1.00  0.00    -0.264 OA
HETATM   31  H   UNL     1      -3.621   6.086 -28.828  1.00  0.00     0.192 HD
BRANCH  29  32
HETATM   32  C   UNL     1      -1.577   6.827 -29.993  1.00  0.00     0.148 A 
HETATM   33  N   UNL     1      -0.343   6.718 -30.524  1.00  0.00    -0.169 NA
HETATM   34  N   UNL     1       0.462   7.260 -29.590  1.00  0.00    -0.281 N 
HETATM   35  H   UNL     1       1.458   7.300 -29.781  1.00  0.00     0.189 HD
HETATM   36  C   UNL     1      -0.196   7.698 -28.468  1.00  0.00     0.038 A 
HETATM   37  C   UNL     1      -1.527   7.438 -28.716  1.00  0.00     0.066 A 
BRANCH  36  38
HETATM   38  C   UNL     1       0.509   8.347 -27.294  1.00  0.00    -0.007 C 
HETATM   39  C   UNL     1       0.788   7.284 -26.218  1.00  0.00     0.021 C 
HETATM   40  C   UNL     1       1.850   8.965 -27.739  1.00  0.00     0.021 C 
HETATM   41  C   UNL     1      -0.350   9.474 -26.686  1.00  0.00     0.021 C 
ENDBRANCH  36  38
ENDBRANCH  29  32
ENDBRANCH  27  28
ENDBRANCH   4  26
TORSDOF 8
ENDMDL
MODEL 3
REMARK VINA RESULT:      -8.3      3.088      9.731
REMARK  8 active torsions:
REMARK  status: ('A' for Active; 'I' for Inactive)
REMARK    1  A    between atoms: C_2  and  O_3 
REMARK    2  A    between atoms: O_3  and  C_4 
REMARK    3  A    between atoms: C_5  and  C_6 
REMARK    4  A    between atoms: C_6  and  N_7 
REMARK    5  A    between atoms: C_23  and  C_24 
REMARK    6  A    between atoms: N_25  and  N_26 
REMARK       I    between atoms: N_26  and  C_27 
REMARK    7  A    between atoms: C_27  and  C_28 
REMARK    8  A    between atoms: C_32  and  C_33 
ROOT
HETATM    1  C   UNL     1      -0.005   7.292 -29.616  1.00  0.00     0.076 A 
HETATM    2  C   UNL     1      -1.405   7.256 -29.461  1.00  0.00     0.002 A 
HETATM    3  C   UNL     1      -2.136   6.378 -30.271  1.00  0.00     0.024 A 
HETATM    4  C   UNL     1      -1.498   5.503 -31.161  1.00  0.00    -0.016 A 
HETATM    5  C   UNL     1      -0.117   5.540 -31.306  1.00  0.00     0.016 A 
HETATM    6  C   UNL     1       0.626   6.443 -30.537  1.00  0.00     0.038 A 
ENDROOT
BRANCH   2   7
HETATM    7  C   UNL     1      -2.073   8.196 -28.480  1.00  0.00     0.276 C 
BRANCH   7   8
HETATM    8  N   UNL     1      -2.146   9.674 -28.871  1.00  0.00    -0.066 N 
HETATM    9  H   UNL     1      -1.160   9.960 -28.857  1.00  0.00     0.280 HD
HETATM   10  C   UNL     1      -2.613   9.955 -30.293  1.00  0.00     0.246 C 
HETATM   11  C   UNL     1      -4.122  10.239 -30.410  1.00  0.00     0.062 C 
HETATM   12  C   UNL     1      -4.516  11.353 -29.450  1.00  0.00     0.020 C 
HETATM   13  C   UNL     1      -4.948   8.994 -30.161  1.00  0.00     0.020 A 
HETATM   14  C   UNL     1      -4.264  10.846 -28.039  1.00  0.00     0.031 C 
HETATM   15  C   UNL     1      -5.172   9.646 -27.756  1.00  0.00     0.138 C 
HETATM   16  C   UNL     1      -2.776  10.555 -27.822  1.00  0.00     0.241 C 
HETATM   17  N   UNL     1      -5.365   8.706 -28.859  1.00  0.00    -0.317 N 
HETATM   18  C   UNL     1      -6.101   7.553 -28.549  1.00  0.00     0.247 A 
HETATM   19  O   UNL     1      -6.462   7.257 -27.414  1.00  0.00    -0.268 OA
HETATM   20  C   UNL     1      -6.430   6.654 -29.682  1.00  0.00     0.074 A 
HETATM   21  C   UNL     1      -6.030   6.965 -30.919  1.00  0.00     0.007 A 
HETATM   22  C   UNL     1      -5.269   8.161 -31.166  1.00  0.00     0.026 A 
ENDBRANCH   7   8
ENDBRANCH   2   7
BRANCH   1  23
HETATM   23  O   UNL     1       0.639   8.202 -28.820  1.00  0.00    -0.351 OA
BRANCH  23  24
HETATM   24  C   UNL     1       1.290   7.719 -27.642  1.00  0.00     0.171 C 
HETATM   25  C   UNL     1       1.808   8.922 -26.875  1.00  0.00     0.034 C 
ENDBRANCH  23  24
ENDBRANCH   1  23
BRANCH   4  26
HETATM   26  C   UNL     1      -2.323   4.520 -31.894  1.00  0.00     0.150 C 
HETATM   27  N   UNL     1      -2.565   3.384 -31.328  1.00  0.00    -0.184 NA
BRANCH  27  28
HETATM   28  N   UNL     1      -3.305   2.484 -32.017  1.00  0.00    -0.242 N 
HETATM   29  C   UNL     1      -3.219   1.136 -31.698  1.00  0.00     0.292 C 
HETATM   30  O   UNL     1      -2.499   0.674 -30.813  1.00  0.00    -0.264 OA
HETATM   31  H   UNL     1      -3.929   2.750 -32.778  1.00  0.00     0.192 HD
BRANCH  29  32
HETATM   32  C   UNL     1      -4.086   0.301 -32.540  1.00  0.00     0.148 A 
HETATM   33  N   UNL     1      -3.626  -0.788 -33.187  1.00  0.00    -0.169 NA
HETATM   34  N   UNL     1      -4.710  -1.268 -33.827  1.00  0.00    -0.281 N 
HETATM   35  H   UNL     1      -4.604  -2.111 -34.382  1.00  0.00     0.189 HD
HETATM   36  C   UNL     1      -5.848  -0.526 -33.636  1.00  0.00     0.038 A 
HETATM   37  C   UNL     1      -5.466   0.493 -32.788  1.00  0.00     0.066 A 
BRANCH  36  38
HETATM   38  C   UNL     1      -7.186  -0.884 -34.252  1.00  0.00    -0.007 C 
HETATM   39  C   UNL     1      -8.306  -0.592 -33.239  1.00  0.00     0.021 C 
HETATM   40  C   UNL     1      -7.439  -0.050 -35.524  1.00  0.00     0.021 C 
HETATM   41  C   UNL     1      -7.233  -2.373 -34.647  1.00  0.00     0.021 C 
ENDBRANCH  36  38
ENDBRANCH  29  32
ENDBRANCH  27  28
ENDBRANCH   4  26
TORSDOF 8
ENDMDL
MODEL 4
REMARK VINA RESULT:      -8.2      2.956      5.351
REMARK  8 active torsions:
REMARK  status: ('A' for Active; 'I' for Inactive)
REMARK    1  A    between atoms: C_2  and  O_3 
REMARK    2  A    between atoms: O_3  and  C_4 
REMARK    3  A    between atoms: C_5  and  C_6 
REMARK    4  A    between atoms: C_6  and  N_7 
REMARK    5  A    between atoms: C_23  and  C_24 
REMARK    6  A    between atoms: N_25  and  N_26 
REMARK       I    between atoms: N_26  and  C_27 
REMARK    7  A    between atoms: C_27  and  C_28 
REMARK    8  A    between atoms: C_32  and  C_33 
ROOT
HETATM    1  C   UNL     1      -9.350   3.793 -30.516  1.00  0.00     0.076 A 
HETATM    2  C   UNL     1      -8.218   2.960 -30.623  1.00  0.00     0.002 A 
HETATM    3  C   UNL     1      -6.975   3.482 -30.244  1.00  0.00     0.024 A 
HETATM    4  C   UNL     1      -6.859   4.770 -29.703  1.00  0.00    -0.016 A 
HETATM    5  C   UNL     1      -7.979   5.584 -29.595  1.00  0.00     0.016 A 
HETATM    6  C   UNL     1      -9.223   5.095 -30.011  1.00  0.00     0.038 A 
ENDROOT
BRANCH   2   7
HETATM    7  C   UNL     1      -8.369   1.565 -31.193  1.00  0.00     0.276 C 
BRANCH   7   8
HETATM    8  N   UNL     1      -8.739   1.454 -32.674  1.00  0.00    -0.066 N 
HETATM    9  H   UNL     1      -9.744   1.666 -32.671  1.00  0.00     0.280 HD
HETATM   10  C   UNL     1      -8.122   2.505 -33.587  1.00  0.00     0.246 C 
HETATM   11  C   UNL     1      -6.817   2.051 -34.268  1.00  0.00     0.062 C 
HETATM   12  C   UNL     1      -7.041   0.730 -34.990  1.00  0.00     0.020 C 
HETATM   13  C   UNL     1      -5.677   1.939 -33.277  1.00  0.00     0.020 A 
HETATM   14  C   UNL     1      -7.381  -0.311 -33.936  1.00  0.00     0.031 C 
HETATM   15  C   UNL     1      -6.189  -0.494 -32.993  1.00  0.00     0.138 C 
HETATM   16  C   UNL     1      -8.684   0.047 -33.216  1.00  0.00     0.241 C 
HETATM   17  N   UNL     1      -5.459   0.720 -32.629  1.00  0.00    -0.317 N 
HETATM   18  C   UNL     1      -4.446   0.554 -31.674  1.00  0.00     0.247 A 
HETATM   19  O   UNL     1      -4.243  -0.494 -31.068  1.00  0.00    -0.268 OA
HETATM   20  C   UNL     1      -3.601   1.740 -31.393  1.00  0.00     0.074 A 
HETATM   21  C   UNL     1      -3.824   2.888 -32.041  1.00  0.00     0.007 A 
HETATM   22  C   UNL     1      -4.888   2.992 -33.004  1.00  0.00     0.026 A 
ENDBRANCH   7   8
ENDBRANCH   2   7
BRANCH   1  23
HETATM   23  O   UNL     1     -10.523   3.228 -30.942  1.00  0.00    -0.351 OA
BRANCH  23  24
HETATM   24  C   UNL     1     -11.474   4.073 -31.594  1.00  0.00     0.171 C 
HETATM   25  C   UNL     1     -12.720   4.120 -30.729  1.00  0.00     0.034 C 
ENDBRANCH  23  24
ENDBRANCH   1  23
BRANCH   4  26
HETATM   26  C   UNL     1      -5.536   5.210 -29.212  1.00  0.00     0.150 C 
HETATM   27  N   UNL     1      -5.493   6.189 -28.369  1.00  0.00    -0.184 NA
BRANCH  27  28
HETATM   28  N   UNL     1      -4.276   6.596 -27.943  1.00  0.00    -0.242 N 
HETATM   29  C   UNL     1      -4.169   7.326 -26.767  1.00  0.00     0.292 C 
HETATM   30  O   UNL     1      -5.121   7.647 -26.057  1.00  0.00    -0.264 OA
HETATM   31  H   UNL     1      -3.416   6.397 -28.454  1.00  0.00     0.192 HD
BRANCH  29  32
HETATM   32  C   UNL     1      -2.780   7.685 -26.450  1.00  0.00     0.148 A 
HETATM   33  N   UNL     1      -2.352   7.854 -25.183  1.00  0.00    -0.169 NA
HETATM   34  N   UNL     1      -1.048   8.161 -25.319  1.00  0.00    -0.281 N 
HETATM   35  H   UNL     1      -0.504   8.324 -24.477  1.00  0.00     0.189 HD
HETATM   36  C   UNL     1      -0.617   8.218 -26.620  1.00  0.00     0.038 A 
HETATM   37  C   UNL     1      -1.728   7.896 -27.373  1.00  0.00     0.066 A 
BRANCH  36  38
HETATM   38  C   UNL     1       0.812   8.538 -27.008  1.00  0.00    -0.007 C 
HETATM   39  C   UNL     1       1.056   8.092 -28.460  1.00  0.00     0.021 C 
HETATM   40  C   UNL     1       1.077  10.054 -26.905  1.00  0.00     0.021 C 
HETATM   41  C   UNL     1       1.813   7.821 -26.081  1.00  0.00     0.021 C 
ENDBRANCH  36  38
ENDBRANCH  29  32
ENDBRANCH  27  28
ENDBRANCH   4  26
TORSDOF 8
ENDMDL
MODEL 5
REMARK VINA RESULT:      -8.2      2.889      9.981
REMARK  8 active torsions:
REMARK  status: ('A' for Active; 'I' for Inactive)
REMARK    1  A    between atoms: C_2  and  O_3 
REMARK    2  A    between atoms: O_3  and  C_4 
REMARK    3  A    between atoms: C_5  and  C_6 
REMARK    4  A    between atoms: C_6  and  N_7 
REMARK    5  A    between atoms: C_23  and  C_24 
REMARK    6  A    between atoms: N_25  and  N_26 
REMARK       I    between atoms: N_26  and  C_27 
REMARK    7  A    between atoms: C_27  and  C_28 
REMARK    8  A    between atoms: C_32  and  C_33 
ROOT
HETATM    1  C   UNL     1      -4.125   7.063 -28.069  1.00  0.00     0.076 A 
HETATM    2  C   UNL     1      -4.226   6.858 -29.460  1.00  0.00     0.002 A 
HETATM    3  C   UNL     1      -5.173   5.937 -29.924  1.00  0.00     0.024 A 
HETATM    4  C   UNL     1      -6.052   5.287 -29.046  1.00  0.00    -0.016 A 
HETATM    5  C   UNL     1      -5.951   5.498 -27.677  1.00  0.00     0.016 A 
HETATM    6  C   UNL     1      -4.980   6.381 -27.191  1.00  0.00     0.038 A 
ENDROOT
BRANCH   2   7
HETATM    7  C   UNL     1      -3.280   7.584 -30.392  1.00  0.00     0.276 C 
BRANCH   7   8
HETATM    8  N   UNL     1      -1.781   7.359 -30.178  1.00  0.00    -0.066 N 
HETATM    9  H   UNL     1      -1.579   7.951 -29.364  1.00  0.00     0.280 HD
HETATM   10  C   UNL     1      -1.382   5.955 -29.745  1.00  0.00     0.246 C 
HETATM   11  C   UNL     1      -0.968   5.037 -30.911  1.00  0.00     0.062 C 
HETATM   12  C   UNL     1       0.118   5.709 -31.739  1.00  0.00     0.020 C 
HETATM   13  C   UNL     1      -2.153   4.661 -31.777  1.00  0.00     0.020 A 
HETATM   14  C   UNL     1      -0.487   6.962 -32.350  1.00  0.00     0.031 C 
HETATM   15  C   UNL     1      -1.622   6.573 -33.301  1.00  0.00     0.138 C 
HETATM   16  C   UNL     1      -0.911   7.950 -31.259  1.00  0.00     0.241 C 
HETATM   17  N   UNL     1      -2.478   5.470 -32.869  1.00  0.00    -0.317 N 
HETATM   18  C   UNL     1      -3.582   5.203 -33.692  1.00  0.00     0.247 A 
HETATM   19  O   UNL     1      -3.912   5.906 -34.643  1.00  0.00    -0.268 OA
HETATM   20  C   UNL     1      -4.385   4.003 -33.352  1.00  0.00     0.074 A 
HETATM   21  C   UNL     1      -4.039   3.240 -32.311  1.00  0.00     0.007 A 
HETATM   22  C   UNL     1      -2.898   3.577 -31.502  1.00  0.00     0.026 A 
ENDBRANCH   7   8
ENDBRANCH   2   7
BRANCH   1  23
HETATM   23  O   UNL     1      -3.152   7.947 -27.687  1.00  0.00    -0.351 OA
BRANCH  23  24
HETATM   24  C   UNL     1      -2.633   7.838 -26.359  1.00  0.00     0.171 C 
HETATM   25  C   UNL     1      -1.122   7.954 -26.443  1.00  0.00     0.034 C 
ENDBRANCH  23  24
ENDBRANCH   1  23
BRANCH   4  26
HETATM   26  C   UNL     1      -7.105   4.422 -29.618  1.00  0.00     0.150 C 
HETATM   27  N   UNL     1      -7.350   4.514 -30.883  1.00  0.00    -0.184 NA
BRANCH  27  28
HETATM   28  N   UNL     1      -8.330   3.731 -31.391  1.00  0.00    -0.242 N 
HETATM   29  C   UNL     1      -8.051   2.414 -31.728  1.00  0.00     0.292 C 
HETATM   30  O   UNL     1      -6.949   1.880 -31.603  1.00  0.00    -0.264 OA
HETATM   31  H   UNL     1      -9.279   4.068 -31.548  1.00  0.00     0.192 HD
BRANCH  29  32
HETATM   32  C   UNL     1      -9.224   1.708 -32.262  1.00  0.00     0.148 A 
HETATM   33  N   UNL     1      -9.328   0.364 -32.235  1.00  0.00    -0.169 NA
HETATM   34  N   UNL     1     -10.526   0.120 -32.800  1.00  0.00    -0.281 N 
HETATM   35  H   UNL     1     -10.831  -0.845 -32.878  1.00  0.00     0.189 HD
HETATM   36  C   UNL     1     -11.194   1.247 -33.208  1.00  0.00     0.038 A 
HETATM   37  C   UNL     1     -10.369   2.294 -32.854  1.00  0.00     0.066 A 
BRANCH  36  38
HETATM   38  C   UNL     1     -12.562   1.210 -33.861  1.00  0.00    -0.007 C 
HETATM   39  C   UNL     1     -13.153  -0.203 -33.722  1.00  0.00     0.021 C 
HETATM   40  C   UNL     1     -13.515   2.214 -33.181  1.00  0.00     0.021 C 
HETATM   41  C   UNL     1     -12.474   1.580 -35.354  1.00  0.00     0.021 C 
ENDBRANCH  36  38
ENDBRANCH  29  32
ENDBRANCH  27  28
ENDBRANCH   4  26
TORSDOF 8
ENDMDL
MODEL 6
REMARK VINA RESULT:      -7.9      3.000      9.864
REMARK  8 active torsions:
REMARK  status: ('A' for Active; 'I' for Inactive)
REMARK    1  A    between atoms: C_2  and  O_3 
REMARK    2  A    between atoms: O_3  and  C_4 
REMARK    3  A    between atoms: C_5  and  C_6 
REMARK    4  A    between atoms: C_6  and  N_7 
REMARK    5  A    between atoms: C_23  and  C_24 
REMARK    6  A    between atoms: N_25  and  N_26 
REMARK       I    between atoms: N_26  and  C_27 
REMARK    7  A    between atoms: C_27  and  C_28 
REMARK    8  A    between atoms: C_32  and  C_33 
ROOT
HETATM    1  C   UNL     1      -1.553   5.611 -31.709  1.00  0.00     0.076 A 
HETATM    2  C   UNL     1      -2.576   6.018 -30.828  1.00  0.00     0.002 A 
HETATM    3  C   UNL     1      -3.885   5.601 -31.099  1.00  0.00     0.024 A 
HETATM    4  C   UNL     1      -4.172   4.744 -32.170  1.00  0.00    -0.016 A 
HETATM    5  C   UNL     1      -3.159   4.342 -33.032  1.00  0.00     0.016 A 
HETATM    6  C   UNL     1      -1.851   4.785 -32.803  1.00  0.00     0.038 A 
ENDROOT
BRANCH   2   7
HETATM    7  C   UNL     1      -2.242   6.929 -29.666  1.00  0.00     0.276 C 
BRANCH   7   8
HETATM    8  N   UNL     1      -1.757   8.341 -30.005  1.00  0.00    -0.066 N 
HETATM    9  H   UNL     1      -0.816   8.172 -30.379  1.00  0.00     0.280 HD
HETATM   10  C   UNL     1      -2.504   9.039 -31.133  1.00  0.00     0.246 C 
HETATM   11  C   UNL     1      -3.646   9.955 -30.652  1.00  0.00     0.062 C 
HETATM   12  C   UNL     1      -3.119  10.942 -29.620  1.00  0.00     0.020 C 
HETATM   13  C   UNL     1      -4.806   9.157 -30.094  1.00  0.00     0.020 A 
HETATM   14  C   UNL     1      -2.655  10.136 -28.417  1.00  0.00     0.031 C 
HETATM   15  C   UNL     1      -3.850   9.408 -27.796  1.00  0.00     0.138 C 
HETATM   16  C   UNL     1      -1.499   9.207 -28.797  1.00  0.00     0.241 C 
HETATM   17  N   UNL     1      -4.826   8.850 -28.731  1.00  0.00    -0.317 N 
HETATM   18  C   UNL     1      -5.850   8.086 -28.153  1.00  0.00     0.247 A 
HETATM   19  O   UNL     1      -5.884   7.777 -26.966  1.00  0.00    -0.268 OA
HETATM   20  C   UNL     1      -6.927   7.628 -29.064  1.00  0.00     0.074 A 
HETATM   21  C   UNL     1      -6.889   7.951 -30.360  1.00  0.00     0.007 A 
HETATM   22  C   UNL     1      -5.803   8.732 -30.890  1.00  0.00     0.026 A 
ENDBRANCH   7   8
ENDBRANCH   2   7
BRANCH   1  23
HETATM   23  O   UNL     1      -0.307   6.088 -31.403  1.00  0.00    -0.351 OA
BRANCH  23  24
HETATM   24  C   UNL     1       0.724   5.138 -31.124  1.00  0.00     0.171 C 
HETATM   25  C   UNL     1       0.781   4.947 -29.619  1.00  0.00     0.034 C 
ENDBRANCH  23  24
ENDBRANCH   1  23
BRANCH   4  26
HETATM   26  C   UNL     1      -5.556   4.248 -32.324  1.00  0.00     0.150 C 
HETATM   27  N   UNL     1      -5.795   3.011 -32.037  1.00  0.00    -0.184 NA
BRANCH  27  28
HETATM   28  N   UNL     1      -7.062   2.563 -32.200  1.00  0.00    -0.242 N 
HETATM   29  C   UNL     1      -7.298   1.445 -32.988  1.00  0.00     0.292 C 
HETATM   30  O   UNL     1      -6.423   0.806 -33.572  1.00  0.00    -0.264 OA
HETATM   31  H   UNL     1      -7.868   3.018 -31.772  1.00  0.00     0.192 HD
BRANCH  29  32
HETATM   32  C   UNL     1      -8.723   1.095 -33.057  1.00  0.00     0.148 A 
HETATM   33  N   UNL     1      -9.221  -0.012 -32.472  1.00  0.00    -0.169 NA
HETATM   34  N   UNL     1     -10.537   0.034 -32.755  1.00  0.00    -0.281 N 
HETATM   35  H   UNL     1     -11.131  -0.709 -32.399  1.00  0.00     0.189 HD
HETATM   36  C   UNL     1     -10.910   1.114 -33.516  1.00  0.00     0.038 A 
HETATM   37  C   UNL     1      -9.744   1.826 -33.711  1.00  0.00     0.066 A 
BRANCH  36  38
HETATM   38  C   UNL     1     -12.340   1.372 -33.946  1.00  0.00    -0.007 C 
HETATM   39  C   UNL     1     -12.363   1.732 -35.441  1.00  0.00     0.021 C 
HETATM   40  C   UNL     1     -13.209   0.117 -33.726  1.00  0.00     0.021 C 
HETATM   41  C   UNL     1     -12.964   2.525 -33.135  1.00  0.00     0.021 C 
ENDBRANCH  36  38
ENDBRANCH  29  32
ENDBRANCH  27  28
ENDBRANCH   4  26
TORSDOF 8
ENDMDL
MODEL 7
REMARK VINA RESULT:      -7.8     17.773     19.591
REMARK  8 active torsions:
REMARK  status: ('A' for Active; 'I' for Inactive)
REMARK    1  A    between atoms: C_2  and  O_3 
REMARK    2  A    between atoms: O_3  and  C_4 
REMARK    3  A    between atoms: C_5  and  C_6 
REMARK    4  A    between atoms: C_6  and  N_7 
REMARK    5  A    between atoms: C_23  and  C_24 
REMARK    6  A    between atoms: N_25  and  N_26 
REMARK       I    between atoms: N_26  and  C_27 
REMARK    7  A    between atoms: C_27  and  C_28 
REMARK    8  A    between atoms: C_32  and  C_33 
ROOT
HETATM    1  C   UNL     1      -6.941 -12.969 -38.373  1.00  0.00     0.076 A 
HETATM    2  C   UNL     1      -5.555 -13.223 -38.337  1.00  0.00     0.002 A 
HETATM    3  C   UNL     1      -4.993 -13.645 -37.126  1.00  0.00     0.024 A 
HETATM    4  C   UNL     1      -5.787 -13.883 -35.995  1.00  0.00    -0.016 A 
HETATM    5  C   UNL     1      -7.153 -13.635 -36.039  1.00  0.00     0.016 A 
HETATM    6  C   UNL     1      -7.726 -13.170 -37.228  1.00  0.00     0.038 A 
ENDROOT
BRANCH   2   7
HETATM    7  C   UNL     1      -4.719 -12.978 -39.574  1.00  0.00     0.276 C 
BRANCH   7   8
HETATM    8  N   UNL     1      -4.961 -13.899 -40.773  1.00  0.00    -0.066 N 
HETATM    9  H   UNL     1      -5.758 -13.452 -41.242  1.00  0.00     0.280 HD
HETATM   10  C   UNL     1      -3.856 -13.920 -41.820  1.00  0.00     0.246 C 
HETATM   11  C   UNL     1      -2.839 -15.061 -41.630  1.00  0.00     0.062 C 
HETATM   12  C   UNL     1      -3.567 -16.395 -41.542  1.00  0.00     0.020 C 
HETATM   13  C   UNL     1      -1.969 -14.840 -40.410  1.00  0.00     0.020 A 
HETATM   14  C   UNL     1      -4.435 -16.357 -40.295  1.00  0.00     0.031 C 
HETATM   15  C   UNL     1      -3.545 -16.231 -39.055  1.00  0.00     0.138 C 
HETATM   16  C   UNL     1      -5.496 -15.259 -40.403  1.00  0.00     0.241 C 
HETATM   17  N   UNL     1      -2.384 -15.352 -39.178  1.00  0.00    -0.317 N 
HETATM   18  C   UNL     1      -1.647 -15.154 -38.002  1.00  0.00     0.247 A 
HETATM   19  O   UNL     1      -1.995 -15.568 -36.900  1.00  0.00    -0.268 OA
HETATM   20  C   UNL     1      -0.388 -14.381 -38.132  1.00  0.00     0.074 A 
HETATM   21  C   UNL     1      -0.009 -13.917 -39.327  1.00  0.00     0.007 A 
HETATM   22  C   UNL     1      -0.818 -14.149 -40.494  1.00  0.00     0.026 A 
ENDBRANCH   7   8
ENDBRANCH   2   7
BRANCH   1  23
HETATM   23  O   UNL     1      -7.413 -12.522 -39.578  1.00  0.00    -0.351 OA
BRANCH  23  24
HETATM   24  C   UNL     1      -8.598 -13.128 -40.099  1.00  0.00     0.171 C 
HETATM   25  C   UNL     1      -9.655 -12.045 -40.221  1.00  0.00     0.034 C 
ENDBRANCH  23  24
ENDBRANCH   1  23
BRANCH   4  26
HETATM   26  C   UNL     1      -5.144 -14.443 -34.788  1.00  0.00     0.150 C 
HETATM   27  N   UNL     1      -5.476 -13.956 -33.639  1.00  0.00    -0.184 NA
BRANCH  27  28
HETATM   28  N   UNL     1      -4.866 -14.462 -32.542  1.00  0.00    -0.242 N 
HETATM   29  C   UNL     1      -5.528 -15.396 -31.757  1.00  0.00     0.292 C 
HETATM   30  O   UNL     1      -6.665 -15.813 -31.980  1.00  0.00    -0.264 OA
HETATM   31  H   UNL     1      -3.929 -14.183 -32.254  1.00  0.00     0.192 HD
BRANCH  29  32
HETATM   32  C   UNL     1      -4.725 -15.842 -30.611  1.00  0.00     0.148 A 
HETATM   33  N   UNL     1      -5.241 -15.954 -29.371  1.00  0.00    -0.169 NA
HETATM   34  N   UNL     1      -4.206 -16.389 -28.627  1.00  0.00    -0.281 N 
HETATM   35  H   UNL     1      -4.365 -16.559 -27.638  1.00  0.00     0.189 HD
HETATM   36  C   UNL     1      -3.037 -16.545 -29.328  1.00  0.00     0.038 A 
HETATM   37  C   UNL     1      -3.357 -16.207 -30.626  1.00  0.00     0.066 A 
BRANCH  36  38
HETATM   38  C   UNL     1      -1.749 -17.031 -28.695  1.00  0.00    -0.007 C 
HETATM   39  C   UNL     1      -0.945 -17.835 -29.732  1.00  0.00     0.021 C 
HETATM   40  C   UNL     1      -0.892 -15.840 -28.221  1.00  0.00     0.021 C 
HETATM   41  C   UNL     1      -2.034 -17.923 -27.471  1.00  0.00     0.021 C 
ENDBRANCH  36  38
ENDBRANCH  29  32
ENDBRANCH  27  28
ENDBRANCH   4  26
TORSDOF 8
ENDMDL
MODEL 8
REMARK VINA RESULT:      -7.8      4.554     10.112
REMARK  8 active torsions:
REMARK  status: ('A' for Active; 'I' for Inactive)
REMARK    1  A    between atoms: C_2  and  O_3 
REMARK    2  A    between atoms: O_3  and  C_4 
REMARK    3  A    between atoms: C_5  and  C_6 
REMARK    4  A    between atoms: C_6  and  N_7 
REMARK    5  A    between atoms: C_23  and  C_24 
REMARK    6  A    between atoms: N_25  and  N_26 
REMARK       I    between atoms: N_26  and  C_27 
REMARK    7  A    between atoms: C_27  and  C_28 
REMARK    8  A    between atoms: C_32  and  C_33 
ROOT
HETATM    1  C   UNL     1      -7.145   0.684 -33.601  1.00  0.00     0.076 A 
HETATM    2  C   UNL     1      -7.305   2.082 -33.684  1.00  0.00     0.002 A 
HETATM    3  C   UNL     1      -8.577   2.617 -33.446  1.00  0.00     0.024 A 
HETATM    4  C   UNL     1      -9.652   1.802 -33.065  1.00  0.00    -0.016 A 
HETATM    5  C   UNL     1      -9.488   0.425 -32.981  1.00  0.00     0.016 A 
HETATM    6  C   UNL     1      -8.234  -0.131 -33.258  1.00  0.00     0.038 A 
ENDROOT
BRANCH   2   7
HETATM    7  C   UNL     1      -6.126   2.946 -34.079  1.00  0.00     0.276 C 
BRANCH   7   8
HETATM    8  N   UNL     1      -6.041   4.339 -33.450  1.00  0.00    -0.066 N 
HETATM    9  H   UNL     1      -6.549   4.922 -34.126  1.00  0.00     0.280 HD
HETATM   10  C   UNL     1      -6.796   4.516 -32.140  1.00  0.00     0.246 C 
HETATM   11  C   UNL     1      -5.925   4.311 -30.886  1.00  0.00     0.062 C 
HETATM   12  C   UNL     1      -4.693   5.202 -30.959  1.00  0.00     0.020 C 
HETATM   13  C   UNL     1      -5.532   2.860 -30.708  1.00  0.00     0.020 A 
HETATM   14  C   UNL     1      -3.872   4.744 -32.154  1.00  0.00     0.031 C 
HETATM   15  C   UNL     1      -3.393   3.308 -31.926  1.00  0.00     0.138 C 
HETATM   16  C   UNL     1      -4.654   4.932 -33.457  1.00  0.00     0.241 C 
HETATM   17  N   UNL     1      -4.347   2.401 -31.290  1.00  0.00    -0.317 N 
HETATM   18  C   UNL     1      -3.939   1.062 -31.195  1.00  0.00     0.247 A 
HETATM   19  O   UNL     1      -2.918   0.621 -31.716  1.00  0.00    -0.268 OA
HETATM   20  C   UNL     1      -4.826   0.153 -30.430  1.00  0.00     0.074 A 
HETATM   21  C   UNL     1      -5.945   0.625 -29.871  1.00  0.00     0.007 A 
HETATM   22  C   UNL     1      -6.309   2.010 -30.014  1.00  0.00     0.026 A 
ENDBRANCH   7   8
ENDBRANCH   2   7
BRANCH   1  23
HETATM   23  O   UNL     1      -5.884   0.231 -33.884  1.00  0.00    -0.351 OA
BRANCH  23  24
HETATM   24  C   UNL     1      -5.745  -1.115 -34.344  1.00  0.00     0.171 C 
HETATM   25  C   UNL     1      -4.499  -1.696 -33.700  1.00  0.00     0.034 C 
ENDBRANCH  23  24
ENDBRANCH   1  23
BRANCH   4  26
HETATM   26  C   UNL     1     -10.934   2.448 -32.713  1.00  0.00     0.150 C 
HETATM   27  N   UNL     1     -12.028   1.897 -33.126  1.00  0.00    -0.184 NA
BRANCH  27  28
HETATM   28  N   UNL     1     -13.194   2.508 -32.815  1.00  0.00    -0.242 N 
HETATM   29  C   UNL     1     -14.384   1.797 -32.893  1.00  0.00     0.292 C 
HETATM   30  O   UNL     1     -14.470   0.619 -33.238  1.00  0.00    -0.264 OA
HETATM   31  H   UNL     1     -13.246   3.484 -32.526  1.00  0.00     0.192 HD
BRANCH  29  32
HETATM   32  C   UNL     1     -15.551   2.608 -32.521  1.00  0.00     0.148 A 
HETATM   33  N   UNL     1     -16.808   2.126 -32.578  1.00  0.00    -0.169 NA
HETATM   34  N   UNL     1     -17.570   3.155 -32.158  1.00  0.00    -0.281 N 
HETATM   35  H   UNL     1     -18.575   3.017 -32.106  1.00  0.00     0.189 HD
HETATM   36  C   UNL     1     -16.861   4.289 -31.850  1.00  0.00     0.038 A 
HETATM   37  C   UNL     1     -15.541   3.948 -32.066  1.00  0.00     0.066 A 
BRANCH  36  38
HETATM   38  C   UNL     1     -17.510   5.563 -31.350  1.00  0.00    -0.007 C 
HETATM   39  C   UNL     1     -18.887   5.230 -30.750  1.00  0.00     0.021 C 
HETATM   40  C   UNL     1     -16.643   6.224 -30.259  1.00  0.00     0.021 C 
HETATM   41  C   UNL     1     -17.686   6.582 -32.493  1.00  0.00     0.021 C 
ENDBRANCH  36  38
ENDBRANCH  29  32
ENDBRANCH  27  28
ENDBRANCH   4  26
TORSDOF 8
ENDMDL
MODEL 9
REMARK VINA RESULT:      -7.6      3.911      9.488
REMARK  8 active torsions:
REMARK  status: ('A' for Active; 'I' for Inactive)
REMARK    1  A    between atoms: C_2  and  O_3 
REMARK    2  A    between atoms: O_3  and  C_4 
REMARK    3  A    between atoms: C_5  and  C_6 
REMARK    4  A    between atoms: C_6  and  N_7 
REMARK    5  A    between atoms: C_23  and  C_24 
REMARK    6  A    between atoms: N_25  and  N_26 
REMARK       I    between atoms: N_26  and  C_27 
REMARK    7  A    between atoms: C_27  and  C_28 
REMARK    8  A    between atoms: C_32  and  C_33 
ROOT
HETATM    1  C   UNL     1      -5.957   0.049 -33.463  1.00  0.00     0.076 A 
HETATM    2  C   UNL     1      -6.432   1.266 -32.933  1.00  0.00     0.002 A 
HETATM    3  C   UNL     1      -7.810   1.511 -32.975  1.00  0.00     0.024 A 
HETATM    4  C   UNL     1      -8.708   0.550 -33.460  1.00  0.00    -0.016 A 
HETATM    5  C   UNL     1      -8.235  -0.649 -33.976  1.00  0.00     0.016 A 
HETATM    6  C   UNL     1      -6.857  -0.893 -33.984  1.00  0.00     0.038 A 
ENDROOT
BRANCH   2   7
HETATM    7  C   UNL     1      -5.446   2.282 -32.397  1.00  0.00     0.276 C 
BRANCH   7   8
HETATM    8  N   UNL     1      -5.934   3.202 -31.276  1.00  0.00    -0.066 N 
HETATM    9  H   UNL     1      -6.460   2.560 -30.671  1.00  0.00     0.280 HD
HETATM   10  C   UNL     1      -4.848   3.779 -30.379  1.00  0.00     0.246 C 
HETATM   11  C   UNL     1      -4.366   5.179 -30.805  1.00  0.00     0.062 C 
HETATM   12  C   UNL     1      -5.556   6.119 -30.936  1.00  0.00     0.020 C 
HETATM   13  C   UNL     1      -3.572   5.131 -32.093  1.00  0.00     0.020 A 
HETATM   14  C   UNL     1      -6.433   5.587 -32.057  1.00  0.00     0.031 C 
HETATM   15  C   UNL     1      -5.659   5.632 -33.378  1.00  0.00     0.138 C 
HETATM   16  C   UNL     1      -6.979   4.199 -31.712  1.00  0.00     0.241 C 
HETATM   17  N   UNL     1      -4.243   5.275 -33.310  1.00  0.00    -0.317 N 
HETATM   18  C   UNL     1      -3.577   5.206 -34.543  1.00  0.00     0.247 A 
HETATM   19  O   UNL     1      -4.139   5.302 -35.630  1.00  0.00    -0.268 OA
HETATM   20  C   UNL     1      -2.112   4.984 -34.490  1.00  0.00     0.074 A 
HETATM   21  C   UNL     1      -1.495   4.866 -33.310  1.00  0.00     0.007 A 
HETATM   22  C   UNL     1      -2.241   4.939 -32.082  1.00  0.00     0.026 A 
ENDBRANCH   7   8
ENDBRANCH   2   7
BRANCH   1  23
HETATM   23  O   UNL     1      -4.597  -0.104 -33.424  1.00  0.00    -0.351 OA
BRANCH  23  24
HETATM   24  C   UNL     1      -4.071  -1.244 -32.740  1.00  0.00     0.171 C 
HETATM   25  C   UNL     1      -2.887  -0.779 -31.912  1.00  0.00     0.034 C 
ENDBRANCH  23  24
ENDBRANCH   1  23
BRANCH   4  26
HETATM   26  C   UNL     1     -10.157   0.828 -33.361  1.00  0.00     0.150 C 
HETATM   27  N   UNL     1     -10.527   1.992 -32.938  1.00  0.00    -0.184 NA
BRANCH  27  28
HETATM   28  N   UNL     1     -11.855   2.228 -32.833  1.00  0.00    -0.242 N 
HETATM   29  C   UNL     1     -12.299   3.439 -32.320  1.00  0.00     0.292 C 
HETATM   30  O   UNL     1     -11.560   4.346 -31.937  1.00  0.00    -0.264 OA
HETATM   31  H   UNL     1     -12.560   1.546 -33.110  1.00  0.00     0.192 HD
BRANCH  29  32
HETATM   32  C   UNL     1     -13.764   3.531 -32.277  1.00  0.00     0.148 A 
HETATM   33  N   UNL     1     -14.559   2.500 -32.625  1.00  0.00    -0.169 NA
HETATM   34  N   UNL     1     -15.806   2.976 -32.443  1.00  0.00    -0.281 N 
HETATM   35  H   UNL     1     -16.588   2.357 -32.636  1.00  0.00     0.189 HD
HETATM   36  C   UNL     1     -15.853   4.277 -32.009  1.00  0.00     0.038 A 
HETATM   37  C   UNL     1     -14.532   4.652 -31.881  1.00  0.00     0.066 A 
BRANCH  36  38
HETATM   38  C   UNL     1     -17.148   5.013 -31.731  1.00  0.00    -0.007 C 
HETATM   39  C   UNL     1     -17.512   5.878 -32.949  1.00  0.00     0.021 C 
HETATM   40  C   UNL     1     -18.295   4.015 -31.472  1.00  0.00     0.021 C 
HETATM   41  C   UNL     1     -17.017   5.914 -30.487  1.00  0.00     0.021 C 
ENDBRANCH  36  38
ENDBRANCH  29  32
ENDBRANCH  27  28
ENDBRANCH   4  26
TORSDOF 8
ENDMDL
MODEL 10
REMARK VINA RESULT:      -7.6      2.570      3.900
REMARK  8 active torsions:
REMARK  status: ('A' for Active; 'I' for Inactive)
REMARK    1  A    between atoms: C_2  and  O_3 
REMARK    2  A    between atoms: O_3  and  C_4 
REMARK    3  A    between atoms: C_5  and  C_6 
REMARK    4  A    between atoms: C_6  and  N_7 
REMARK    5  A    between atoms: C_23  and  C_24 
REMARK    6  A    between atoms: N_25  and  N_26 
REMARK       I    between atoms: N_26  and  C_27 
REMARK    7  A    between atoms: C_27  and  C_28 
REMARK    8  A    between atoms: C_32  and  C_33 
ROOT
HETATM    1  C   UNL     1      -7.691   0.829 -32.154  1.00  0.00     0.076 A 
HETATM    2  C   UNL     1      -8.313   2.075 -31.933  1.00  0.00     0.002 A 
HETATM    3  C   UNL     1      -7.625   3.031 -31.176  1.00  0.00     0.024 A 
HETATM    4  C   UNL     1      -6.325   2.795 -30.708  1.00  0.00    -0.016 A 
HETATM    5  C   UNL     1      -5.716   1.567 -30.932  1.00  0.00     0.016 A 
HETATM    6  C   UNL     1      -6.406   0.582 -31.649  1.00  0.00     0.038 A 
ENDROOT
BRANCH   2   7
HETATM    7  C   UNL     1      -9.710   2.316 -32.463  1.00  0.00     0.276 C 
BRANCH   7   8
HETATM    8  N   UNL     1      -9.889   2.310 -33.983  1.00  0.00    -0.066 N 
HETATM    9  H   UNL     1      -9.128   1.697 -34.297  1.00  0.00     0.280 HD
HETATM   10  C   UNL     1     -11.160   1.645 -34.493  1.00  0.00     0.246 C 
HETATM   11  C   UNL     1     -12.323   2.625 -34.739  1.00  0.00     0.062 C 
HETATM   12  C   UNL     1     -11.865   3.754 -35.651  1.00  0.00     0.020 C 
HETATM   13  C   UNL     1     -12.878   3.172 -33.441  1.00  0.00     0.020 A 
HETATM   14  C   UNL     1     -10.780   4.522 -34.914  1.00  0.00     0.031 C 
HETATM   15  C   UNL     1     -11.370   5.156 -33.651  1.00  0.00     0.138 C 
HETATM   16  C   UNL     1      -9.567   3.628 -34.644  1.00  0.00     0.241 C 
HETATM   17  N   UNL     1     -12.339   4.348 -32.913  1.00  0.00    -0.317 N 
HETATM   18  C   UNL     1     -12.780   4.892 -31.698  1.00  0.00     0.247 A 
HETATM   19  O   UNL     1     -12.311   5.908 -31.194  1.00  0.00    -0.268 OA
HETATM   20  C   UNL     1     -13.865   4.160 -31.001  1.00  0.00     0.074 A 
HETATM   21  C   UNL     1     -14.372   3.046 -31.539  1.00  0.00     0.007 A 
HETATM   22  C   UNL     1     -13.867   2.537 -32.786  1.00  0.00     0.026 A 
ENDBRANCH   7   8
ENDBRANCH   2   7
BRANCH   1  23
HETATM   23  O   UNL     1      -8.438  -0.069 -32.867  1.00  0.00    -0.351 OA
BRANCH  23  24
HETATM   24  C   UNL     1      -7.765  -0.889 -33.825  1.00  0.00     0.171 C 
HETATM   25  C   UNL     1      -7.624  -0.085 -35.104  1.00  0.00     0.034 C 
ENDBRANCH  23  24
ENDBRANCH   1  23
BRANCH   4  26
HETATM   26  C   UNL     1      -5.614   3.894 -30.020  1.00  0.00     0.150 C 
HETATM   27  N   UNL     1      -4.749   4.576 -30.695  1.00  0.00    -0.184 NA
BRANCH  27  28
HETATM   28  N   UNL     1      -4.090   5.566 -30.050  1.00  0.00    -0.242 N 
HETATM   29  C   UNL     1      -2.888   6.038 -30.561  1.00  0.00     0.292 C 
HETATM   30  O   UNL     1      -2.352   5.614 -31.585  1.00  0.00    -0.264 OA
HETATM   31  H   UNL     1      -4.433   5.986 -29.187  1.00  0.00     0.192 HD
BRANCH  29  32
HETATM   32  C   UNL     1      -2.309   7.110 -29.741  1.00  0.00     0.148 A 
HETATM   33  N   UNL     1      -2.850   8.343 -29.682  1.00  0.00    -0.169 NA
HETATM   34  N   UNL     1      -2.045   9.012 -28.835  1.00  0.00    -0.281 N 
HETATM   35  H   UNL     1      -2.269   9.980 -28.625  1.00  0.00     0.189 HD
HETATM   36  C   UNL     1      -0.993   8.270 -28.357  1.00  0.00     0.038 A 
HETATM   37  C   UNL     1      -1.156   7.023 -28.924  1.00  0.00     0.066 A 
BRANCH  36  38
HETATM   38  C   UNL     1       0.033   8.817 -27.386  1.00  0.00    -0.007 C 
HETATM   39  C   UNL     1      -0.233  10.314 -27.155  1.00  0.00     0.021 C 
HETATM   40  C   UNL     1      -0.056   8.084 -26.031  1.00  0.00     0.021 C 
HETATM   41  C   UNL     1       1.464   8.632 -27.928  1.00  0.00     0.021 C 
ENDBRANCH  36  38
ENDBRANCH  29  32
ENDBRANCH  27  28
ENDBRANCH   4  26
TORSDOF 8
ENDMDL
