MODEL 1
REMARK VINA RESULT:      -9.9      0.000      0.000
REMARK  7 active torsions:
REMARK  status: ('A' for Active; 'I' for Inactive)
REMARK    1  A    between atoms: C_3  and  O_4 
REMARK    2  A    between atoms: C_8  and  C_9 
REMARK    3  A    between atoms: C_9  and  N_10 
REMARK    4  A    between atoms: C_15  and  O_16 
REMARK    5  A    between atoms: C_18  and  N_19 
REMARK       I    between atoms: N_19  and  C_20 
REMARK    6  A    between atoms: C_20  and  C_21 
REMARK    7  A    between atoms: C_21  and  C_22 
ROOT
HETATM    1  N   UNL     1      -9.617   2.327 -33.093  1.00  0.00    -0.067 N 
HETATM    2  H   UNL     1     -10.138   3.150 -32.766  1.00  0.00     0.280 HD
HETATM    3  C   UNL     1      -9.221   1.586 -31.835  1.00  0.00     0.236 C 
HETATM    4  C   UNL     1      -8.227   0.472 -32.143  1.00  0.00     0.045 C 
HETATM    5  C   UNL     1      -6.986   0.965 -32.928  1.00  0.00     0.019 A 
HETATM    6  C   UNL     1      -5.985   1.842 -32.061  1.00  0.00     0.161 A 
HETATM    7  C   UNL     1      -4.575   1.162 -32.124  1.00  0.00     0.148 A 
HETATM    8  C   UNL     1      -4.804  -0.079 -32.931  1.00  0.00    -0.026 A 
HETATM    9  C   UNL     1      -6.126  -0.207 -33.356  1.00  0.00    -0.038 A 
HETATM   10  C   UNL     1      -3.859  -1.058 -33.226  1.00  0.00     0.010 A 
HETATM   11  C   UNL     1      -4.248  -2.169 -33.973  1.00  0.00     0.001 A 
HETATM   12  C   UNL     1      -5.569  -2.296 -34.411  1.00  0.00     0.001 A 
HETATM   13  C   UNL     1      -6.513  -1.316 -34.105  1.00  0.00     0.009 A 
HETATM   14  C   UNL     1      -7.469   1.728 -34.183  1.00  0.00     0.045 C 
HETATM   15  C   UNL     1      -8.416   2.864 -33.830  1.00  0.00     0.236 C 
ENDROOT
BRANCH   6  16
HETATM   16  O   UNL     1      -6.465   1.923 -30.702  1.00  0.00    -0.387 OA
HETATM   17  C   UNL     1      -5.652   1.201 -29.778  1.00  0.00     0.202 C 
ENDBRANCH   6  16
BRANCH   7  18
HETATM   18  N   UNL     1      -3.467   1.960 -32.635  1.00  0.00    -0.350 N 
HETATM   19  C   UNL     1      -3.213   3.267 -32.292  1.00  0.00     0.223 C 
HETATM   20  O   UNL     1      -3.723   3.793 -31.300  1.00  0.00    -0.273 OA
HETATM   21  H   UNL     1      -3.109   1.653 -33.533  1.00  0.00     0.163 HD
BRANCH  19  22
HETATM   22  C   UNL     1      -2.253   4.077 -33.159  1.00  0.00     0.148 C 
BRANCH  22  23
HETATM   23  C   UNL     1      -1.574   5.223 -32.471  1.00  0.00    -0.009 A 
HETATM   24  S   UNL     1      -2.217   6.809 -32.586  1.00  0.00    -0.106 SA
HETATM   25  C   UNL     1      -0.992   7.449 -31.581  1.00  0.00     0.050 A 
HETATM   26  C   UNL     1      -0.118   6.476 -31.150  1.00  0.00     0.008 A 
HETATM   27  C   UNL     1      -0.453   5.191 -31.663  1.00  0.00     0.015 A 
ENDBRANCH  22  23
ENDBRANCH  19  22
ENDBRANCH   7  18
BRANCH   1  28
HETATM   28  C   UNL     1     -10.587   1.593 -33.997  1.00  0.00     0.273 C 
BRANCH  28  29
HETATM   29  C   UNL     1     -12.034   1.850 -33.680  1.00  0.00    -0.031 A 
HETATM   30  C   UNL     1     -13.044   1.071 -34.265  1.00  0.00     0.018 A 
HETATM   31  C   UNL     1     -14.395   1.303 -33.967  1.00  0.00    -0.028 A 
HETATM   32  C   UNL     1     -14.727   2.301 -33.040  1.00  0.00     0.077 A 
HETATM   33  C   UNL     1     -15.447   0.422 -34.582  1.00  0.00     0.051 C 
HETATM   34  C   UNL     1     -13.737   3.086 -32.431  1.00  0.00    -0.028 A 
HETATM   35  C   UNL     1     -14.068   4.154 -31.426  1.00  0.00     0.051 C 
HETATM   36  C   UNL     1     -12.394   2.856 -32.770  1.00  0.00     0.018 A 
BRANCH  32  37
HETATM   37  O   UNL     1     -16.052   2.464 -32.755  1.00  0.00    -0.360 OA
HETATM   38  H   UNL     1     -16.604   2.028 -33.423  1.00  0.00     0.217 HD
ENDBRANCH  32  37
ENDBRANCH  28  29
ENDBRANCH   1  28
TORSDOF 7
ENDMDL
MODEL 2
REMARK VINA RESULT:      -9.8      0.096      1.469
REMARK  7 active torsions:
REMARK  status: ('A' for Active; 'I' for Inactive)
REMARK    1  A    between atoms: C_3  and  O_4 
REMARK    2  A    between atoms: C_8  and  C_9 
REMARK    3  A    between atoms: C_9  and  N_10 
REMARK    4  A    between atoms: C_15  and  O_16 
REMARK    5  A    between atoms: C_18  and  N_19 
REMARK       I    between atoms: N_19  and  C_20 
REMARK    6  A    between atoms: C_20  and  C_21 
REMARK    7  A    between atoms: C_21  and  C_22 
ROOT
HETATM    1  N   UNL     1      -9.683   2.338 -33.049  1.00  0.00    -0.067 N 
HETATM    2  H   UNL     1     -10.198   3.158 -32.708  1.00  0.00     0.280 HD
HETATM    3  C   UNL     1      -9.275   1.583 -31.803  1.00  0.00     0.236 C 
HETATM    4  C   UNL     1      -8.286   0.470 -32.135  1.00  0.00     0.045 C 
HETATM    5  C   UNL     1      -7.053   0.969 -32.928  1.00  0.00     0.019 A 
HETATM    6  C   UNL     1      -6.041   1.835 -32.063  1.00  0.00     0.161 A 
HETATM    7  C   UNL     1      -4.633   1.153 -32.148  1.00  0.00     0.148 A 
HETATM    8  C   UNL     1      -4.873  -0.078 -32.965  1.00  0.00    -0.026 A 
HETATM    9  C   UNL     1      -6.200  -0.199 -33.378  1.00  0.00    -0.038 A 
HETATM   10  C   UNL     1      -3.934  -1.056 -33.282  1.00  0.00     0.010 A 
HETATM   11  C   UNL     1      -4.332  -2.158 -34.036  1.00  0.00     0.001 A 
HETATM   12  C   UNL     1      -5.658  -2.278 -34.462  1.00  0.00     0.001 A 
HETATM   13  C   UNL     1      -6.597  -1.299 -34.135  1.00  0.00     0.009 A 
HETATM   14  C   UNL     1      -7.548   1.746 -34.169  1.00  0.00     0.045 C 
HETATM   15  C   UNL     1      -8.489   2.881 -33.794  1.00  0.00     0.236 C 
ENDROOT
BRANCH   6  16
HETATM   16  O   UNL     1      -6.506   1.902 -30.697  1.00  0.00    -0.387 OA
HETATM   17  C   UNL     1      -5.694   1.154 -29.793  1.00  0.00     0.202 C 
ENDBRANCH   6  16
BRANCH   7  18
HETATM   18  N   UNL     1      -3.529   1.955 -32.662  1.00  0.00    -0.350 N 
HETATM   19  C   UNL     1      -3.249   3.246 -32.283  1.00  0.00     0.223 C 
HETATM   20  O   UNL     1      -3.725   3.744 -31.261  1.00  0.00    -0.273 OA
HETATM   21  H   UNL     1      -3.199   1.674 -33.579  1.00  0.00     0.163 HD
BRANCH  19  22
HETATM   22  C   UNL     1      -2.303   4.074 -33.149  1.00  0.00     0.148 C 
BRANCH  22  23
HETATM   23  C   UNL     1      -1.663   5.246 -32.466  1.00  0.00    -0.009 A 
HETATM   24  S   UNL     1      -2.363   6.807 -32.586  1.00  0.00    -0.106 SA
HETATM   25  C   UNL     1      -1.160   7.494 -31.586  1.00  0.00     0.050 A 
HETATM   26  C   UNL     1      -0.251   6.555 -31.153  1.00  0.00     0.008 A 
HETATM   27  C   UNL     1      -0.541   5.256 -31.660  1.00  0.00     0.015 A 
ENDBRANCH  22  23
ENDBRANCH  19  22
ENDBRANCH   7  18
BRANCH   1  28
HETATM   28  C   UNL     1     -10.664   1.616 -33.951  1.00  0.00     0.273 C 
BRANCH  28  29
HETATM   29  C   UNL     1     -12.107   1.847 -33.596  1.00  0.00    -0.031 A 
HETATM   30  C   UNL     1     -12.468   2.856 -32.690  1.00  0.00     0.018 A 
HETATM   31  C   UNL     1     -13.812   3.080 -32.361  1.00  0.00    -0.028 A 
HETATM   32  C   UNL     1     -14.804   2.308 -32.983  1.00  0.00     0.077 A 
HETATM   33  C   UNL     1     -14.164   4.197 -31.417  1.00  0.00     0.051 C 
HETATM   34  C   UNL     1     -14.473   1.302 -33.901  1.00  0.00    -0.028 A 
HETATM   35  C   UNL     1     -15.518   0.469 -34.588  1.00  0.00     0.051 C 
HETATM   36  C   UNL     1     -13.117   1.075 -34.190  1.00  0.00     0.018 A 
BRANCH  32  37
HETATM   37  O   UNL     1     -16.101   2.588 -32.658  1.00  0.00    -0.360 OA
HETATM   38  H   UNL     1     -16.142   3.244 -31.945  1.00  0.00     0.217 HD
ENDBRANCH  32  37
ENDBRANCH  28  29
ENDBRANCH   1  28
TORSDOF 7
ENDMDL
MODEL 3
REMARK VINA RESULT:      -9.5      4.232      9.830
REMARK  7 active torsions:
REMARK  status: ('A' for Active; 'I' for Inactive)
REMARK    1  A    between atoms: C_3  and  O_4 
REMARK    2  A    between atoms: C_8  and  C_9 
REMARK    3  A    between atoms: C_9  and  N_10 
REMARK    4  A    between atoms: C_15  and  O_16 
REMARK    5  A    between atoms: C_18  and  N_19 
REMARK       I    between atoms: N_19  and  C_20 
REMARK    6  A    between atoms: C_20  and  C_21 
REMARK    7  A    between atoms: C_21  and  C_22 
ROOT
HETATM    1  N   UNL     1      -1.217   5.282 -32.931  1.00  0.00    -0.067 N 
HETATM    2  H   UNL     1      -0.242   5.006 -33.094  1.00  0.00     0.280 HD
HETATM    3  C   UNL     1      -1.581   4.673 -31.595  1.00  0.00     0.236 C 
HETATM    4  C   UNL     1      -3.079   4.785 -31.330  1.00  0.00     0.045 C 
HETATM    5  C   UNL     1      -3.944   4.205 -32.475  1.00  0.00     0.019 A 
HETATM    6  C   UNL     1      -3.913   2.619 -32.563  1.00  0.00     0.161 A 
HETATM    7  C   UNL     1      -5.389   2.105 -32.464  1.00  0.00     0.148 A 
HETATM    8  C   UNL     1      -6.196   3.349 -32.256  1.00  0.00    -0.026 A 
HETATM    9  C   UNL     1      -5.411   4.501 -32.238  1.00  0.00    -0.038 A 
HETATM   10  C   UNL     1      -7.572   3.417 -32.056  1.00  0.00     0.010 A 
HETATM   11  C   UNL     1      -8.165   4.662 -31.852  1.00  0.00     0.001 A 
HETATM   12  C   UNL     1      -7.384   5.822 -31.844  1.00  0.00     0.001 A 
HETATM   13  C   UNL     1      -6.004   5.746 -32.038  1.00  0.00     0.009 A 
HETATM   14  C   UNL     1      -3.501   4.856 -33.805  1.00  0.00     0.045 C 
HETATM   15  C   UNL     1      -2.012   4.676 -34.060  1.00  0.00     0.236 C 
ENDROOT
BRANCH   6  16
HETATM   16  O   UNL     1      -3.103   2.091 -31.490  1.00  0.00    -0.387 OA
HETATM   17  C   UNL     1      -3.329   0.702 -31.252  1.00  0.00     0.202 C 
ENDBRANCH   6  16
BRANCH   7  18
HETATM   18  N   UNL     1      -5.892   1.294 -33.566  1.00  0.00    -0.350 N 
HETATM   19  C   UNL     1      -6.412   0.028 -33.440  1.00  0.00     0.223 C 
HETATM   20  O   UNL     1      -6.772  -0.425 -32.351  1.00  0.00    -0.273 OA
HETATM   21  H   UNL     1      -5.504   1.532 -34.473  1.00  0.00     0.163 HD
BRANCH  19  22
HETATM   22  C   UNL     1      -6.563  -0.830 -34.694  1.00  0.00     0.148 C 
BRANCH  22  23
HETATM   23  C   UNL     1      -5.964  -2.202 -34.612  1.00  0.00    -0.009 A 
HETATM   24  S   UNL     1      -4.381  -2.422 -33.992  1.00  0.00    -0.106 SA
HETATM   25  C   UNL     1      -4.471  -4.118 -34.185  1.00  0.00     0.050 A 
HETATM   26  C   UNL     1      -5.686  -4.515 -34.695  1.00  0.00     0.008 A 
HETATM   27  C   UNL     1      -6.549  -3.409 -34.942  1.00  0.00     0.015 A 
ENDBRANCH  22  23
ENDBRANCH  19  22
ENDBRANCH   7  18
BRANCH   1  28
HETATM   28  C   UNL     1      -1.198   6.797 -32.967  1.00  0.00     0.273 C 
BRANCH  28  29
HETATM   29  C   UNL     1      -1.222   7.442 -31.608  1.00  0.00    -0.031 A 
HETATM   30  C   UNL     1      -0.227   7.155 -30.662  1.00  0.00     0.018 A 
HETATM   31  C   UNL     1      -0.242   7.760 -29.397  1.00  0.00    -0.028 A 
HETATM   32  C   UNL     1      -1.245   8.693 -29.099  1.00  0.00     0.077 A 
HETATM   33  C   UNL     1       0.864   7.458 -28.423  1.00  0.00     0.051 C 
HETATM   34  C   UNL     1      -2.244   9.008 -30.030  1.00  0.00    -0.028 A 
HETATM   35  C   UNL     1      -3.323  10.013 -29.737  1.00  0.00     0.051 C 
HETATM   36  C   UNL     1      -2.226   8.365 -31.279  1.00  0.00     0.018 A 
BRANCH  32  37
HETATM   37  O   UNL     1      -1.196   9.282 -27.868  1.00  0.00    -0.360 OA
HETATM   38  H   UNL     1      -0.299   9.236 -27.500  1.00  0.00     0.217 HD
ENDBRANCH  32  37
ENDBRANCH  28  29
ENDBRANCH   1  28
TORSDOF 7
ENDMDL
MODEL 4
REMARK VINA RESULT:      -9.2      4.712      7.500
REMARK  7 active torsions:
REMARK  status: ('A' for Active; 'I' for Inactive)
REMARK    1  A    between atoms: C_3  and  O_4 
REMARK    2  A    between atoms: C_8  and  C_9 
REMARK    3  A    between atoms: C_9  and  N_10 
REMARK    4  A    between atoms: C_15  and  O_16 
REMARK    5  A    between atoms: C_18  and  N_19 
REMARK       I    between atoms: N_19  and  C_20 
REMARK    6  A    between atoms: C_20  and  C_21 
REMARK    7  A    between atoms: C_21  and  C_22 
ROOT
HETATM    1  N   UNL     1      -4.899   1.774 -32.980  1.00  0.00    -0.067 N 
HETATM    2  H   UNL     1      -4.331   1.381 -33.741  1.00  0.00     0.280 HD
HETATM    3  C   UNL     1      -5.683   2.901 -33.616  1.00  0.00     0.236 C 
HETATM    4  C   UNL     1      -6.389   3.743 -32.559  1.00  0.00     0.045 C 
HETATM    5  C   UNL     1      -5.433   4.264 -31.459  1.00  0.00     0.019 A 
HETATM    6  C   UNL     1      -4.451   5.411 -31.953  1.00  0.00     0.161 A 
HETATM    7  C   UNL     1      -4.665   6.657 -31.027  1.00  0.00     0.148 A 
HETATM    8  C   UNL     1      -5.771   6.242 -30.106  1.00  0.00    -0.026 A 
HETATM    9  C   UNL     1      -6.213   4.942 -30.350  1.00  0.00    -0.038 A 
HETATM   10  C   UNL     1      -6.367   7.027 -29.124  1.00  0.00     0.010 A 
HETATM   11  C   UNL     1      -7.407   6.490 -28.367  1.00  0.00     0.001 A 
HETATM   12  C   UNL     1      -7.846   5.184 -28.600  1.00  0.00     0.001 A 
HETATM   13  C   UNL     1      -7.251   4.404 -29.592  1.00  0.00     0.009 A 
HETATM   14  C   UNL     1      -4.654   3.064 -30.875  1.00  0.00     0.045 C 
HETATM   15  C   UNL     1      -3.920   2.281 -31.952  1.00  0.00     0.236 C 
ENDROOT
BRANCH   6  16
HETATM   16  O   UNL     1      -4.736   5.732 -33.332  1.00  0.00    -0.387 OA
HETATM   17  C   UNL     1      -3.562   5.820 -34.138  1.00  0.00     0.202 C 
ENDBRANCH   6  16
BRANCH   7  18
HETATM   18  N   UNL     1      -3.505   7.165 -30.307  1.00  0.00    -0.350 N 
HETATM   19  C   UNL     1      -2.533   7.973 -30.847  1.00  0.00     0.223 C 
HETATM   20  O   UNL     1      -2.704   8.583 -31.905  1.00  0.00    -0.273 OA
HETATM   21  H   UNL     1      -3.230   6.605 -29.507  1.00  0.00     0.163 HD
BRANCH  19  22
HETATM   22  C   UNL     1      -1.212   8.131 -30.098  1.00  0.00     0.148 C 
BRANCH  22  23
HETATM   23  C   UNL     1      -0.330   6.917 -30.083  1.00  0.00    -0.009 A 
HETATM   24  S   UNL     1       0.097   6.174 -28.598  1.00  0.00    -0.106 SA
HETATM   25  C   UNL     1       0.994   4.955 -29.391  1.00  0.00     0.050 A 
HETATM   26  C   UNL     1       0.958   5.097 -30.760  1.00  0.00     0.008 A 
HETATM   27  C   UNL     1       0.193   6.230 -31.161  1.00  0.00     0.015 A 
ENDBRANCH  22  23
ENDBRANCH  19  22
ENDBRANCH   7  18
BRANCH   1  28
HETATM   28  C   UNL     1      -5.731   0.609 -32.482  1.00  0.00     0.273 C 
BRANCH  28  29
HETATM   29  C   UNL     1      -5.205  -0.739 -32.892  1.00  0.00    -0.031 A 
HETATM   30  C   UNL     1      -4.203  -1.375 -32.143  1.00  0.00     0.018 A 
HETATM   31  C   UNL     1      -3.714  -2.634 -32.518  1.00  0.00    -0.028 A 
HETATM   32  C   UNL     1      -4.270  -3.277 -33.633  1.00  0.00     0.077 A 
HETATM   33  C   UNL     1      -2.668  -3.302 -31.667  1.00  0.00     0.051 C 
HETATM   34  C   UNL     1      -5.281  -2.671 -34.392  1.00  0.00    -0.028 A 
HETATM   35  C   UNL     1      -5.899  -3.345 -35.585  1.00  0.00     0.051 C 
HETATM   36  C   UNL     1      -5.731  -1.395 -34.016  1.00  0.00     0.018 A 
BRANCH  32  37
HETATM   37  O   UNL     1      -3.787  -4.518 -33.936  1.00  0.00    -0.360 OA
HETATM   38  H   UNL     1      -4.244  -4.885 -34.709  1.00  0.00     0.217 HD
ENDBRANCH  32  37
ENDBRANCH  28  29
ENDBRANCH   1  28
TORSDOF 7
ENDMDL
MODEL 5
REMARK VINA RESULT:      -9.1      3.204      9.486
REMARK  7 active torsions:
REMARK  status: ('A' for Active; 'I' for Inactive)
REMARK    1  A    between atoms: C_3  and  O_4 
REMARK    2  A    between atoms: C_8  and  C_9 
REMARK    3  A    between atoms: C_9  and  N_10 
REMARK    4  A    between atoms: C_15  and  O_16 
REMARK    5  A    between atoms: C_18  and  N_19 
REMARK       I    between atoms: N_19  and  C_20 
REMARK    6  A    between atoms: C_20  and  C_21 
REMARK    7  A    between atoms: C_21  and  C_22 
ROOT
HETATM    1  N   UNL     1      -6.860   5.249 -31.355  1.00  0.00    -0.067 N 
HETATM    2  H   UNL     1      -7.187   6.145 -30.974  1.00  0.00     0.280 HD
HETATM    3  C   UNL     1      -6.900   5.423 -32.857  1.00  0.00     0.236 C 
HETATM    4  C   UNL     1      -6.678   4.092 -33.569  1.00  0.00     0.045 C 
HETATM    5  C   UNL     1      -7.649   2.982 -33.098  1.00  0.00     0.019 A 
HETATM    6  C   UNL     1      -9.144   3.184 -33.592  1.00  0.00     0.161 A 
HETATM    7  C   UNL     1      -9.566   1.900 -34.383  1.00  0.00     0.148 A 
HETATM    8  C   UNL     1      -8.331   1.053 -34.389  1.00  0.00    -0.026 A 
HETATM    9  C   UNL     1      -7.269   1.647 -33.708  1.00  0.00    -0.038 A 
HETATM   10  C   UNL     1      -8.176  -0.179 -35.019  1.00  0.00     0.010 A 
HETATM   11  C   UNL     1      -6.944  -0.826 -34.946  1.00  0.00     0.001 A 
HETATM   12  C   UNL     1      -5.880  -0.240 -34.254  1.00  0.00     0.001 A 
HETATM   13  C   UNL     1      -6.038   0.999 -33.632  1.00  0.00     0.009 A 
HETATM   14  C   UNL     1      -7.569   2.880 -31.558  1.00  0.00     0.045 C 
HETATM   15  C   UNL     1      -7.848   4.213 -30.882  1.00  0.00     0.236 C 
ENDROOT
BRANCH   6  16
HETATM   16  O   UNL     1      -9.224   4.360 -34.427  1.00  0.00    -0.387 OA
HETATM   17  C   UNL     1     -10.565   4.769 -34.690  1.00  0.00     0.202 C 
ENDBRANCH   6  16
BRANCH   7  18
HETATM   18  N   UNL     1     -10.736   1.171 -33.907  1.00  0.00    -0.350 N 
HETATM   19  C   UNL     1     -11.997   1.267 -34.445  1.00  0.00     0.223 C 
HETATM   20  O   UNL     1     -12.196   1.751 -35.561  1.00  0.00    -0.273 OA
HETATM   21  H   UNL     1     -10.682   0.881 -32.936  1.00  0.00     0.163 HD
BRANCH  19  22
HETATM   22  C   UNL     1     -13.179   0.738 -33.637  1.00  0.00     0.148 C 
BRANCH  22  23
HETATM   23  C   UNL     1     -14.043   1.784 -32.998  1.00  0.00    -0.009 A 
HETATM   24  S   UNL     1     -13.377   3.295 -32.535  1.00  0.00    -0.106 SA
HETATM   25  C   UNL     1     -14.890   3.866 -31.982  1.00  0.00     0.050 A 
HETATM   26  C   UNL     1     -15.888   2.935 -32.158  1.00  0.00     0.008 A 
HETATM   27  C   UNL     1     -15.400   1.732 -32.745  1.00  0.00     0.015 A 
ENDBRANCH  22  23
ENDBRANCH  19  22
ENDBRANCH   7  18
BRANCH   1  28
HETATM   28  C   UNL     1      -5.477   5.063 -30.762  1.00  0.00     0.273 C 
BRANCH  28  29
HETATM   29  C   UNL     1      -4.449   6.025 -31.291  1.00  0.00    -0.031 A 
HETATM   30  C   UNL     1      -4.384   7.340 -30.807  1.00  0.00     0.018 A 
HETATM   31  C   UNL     1      -3.423   8.238 -31.292  1.00  0.00    -0.028 A 
HETATM   32  C   UNL     1      -2.493   7.794 -32.243  1.00  0.00     0.077 A 
HETATM   33  C   UNL     1      -3.359   9.629 -30.721  1.00  0.00     0.051 C 
HETATM   34  C   UNL     1      -2.527   6.482 -32.734  1.00  0.00    -0.028 A 
HETATM   35  C   UNL     1      -1.534   5.979 -33.745  1.00  0.00     0.051 C 
HETATM   36  C   UNL     1      -3.519   5.610 -32.256  1.00  0.00     0.018 A 
BRANCH  32  37
HETATM   37  O   UNL     1      -1.554   8.695 -32.657  1.00  0.00    -0.360 OA
HETATM   38  H   UNL     1      -1.960   9.558 -32.834  1.00  0.00     0.217 HD
ENDBRANCH  32  37
ENDBRANCH  28  29
ENDBRANCH   1  28
TORSDOF 7
ENDMDL
MODEL 6
REMARK VINA RESULT:      -8.9      4.961      7.537
REMARK  7 active torsions:
REMARK  status: ('A' for Active; 'I' for Inactive)
REMARK    1  A    between atoms: C_3  and  O_4 
REMARK    2  A    between atoms: C_8  and  C_9 
REMARK    3  A    between atoms: C_9  and  N_10 
REMARK    4  A    between atoms: C_15  and  O_16 
REMARK    5  A    between atoms: C_18  and  N_19 
REMARK       I    between atoms: N_19  and  C_20 
REMARK    6  A    between atoms: C_20  and  C_21 
REMARK    7  A    between atoms: C_21  and  C_22 
ROOT
HETATM    1  N   UNL     1      -4.716   1.810 -33.099  1.00  0.00    -0.067 N 
HETATM    2  H   UNL     1      -4.226   1.426 -33.917  1.00  0.00     0.280 HD
HETATM    3  C   UNL     1      -5.323   3.111 -33.579  1.00  0.00     0.236 C 
HETATM    4  C   UNL     1      -5.874   3.922 -32.412  1.00  0.00     0.045 C 
HETATM    5  C   UNL     1      -4.833   4.159 -31.290  1.00  0.00     0.019 A 
HETATM    6  C   UNL     1      -3.691   5.191 -31.682  1.00  0.00     0.161 A 
HETATM    7  C   UNL     1      -3.696   6.338 -30.615  1.00  0.00     0.148 A 
HETATM    8  C   UNL     1      -4.841   5.993 -29.713  1.00  0.00    -0.026 A 
HETATM    9  C   UNL     1      -5.484   4.814 -30.089  1.00  0.00    -0.038 A 
HETATM   10  C   UNL     1      -5.293   6.741 -28.630  1.00  0.00     0.010 A 
HETATM   11  C   UNL     1      -6.395   6.285 -27.907  1.00  0.00     0.001 A 
HETATM   12  C   UNL     1      -7.036   5.098 -28.272  1.00  0.00     0.001 A 
HETATM   13  C   UNL     1      -6.583   4.357 -29.364  1.00  0.00     0.009 A 
HETATM   14  C   UNL     1      -4.245   2.793 -30.870  1.00  0.00     0.045 C 
HETATM   15  C   UNL     1      -3.657   2.037 -32.051  1.00  0.00     0.236 C 
ENDROOT
BRANCH   6  16
HETATM   16  O   UNL     1      -3.940   5.710 -33.006  1.00  0.00    -0.387 OA
HETATM   17  C   UNL     1      -2.758   5.810 -33.798  1.00  0.00     0.202 C 
ENDBRANCH   6  16
BRANCH   7  18
HETATM   18  N   UNL     1      -2.460   6.574 -29.878  1.00  0.00    -0.350 N 
HETATM   19  C   UNL     1      -1.365   7.243 -30.369  1.00  0.00     0.223 C 
HETATM   20  O   UNL     1      -1.432   7.960 -31.370  1.00  0.00    -0.273 OA
HETATM   21  H   UNL     1      -2.284   5.909 -29.132  1.00  0.00     0.163 HD
BRANCH  19  22
HETATM   22  C   UNL     1      -0.033   7.105 -29.636  1.00  0.00     0.148 C 
BRANCH  22  23
HETATM   23  C   UNL     1       0.230   8.135 -28.578  1.00  0.00    -0.009 A 
HETATM   24  S   UNL     1      -1.034   9.157 -28.029  1.00  0.00    -0.106 SA
HETATM   25  C   UNL     1      -0.008   9.931 -26.904  1.00  0.00     0.050 A 
HETATM   26  C   UNL     1       1.268   9.414 -26.929  1.00  0.00     0.008 A 
HETATM   27  C   UNL     1       1.406   8.377 -27.895  1.00  0.00     0.015 A 
ENDBRANCH  22  23
ENDBRANCH  19  22
ENDBRANCH   7  18
BRANCH   1  28
HETATM   28  C   UNL     1      -5.713   0.737 -32.711  1.00  0.00     0.273 C 
BRANCH  28  29
HETATM   29  C   UNL     1      -5.265  -0.662 -33.034  1.00  0.00    -0.031 A 
HETATM   30  C   UNL     1      -5.805  -1.351 -34.131  1.00  0.00     0.018 A 
HETATM   31  C   UNL     1      -5.385  -2.652 -34.440  1.00  0.00    -0.028 A 
HETATM   32  C   UNL     1      -4.382  -3.248 -33.663  1.00  0.00     0.077 A 
HETATM   33  C   UNL     1      -5.958  -3.345 -35.647  1.00  0.00     0.051 C 
HETATM   34  C   UNL     1      -3.816  -2.578 -32.569  1.00  0.00    -0.028 A 
HETATM   35  C   UNL     1      -2.732  -3.192 -31.727  1.00  0.00     0.051 C 
HETATM   36  C   UNL     1      -4.276  -1.287 -32.260  1.00  0.00     0.018 A 
BRANCH  32  37
HETATM   37  O   UNL     1      -3.981  -4.502 -34.025  1.00  0.00    -0.360 OA
HETATM   38  H   UNL     1      -4.396  -4.768 -34.860  1.00  0.00     0.217 HD
ENDBRANCH  32  37
ENDBRANCH  28  29
ENDBRANCH   1  28
TORSDOF 7
ENDMDL
MODEL 7
REMARK VINA RESULT:      -8.8      4.099      8.878
REMARK  7 active torsions:
REMARK  status: ('A' for Active; 'I' for Inactive)
REMARK    1  A    between atoms: C_3  and  O_4 
REMARK    2  A    between atoms: C_8  and  C_9 
REMARK    3  A    between atoms: C_9  and  N_10 
REMARK    4  A    between atoms: C_15  and  O_16 
REMARK    5  A    between atoms: C_18  and  N_19 
REMARK       I    between atoms: N_19  and  C_20 
REMARK    6  A    between atoms: C_20  and  C_21 
REMARK    7  A    between atoms: C_21  and  C_22 
ROOT
HETATM    1  N   UNL     1      -7.259   0.022 -34.255  1.00  0.00    -0.067 N 
HETATM    2  H   UNL     1      -7.356  -0.679 -34.999  1.00  0.00     0.280 HD
HETATM    3  C   UNL     1      -8.282  -0.368 -33.211  1.00  0.00     0.236 C 
HETATM    4  C   UNL     1      -8.432   0.722 -32.155  1.00  0.00     0.045 C 
HETATM    5  C   UNL     1      -8.737   2.115 -32.759  1.00  0.00     0.019 A 
HETATM    6  C   UNL     1     -10.207   2.253 -33.346  1.00  0.00     0.161 A 
HETATM    7  C   UNL     1     -10.898   3.462 -32.630  1.00  0.00     0.148 A 
HETATM    8  C   UNL     1      -9.879   3.928 -31.636  1.00  0.00    -0.026 A 
HETATM    9  C   UNL     1      -8.701   3.182 -31.684  1.00  0.00    -0.038 A 
HETATM   10  C   UNL     1     -10.037   4.956 -30.710  1.00  0.00     0.010 A 
HETATM   11  C   UNL     1      -8.991   5.246 -29.836  1.00  0.00     0.001 A 
HETATM   12  C   UNL     1      -7.804   4.508 -29.887  1.00  0.00     0.001 A 
HETATM   13  C   UNL     1      -7.654   3.474 -30.812  1.00  0.00     0.009 A 
HETATM   14  C   UNL     1      -7.667   2.433 -33.828  1.00  0.00     0.045 C 
HETATM   15  C   UNL     1      -7.584   1.350 -34.892  1.00  0.00     0.236 C 
ENDROOT
BRANCH   6  16
HETATM   16  O   UNL     1     -10.936   1.027 -33.119  1.00  0.00    -0.387 OA
HETATM   17  C   UNL     1     -12.170   0.971 -33.832  1.00  0.00     0.202 C 
ENDBRANCH   6  16
BRANCH   7  18
HETATM   18  N   UNL     1     -11.391   4.547 -33.469  1.00  0.00    -0.350 N 
HETATM   19  C   UNL     1     -12.701   4.719 -33.846  1.00  0.00     0.223 C 
HETATM   20  O   UNL     1     -13.627   4.143 -33.271  1.00  0.00    -0.273 OA
HETATM   21  H   UNL     1     -10.690   4.957 -34.078  1.00  0.00     0.163 HD
BRANCH  19  22
HETATM   22  C   UNL     1     -13.012   5.670 -34.999  1.00  0.00     0.148 C 
BRANCH  22  23
HETATM   23  C   UNL     1     -12.282   6.980 -34.969  1.00  0.00    -0.009 A 
HETATM   24  S   UNL     1     -12.565   8.102 -33.703  1.00  0.00    -0.106 SA
HETATM   25  C   UNL     1     -11.417   9.200 -34.332  1.00  0.00     0.050 A 
HETATM   26  C   UNL     1     -10.817   8.721 -35.474  1.00  0.00     0.008 A 
HETATM   27  C   UNL     1     -11.315   7.438 -35.843  1.00  0.00     0.015 A 
ENDBRANCH  22  23
ENDBRANCH  19  22
ENDBRANCH   7  18
BRANCH   1  28
HETATM   28  C   UNL     1      -5.813  -0.084 -33.814  1.00  0.00     0.273 C 
BRANCH  28  29
HETATM   29  C   UNL     1      -5.276  -1.489 -33.808  1.00  0.00    -0.031 A 
HETATM   30  C   UNL     1      -4.288  -1.874 -32.889  1.00  0.00     0.018 A 
HETATM   31  C   UNL     1      -3.790  -3.184 -32.875  1.00  0.00    -0.028 A 
HETATM   32  C   UNL     1      -4.322  -4.125 -33.767  1.00  0.00     0.077 A 
HETATM   33  C   UNL     1      -2.760  -3.570 -31.849  1.00  0.00     0.051 C 
HETATM   34  C   UNL     1      -5.319  -3.772 -34.687  1.00  0.00    -0.028 A 
HETATM   35  C   UNL     1      -5.912  -4.766 -35.647  1.00  0.00     0.051 C 
HETATM   36  C   UNL     1      -5.779  -2.445 -34.704  1.00  0.00     0.018 A 
BRANCH  32  37
HETATM   37  O   UNL     1      -3.831  -5.398 -33.691  1.00  0.00    -0.360 OA
HETATM   38  H   UNL     1      -2.862  -5.389 -33.639  1.00  0.00     0.217 HD
ENDBRANCH  32  37
ENDBRANCH  28  29
ENDBRANCH   1  28
TORSDOF 7
ENDMDL
MODEL 8
REMARK VINA RESULT:      -8.6      1.689      2.195
REMARK  7 active torsions:
REMARK  status: ('A' for Active; 'I' for Inactive)
REMARK    1  A    between atoms: C_3  and  O_4 
REMARK    2  A    between atoms: C_8  and  C_9 
REMARK    3  A    between atoms: C_9  and  N_10 
REMARK    4  A    between atoms: C_15  and  O_16 
REMARK    5  A    between atoms: C_18  and  N_19 
REMARK       I    between atoms: N_19  and  C_20 
REMARK    6  A    between atoms: C_20  and  C_21 
REMARK    7  A    between atoms: C_21  and  C_22 
ROOT
HETATM    1  N   UNL     1      -9.636   3.762 -32.903  1.00  0.00    -0.067 N 
HETATM    2  H   UNL     1     -10.227   4.597 -32.818  1.00  0.00     0.280 HD
HETATM    3  C   UNL     1      -9.615   3.152 -31.519  1.00  0.00     0.236 C 
HETATM    4  C   UNL     1      -8.577   2.040 -31.424  1.00  0.00     0.045 C 
HETATM    5  C   UNL     1      -7.163   2.488 -31.871  1.00  0.00     0.019 A 
HETATM    6  C   UNL     1      -6.447   3.468 -30.846  1.00  0.00     0.161 A 
HETATM    7  C   UNL     1      -5.079   2.821 -30.442  1.00  0.00     0.148 A 
HETATM    8  C   UNL     1      -5.072   1.504 -31.156  1.00  0.00    -0.026 A 
HETATM    9  C   UNL     1      -6.219   1.304 -31.923  1.00  0.00    -0.038 A 
HETATM   10  C   UNL     1      -4.085   0.526 -31.076  1.00  0.00     0.010 A 
HETATM   11  C   UNL     1      -4.248  -0.659 -31.791  1.00  0.00     0.001 A 
HETATM   12  C   UNL     1      -5.391  -0.861 -32.570  1.00  0.00     0.001 A 
HETATM   13  C   UNL     1      -6.381   0.120 -32.640  1.00  0.00     0.009 A 
HETATM   14  C   UNL     1      -7.269   3.117 -33.279  1.00  0.00     0.045 C 
HETATM   15  C   UNL     1      -8.275   4.257 -33.320  1.00  0.00     0.236 C 
ENDROOT
BRANCH   6  16
HETATM   16  O   UNL     1      -7.292   3.664 -29.692  1.00  0.00    -0.387 OA
HETATM   17  C   UNL     1      -7.602   5.036 -29.453  1.00  0.00     0.202 C 
ENDBRANCH   6  16
BRANCH   7  18
HETATM   18  N   UNL     1      -3.870   3.595 -30.694  1.00  0.00    -0.350 N 
HETATM   19  C   UNL     1      -3.763   4.958 -30.553  1.00  0.00     0.223 C 
HETATM   20  O   UNL     1      -4.591   5.616 -29.919  1.00  0.00    -0.273 OA
HETATM   21  H   UNL     1      -3.218   3.158 -31.337  1.00  0.00     0.163 HD
BRANCH  19  22
HETATM   22  C   UNL     1      -2.569   5.668 -31.186  1.00  0.00     0.148 C 
BRANCH  22  23
HETATM   23  C   UNL     1      -2.435   5.505 -32.671  1.00  0.00    -0.009 A 
HETATM   24  S   UNL     1      -3.821   5.570 -33.679  1.00  0.00    -0.106 SA
HETATM   25  C   UNL     1      -2.883   5.360 -35.092  1.00  0.00     0.050 A 
HETATM   26  C   UNL     1      -1.540   5.259 -34.809  1.00  0.00     0.008 A 
HETATM   27  C   UNL     1      -1.280   5.343 -33.411  1.00  0.00     0.015 A 
ENDBRANCH  22  23
ENDBRANCH  19  22
ENDBRANCH   7  18
BRANCH   1  28
HETATM   28  C   UNL     1     -10.312   2.921 -33.969  1.00  0.00     0.273 C 
BRANCH  28  29
HETATM   29  C   UNL     1     -11.736   2.557 -33.650  1.00  0.00    -0.031 A 
HETATM   30  C   UNL     1     -12.187   1.237 -33.797  1.00  0.00     0.018 A 
HETATM   31  C   UNL     1     -13.512   0.891 -33.494  1.00  0.00    -0.028 A 
HETATM   32  C   UNL     1     -14.377   1.877 -33.000  1.00  0.00     0.077 A 
HETATM   33  C   UNL     1     -13.948  -0.542 -33.626  1.00  0.00     0.051 C 
HETATM   34  C   UNL     1     -13.950   3.201 -32.831  1.00  0.00    -0.028 A 
HETATM   35  C   UNL     1     -14.856   4.273 -32.292  1.00  0.00     0.051 C 
HETATM   36  C   UNL     1     -12.627   3.530 -33.171  1.00  0.00     0.018 A 
BRANCH  32  37
HETATM   37  O   UNL     1     -15.647   1.484 -32.685  1.00  0.00    -0.360 OA
HETATM   38  H   UNL     1     -16.144   1.255 -33.486  1.00  0.00     0.217 HD
ENDBRANCH  32  37
ENDBRANCH  28  29
ENDBRANCH   1  28
TORSDOF 7
ENDMDL
MODEL 9
REMARK VINA RESULT:      -8.6      4.050      8.840
REMARK  7 active torsions:
REMARK  status: ('A' for Active; 'I' for Inactive)
REMARK    1  A    between atoms: C_3  and  O_4 
REMARK    2  A    between atoms: C_8  and  C_9 
REMARK    3  A    between atoms: C_9  and  N_10 
REMARK    4  A    between atoms: C_15  and  O_16 
REMARK    5  A    between atoms: C_18  and  N_19 
REMARK       I    between atoms: N_19  and  C_20 
REMARK    6  A    between atoms: C_20  and  C_21 
REMARK    7  A    between atoms: C_21  and  C_22 
ROOT
HETATM    1  N   UNL     1      -7.256   0.002 -34.261  1.00  0.00    -0.067 N 
HETATM    2  H   UNL     1      -7.336  -0.692 -35.013  1.00  0.00     0.280 HD
HETATM    3  C   UNL     1      -8.317  -0.385 -33.254  1.00  0.00     0.236 C 
HETATM    4  C   UNL     1      -8.492   0.699 -32.196  1.00  0.00     0.045 C 
HETATM    5  C   UNL     1      -8.762   2.099 -32.799  1.00  0.00     0.019 A 
HETATM    6  C   UNL     1     -10.211   2.255 -33.433  1.00  0.00     0.161 A 
HETATM    7  C   UNL     1     -10.913   3.467 -32.730  1.00  0.00     0.148 A 
HETATM    8  C   UNL     1      -9.923   3.915 -31.700  1.00  0.00    -0.026 A 
HETATM    9  C   UNL     1      -8.752   3.158 -31.715  1.00  0.00    -0.038 A 
HETATM   10  C   UNL     1     -10.102   4.938 -30.772  1.00  0.00     0.010 A 
HETATM   11  C   UNL     1      -9.082   5.211 -29.862  1.00  0.00     0.001 A 
HETATM   12  C   UNL     1      -7.902   4.462 -29.880  1.00  0.00     0.001 A 
HETATM   13  C   UNL     1      -7.732   3.433 -30.807  1.00  0.00     0.009 A 
HETATM   14  C   UNL     1      -7.655   2.414 -33.829  1.00  0.00     0.045 C 
HETATM   15  C   UNL     1      -7.548   1.337 -34.898  1.00  0.00     0.236 C 
ENDROOT
BRANCH   6  16
HETATM   16  O   UNL     1     -10.959   1.035 -33.239  1.00  0.00    -0.387 OA
HETATM   17  C   UNL     1     -12.214   1.036 -33.916  1.00  0.00     0.202 C 
ENDBRANCH   6  16
BRANCH   7  18
HETATM   18  N   UNL     1     -11.368   4.562 -33.577  1.00  0.00    -0.350 N 
HETATM   19  C   UNL     1     -12.682   4.854 -33.850  1.00  0.00     0.223 C 
HETATM   20  O   UNL     1     -13.607   4.401 -33.172  1.00  0.00    -0.273 OA
HETATM   21  H   UNL     1     -10.686   4.872 -34.263  1.00  0.00     0.163 HD
BRANCH  19  22
HETATM   22  C   UNL     1     -12.998   5.786 -35.019  1.00  0.00     0.148 C 
BRANCH  22  23
HETATM   23  C   UNL     1     -12.390   7.154 -34.934  1.00  0.00    -0.009 A 
HETATM   24  S   UNL     1     -10.955   7.521 -35.799  1.00  0.00    -0.106 SA
HETATM   25  C   UNL     1     -10.960   9.139 -35.248  1.00  0.00     0.050 A 
HETATM   26  C   UNL     1     -12.038   9.404 -34.435  1.00  0.00     0.008 A 
HETATM   27  C   UNL     1     -12.866   8.258 -34.253  1.00  0.00     0.015 A 
ENDBRANCH  22  23
ENDBRANCH  19  22
ENDBRANCH   7  18
BRANCH   1  28
HETATM   28  C   UNL     1      -5.827  -0.122 -33.773  1.00  0.00     0.273 C 
BRANCH  28  29
HETATM   29  C   UNL     1      -5.309  -1.534 -33.746  1.00  0.00    -0.031 A 
HETATM   30  C   UNL     1      -5.796  -2.492 -34.647  1.00  0.00     0.018 A 
HETATM   31  C   UNL     1      -5.311  -3.808 -34.630  1.00  0.00    -0.028 A 
HETATM   32  C   UNL     1      -4.298  -4.149 -33.724  1.00  0.00     0.077 A 
HETATM   33  C   UNL     1      -5.829  -4.797 -35.638  1.00  0.00     0.051 C 
HETATM   34  C   UNL     1      -3.783  -3.208 -32.820  1.00  0.00    -0.028 A 
HETATM   35  C   UNL     1      -2.689  -3.547 -31.847  1.00  0.00     0.051 C 
HETATM   36  C   UNL     1      -4.308  -1.905 -32.836  1.00  0.00     0.018 A 
BRANCH  32  37
HETATM   37  O   UNL     1      -3.833  -5.432 -33.770  1.00  0.00    -0.360 OA
HETATM   38  H   UNL     1      -3.618  -5.687 -34.681  1.00  0.00     0.217 HD
ENDBRANCH  32  37
ENDBRANCH  28  29
ENDBRANCH   1  28
TORSDOF 7
ENDMDL
MODEL 10
REMARK VINA RESULT:      -8.5      3.029      9.923
REMARK  7 active torsions:
REMARK  status: ('A' for Active; 'I' for Inactive)
REMARK    1  A    between atoms: C_3  and  O_4 
REMARK    2  A    between atoms: C_8  and  C_9 
REMARK    3  A    between atoms: C_9  and  N_10 
REMARK    4  A    between atoms: C_15  and  O_16 
REMARK    5  A    between atoms: C_18  and  N_19 
REMARK       I    between atoms: N_19  and  C_20 
REMARK    6  A    between atoms: C_20  and  C_21 
REMARK    7  A    between atoms: C_21  and  C_22 
ROOT
HETATM    1  N   UNL     1      -2.827   4.837 -34.107  1.00  0.00    -0.067 N 
HETATM    2  H   UNL     1      -2.242   4.510 -34.886  1.00  0.00     0.280 HD
HETATM    3  C   UNL     1      -2.784   3.719 -33.088  1.00  0.00     0.236 C 
HETATM    4  C   UNL     1      -3.806   3.948 -31.980  1.00  0.00     0.045 C 
HETATM    5  C   UNL     1      -5.241   4.178 -32.514  1.00  0.00     0.019 A 
HETATM    6  C   UNL     1      -5.925   2.870 -33.099  1.00  0.00     0.161 A 
HETATM    7  C   UNL     1      -7.269   2.645 -32.326  1.00  0.00     0.148 A 
HETATM    8  C   UNL     1      -7.291   3.741 -31.306  1.00  0.00    -0.026 A 
HETATM    9  C   UNL     1      -6.174   4.572 -31.386  1.00  0.00    -0.038 A 
HETATM   10  C   UNL     1      -8.264   3.943 -30.331  1.00  0.00     0.010 A 
HETATM   11  C   UNL     1      -8.117   5.005 -29.439  1.00  0.00     0.001 A 
HETATM   12  C   UNL     1      -7.005   5.847 -29.523  1.00  0.00     0.001 A 
HETATM   13  C   UNL     1      -6.029   5.635 -30.497  1.00  0.00     0.009 A 
HETATM   14  C   UNL     1      -5.200   5.314 -33.562  1.00  0.00     0.045 C 
HETATM   15  C   UNL     1      -4.209   5.024 -34.678  1.00  0.00     0.236 C 
ENDROOT
BRANCH   6  16
HETATM   16  O   UNL     1      -5.036   1.744 -32.936  1.00  0.00    -0.387 OA
HETATM   17  C   UNL     1      -5.664   0.492 -33.207  1.00  0.00     0.202 C 
ENDBRANCH   6  16
BRANCH   7  18
HETATM   18  N   UNL     1      -8.496   2.593 -33.112  1.00  0.00    -0.350 N 
HETATM   19  C   UNL     1      -9.413   1.570 -33.075  1.00  0.00     0.223 C 
HETATM   20  O   UNL     1      -9.433   0.743 -32.161  1.00  0.00    -0.273 OA
HETATM   21  H   UNL     1      -8.471   3.145 -33.963  1.00  0.00     0.163 HD
BRANCH  19  22
HETATM   22  C   UNL     1     -10.447   1.475 -34.194  1.00  0.00     0.148 C 
BRANCH  22  23
HETATM   23  C   UNL     1     -11.879   1.580 -33.759  1.00  0.00    -0.009 A 
HETATM   24  S   UNL     1     -12.467   3.031 -33.058  1.00  0.00    -0.106 SA
HETATM   25  C   UNL     1     -14.045   2.393 -32.904  1.00  0.00     0.050 A 
HETATM   26  C   UNL     1     -14.131   1.108 -33.389  1.00  0.00     0.008 A 
HETATM   27  C   UNL     1     -12.880   0.638 -33.884  1.00  0.00     0.015 A 
ENDBRANCH  22  23
ENDBRANCH  19  22
ENDBRANCH   7  18
BRANCH   1  28
HETATM   28  C   UNL     1      -2.186   6.138 -33.666  1.00  0.00     0.273 C 
BRANCH  28  29
HETATM   29  C   UNL     1      -1.766   6.156 -32.223  1.00  0.00    -0.031 A 
HETATM   30  C   UNL     1      -0.601   5.493 -31.808  1.00  0.00     0.018 A 
HETATM   31  C   UNL     1      -0.201   5.513 -30.464  1.00  0.00    -0.028 A 
HETATM   32  C   UNL     1      -0.960   6.242 -29.538  1.00  0.00     0.077 A 
HETATM   33  C   UNL     1       1.075   4.824 -30.064  1.00  0.00     0.051 C 
HETATM   34  C   UNL     1      -2.122   6.924 -29.927  1.00  0.00    -0.028 A 
HETATM   35  C   UNL     1      -2.946   7.721 -28.954  1.00  0.00     0.051 C 
HETATM   36  C   UNL     1      -2.519   6.863 -31.273  1.00  0.00     0.018 A 
BRANCH  32  37
HETATM   37  O   UNL     1      -0.511   6.261 -28.249  1.00  0.00    -0.360 OA
HETATM   38  H   UNL     1      -1.248   6.382 -27.630  1.00  0.00     0.217 HD
ENDBRANCH  32  37
ENDBRANCH  28  29
ENDBRANCH   1  28
TORSDOF 7
ENDMDL
