MODEL 1
REMARK VINA RESULT:      -9.7      0.000      0.000
REMARK  3 active torsions:
REMARK  status: ('A' for Active; 'I' for Inactive)
REMARK    1  A    between atoms: C_5  and  C_6 
REMARK    2  A    between atoms: C_10  and  C_11 
REMARK       I    between atoms: C_11  and  N_12 
REMARK    3  A    between atoms: N_12  and  N_13 
ROOT
HETATM    1  C   UNL     1      -9.927   1.797 -32.954  1.00  0.00     0.289 C 
HETATM    2  N   UNL     1     -11.066   1.989 -33.718  1.00  0.00    -0.241 N 
HETATM    3  O   UNL     1      -9.725   2.337 -31.868  1.00  0.00    -0.264 OA
HETATM    4  H   UNL     1     -11.173   1.524 -34.618  1.00  0.00     0.192 HD
ENDROOT
BRANCH   1   5
HETATM    5  C   UNL     1      -8.954   0.905 -33.532  1.00  0.00     0.121 A 
HETATM    6  N   UNL     1      -8.711   0.905 -34.877  1.00  0.00    -0.272 N 
HETATM    7  N   UNL     1      -7.803   0.004 -35.274  1.00  0.00    -0.174 NA
HETATM    8  H   UNL     1      -9.155   1.500 -35.571  1.00  0.00     0.189 HD
HETATM    9  C   UNL     1      -7.409  -0.603 -34.143  1.00  0.00     0.089 A 
HETATM   10  C   UNL     1      -8.110  -0.064 -33.025  1.00  0.00     0.071 A 
BRANCH   9  11
HETATM   11  C   UNL     1      -6.402  -1.670 -34.158  1.00  0.00    -0.006 A 
HETATM   12  C   UNL     1      -5.120  -1.468 -33.630  1.00  0.00     0.014 A 
HETATM   13  C   UNL     1      -4.170  -2.496 -33.646  1.00  0.00     0.007 A 
HETATM   14  C   UNL     1      -4.481  -3.743 -34.198  1.00  0.00    -0.062 A 
HETATM   15  C   UNL     1      -3.479  -4.859 -34.194  1.00  0.00     0.048 C 
HETATM   16  C   UNL     1      -5.762  -3.954 -34.717  1.00  0.00     0.007 A 
HETATM   17  C   UNL     1      -6.709  -2.924 -34.703  1.00  0.00     0.014 A 
ENDBRANCH   9  11
ENDBRANCH   1   5
BRANCH   2  18
HETATM   18  N   UNL     1     -12.049   2.842 -33.294  1.00  0.00    -0.165 NA
HETATM   19  C   UNL     1     -13.226   2.331 -33.123  1.00  0.00     0.157 A 
HETATM   20  C   UNL     1     -13.674   0.880 -33.326  1.00  0.00     0.277 A 
HETATM   21  C   UNL     1     -14.412   3.057 -32.688  1.00  0.00     0.027 A 
HETATM   22  O   UNL     1     -12.947  -0.021 -33.690  1.00  0.00    -0.266 OA
HETATM   23  N   UNL     1     -15.015   0.859 -33.016  1.00  0.00    -0.321 N 
HETATM   24  C   UNL     1     -15.452   2.129 -32.644  1.00  0.00     0.048 A 
HETATM   25  H   UNL     1     -15.586   0.028 -33.062  1.00  0.00     0.169 HD
HETATM   26  C   UNL     1     -16.726   2.502 -32.270  1.00  0.00     0.030 A 
HETATM   27  C   UNL     1     -16.930   3.848 -31.938  1.00  0.00     0.002 A 
HETATM   28  C   UNL     1     -15.871   4.781 -31.986  1.00  0.00     0.001 A 
HETATM   29  C   UNL     1     -14.587   4.386 -32.367  1.00  0.00     0.016 A 
ENDBRANCH   2  18
TORSDOF 3
ENDMDL
MODEL 2
REMARK VINA RESULT:      -9.3      7.236     10.973
REMARK  3 active torsions:
REMARK  status: ('A' for Active; 'I' for Inactive)
REMARK    1  A    between atoms: C_5  and  C_6 
REMARK    2  A    between atoms: C_10  and  C_11 
REMARK       I    between atoms: C_11  and  N_12 
REMARK    3  A    between atoms: N_12  and  N_13 
ROOT
HETATM    1  C   UNL     1      -4.464   3.114 -32.734  1.00  0.00     0.289 C 
HETATM    2  N   UNL     1      -3.977   1.857 -32.412  1.00  0.00    -0.241 N 
HETATM    3  O   UNL     1      -5.327   3.322 -33.584  1.00  0.00    -0.264 OA
HETATM    4  H   UNL     1      -3.250   1.747 -31.707  1.00  0.00     0.192 HD
ENDROOT
BRANCH   1   5
HETATM    5  C   UNL     1      -3.870   4.200 -31.997  1.00  0.00     0.121 A 
HETATM    6  N   UNL     1      -4.569   5.348 -31.751  1.00  0.00    -0.272 N 
HETATM    7  N   UNL     1      -3.880   6.280 -31.080  1.00  0.00    -0.174 NA
HETATM    8  H   UNL     1      -5.524   5.547 -32.033  1.00  0.00     0.189 HD
HETATM    9  C   UNL     1      -2.681   5.720 -30.851  1.00  0.00     0.089 A 
HETATM   10  C   UNL     1      -2.636   4.411 -31.412  1.00  0.00     0.071 A 
BRANCH   9  11
HETATM   11  C   UNL     1      -1.626   6.436 -30.127  1.00  0.00    -0.006 A 
HETATM   12  C   UNL     1      -0.308   6.468 -30.604  1.00  0.00     0.014 A 
HETATM   13  C   UNL     1       0.688   7.160 -29.905  1.00  0.00     0.007 A 
HETATM   14  C   UNL     1       0.389   7.827 -28.713  1.00  0.00    -0.062 A 
HETATM   15  C   UNL     1       1.444   8.594 -27.973  1.00  0.00     0.048 C 
HETATM   16  C   UNL     1      -0.926   7.807 -28.238  1.00  0.00     0.007 A 
HETATM   17  C   UNL     1      -1.920   7.113 -28.935  1.00  0.00     0.014 A 
ENDBRANCH   9  11
ENDBRANCH   1   5
BRANCH   2  18
HETATM   18  N   UNL     1      -4.435   0.748 -33.068  1.00  0.00    -0.165 NA
HETATM   19  C   UNL     1      -3.923  -0.387 -32.715  1.00  0.00     0.157 A 
HETATM   20  C   UNL     1      -2.864  -0.663 -31.644  1.00  0.00     0.277 A 
HETATM   21  C   UNL     1      -4.259  -1.686 -33.287  1.00  0.00     0.027 A 
HETATM   22  O   UNL     1      -2.344   0.189 -30.954  1.00  0.00    -0.266 OA
HETATM   23  N   UNL     1      -2.662  -2.025 -31.663  1.00  0.00    -0.321 N 
HETATM   24  C   UNL     1      -3.474  -2.627 -32.622  1.00  0.00     0.048 A 
HETATM   25  H   UNL     1      -2.009  -2.501 -31.059  1.00  0.00     0.169 HD
HETATM   26  C   UNL     1      -3.549  -3.968 -32.935  1.00  0.00     0.030 A 
HETATM   27  C   UNL     1      -4.445  -4.342 -33.946  1.00  0.00     0.002 A 
HETATM   28  C   UNL     1      -5.235  -3.382 -34.614  1.00  0.00     0.001 A 
HETATM   29  C   UNL     1      -5.146  -2.028 -34.285  1.00  0.00     0.016 A 
ENDBRANCH   2  18
TORSDOF 3
ENDMDL
MODEL 3
REMARK VINA RESULT:      -9.2      8.395     10.974
REMARK  3 active torsions:
REMARK  status: ('A' for Active; 'I' for Inactive)
REMARK    1  A    between atoms: C_5  and  C_6 
REMARK    2  A    between atoms: C_10  and  C_11 
REMARK       I    between atoms: C_11  and  N_12 
REMARK    3  A    between atoms: N_12  and  N_13 
ROOT
HETATM    1  C   UNL     1      -2.713   4.721 -32.549  1.00  0.00     0.289 C 
HETATM    2  N   UNL     1      -3.640   3.874 -31.964  1.00  0.00    -0.241 N 
HETATM    3  O   UNL     1      -2.717   5.030 -33.739  1.00  0.00    -0.264 OA
HETATM    4  H   UNL     1      -3.579   3.642 -30.974  1.00  0.00     0.192 HD
ENDROOT
BRANCH   1   5
HETATM    5  C   UNL     1      -1.704   5.225 -31.653  1.00  0.00     0.121 A 
HETATM    6  N   UNL     1      -0.375   5.091 -31.944  1.00  0.00    -0.272 N 
HETATM    7  N   UNL     1       0.447   5.581 -31.007  1.00  0.00    -0.174 NA
HETATM    8  H   UNL     1       0.021   4.658 -32.773  1.00  0.00     0.189 HD
HETATM    9  C   UNL     1      -0.369   6.082 -30.066  1.00  0.00     0.089 A 
HETATM   10  C   UNL     1      -1.730   5.877 -30.436  1.00  0.00     0.071 A 
BRANCH   9  11
HETATM   11  C   UNL     1       0.158   6.719 -28.855  1.00  0.00    -0.006 A 
HETATM   12  C   UNL     1      -0.131   6.214 -27.580  1.00  0.00     0.014 A 
HETATM   13  C   UNL     1       0.383   6.830 -26.433  1.00  0.00     0.007 A 
HETATM   14  C   UNL     1       1.189   7.968 -26.538  1.00  0.00    -0.062 A 
HETATM   15  C   UNL     1       1.768   8.617 -25.316  1.00  0.00     0.048 C 
HETATM   16  C   UNL     1       1.490   8.471 -27.807  1.00  0.00     0.007 A 
HETATM   17  C   UNL     1       0.973   7.856 -28.952  1.00  0.00     0.014 A 
ENDBRANCH   9  11
ENDBRANCH   1   5
BRANCH   2  18
HETATM   18  N   UNL     1      -4.628   3.300 -32.717  1.00  0.00    -0.165 NA
HETATM   19  C   UNL     1      -4.691   2.008 -32.704  1.00  0.00     0.157 A 
HETATM   20  C   UNL     1      -3.802   1.018 -31.945  1.00  0.00     0.277 A 
HETATM   21  C   UNL     1      -5.654   1.196 -33.438  1.00  0.00     0.027 A 
HETATM   22  O   UNL     1      -2.880   1.335 -31.222  1.00  0.00    -0.266 OA
HETATM   23  N   UNL     1      -4.277  -0.233 -32.270  1.00  0.00    -0.321 N 
HETATM   24  C   UNL     1      -5.359  -0.134 -33.143  1.00  0.00     0.048 A 
HETATM   25  H   UNL     1      -3.881  -1.090 -31.916  1.00  0.00     0.169 HD
HETATM   26  C   UNL     1      -6.092  -1.166 -33.690  1.00  0.00     0.030 A 
HETATM   27  C   UNL     1      -7.142  -0.821 -34.551  1.00  0.00     0.002 A 
HETATM   28  C   UNL     1      -7.434   0.529 -34.845  1.00  0.00     0.001 A 
HETATM   29  C   UNL     1      -6.681   1.561 -34.282  1.00  0.00     0.016 A 
ENDBRANCH   2  18
TORSDOF 3
ENDMDL
MODEL 4
REMARK VINA RESULT:      -9.2      6.942      9.743
REMARK  3 active torsions:
REMARK  status: ('A' for Active; 'I' for Inactive)
REMARK    1  A    between atoms: C_5  and  C_6 
REMARK    2  A    between atoms: C_10  and  C_11 
REMARK       I    between atoms: C_11  and  N_12 
REMARK    3  A    between atoms: N_12  and  N_13 
ROOT
HETATM    1  C   UNL     1      -4.966   3.685 -31.031  1.00  0.00     0.289 C 
HETATM    2  N   UNL     1      -4.268   4.744 -31.587  1.00  0.00    -0.241 N 
HETATM    3  O   UNL     1      -5.264   3.604 -29.842  1.00  0.00    -0.264 OA
HETATM    4  H   UNL     1      -4.037   4.750 -32.579  1.00  0.00     0.192 HD
ENDROOT
BRANCH   1   5
HETATM    5  C   UNL     1      -5.324   2.642 -31.959  1.00  0.00     0.121 A 
HETATM    6  N   UNL     1      -6.042   2.921 -33.088  1.00  0.00    -0.272 N 
HETATM    7  N   UNL     1      -6.325   1.850 -33.840  1.00  0.00    -0.174 NA
HETATM    8  H   UNL     1      -6.374   3.835 -33.382  1.00  0.00     0.189 HD
HETATM    9  C   UNL     1      -5.752   0.820 -33.197  1.00  0.00     0.089 A 
HETATM   10  C   UNL     1      -5.112   1.278 -32.009  1.00  0.00     0.071 A 
BRANCH   9  11
HETATM   11  C   UNL     1      -5.837  -0.549 -33.715  1.00  0.00    -0.006 A 
HETATM   12  C   UNL     1      -7.059  -1.097 -34.128  1.00  0.00     0.014 A 
HETATM   13  C   UNL     1      -7.124  -2.404 -34.625  1.00  0.00     0.007 A 
HETATM   14  C   UNL     1      -5.972  -3.191 -34.711  1.00  0.00    -0.062 A 
HETATM   15  C   UNL     1      -6.028  -4.582 -35.268  1.00  0.00     0.048 C 
HETATM   16  C   UNL     1      -4.748  -2.647 -34.310  1.00  0.00     0.007 A 
HETATM   17  C   UNL     1      -4.684  -1.342 -33.811  1.00  0.00     0.014 A 
ENDBRANCH   9  11
ENDBRANCH   1   5
BRANCH   2  18
HETATM   18  N   UNL     1      -3.839   5.780 -30.802  1.00  0.00    -0.165 NA
HETATM   19  C   UNL     1      -2.562   5.874 -30.613  1.00  0.00     0.157 A 
HETATM   20  C   UNL     1      -1.449   4.975 -31.159  1.00  0.00     0.277 A 
HETATM   21  C   UNL     1      -1.895   6.890 -29.808  1.00  0.00     0.027 A 
HETATM   22  O   UNL     1      -1.630   4.013 -31.877  1.00  0.00    -0.266 OA
HETATM   23  N   UNL     1      -0.275   5.496 -30.663  1.00  0.00    -0.321 N 
HETATM   24  C   UNL     1      -0.530   6.614 -29.872  1.00  0.00     0.048 A 
HETATM   25  H   UNL     1       0.635   5.104 -30.856  1.00  0.00     0.169 HD
HETATM   26  C   UNL     1       0.388   7.397 -29.206  1.00  0.00     0.030 A 
HETATM   27  C   UNL     1      -0.108   8.478 -28.464  1.00  0.00     0.002 A 
HETATM   28  C   UNL     1      -1.492   8.750 -28.404  1.00  0.00     0.001 A 
HETATM   29  C   UNL     1      -2.408   7.946 -29.085  1.00  0.00     0.016 A 
ENDBRANCH   2  18
TORSDOF 3
ENDMDL
MODEL 5
REMARK VINA RESULT:      -8.9      7.021      9.502
REMARK  3 active torsions:
REMARK  status: ('A' for Active; 'I' for Inactive)
REMARK    1  A    between atoms: C_5  and  C_6 
REMARK    2  A    between atoms: C_10  and  C_11 
REMARK       I    between atoms: C_11  and  N_12 
REMARK    3  A    between atoms: N_12  and  N_13 
ROOT
HETATM    1  C   UNL     1      -4.692   3.272 -30.921  1.00  0.00     0.289 C 
HETATM    2  N   UNL     1      -4.065   4.347 -31.529  1.00  0.00    -0.241 N 
HETATM    3  O   UNL     1      -5.303   3.342 -29.857  1.00  0.00    -0.264 OA
HETATM    4  H   UNL     1      -3.561   4.226 -32.406  1.00  0.00     0.192 HD
ENDROOT
BRANCH   1   5
HETATM    5  C   UNL     1      -4.572   2.022 -31.628  1.00  0.00     0.121 A 
HETATM    6  N   UNL     1      -3.345   1.495 -31.921  1.00  0.00    -0.272 N 
HETATM    7  N   UNL     1      -3.388   0.345 -32.605  1.00  0.00    -0.174 NA
HETATM    8  H   UNL     1      -2.443   1.894 -31.680  1.00  0.00     0.189 HD
HETATM    9  C   UNL     1      -4.698   0.085 -32.754  1.00  0.00     0.089 A 
HETATM   10  C   UNL     1      -5.474   1.117 -32.153  1.00  0.00     0.071 A 
BRANCH   9  11
HETATM   11  C   UNL     1      -5.166  -1.111 -33.463  1.00  0.00    -0.006 A 
HETATM   12  C   UNL     1      -4.294  -2.165 -33.767  1.00  0.00     0.014 A 
HETATM   13  C   UNL     1      -4.756  -3.302 -34.440  1.00  0.00     0.007 A 
HETATM   14  C   UNL     1      -6.095  -3.405 -34.828  1.00  0.00    -0.062 A 
HETATM   15  C   UNL     1      -6.604  -4.632 -35.524  1.00  0.00     0.048 C 
HETATM   16  C   UNL     1      -6.972  -2.361 -34.518  1.00  0.00     0.007 A 
HETATM   17  C   UNL     1      -6.509  -1.224 -33.849  1.00  0.00     0.014 A 
ENDBRANCH   9  11
ENDBRANCH   1   5
BRANCH   2  18
HETATM   18  N   UNL     1      -4.076   5.581 -30.938  1.00  0.00    -0.165 NA
HETATM   19  C   UNL     1      -2.932   6.050 -30.553  1.00  0.00     0.157 A 
HETATM   20  C   UNL     1      -1.548   5.405 -30.675  1.00  0.00     0.277 A 
HETATM   21  C   UNL     1      -2.718   7.333 -29.896  1.00  0.00     0.027 A 
HETATM   22  O   UNL     1      -1.335   4.320 -31.175  1.00  0.00    -0.266 OA
HETATM   23  N   UNL     1      -0.670   6.303 -30.112  1.00  0.00    -0.321 N 
HETATM   24  C   UNL     1      -1.348   7.431 -29.654  1.00  0.00     0.048 A 
HETATM   25  H   UNL     1       0.325   6.146 -30.047  1.00  0.00     0.169 HD
HETATM   26  C   UNL     1      -0.811   8.538 -29.032  1.00  0.00     0.030 A 
HETATM   27  C   UNL     1      -1.697   9.556 -28.654  1.00  0.00     0.002 A 
HETATM   28  C   UNL     1      -3.083   9.448 -28.903  1.00  0.00     0.001 A 
HETATM   29  C   UNL     1      -3.610   8.320 -29.534  1.00  0.00     0.016 A 
ENDBRANCH   2  18
TORSDOF 3
ENDMDL
MODEL 6
REMARK VINA RESULT:      -8.6      3.150      4.209
REMARK  3 active torsions:
REMARK  status: ('A' for Active; 'I' for Inactive)
REMARK    1  A    between atoms: C_5  and  C_6 
REMARK    2  A    between atoms: C_10  and  C_11 
REMARK       I    between atoms: C_11  and  N_12 
REMARK    3  A    between atoms: N_12  and  N_13 
ROOT
HETATM    1  C   UNL     1     -10.247   2.195 -33.859  1.00  0.00     0.289 C 
HETATM    2  N   UNL     1     -10.242   2.937 -35.028  1.00  0.00    -0.241 N 
HETATM    3  O   UNL     1     -11.167   2.201 -33.043  1.00  0.00    -0.264 OA
HETATM    4  H   UNL     1      -9.444   2.902 -35.662  1.00  0.00     0.192 HD
ENDROOT
BRANCH   1   5
HETATM    5  C   UNL     1      -9.067   1.398 -33.642  1.00  0.00     0.121 A 
HETATM    6  N   UNL     1      -8.097   1.801 -32.768  1.00  0.00    -0.272 N 
HETATM    7  N   UNL     1      -7.046   0.974 -32.691  1.00  0.00    -0.174 NA
HETATM    8  H   UNL     1      -8.104   2.646 -32.205  1.00  0.00     0.189 HD
HETATM    9  C   UNL     1      -7.340  -0.031 -33.532  1.00  0.00     0.089 A 
HETATM   10  C   UNL     1      -8.603   0.199 -34.149  1.00  0.00     0.071 A 
BRANCH   9  11
HETATM   11  C   UNL     1      -6.421  -1.157 -33.730  1.00  0.00    -0.006 A 
HETATM   12  C   UNL     1      -6.799  -2.283 -34.475  1.00  0.00     0.014 A 
HETATM   13  C   UNL     1      -5.911  -3.348 -34.660  1.00  0.00     0.007 A 
HETATM   14  C   UNL     1      -4.631  -3.313 -34.098  1.00  0.00    -0.062 A 
HETATM   15  C   UNL     1      -3.663  -4.438 -34.315  1.00  0.00     0.048 C 
HETATM   16  C   UNL     1      -4.245  -2.189 -33.362  1.00  0.00     0.007 A 
HETATM   17  C   UNL     1      -5.134  -1.126 -33.176  1.00  0.00     0.014 A 
ENDBRANCH   9  11
ENDBRANCH   1   5
BRANCH   2  18
HETATM   18  N   UNL     1     -11.290   3.763 -35.330  1.00  0.00    -0.165 NA
HETATM   19  C   UNL     1     -11.064   5.035 -35.263  1.00  0.00     0.157 A 
HETATM   20  C   UNL     1      -9.764   5.754 -34.890  1.00  0.00     0.277 A 
HETATM   21  C   UNL     1     -12.037   6.087 -35.532  1.00  0.00     0.027 A 
HETATM   22  O   UNL     1      -8.727   5.195 -34.599  1.00  0.00    -0.266 OA
HETATM   23  N   UNL     1     -10.049   7.099 -34.962  1.00  0.00    -0.321 N 
HETATM   24  C   UNL     1     -11.377   7.299 -35.335  1.00  0.00     0.048 A 
HETATM   25  H   UNL     1      -9.376   7.824 -34.764  1.00  0.00     0.169 HD
HETATM   26  C   UNL     1     -12.027   8.502 -35.507  1.00  0.00     0.030 A 
HETATM   27  C   UNL     1     -13.375   8.455 -35.887  1.00  0.00     0.002 A 
HETATM   28  C   UNL     1     -14.036   7.223 -36.083  1.00  0.00     0.001 A 
HETATM   29  C   UNL     1     -13.362   6.014 -35.905  1.00  0.00     0.016 A 
ENDBRANCH   2  18
TORSDOF 3
ENDMDL
MODEL 7
REMARK VINA RESULT:      -8.5      8.183     10.207
REMARK  3 active torsions:
REMARK  status: ('A' for Active; 'I' for Inactive)
REMARK    1  A    between atoms: C_5  and  C_6 
REMARK    2  A    between atoms: C_10  and  C_11 
REMARK       I    between atoms: C_11  and  N_12 
REMARK    3  A    between atoms: N_12  and  N_13 
ROOT
HETATM    1  C   UNL     1      -3.103   4.656 -32.540  1.00  0.00     0.289 C 
HETATM    2  N   UNL     1      -3.743   3.530 -32.047  1.00  0.00    -0.241 N 
HETATM    3  O   UNL     1      -3.391   5.201 -33.603  1.00  0.00    -0.264 OA
HETATM    4  H   UNL     1      -3.452   3.112 -31.164  1.00  0.00     0.192 HD
ENDROOT
BRANCH   1   5
HETATM    5  C   UNL     1      -2.038   5.159 -31.711  1.00  0.00     0.121 A 
HETATM    6  N   UNL     1      -0.732   5.040 -32.095  1.00  0.00    -0.272 N 
HETATM    7  N   UNL     1       0.149   5.527 -31.211  1.00  0.00    -0.174 NA
HETATM    8  H   UNL     1      -0.390   4.621 -32.954  1.00  0.00     0.189 HD
HETATM    9  C   UNL     1      -0.604   6.009 -30.209  1.00  0.00     0.089 A 
HETATM   10  C   UNL     1      -1.985   5.796 -30.486  1.00  0.00     0.071 A 
BRANCH   9  11
HETATM   11  C   UNL     1       0.002   6.638 -29.030  1.00  0.00    -0.006 A 
HETATM   12  C   UNL     1      -0.190   6.112 -27.745  1.00  0.00     0.014 A 
HETATM   13  C   UNL     1       0.398   6.720 -26.630  1.00  0.00     0.007 A 
HETATM   14  C   UNL     1       1.181   7.869 -26.776  1.00  0.00    -0.062 A 
HETATM   15  C   UNL     1       1.838   8.510 -25.589  1.00  0.00     0.048 C 
HETATM   16  C   UNL     1       1.384   8.393 -28.056  1.00  0.00     0.007 A 
HETATM   17  C   UNL     1       0.794   7.786 -29.170  1.00  0.00     0.014 A 
ENDBRANCH   9  11
ENDBRANCH   1   5
BRANCH   2  18
HETATM   18  N   UNL     1      -4.747   2.935 -32.760  1.00  0.00    -0.165 NA
HETATM   19  C   UNL     1      -5.739   2.458 -32.079  1.00  0.00     0.157 A 
HETATM   20  C   UNL     1      -5.947   2.474 -30.561  1.00  0.00     0.277 A 
HETATM   21  C   UNL     1      -6.904   1.780 -32.633  1.00  0.00     0.027 A 
HETATM   22  O   UNL     1      -5.172   2.961 -29.765  1.00  0.00    -0.266 OA
HETATM   23  N   UNL     1      -7.149   1.838 -30.345  1.00  0.00    -0.321 N 
HETATM   24  C   UNL     1      -7.711   1.430 -31.552  1.00  0.00     0.048 A 
HETATM   25  H   UNL     1      -7.548   1.695 -29.429  1.00  0.00     0.169 HD
HETATM   26  C   UNL     1      -8.903   0.761 -31.739  1.00  0.00     0.030 A 
HETATM   27  C   UNL     1      -9.265   0.450 -33.056  1.00  0.00     0.002 A 
HETATM   28  C   UNL     1      -8.441   0.808 -34.145  1.00  0.00     0.001 A 
HETATM   29  C   UNL     1      -7.237   1.485 -33.938  1.00  0.00     0.016 A 
ENDBRANCH   2  18
TORSDOF 3
ENDMDL
MODEL 8
REMARK VINA RESULT:      -8.3      8.724     11.163
REMARK  3 active torsions:
REMARK  status: ('A' for Active; 'I' for Inactive)
REMARK    1  A    between atoms: C_5  and  C_6 
REMARK    2  A    between atoms: C_10  and  C_11 
REMARK       I    between atoms: C_11  and  N_12 
REMARK    3  A    between atoms: N_12  and  N_13 
ROOT
HETATM    1  C   UNL     1      -3.992   5.385 -30.715  1.00  0.00     0.289 C 
HETATM    2  N   UNL     1      -2.795   5.720 -30.104  1.00  0.00    -0.241 N 
HETATM    3  O   UNL     1      -4.957   6.140 -30.802  1.00  0.00    -0.264 OA
HETATM    4  H   UNL     1      -2.032   5.047 -30.051  1.00  0.00     0.192 HD
ENDROOT
BRANCH   1   5
HETATM    5  C   UNL     1      -4.044   4.048 -31.252  1.00  0.00     0.121 A 
HETATM    6  N   UNL     1      -2.924   3.267 -31.303  1.00  0.00    -0.272 N 
HETATM    7  N   UNL     1      -3.117   2.061 -31.852  1.00  0.00    -0.174 NA
HETATM    8  H   UNL     1      -1.994   3.521 -30.982  1.00  0.00     0.189 HD
HETATM    9  C   UNL     1      -4.425   2.031 -32.157  1.00  0.00     0.089 A 
HETATM   10  C   UNL     1      -5.042   3.263 -31.795  1.00  0.00     0.071 A 
BRANCH   9  11
HETATM   11  C   UNL     1      -5.038   0.856 -32.786  1.00  0.00    -0.006 A 
HETATM   12  C   UNL     1      -6.387   0.852 -33.163  1.00  0.00     0.014 A 
HETATM   13  C   UNL     1      -6.958  -0.275 -33.765  1.00  0.00     0.007 A 
HETATM   14  C   UNL     1      -6.193  -1.422 -33.996  1.00  0.00    -0.062 A 
HETATM   15  C   UNL     1      -6.789  -2.624 -34.667  1.00  0.00     0.048 C 
HETATM   16  C   UNL     1      -4.843  -1.422 -33.631  1.00  0.00     0.007 A 
HETATM   17  C   UNL     1      -4.275  -0.296 -33.026  1.00  0.00     0.014 A 
ENDBRANCH   9  11
ENDBRANCH   1   5
BRANCH   2  18
HETATM   18  N   UNL     1      -2.634   6.949 -29.523  1.00  0.00    -0.165 NA
HETATM   19  C   UNL     1      -1.458   7.218 -29.055  1.00  0.00     0.157 A 
HETATM   20  C   UNL     1      -0.203   6.340 -29.065  1.00  0.00     0.277 A 
HETATM   21  C   UNL     1      -1.071   8.458 -28.391  1.00  0.00     0.027 A 
HETATM   22  O   UNL     1      -0.147   5.225 -29.541  1.00  0.00    -0.266 OA
HETATM   23  N   UNL     1       0.775   7.083 -28.442  1.00  0.00    -0.321 N 
HETATM   24  C   UNL     1       0.272   8.320 -28.045  1.00  0.00     0.048 A 
HETATM   25  H   UNL     1       1.719   6.755 -28.300  1.00  0.00     0.169 HD
HETATM   26  C   UNL     1       0.947   9.329 -27.391  1.00  0.00     0.030 A 
HETATM   27  C   UNL     1       0.228  10.493 -27.090  1.00  0.00     0.002 A 
HETATM   28  C   UNL     1      -1.132  10.623 -27.443  1.00  0.00     0.001 A 
HETATM   29  C   UNL     1      -1.801   9.592 -28.106  1.00  0.00     0.016 A 
ENDBRANCH   2  18
TORSDOF 3
ENDMDL
MODEL 9
REMARK VINA RESULT:      -8.3      8.941     11.485
REMARK  3 active torsions:
REMARK  status: ('A' for Active; 'I' for Inactive)
REMARK    1  A    between atoms: C_5  and  C_6 
REMARK    2  A    between atoms: C_10  and  C_11 
REMARK       I    between atoms: C_11  and  N_12 
REMARK    3  A    between atoms: N_12  and  N_13 
ROOT
HETATM    1  C   UNL     1      -1.593   4.829 -31.368  1.00  0.00     0.289 C 
HETATM    2  N   UNL     1      -1.781   5.502 -30.171  1.00  0.00    -0.241 N 
HETATM    3  O   UNL     1      -0.539   4.829 -32.000  1.00  0.00    -0.264 OA
HETATM    4  H   UNL     1      -2.683   5.477 -29.698  1.00  0.00     0.192 HD
ENDROOT
BRANCH   1   5
HETATM    5  C   UNL     1      -2.748   4.116 -31.849  1.00  0.00     0.121 A 
HETATM    6  N   UNL     1      -3.941   4.756 -32.039  1.00  0.00    -0.272 N 
HETATM    7  N   UNL     1      -4.932   3.961 -32.462  1.00  0.00    -0.174 NA
HETATM    8  H   UNL     1      -4.131   5.741 -31.879  1.00  0.00     0.189 HD
HETATM    9  C   UNL     1      -4.369   2.748 -32.581  1.00  0.00     0.089 A 
HETATM   10  C   UNL     1      -2.996   2.805 -32.205  1.00  0.00     0.071 A 
BRANCH   9  11
HETATM   11  C   UNL     1      -5.143   1.585 -33.030  1.00  0.00    -0.006 A 
HETATM   12  C   UNL     1      -4.719   0.278 -32.756  1.00  0.00     0.014 A 
HETATM   13  C   UNL     1      -5.469  -0.822 -33.187  1.00  0.00     0.007 A 
HETATM   14  C   UNL     1      -6.653  -0.637 -33.907  1.00  0.00    -0.062 A 
HETATM   15  C   UNL     1      -7.478  -1.809 -34.348  1.00  0.00     0.048 C 
HETATM   16  C   UNL     1      -7.087   0.665 -34.176  1.00  0.00     0.007 A 
HETATM   17  C   UNL     1      -6.335   1.763 -33.747  1.00  0.00     0.014 A 
ENDBRANCH   9  11
ENDBRANCH   1   5
BRANCH   2  18
HETATM   18  N   UNL     1      -0.769   6.246 -29.628  1.00  0.00    -0.165 NA
HETATM   19  C   UNL     1      -1.119   7.218 -28.848  1.00  0.00     0.157 A 
HETATM   20  C   UNL     1      -2.530   7.652 -28.440  1.00  0.00     0.277 A 
HETATM   21  C   UNL     1      -0.210   8.137 -28.175  1.00  0.00     0.027 A 
HETATM   22  O   UNL     1      -3.552   7.112 -28.812  1.00  0.00    -0.266 OA
HETATM   23  N   UNL     1      -2.359   8.734 -27.606  1.00  0.00    -0.321 N 
HETATM   24  C   UNL     1      -1.005   9.022 -27.449  1.00  0.00     0.048 A 
HETATM   25  H   UNL     1      -3.123   9.237 -27.180  1.00  0.00     0.169 HD
HETATM   26  C   UNL     1      -0.444  10.031 -26.695  1.00  0.00     0.030 A 
HETATM   27  C   UNL     1       0.953  10.129 -26.690  1.00  0.00     0.002 A 
HETATM   28  C   UNL     1       1.751   9.229 -27.430  1.00  0.00     0.001 A 
HETATM   29  C   UNL     1       1.167   8.212 -28.188  1.00  0.00     0.016 A 
ENDBRANCH   2  18
TORSDOF 3
ENDMDL
MODEL 10
REMARK VINA RESULT:      -8.3      1.721      9.970
REMARK  3 active torsions:
REMARK  status: ('A' for Active; 'I' for Inactive)
REMARK    1  A    between atoms: C_5  and  C_6 
REMARK    2  A    between atoms: C_10  and  C_11 
REMARK       I    between atoms: C_11  and  N_12 
REMARK    3  A    between atoms: N_12  and  N_13 
ROOT
HETATM    1  C   UNL     1     -10.961   1.498 -33.674  1.00  0.00     0.289 C 
HETATM    2  N   UNL     1     -10.413   0.515 -32.866  1.00  0.00    -0.241 N 
HETATM    3  O   UNL     1     -10.562   1.760 -34.807  1.00  0.00    -0.264 OA
HETATM    4  H   UNL     1     -10.777   0.352 -31.928  1.00  0.00     0.192 HD
ENDROOT
BRANCH   1   5
HETATM    5  C   UNL     1     -12.054   2.228 -33.084  1.00  0.00     0.121 A 
HETATM    6  N   UNL     1     -11.830   3.176 -32.124  1.00  0.00    -0.272 N 
HETATM    7  N   UNL     1     -12.942   3.751 -31.648  1.00  0.00    -0.174 NA
HETATM    8  H   UNL     1     -10.929   3.458 -31.753  1.00  0.00     0.189 HD
HETATM    9  C   UNL     1     -13.944   3.178 -32.335  1.00  0.00     0.089 A 
HETATM   10  C   UNL     1     -13.426   2.215 -33.248  1.00  0.00     0.071 A 
BRANCH   9  11
HETATM   11  C   UNL     1     -15.343   3.548 -32.099  1.00  0.00    -0.006 A 
HETATM   12  C   UNL     1     -15.715   4.879 -31.863  1.00  0.00     0.014 A 
HETATM   13  C   UNL     1     -17.056   5.218 -31.644  1.00  0.00     0.007 A 
HETATM   14  C   UNL     1     -18.048   4.234 -31.649  1.00  0.00    -0.062 A 
HETATM   15  C   UNL     1     -19.490   4.592 -31.444  1.00  0.00     0.048 C 
HETATM   16  C   UNL     1     -17.685   2.906 -31.894  1.00  0.00     0.007 A 
HETATM   17  C   UNL     1     -16.345   2.568 -32.110  1.00  0.00     0.014 A 
ENDBRANCH   9  11
ENDBRANCH   1   5
BRANCH   2  18
HETATM   18  N   UNL     1      -9.346  -0.223 -33.298  1.00  0.00    -0.165 NA
HETATM   19  C   UNL     1      -8.203   0.033 -32.748  1.00  0.00     0.157 A 
HETATM   20  C   UNL     1      -7.877   1.061 -31.660  1.00  0.00     0.277 A 
HETATM   21  C   UNL     1      -6.941  -0.625 -33.065  1.00  0.00     0.027 A 
HETATM   22  O   UNL     1      -8.691   1.801 -31.147  1.00  0.00    -0.266 OA
HETATM   23  N   UNL     1      -6.526   0.942 -31.429  1.00  0.00    -0.321 N 
HETATM   24  C   UNL     1      -5.973  -0.041 -32.248  1.00  0.00     0.048 A 
HETATM   25  H   UNL     1      -6.023   1.501 -30.756  1.00  0.00     0.169 HD
HETATM   26  C   UNL     1      -4.655  -0.441 -32.306  1.00  0.00     0.030 A 
HETATM   27  C   UNL     1      -4.331  -1.455 -33.218  1.00  0.00     0.002 A 
HETATM   28  C   UNL     1      -5.317  -2.040 -34.041  1.00  0.00     0.001 A 
HETATM   29  C   UNL     1      -6.648  -1.623 -33.970  1.00  0.00     0.016 A 
ENDBRANCH   2  18
TORSDOF 3
ENDMDL
