MODEL 1
REMARK VINA RESULT:      -8.1      0.000      0.000
REMARK  9 active torsions:
REMARK  status: ('A' for Active; 'I' for Inactive)
REMARK    1  A    between atoms: C_2  and  C_3 
REMARK    2  A    between atoms: C_7  and  C_8 
REMARK    3  A    between atoms: C_8  and  C_9 
REMARK       I    between atoms: C_9  and  N_10 
REMARK    4  A    between atoms: N_10  and  C_11 
REMARK    5  A    between atoms: C_11  and  C_12 
REMARK    6  A    between atoms: C_12  and  C_13 
REMARK    7  A    between atoms: C_21  and  C_22 
REMARK    8  A    between atoms: C_32  and  C_33 
REMARK    9  A    between atoms: C_33  and  O_34 
ROOT
HETATM    1  C   UNL     1      -7.301   4.631 -32.089  1.00  0.00     0.051 C 
HETATM    2  N   UNL     1      -8.530   5.185 -32.390  1.00  0.00    -0.228 NA
HETATM    3  C   UNL     1      -9.270   4.562 -33.241  1.00  0.00     0.170 C 
HETATM    4  N   UNL     1      -9.072   3.066 -33.699  1.00  0.00    -0.318 N 
HETATM    5  C   UNL     1     -10.118   2.703 -34.373  1.00  0.00     0.011 C 
HETATM    6  C   UNL     1      -8.035   2.396 -32.884  1.00  0.00     0.166 C 
HETATM    7  S   UNL     1     -10.700   5.274 -33.931  1.00  0.00    -0.086 SA
HETATM    8  C   UNL     1     -10.884   3.837 -35.018  1.00  0.00     0.135 C 
HETATM    9  C   UNL     1      -6.973   3.386 -32.496  1.00  0.00     0.069 C 
ENDROOT
BRANCH   5  10
HETATM   10  C   UNL     1     -10.732   1.335 -34.254  1.00  0.00     0.156 C 
BRANCH  10  11
HETATM   11  C   UNL     1     -12.239   1.505 -34.327  1.00  0.00     0.222 C 
HETATM   12  N   UNL     1     -12.905   1.630 -33.136  1.00  0.00    -0.361 N 
HETATM   13  H   UNL     1     -12.383   1.871 -32.296  1.00  0.00     0.162 HD
HETATM   14  O   UNL     1     -12.809   1.435 -35.416  1.00  0.00    -0.273 OA
BRANCH  12  15
HETATM   15  C   UNL     1     -14.355   1.779 -33.093  1.00  0.00     0.124 C 
BRANCH  15  16
HETATM   16  C   UNL     1     -14.800   2.771 -32.008  1.00  0.00     0.053 C 
BRANCH  16  17
HETATM   17  C   UNL     1     -13.936   4.043 -31.968  1.00  0.00     0.189 C 
HETATM   18  N   UNL     1     -13.327   4.180 -30.562  1.00  0.00    -0.071 N 
HETATM   19  H   UNL     1     -13.644   3.396 -29.977  1.00  0.00     0.279 HD
HETATM   20  C   UNL     1     -11.824   4.147 -30.540  1.00  0.00     0.270 C 
HETATM   21  C   UNL     1     -13.886   5.444 -29.928  1.00  0.00     0.235 C 
HETATM   22  C   UNL     1     -15.128   5.735 -30.741  1.00  0.00     0.030 C 
HETATM   23  C   UNL     1     -14.713   5.347 -32.146  1.00  0.00     0.035 C 
ENDBRANCH  16  17
ENDBRANCH  15  16
ENDBRANCH  12  15
ENDBRANCH  10  11
ENDBRANCH   5  10
BRANCH   6  24
HETATM   24  C   UNL     1      -7.503   1.065 -33.414  1.00  0.00    -0.024 A 
HETATM   25  C   UNL     1      -7.027   0.074 -32.516  1.00  0.00    -0.053 A 
HETATM   26  C   UNL     1      -7.063   0.239 -31.017  1.00  0.00     0.049 C 
HETATM   27  C   UNL     1      -6.479  -1.115 -33.025  1.00  0.00     0.014 A 
HETATM   28  C   UNL     1      -6.375  -1.343 -34.399  1.00  0.00    -0.061 A 
HETATM   29  C   UNL     1      -5.701  -2.582 -34.916  1.00  0.00     0.048 C 
HETATM   30  C   UNL     1      -6.817  -0.358 -35.281  1.00  0.00     0.007 A 
HETATM   31  C   UNL     1      -7.375   0.828 -34.798  1.00  0.00     0.011 A 
ENDBRANCH   6  24
BRANCH   9  32
HETATM   32  C   UNL     1      -5.689   3.347 -33.227  1.00  0.00     0.293 C 
HETATM   33  O   UNL     1      -4.736   2.763 -32.731  1.00  0.00    -0.259 OA
BRANCH  32  34
HETATM   34  O   UNL     1      -5.762   3.918 -34.442  1.00  0.00    -0.323 OA
HETATM   35  C   UNL     1      -4.700   4.848 -34.684  1.00  0.00     0.213 C 
ENDBRANCH  32  34
ENDBRANCH   9  32
BRANCH   1  36
HETATM   36  C   UNL     1      -6.331   5.594 -31.420  1.00  0.00     0.056 C 
HETATM   37  C   UNL     1      -6.377   6.972 -32.077  1.00  0.00     0.011 C 
ENDBRANCH   1  36
TORSDOF 9
ENDMDL
MODEL 2
REMARK VINA RESULT:      -7.9      2.146      3.458
REMARK  9 active torsions:
REMARK  status: ('A' for Active; 'I' for Inactive)
REMARK    1  A    between atoms: C_2  and  C_3 
REMARK    2  A    between atoms: C_7  and  C_8 
REMARK    3  A    between atoms: C_8  and  C_9 
REMARK       I    between atoms: C_9  and  N_10 
REMARK    4  A    between atoms: N_10  and  C_11 
REMARK    5  A    between atoms: C_11  and  C_12 
REMARK    6  A    between atoms: C_12  and  C_13 
REMARK    7  A    between atoms: C_21  and  C_22 
REMARK    8  A    between atoms: C_32  and  C_33 
REMARK    9  A    between atoms: C_33  and  O_34 
ROOT
HETATM    1  C   UNL     1      -4.111   5.298 -30.886  1.00  0.00     0.051 C 
HETATM    2  N   UNL     1      -5.070   6.148 -30.372  1.00  0.00    -0.228 NA
HETATM    3  C   UNL     1      -6.300   5.910 -30.675  1.00  0.00     0.170 C 
HETATM    4  N   UNL     1      -6.846   4.557 -31.273  1.00  0.00    -0.318 N 
HETATM    5  C   UNL     1      -8.141   4.588 -31.236  1.00  0.00     0.011 C 
HETATM    6  C   UNL     1      -5.797   3.516 -31.269  1.00  0.00     0.166 C 
HETATM    7  S   UNL     1      -7.577   7.044 -30.346  1.00  0.00    -0.086 SA
HETATM    8  C   UNL     1      -8.745   5.975 -31.226  1.00  0.00     0.135 C 
HETATM    9  C   UNL     1      -4.451   4.145 -31.501  1.00  0.00     0.069 C 
ENDROOT
BRANCH   5  10
HETATM   10  C   UNL     1      -8.976   3.387 -30.885  1.00  0.00     0.156 C 
BRANCH  10  11
HETATM   11  C   UNL     1      -9.485   2.790 -32.185  1.00  0.00     0.222 C 
HETATM   12  N   UNL     1      -9.669   1.432 -32.210  1.00  0.00    -0.361 N 
HETATM   13  H   UNL     1      -9.725   0.921 -31.332  1.00  0.00     0.162 HD
HETATM   14  O   UNL     1      -9.623   3.509 -33.174  1.00  0.00    -0.273 OA
BRANCH  12  15
HETATM   15  C   UNL     1     -10.136   0.755 -33.415  1.00  0.00     0.124 C 
BRANCH  15  16
HETATM   16  C   UNL     1     -11.634   0.420 -33.343  1.00  0.00     0.053 C 
BRANCH  16  17
HETATM   17  C   UNL     1     -12.531   1.585 -33.798  1.00  0.00     0.189 C 
HETATM   18  N   UNL     1     -13.375   2.052 -32.599  1.00  0.00    -0.071 N 
HETATM   19  H   UNL     1     -13.149   1.474 -31.780  1.00  0.00     0.279 HD
HETATM   20  C   UNL     1     -13.129   3.479 -32.197  1.00  0.00     0.270 C 
HETATM   21  C   UNL     1     -14.837   1.787 -32.923  1.00  0.00     0.235 C 
HETATM   22  C   UNL     1     -14.780   0.764 -34.036  1.00  0.00     0.030 C 
HETATM   23  C   UNL     1     -13.579   1.210 -34.845  1.00  0.00     0.035 C 
ENDBRANCH  16  17
ENDBRANCH  15  16
ENDBRANCH  12  15
ENDBRANCH  10  11
ENDBRANCH   5  10
BRANCH   6  24
HETATM   24  C   UNL     1      -6.069   2.267 -32.108  1.00  0.00    -0.024 A 
HETATM   25  C   UNL     1      -5.965   0.976 -31.527  1.00  0.00    -0.053 A 
HETATM   26  C   UNL     1      -5.643   0.754 -30.071  1.00  0.00     0.049 C 
HETATM   27  C   UNL     1      -6.152  -0.161 -32.331  1.00  0.00     0.014 A 
HETATM   28  C   UNL     1      -6.424  -0.055 -33.698  1.00  0.00    -0.061 A 
HETATM   29  C   UNL     1      -6.528  -1.287 -34.551  1.00  0.00     0.048 C 
HETATM   30  C   UNL     1      -6.498   1.213 -34.273  1.00  0.00     0.007 A 
HETATM   31  C   UNL     1      -6.326   2.358 -33.491  1.00  0.00     0.011 A 
ENDBRANCH   6  24
BRANCH   9  32
HETATM   32  C   UNL     1      -3.848   4.016 -32.843  1.00  0.00     0.293 C 
HETATM   33  O   UNL     1      -3.009   3.148 -33.042  1.00  0.00    -0.259 OA
BRANCH  32  34
HETATM   34  O   UNL     1      -4.386   4.860 -33.740  1.00  0.00    -0.323 OA
HETATM   35  C   UNL     1      -3.430   5.345 -34.690  1.00  0.00     0.213 C 
ENDBRANCH  32  34
ENDBRANCH   9  32
BRANCH   1  36
HETATM   36  C   UNL     1      -2.695   5.854 -30.839  1.00  0.00     0.056 C 
HETATM   37  C   UNL     1      -2.624   7.243 -31.472  1.00  0.00     0.011 C 
ENDBRANCH   1  36
TORSDOF 9
ENDMDL
MODEL 3
REMARK VINA RESULT:      -7.8      3.343      5.342
REMARK  9 active torsions:
REMARK  status: ('A' for Active; 'I' for Inactive)
REMARK    1  A    between atoms: C_2  and  C_3 
REMARK    2  A    between atoms: C_7  and  C_8 
REMARK    3  A    between atoms: C_8  and  C_9 
REMARK       I    between atoms: C_9  and  N_10 
REMARK    4  A    between atoms: N_10  and  C_11 
REMARK    5  A    between atoms: C_11  and  C_12 
REMARK    6  A    between atoms: C_12  and  C_13 
REMARK    7  A    between atoms: C_21  and  C_22 
REMARK    8  A    between atoms: C_32  and  C_33 
REMARK    9  A    between atoms: C_33  and  O_34 
ROOT
HETATM    1  C   UNL     1      -2.050   6.104 -31.269  1.00  0.00     0.051 C 
HETATM    2  N   UNL     1      -2.505   6.744 -30.134  1.00  0.00    -0.228 NA
HETATM    3  C   UNL     1      -3.745   6.586 -29.818  1.00  0.00     0.170 C 
HETATM    4  N   UNL     1      -4.695   5.463 -30.388  1.00  0.00    -0.318 N 
HETATM    5  C   UNL     1      -5.786   5.459 -29.690  1.00  0.00     0.011 C 
HETATM    6  C   UNL     1      -3.934   4.487 -31.196  1.00  0.00     0.166 C 
HETATM    7  S   UNL     1      -4.526   7.548 -28.597  1.00  0.00    -0.086 SA
HETATM    8  C   UNL     1      -6.110   6.769 -29.005  1.00  0.00     0.135 C 
HETATM    9  C   UNL     1      -2.803   5.180 -31.904  1.00  0.00     0.069 C 
ENDROOT
BRANCH   5  10
HETATM   10  C   UNL     1      -6.497   4.193 -29.294  1.00  0.00     0.156 C 
BRANCH  10  11
HETATM   11  C   UNL     1      -7.776   4.116 -30.110  1.00  0.00     0.222 C 
HETATM   12  N   UNL     1      -8.429   2.912 -30.120  1.00  0.00    -0.361 N 
HETATM   13  H   UNL     1      -8.213   2.221 -29.405  1.00  0.00     0.162 HD
HETATM   14  O   UNL     1      -8.125   5.080 -30.790  1.00  0.00    -0.273 OA
BRANCH  12  15
HETATM   15  C   UNL     1      -9.657   2.725 -30.886  1.00  0.00     0.124 C 
BRANCH  15  16
HETATM   16  C   UNL     1      -9.423   1.886 -32.152  1.00  0.00     0.053 C 
BRANCH  16  17
HETATM   17  C   UNL     1     -10.139   2.455 -33.389  1.00  0.00     0.189 C 
HETATM   18  N   UNL     1     -11.335   3.301 -32.919  1.00  0.00    -0.071 N 
HETATM   19  H   UNL     1     -11.379   3.283 -31.892  1.00  0.00     0.279 HD
HETATM   20  C   UNL     1     -11.253   4.748 -33.317  1.00  0.00     0.270 C 
HETATM   21  C   UNL     1     -12.607   2.635 -33.417  1.00  0.00     0.235 C 
HETATM   22  C   UNL     1     -12.176   1.218 -33.723  1.00  0.00     0.030 C 
HETATM   23  C   UNL     1     -10.783   1.403 -34.291  1.00  0.00     0.035 C 
ENDBRANCH  16  17
ENDBRANCH  15  16
ENDBRANCH  12  15
ENDBRANCH  10  11
ENDBRANCH   5  10
BRANCH   6  24
HETATM   24  C   UNL     1      -4.751   3.541 -32.075  1.00  0.00    -0.024 A 
HETATM   25  C   UNL     1      -4.476   2.148 -32.080  1.00  0.00    -0.053 A 
HETATM   26  C   UNL     1      -3.424   1.516 -31.204  1.00  0.00     0.049 C 
HETATM   27  C   UNL     1      -5.192   1.304 -32.945  1.00  0.00     0.014 A 
HETATM   28  C   UNL     1      -6.164   1.804 -33.816  1.00  0.00    -0.061 A 
HETATM   29  C   UNL     1      -6.850   0.893 -34.794  1.00  0.00     0.048 C 
HETATM   30  C   UNL     1      -6.415   3.175 -33.830  1.00  0.00     0.007 A 
HETATM   31  C   UNL     1      -5.722   4.032 -32.972  1.00  0.00     0.011 A 
ENDBRANCH   6  24
BRANCH   9  32
HETATM   32  C   UNL     1      -2.962   5.468 -33.345  1.00  0.00     0.293 C 
HETATM   33  O   UNL     1      -3.558   6.479 -33.690  1.00  0.00    -0.259 OA
BRANCH  32  34
HETATM   34  O   UNL     1      -2.328   4.580 -34.128  1.00  0.00    -0.323 OA
HETATM   35  C   UNL     1      -1.388   5.194 -35.018  1.00  0.00     0.213 C 
ENDBRANCH  32  34
ENDBRANCH   9  32
BRANCH   1  36
HETATM   36  C   UNL     1      -0.733   6.645 -31.805  1.00  0.00     0.056 C 
HETATM   37  C   UNL     1       0.459   5.985 -31.112  1.00  0.00     0.011 C 
ENDBRANCH   1  36
TORSDOF 9
ENDMDL
MODEL 4
REMARK VINA RESULT:      -7.4      5.675      9.910
REMARK  9 active torsions:
REMARK  status: ('A' for Active; 'I' for Inactive)
REMARK    1  A    between atoms: C_2  and  C_3 
REMARK    2  A    between atoms: C_7  and  C_8 
REMARK    3  A    between atoms: C_8  and  C_9 
REMARK       I    between atoms: C_9  and  N_10 
REMARK    4  A    between atoms: N_10  and  C_11 
REMARK    5  A    between atoms: C_11  and  C_12 
REMARK    6  A    between atoms: C_12  and  C_13 
REMARK    7  A    between atoms: C_21  and  C_22 
REMARK    8  A    between atoms: C_32  and  C_33 
REMARK    9  A    between atoms: C_33  and  O_34 
ROOT
HETATM    1  C   UNL     1      -2.685   5.331 -32.254  1.00  0.00     0.051 C 
HETATM    2  N   UNL     1      -2.086   6.357 -31.551  1.00  0.00    -0.228 NA
HETATM    3  C   UNL     1      -2.832   7.053 -30.763  1.00  0.00     0.170 C 
HETATM    4  N   UNL     1      -4.264   6.631 -30.255  1.00  0.00    -0.318 N 
HETATM    5  C   UNL     1      -4.618   7.444 -29.311  1.00  0.00     0.011 C 
HETATM    6  C   UNL     1      -4.575   5.239 -30.646  1.00  0.00     0.166 C 
HETATM    7  S   UNL     1      -2.293   8.541 -30.041  1.00  0.00    -0.086 SA
HETATM    8  C   UNL     1      -3.948   8.800 -29.353  1.00  0.00     0.135 C 
HETATM    9  C   UNL     1      -3.943   4.928 -31.974  1.00  0.00     0.069 C 
ENDROOT
BRANCH   5  10
HETATM   10  C   UNL     1      -5.355   6.993 -28.079  1.00  0.00     0.156 C 
BRANCH  10  11
HETATM   11  C   UNL     1      -4.401   7.127 -26.904  1.00  0.00     0.222 C 
HETATM   12  N   UNL     1      -3.194   6.488 -27.014  1.00  0.00    -0.361 N 
HETATM   13  H   UNL     1      -2.869   6.190 -27.931  1.00  0.00     0.162 HD
HETATM   14  O   UNL     1      -4.768   7.709 -25.884  1.00  0.00    -0.273 OA
BRANCH  12  15
HETATM   15  C   UNL     1      -2.213   6.537 -25.935  1.00  0.00     0.124 C 
BRANCH  15  16
HETATM   16  C   UNL     1      -1.261   7.734 -26.076  1.00  0.00     0.053 C 
BRANCH  16  17
HETATM   17  C   UNL     1       0.209   7.314 -26.242  1.00  0.00     0.189 C 
HETATM   18  N   UNL     1       1.091   8.574 -26.182  1.00  0.00    -0.071 N 
HETATM   19  H   UNL     1       0.493   9.400 -26.051  1.00  0.00     0.279 HD
HETATM   20  C   UNL     1       2.075   8.576 -25.046  1.00  0.00     0.270 C 
HETATM   21  C   UNL     1       1.767   8.740 -27.533  1.00  0.00     0.235 C 
HETATM   22  C   UNL     1       0.921   7.901 -28.465  1.00  0.00     0.030 C 
HETATM   23  C   UNL     1       0.549   6.710 -27.604  1.00  0.00     0.035 C 
ENDBRANCH  16  17
ENDBRANCH  15  16
ENDBRANCH  12  15
ENDBRANCH  10  11
ENDBRANCH   5  10
BRANCH   6  24
HETATM   24  C   UNL     1      -6.033   4.802 -30.516  1.00  0.00    -0.024 A 
HETATM   25  C   UNL     1      -6.353   3.456 -30.199  1.00  0.00    -0.053 A 
HETATM   26  C   UNL     1      -5.306   2.406 -29.922  1.00  0.00     0.049 C 
HETATM   27  C   UNL     1      -7.700   3.057 -30.151  1.00  0.00     0.014 A 
HETATM   28  C   UNL     1      -8.737   3.952 -30.424  1.00  0.00    -0.061 A 
HETATM   29  C   UNL     1     -10.163   3.477 -30.456  1.00  0.00     0.048 C 
HETATM   30  C   UNL     1      -8.422   5.266 -30.762  1.00  0.00     0.007 A 
HETATM   31  C   UNL     1      -7.091   5.688 -30.806  1.00  0.00     0.011 A 
ENDBRANCH   6  24
BRANCH   9  32
HETATM   32  C   UNL     1      -4.813   4.910 -33.167  1.00  0.00     0.293 C 
HETATM   33  O   UNL     1      -5.092   5.965 -33.720  1.00  0.00    -0.259 OA
BRANCH  32  34
HETATM   34  O   UNL     1      -5.136   3.666 -33.560  1.00  0.00    -0.323 OA
HETATM   35  C   UNL     1      -6.506   3.547 -33.960  1.00  0.00     0.213 C 
ENDBRANCH  32  34
ENDBRANCH   9  32
BRANCH   1  36
HETATM   36  C   UNL     1      -1.873   4.830 -33.440  1.00  0.00     0.056 C 
HETATM   37  C   UNL     1      -1.405   5.990 -34.319  1.00  0.00     0.011 C 
ENDBRANCH   1  36
TORSDOF 9
ENDMDL
MODEL 5
REMARK VINA RESULT:      -7.3      1.829      2.565
REMARK  9 active torsions:
REMARK  status: ('A' for Active; 'I' for Inactive)
REMARK    1  A    between atoms: C_2  and  C_3 
REMARK    2  A    between atoms: C_7  and  C_8 
REMARK    3  A    between atoms: C_8  and  C_9 
REMARK       I    between atoms: C_9  and  N_10 
REMARK    4  A    between atoms: N_10  and  C_11 
REMARK    5  A    between atoms: C_11  and  C_12 
REMARK    6  A    between atoms: C_12  and  C_13 
REMARK    7  A    between atoms: C_21  and  C_22 
REMARK    8  A    between atoms: C_32  and  C_33 
REMARK    9  A    between atoms: C_33  and  O_34 
ROOT
HETATM    1  C   UNL     1      -5.196   4.968 -31.040  1.00  0.00     0.051 C 
HETATM    2  N   UNL     1      -6.366   5.668 -30.821  1.00  0.00    -0.228 NA
HETATM    3  C   UNL     1      -7.445   5.201 -31.348  1.00  0.00     0.170 C 
HETATM    4  N   UNL     1      -7.627   3.739 -31.911  1.00  0.00    -0.318 N 
HETATM    5  C   UNL     1      -8.886   3.545 -32.146  1.00  0.00     0.011 C 
HETATM    6  C   UNL     1      -6.454   2.898 -31.588  1.00  0.00     0.166 C 
HETATM    7  S   UNL     1      -8.926   6.112 -31.404  1.00  0.00    -0.086 SA
HETATM    8  C   UNL     1      -9.688   4.803 -32.398  1.00  0.00     0.135 C 
HETATM    9  C   UNL     1      -5.206   3.737 -31.596  1.00  0.00     0.069 C 
ENDROOT
BRANCH   5  10
HETATM   10  C   UNL     1      -9.579   2.241 -31.860  1.00  0.00     0.156 C 
BRANCH  10  11
HETATM   11  C   UNL     1     -10.363   1.860 -33.103  1.00  0.00     0.222 C 
HETATM   12  N   UNL     1     -11.729   1.848 -32.991  1.00  0.00    -0.361 N 
HETATM   13  H   UNL     1     -12.170   2.332 -32.213  1.00  0.00     0.162 HD
HETATM   14  O   UNL     1      -9.765   1.495 -34.114  1.00  0.00    -0.273 OA
BRANCH  12  15
HETATM   15  C   UNL     1     -12.576   1.478 -34.120  1.00  0.00     0.124 C 
BRANCH  15  16
HETATM   16  C   UNL     1     -13.124   2.710 -34.857  1.00  0.00     0.053 C 
BRANCH  16  17
HETATM   17  C   UNL     1     -12.581   4.034 -34.295  1.00  0.00     0.189 C 
HETATM   18  N   UNL     1     -13.762   4.860 -33.753  1.00  0.00    -0.071 N 
HETATM   19  H   UNL     1     -14.635   4.337 -33.900  1.00  0.00     0.279 HD
HETATM   20  C   UNL     1     -13.680   5.150 -32.281  1.00  0.00     0.270 C 
HETATM   21  C   UNL     1     -13.871   6.126 -34.588  1.00  0.00     0.235 C 
HETATM   22  C   UNL     1     -13.108   5.793 -35.850  1.00  0.00     0.030 C 
HETATM   23  C   UNL     1     -11.952   4.958 -35.337  1.00  0.00     0.035 C 
ENDBRANCH  16  17
ENDBRANCH  15  16
ENDBRANCH  12  15
ENDBRANCH  10  11
ENDBRANCH   5  10
BRANCH   6  24
HETATM   24  C   UNL     1      -6.334   1.572 -32.338  1.00  0.00    -0.024 A 
HETATM   25  C   UNL     1      -5.958   0.390 -31.649  1.00  0.00    -0.053 A 
HETATM   26  C   UNL     1      -5.710   0.349 -30.163  1.00  0.00     0.049 C 
HETATM   27  C   UNL     1      -5.787  -0.805 -32.369  1.00  0.00     0.014 A 
HETATM   28  C   UNL     1      -5.965  -0.857 -33.754  1.00  0.00    -0.061 A 
HETATM   29  C   UNL     1      -5.686  -2.126 -34.510  1.00  0.00     0.048 C 
HETATM   30  C   UNL     1      -6.307   0.310 -34.433  1.00  0.00     0.007 A 
HETATM   31  C   UNL     1      -6.492   1.508 -33.738  1.00  0.00     0.011 A 
ENDBRANCH   6  24
BRANCH   9  32
HETATM   32  C   UNL     1      -4.309   3.633 -32.765  1.00  0.00     0.293 C 
HETATM   33  O   UNL     1      -3.316   2.922 -32.696  1.00  0.00    -0.259 OA
BRANCH  32  34
HETATM   34  O   UNL     1      -4.767   4.304 -33.836  1.00  0.00    -0.323 OA
HETATM   35  C   UNL     1      -3.764   5.119 -34.453  1.00  0.00     0.213 C 
ENDBRANCH  32  34
ENDBRANCH   9  32
BRANCH   1  36
HETATM   36  C   UNL     1      -3.931   5.764 -30.755  1.00  0.00     0.056 C 
HETATM   37  C   UNL     1      -4.036   7.187 -31.304  1.00  0.00     0.011 C 
ENDBRANCH   1  36
TORSDOF 9
ENDMDL
MODEL 6
REMARK VINA RESULT:      -7.3      4.081      8.291
REMARK  9 active torsions:
REMARK  status: ('A' for Active; 'I' for Inactive)
REMARK    1  A    between atoms: C_2  and  C_3 
REMARK    2  A    between atoms: C_7  and  C_8 
REMARK    3  A    between atoms: C_8  and  C_9 
REMARK       I    between atoms: C_9  and  N_10 
REMARK    4  A    between atoms: N_10  and  C_11 
REMARK    5  A    between atoms: C_11  and  C_12 
REMARK    6  A    between atoms: C_12  and  C_13 
REMARK    7  A    between atoms: C_21  and  C_22 
REMARK    8  A    between atoms: C_32  and  C_33 
REMARK    9  A    between atoms: C_33  and  O_34 
ROOT
HETATM    1  C   UNL     1      -4.026   1.380 -31.446  1.00  0.00     0.051 C 
HETATM    2  N   UNL     1      -3.089   2.319 -31.831  1.00  0.00    -0.228 NA
HETATM    3  C   UNL     1      -3.486   3.275 -32.599  1.00  0.00     0.170 C 
HETATM    4  N   UNL     1      -4.991   3.678 -32.849  1.00  0.00    -0.318 N 
HETATM    5  C   UNL     1      -5.010   4.810 -33.479  1.00  0.00     0.011 C 
HETATM    6  C   UNL     1      -5.894   2.940 -31.941  1.00  0.00     0.166 C 
HETATM    7  S   UNL     1      -2.378   4.355 -33.393  1.00  0.00    -0.086 SA
HETATM    8  C   UNL     1      -3.762   5.116 -34.279  1.00  0.00     0.135 C 
HETATM    9  C   UNL     1      -5.343   1.566 -31.678  1.00  0.00     0.069 C 
ENDROOT
BRANCH   5  10
HETATM   10  C   UNL     1      -6.013   5.891 -33.184  1.00  0.00     0.156 C 
BRANCH  10  11
HETATM   11  C   UNL     1      -5.660   6.483 -31.830  1.00  0.00     0.222 C 
HETATM   12  N   UNL     1      -4.505   7.217 -31.760  1.00  0.00    -0.361 N 
HETATM   13  H   UNL     1      -4.081   7.562 -32.618  1.00  0.00     0.162 HD
HETATM   14  O   UNL     1      -6.352   6.216 -30.849  1.00  0.00    -0.273 OA
BRANCH  12  15
HETATM   15  C   UNL     1      -4.064   7.813 -30.503  1.00  0.00     0.124 C 
BRANCH  15  16
HETATM   16  C   UNL     1      -2.546   8.048 -30.479  1.00  0.00     0.053 C 
BRANCH  16  17
HETATM   17  C   UNL     1      -1.790   6.994 -29.652  1.00  0.00     0.189 C 
HETATM   18  N   UNL     1      -0.906   7.718 -28.622  1.00  0.00    -0.071 N 
HETATM   19  H   UNL     1      -1.021   8.734 -28.731  1.00  0.00     0.279 HD
HETATM   20  C   UNL     1      -1.247   7.401 -27.193  1.00  0.00     0.270 C 
HETATM   21  C   UNL     1       0.547   7.411 -28.951  1.00  0.00     0.235 C 
HETATM   22  C   UNL     1       0.500   6.948 -30.390  1.00  0.00     0.030 C 
HETATM   23  C   UNL     1      -0.792   6.156 -30.449  1.00  0.00     0.035 C 
ENDBRANCH  16  17
ENDBRANCH  15  16
ENDBRANCH  12  15
ENDBRANCH  10  11
ENDBRANCH   5  10
BRANCH   6  24
HETATM   24  C   UNL     1      -7.384   2.974 -32.281  1.00  0.00    -0.024 A 
HETATM   25  C   UNL     1      -8.351   3.119 -31.253  1.00  0.00    -0.053 A 
HETATM   26  C   UNL     1      -7.986   3.297 -29.801  1.00  0.00     0.049 C 
HETATM   27  C   UNL     1      -9.718   3.080 -31.578  1.00  0.00     0.014 A 
HETATM   28  C   UNL     1     -10.152   2.887 -32.892  1.00  0.00    -0.061 A 
HETATM   29  C   UNL     1     -11.617   2.758 -33.198  1.00  0.00     0.048 C 
HETATM   30  C   UNL     1      -9.202   2.718 -33.897  1.00  0.00     0.007 A 
HETATM   31  C   UNL     1      -7.838   2.762 -33.599  1.00  0.00     0.011 A 
ENDBRANCH   6  24
BRANCH   9  32
HETATM   32  C   UNL     1      -5.962   0.425 -32.384  1.00  0.00     0.293 C 
HETATM   33  O   UNL     1      -6.813  -0.243 -31.811  1.00  0.00    -0.259 OA
BRANCH  32  34
HETATM   34  O   UNL     1      -5.549   0.312 -33.657  1.00  0.00    -0.323 OA
HETATM   35  C   UNL     1      -5.709  -1.013 -34.179  1.00  0.00     0.213 C 
ENDBRANCH  32  34
ENDBRANCH   9  32
BRANCH   1  36
HETATM   36  C   UNL     1      -3.429   0.090 -30.902  1.00  0.00     0.056 C 
HETATM   37  C   UNL     1      -2.643  -0.654 -31.981  1.00  0.00     0.011 C 
ENDBRANCH   1  36
TORSDOF 9
ENDMDL
MODEL 7
REMARK VINA RESULT:      -7.2     17.101     19.707
REMARK  9 active torsions:
REMARK  status: ('A' for Active; 'I' for Inactive)
REMARK    1  A    between atoms: C_2  and  C_3 
REMARK    2  A    between atoms: C_7  and  C_8 
REMARK    3  A    between atoms: C_8  and  C_9 
REMARK       I    between atoms: C_9  and  N_10 
REMARK    4  A    between atoms: N_10  and  C_11 
REMARK    5  A    between atoms: C_11  and  C_12 
REMARK    6  A    between atoms: C_12  and  C_13 
REMARK    7  A    between atoms: C_21  and  C_22 
REMARK    8  A    between atoms: C_32  and  C_33 
REMARK    9  A    between atoms: C_33  and  O_34 
ROOT
HETATM    1  C   UNL     1      -2.738 -15.968 -41.248  1.00  0.00     0.051 C 
HETATM    2  N   UNL     1      -1.665 -15.612 -40.454  1.00  0.00    -0.228 NA
HETATM    3  C   UNL     1      -1.783 -14.546 -39.739  1.00  0.00     0.170 C 
HETATM    4  N   UNL     1      -3.140 -13.814 -39.410  1.00  0.00    -0.318 N 
HETATM    5  C   UNL     1      -2.914 -12.929 -38.491  1.00  0.00     0.011 C 
HETATM    6  C   UNL     1      -4.297 -14.612 -39.869  1.00  0.00     0.166 C 
HETATM    7  S   UNL     1      -0.430 -13.818 -38.922  1.00  0.00    -0.086 SA
HETATM    8  C   UNL     1      -1.486 -12.433 -38.421  1.00  0.00     0.135 C 
HETATM    9  C   UNL     1      -3.936 -15.358 -41.124  1.00  0.00     0.069 C 
ENDROOT
BRANCH   5  10
HETATM   10  C   UNL     1      -3.873 -12.659 -37.364  1.00  0.00     0.156 C 
BRANCH  10  11
HETATM   11  C   UNL     1      -3.856 -13.872 -36.451  1.00  0.00     0.222 C 
HETATM   12  N   UNL     1      -5.042 -14.540 -36.290  1.00  0.00    -0.361 N 
HETATM   13  H   UNL     1      -5.794 -14.388 -36.959  1.00  0.00     0.162 HD
HETATM   14  O   UNL     1      -2.832 -14.156 -35.831  1.00  0.00    -0.273 OA
BRANCH  12  15
HETATM   15  C   UNL     1      -5.139 -15.708 -35.421  1.00  0.00     0.124 C 
BRANCH  15  16
HETATM   16  C   UNL     1      -6.577 -15.947 -34.936  1.00  0.00     0.053 C 
BRANCH  16  17
HETATM   17  C   UNL     1      -6.906 -15.185 -33.641  1.00  0.00     0.189 C 
HETATM   18  N   UNL     1      -5.610 -14.562 -33.093  1.00  0.00    -0.071 N 
HETATM   19  H   UNL     1      -4.829 -14.805 -33.716  1.00  0.00     0.279 HD
HETATM   20  C   UNL     1      -5.641 -13.062 -33.012  1.00  0.00     0.270 C 
HETATM   21  C   UNL     1      -5.309 -15.208 -31.750  1.00  0.00     0.235 C 
HETATM   22  C   UNL     1      -6.120 -16.485 -31.775  1.00  0.00     0.030 C 
HETATM   23  C   UNL     1      -7.389 -16.067 -32.490  1.00  0.00     0.035 C 
ENDBRANCH  16  17
ENDBRANCH  15  16
ENDBRANCH  12  15
ENDBRANCH  10  11
ENDBRANCH   5  10
BRANCH   6  24
HETATM   24  C   UNL     1      -5.646 -13.896 -39.919  1.00  0.00    -0.024 A 
HETATM   25  C   UNL     1      -6.828 -14.564 -39.505  1.00  0.00    -0.053 A 
HETATM   26  C   UNL     1      -6.829 -15.967 -38.953  1.00  0.00     0.049 C 
HETATM   27  C   UNL     1      -8.068 -13.913 -39.622  1.00  0.00     0.014 A 
HETATM   28  C   UNL     1      -8.170 -12.624 -40.152  1.00  0.00    -0.061 A 
HETATM   29  C   UNL     1      -9.516 -11.987 -40.351  1.00  0.00     0.048 C 
HETATM   30  C   UNL     1      -7.012 -11.979 -40.583  1.00  0.00     0.007 A 
HETATM   31  C   UNL     1      -5.767 -12.603 -40.468  1.00  0.00     0.011 A 
ENDBRANCH   6  24
BRANCH   9  32
HETATM   32  C   UNL     1      -4.444 -14.836 -42.410  1.00  0.00     0.293 C 
HETATM   33  O   UNL     1      -3.817 -13.960 -42.989  1.00  0.00    -0.259 OA
BRANCH  32  34
HETATM   34  O   UNL     1      -5.543 -15.481 -42.838  1.00  0.00    -0.323 OA
HETATM   35  C   UNL     1      -5.412 -15.974 -44.176  1.00  0.00     0.213 C 
ENDBRANCH  32  34
ENDBRANCH   9  32
BRANCH   1  36
HETATM   36  C   UNL     1      -2.398 -16.965 -42.346  1.00  0.00     0.056 C 
HETATM   37  C   UNL     1      -3.143 -18.284 -42.146  1.00  0.00     0.011 C 
ENDBRANCH   1  36
TORSDOF 9
ENDMDL
MODEL 8
REMARK VINA RESULT:      -7.1      3.375      7.715
REMARK  9 active torsions:
REMARK  status: ('A' for Active; 'I' for Inactive)
REMARK    1  A    between atoms: C_2  and  C_3 
REMARK    2  A    between atoms: C_7  and  C_8 
REMARK    3  A    between atoms: C_8  and  C_9 
REMARK       I    between atoms: C_9  and  N_10 
REMARK    4  A    between atoms: N_10  and  C_11 
REMARK    5  A    between atoms: C_11  and  C_12 
REMARK    6  A    between atoms: C_12  and  C_13 
REMARK    7  A    between atoms: C_21  and  C_22 
REMARK    8  A    between atoms: C_32  and  C_33 
REMARK    9  A    between atoms: C_33  and  O_34 
ROOT
HETATM    1  C   UNL     1      -9.420   3.947 -32.719  1.00  0.00     0.051 C 
HETATM    2  N   UNL     1      -8.620   4.803 -31.986  1.00  0.00    -0.228 NA
HETATM    3  C   UNL     1      -7.501   4.340 -31.547  1.00  0.00     0.170 C 
HETATM    4  N   UNL     1      -6.795   3.025 -32.056  1.00  0.00    -0.318 N 
HETATM    5  C   UNL     1      -5.595   2.991 -31.569  1.00  0.00     0.011 C 
HETATM    6  C   UNL     1      -7.487   2.479 -33.243  1.00  0.00     0.166 C 
HETATM    7  S   UNL     1      -6.532   5.194 -30.381  1.00  0.00    -0.086 SA
HETATM    8  C   UNL     1      -5.403   3.781 -30.292  1.00  0.00     0.135 C 
HETATM    9  C   UNL     1      -8.962   2.750 -33.144  1.00  0.00     0.069 C 
ENDROOT
BRANCH   5  10
HETATM   10  C   UNL     1      -4.407   2.511 -32.357  1.00  0.00     0.156 C 
BRANCH  10  11
HETATM   11  C   UNL     1      -3.752   3.731 -32.982  1.00  0.00     0.222 C 
HETATM   12  N   UNL     1      -2.430   3.939 -32.690  1.00  0.00    -0.361 N 
HETATM   13  H   UNL     1      -1.876   3.173 -32.314  1.00  0.00     0.162 HD
HETATM   14  O   UNL     1      -4.432   4.521 -33.636  1.00  0.00    -0.273 OA
BRANCH  12  15
HETATM   15  C   UNL     1      -1.711   5.091 -33.224  1.00  0.00     0.124 C 
BRANCH  15  16
HETATM   16  C   UNL     1      -0.607   5.573 -32.270  1.00  0.00     0.053 C 
BRANCH  16  17
HETATM   17  C   UNL     1      -1.050   5.584 -30.797  1.00  0.00     0.189 C 
HETATM   18  N   UNL     1      -1.738   6.928 -30.501  1.00  0.00    -0.071 N 
HETATM   19  H   UNL     1      -1.734   7.505 -31.351  1.00  0.00     0.279 HD
HETATM   20  C   UNL     1      -3.175   6.800 -30.079  1.00  0.00     0.270 C 
HETATM   21  C   UNL     1      -0.898   7.670 -29.473  1.00  0.00     0.235 C 
HETATM   22  C   UNL     1       0.455   6.997 -29.561  1.00  0.00     0.030 C 
HETATM   23  C   UNL     1       0.095   5.542 -29.787  1.00  0.00     0.035 C 
ENDBRANCH  16  17
ENDBRANCH  15  16
ENDBRANCH  12  15
ENDBRANCH  10  11
ENDBRANCH   5  10
BRANCH   6  24
HETATM   24  C   UNL     1      -7.128   1.049 -33.647  1.00  0.00    -0.024 A 
HETATM   25  C   UNL     1      -6.898   0.060 -32.656  1.00  0.00    -0.053 A 
HETATM   26  C   UNL     1      -7.040   0.328 -31.179  1.00  0.00     0.049 C 
HETATM   27  C   UNL     1      -6.502  -1.231 -33.045  1.00  0.00     0.014 A 
HETATM   28  C   UNL     1      -6.314  -1.564 -34.389  1.00  0.00    -0.061 A 
HETATM   29  C   UNL     1      -5.802  -2.924 -34.772  1.00  0.00     0.048 C 
HETATM   30  C   UNL     1      -6.513  -0.585 -35.360  1.00  0.00     0.007 A 
HETATM   31  C   UNL     1      -6.916   0.703 -34.998  1.00  0.00     0.011 A 
ENDBRANCH   6  24
BRANCH   9  32
HETATM   32  C   UNL     1      -9.847   1.632 -32.755  1.00  0.00     0.293 C 
HETATM   33  O   UNL     1     -10.027   1.396 -31.568  1.00  0.00    -0.259 OA
BRANCH  32  34
HETATM   34  O   UNL     1     -10.434   1.040 -33.809  1.00  0.00    -0.323 OA
HETATM   35  C   UNL     1     -11.862   1.007 -33.704  1.00  0.00     0.213 C 
ENDBRANCH  32  34
ENDBRANCH   9  32
BRANCH   1  36
HETATM   36  C   UNL     1     -10.865   4.403 -32.850  1.00  0.00     0.056 C 
HETATM   37  C   UNL     1     -11.206   4.754 -34.297  1.00  0.00     0.011 C 
ENDBRANCH   1  36
TORSDOF 9
ENDMDL
MODEL 9
REMARK VINA RESULT:      -7.0      4.597      8.925
REMARK  9 active torsions:
REMARK  status: ('A' for Active; 'I' for Inactive)
REMARK    1  A    between atoms: C_2  and  C_3 
REMARK    2  A    between atoms: C_7  and  C_8 
REMARK    3  A    between atoms: C_8  and  C_9 
REMARK       I    between atoms: C_9  and  N_10 
REMARK    4  A    between atoms: N_10  and  C_11 
REMARK    5  A    between atoms: C_11  and  C_12 
REMARK    6  A    between atoms: C_12  and  C_13 
REMARK    7  A    between atoms: C_21  and  C_22 
REMARK    8  A    between atoms: C_32  and  C_33 
REMARK    9  A    between atoms: C_33  and  O_34 
ROOT
HETATM    1  C   UNL     1      -4.117   1.576 -31.242  1.00  0.00     0.051 C 
HETATM    2  N   UNL     1      -3.024   2.418 -31.313  1.00  0.00    -0.228 NA
HETATM    3  C   UNL     1      -3.189   3.559 -31.890  1.00  0.00     0.170 C 
HETATM    4  N   UNL     1      -4.582   4.231 -32.200  1.00  0.00    -0.318 N 
HETATM    5  C   UNL     1      -4.372   5.456 -32.565  1.00  0.00     0.011 C 
HETATM    6  C   UNL     1      -5.686   3.472 -31.575  1.00  0.00     0.166 C 
HETATM    7  S   UNL     1      -1.855   4.593 -32.309  1.00  0.00    -0.086 SA
HETATM    8  C   UNL     1      -2.999   5.721 -33.145  1.00  0.00     0.135 C 
HETATM    9  C   UNL     1      -5.356   2.005 -31.564  1.00  0.00     0.069 C 
ENDROOT
BRANCH   5  10
HETATM   10  C   UNL     1      -5.258   6.597 -32.146  1.00  0.00     0.156 C 
BRANCH  10  11
HETATM   11  C   UNL     1      -4.474   7.442 -31.158  1.00  0.00     0.222 C 
HETATM   12  N   UNL     1      -4.051   6.820 -30.013  1.00  0.00    -0.361 N 
HETATM   13  H   UNL     1      -4.028   5.803 -29.978  1.00  0.00     0.162 HD
HETATM   14  O   UNL     1      -4.328   8.646 -31.366  1.00  0.00    -0.273 OA
BRANCH  12  15
HETATM   15  C   UNL     1      -3.306   7.546 -28.989  1.00  0.00     0.124 C 
BRANCH  15  16
HETATM   16  C   UNL     1      -1.839   7.764 -29.391  1.00  0.00     0.053 C 
BRANCH  16  17
HETATM   17  C   UNL     1      -0.861   6.905 -28.572  1.00  0.00     0.189 C 
HETATM   18  N   UNL     1      -0.878   7.393 -27.113  1.00  0.00    -0.071 N 
HETATM   19  H   UNL     1      -1.533   8.181 -27.028  1.00  0.00     0.279 HD
HETATM   20  C   UNL     1      -1.331   6.354 -26.126  1.00  0.00     0.270 C 
HETATM   21  C   UNL     1       0.502   7.941 -26.784  1.00  0.00     0.235 C 
HETATM   22  C   UNL     1       1.116   8.207 -28.141  1.00  0.00     0.030 C 
HETATM   23  C   UNL     1       0.606   7.050 -28.977  1.00  0.00     0.035 C 
ENDBRANCH  16  17
ENDBRANCH  15  16
ENDBRANCH  12  15
ENDBRANCH  10  11
ENDBRANCH   5  10
BRANCH   6  24
HETATM   24  C   UNL     1      -7.100   3.803 -32.051  1.00  0.00    -0.024 A 
HETATM   25  C   UNL     1      -8.181   3.822 -31.132  1.00  0.00    -0.053 A 
HETATM   26  C   UNL     1      -8.007   3.578 -29.655  1.00  0.00     0.049 C 
HETATM   27  C   UNL     1      -9.484   4.062 -31.601  1.00  0.00     0.014 A 
HETATM   28  C   UNL     1      -9.747   4.268 -32.958  1.00  0.00    -0.061 A 
HETATM   29  C   UNL     1     -11.159   4.430 -33.443  1.00  0.00     0.048 C 
HETATM   30  C   UNL     1      -8.688   4.222 -33.863  1.00  0.00     0.007 A 
HETATM   31  C   UNL     1      -7.384   3.995 -33.419  1.00  0.00     0.011 A 
ENDBRANCH   6  24
BRANCH   9  32
HETATM   32  C   UNL     1      -6.016   1.140 -32.562  1.00  0.00     0.293 C 
HETATM   33  O   UNL     1      -5.561   1.081 -33.697  1.00  0.00    -0.259 OA
BRANCH  32  34
HETATM   34  O   UNL     1      -7.034   0.430 -32.047  1.00  0.00    -0.323 OA
HETATM   35  C   UNL     1      -8.158   0.347 -32.931  1.00  0.00     0.213 C 
ENDBRANCH  32  34
ENDBRANCH   9  32
BRANCH   1  36
HETATM   36  C   UNL     1      -3.768   0.127 -30.935  1.00  0.00     0.056 C 
HETATM   37  C   UNL     1      -2.814  -0.447 -31.982  1.00  0.00     0.011 C 
ENDBRANCH   1  36
TORSDOF 9
ENDMDL
MODEL 10
REMARK VINA RESULT:      -7.0      2.507      4.055
REMARK  9 active torsions:
REMARK  status: ('A' for Active; 'I' for Inactive)
REMARK    1  A    between atoms: C_2  and  C_3 
REMARK    2  A    between atoms: C_7  and  C_8 
REMARK    3  A    between atoms: C_8  and  C_9 
REMARK       I    between atoms: C_9  and  N_10 
REMARK    4  A    between atoms: N_10  and  C_11 
REMARK    5  A    between atoms: C_11  and  C_12 
REMARK    6  A    between atoms: C_12  and  C_13 
REMARK    7  A    between atoms: C_21  and  C_22 
REMARK    8  A    between atoms: C_32  and  C_33 
REMARK    9  A    between atoms: C_33  and  O_34 
ROOT
HETATM    1  C   UNL     1      -3.490   5.657 -30.959  1.00  0.00     0.051 C 
HETATM    2  N   UNL     1      -4.261   6.779 -30.725  1.00  0.00    -0.228 NA
HETATM    3  C   UNL     1      -5.418   6.833 -31.290  1.00  0.00     0.170 C 
HETATM    4  N   UNL     1      -6.182   5.607 -31.922  1.00  0.00    -0.318 N 
HETATM    5  C   UNL     1      -7.397   5.975 -32.185  1.00  0.00     0.011 C 
HETATM    6  C   UNL     1      -5.487   4.338 -31.619  1.00  0.00     0.166 C 
HETATM    7  S   UNL     1      -6.371   8.288 -31.326  1.00  0.00    -0.086 SA
HETATM    8  C   UNL     1      -7.582   7.462 -32.390  1.00  0.00     0.135 C 
HETATM    9  C   UNL     1      -4.002   4.567 -31.570  1.00  0.00     0.069 C 
ENDROOT
BRANCH   5  10
HETATM   10  C   UNL     1      -8.586   5.079 -31.969  1.00  0.00     0.156 C 
BRANCH  10  11
HETATM   11  C   UNL     1      -9.390   5.072 -33.257  1.00  0.00     0.222 C 
HETATM   12  N   UNL     1     -10.747   4.927 -33.136  1.00  0.00    -0.361 N 
HETATM   13  H   UNL     1     -11.188   5.096 -32.236  1.00  0.00     0.162 HD
HETATM   14  O   UNL     1      -8.807   5.103 -34.340  1.00  0.00    -0.273 OA
BRANCH  12  15
HETATM   15  C   UNL     1     -11.610   4.888 -34.312  1.00  0.00     0.124 C 
BRANCH  15  16
HETATM   16  C   UNL     1     -11.966   3.450 -34.719  1.00  0.00     0.053 C 
BRANCH  16  17
HETATM   17  C   UNL     1     -12.152   2.515 -33.511  1.00  0.00     0.189 C 
HETATM   18  N   UNL     1     -11.724   1.094 -33.919  1.00  0.00    -0.071 N 
HETATM   19  H   UNL     1     -11.422   1.100 -34.901  1.00  0.00     0.279 HD
HETATM   20  C   UNL     1     -10.573   0.550 -33.121  1.00  0.00     0.270 C 
HETATM   21  C   UNL     1     -12.950   0.197 -33.850  1.00  0.00     0.235 C 
HETATM   22  C   UNL     1     -14.110   1.168 -33.887  1.00  0.00     0.030 C 
HETATM   23  C   UNL     1     -13.601   2.334 -33.063  1.00  0.00     0.035 C 
ENDBRANCH  16  17
ENDBRANCH  15  16
ENDBRANCH  12  15
ENDBRANCH  10  11
ENDBRANCH   5  10
BRANCH   6  24
HETATM   24  C   UNL     1      -5.916   3.114 -32.428  1.00  0.00    -0.024 A 
HETATM   25  C   UNL     1      -6.049   1.849 -31.799  1.00  0.00    -0.053 A 
HETATM   26  C   UNL     1      -5.837   1.640 -30.320  1.00  0.00     0.049 C 
HETATM   27  C   UNL     1      -6.378   0.722 -32.571  1.00  0.00     0.014 A 
HETATM   28  C   UNL     1      -6.563   0.812 -33.953  1.00  0.00    -0.061 A 
HETATM   29  C   UNL     1      -6.822  -0.423 -34.769  1.00  0.00     0.048 C 
HETATM   30  C   UNL     1      -6.404   2.049 -34.575  1.00  0.00     0.007 A 
HETATM   31  C   UNL     1      -6.088   3.184 -33.826  1.00  0.00     0.011 A 
ENDBRANCH   6  24
BRANCH   9  32
HETATM   32  C   UNL     1      -3.195   4.134 -32.729  1.00  0.00     0.293 C 
HETATM   33  O   UNL     1      -2.638   3.045 -32.696  1.00  0.00    -0.259 OA
BRANCH  32  34
HETATM   34  O   UNL     1      -3.247   5.000 -33.755  1.00  0.00    -0.323 OA
HETATM   35  C   UNL     1      -2.024   5.054 -34.499  1.00  0.00     0.213 C 
ENDBRANCH  32  34
ENDBRANCH   9  32
BRANCH   1  36
HETATM   36  C   UNL     1      -2.017   5.830 -30.618  1.00  0.00     0.056 C 
HETATM   37  C   UNL     1      -1.445   7.093 -31.261  1.00  0.00     0.011 C 
ENDBRANCH   1  36
TORSDOF 9
ENDMDL
