MODEL 1
REMARK VINA RESULT:      -8.3      0.000      0.000
REMARK  5 active torsions:
REMARK  status: ('A' for Active; 'I' for Inactive)
REMARK    1  A    between atoms: C_2  and  C_3 
REMARK       I    between atoms: C_3  and  N_4 
REMARK    2  A    between atoms: N_4  and  C_5 
REMARK    3  A    between atoms: C_5  and  C_6 
REMARK    4  A    between atoms: C_5  and  C_17 
REMARK    5  A    between atoms: C_7  and  O_8 
ROOT
HETATM    1  C   UNL     1      -6.621   2.390 -33.019  1.00  0.00     0.154 C 
ENDROOT
BRANCH   1   2
HETATM    2  N   UNL     1      -7.421   2.516 -31.803  1.00  0.00    -0.348 N 
HETATM    3  C   UNL     1      -8.323   3.544 -31.641  1.00  0.00     0.218 C 
HETATM    4  O   UNL     1      -8.417   4.493 -32.416  1.00  0.00    -0.274 OA
HETATM    5  H   UNL     1      -7.651   1.651 -31.336  1.00  0.00     0.163 HD
BRANCH   3   6
HETATM    6  C   UNL     1      -9.259   3.376 -30.462  1.00  0.00     0.098 C 
HETATM    7  C   UNL     1     -10.567   4.132 -30.615  1.00  0.00     0.014 C 
ENDBRANCH   3   6
ENDBRANCH   1   2
BRANCH   1   8
HETATM    8  C   UNL     1      -5.263   3.073 -32.896  1.00  0.00     0.005 A 
HETATM    9  C   UNL     1      -4.981   4.257 -33.612  1.00  0.00     0.103 A 
HETATM   10  C   UNL     1      -3.736   4.907 -33.584  1.00  0.00     0.100 A 
HETATM   11  C   UNL     1      -2.734   4.339 -32.773  1.00  0.00    -0.004 A 
HETATM   12  N   UNL     1      -3.503   6.038 -34.293  1.00  0.00    -0.257 NA
HETATM   13  C   UNL     1      -2.997   3.181 -32.023  1.00  0.00     0.014 A 
HETATM   14  C   UNL     1      -1.476   4.959 -32.728  1.00  0.00     0.015 A 
HETATM   15  C   UNL     1      -4.247   2.563 -32.078  1.00  0.00     0.013 A 
HETATM   16  C   UNL     1      -1.243   6.110 -33.468  1.00  0.00     0.020 A 
HETATM   17  C   UNL     1      -2.281   6.608 -34.228  1.00  0.00     0.117 A 
BRANCH   9  18
HETATM   18  O   UNL     1      -5.990   4.826 -34.363  1.00  0.00    -0.358 OA
HETATM   19  H   UNL     1      -6.322   4.100 -34.942  1.00  0.00     0.218 HD
ENDBRANCH   9  18
ENDBRANCH   1   8
BRANCH   1  20
HETATM   20  C   UNL     1      -6.544   0.930 -33.472  1.00  0.00    -0.031 A 
HETATM   21  C   UNL     1      -7.030   0.582 -34.743  1.00  0.00     0.010 A 
HETATM   22  C   UNL     1      -7.006  -0.745 -35.181  1.00  0.00     0.007 A 
HETATM   23  C   UNL     1      -6.495  -1.755 -34.360  1.00  0.00    -0.062 A 
HETATM   24  C   UNL     1      -6.448  -3.175 -34.839  1.00  0.00     0.048 C 
HETATM   25  C   UNL     1      -5.972  -1.413 -33.110  1.00  0.00     0.007 A 
HETATM   26  C   UNL     1      -5.999  -0.087 -32.668  1.00  0.00     0.010 A 
ENDBRANCH   1  20
TORSDOF 5
ENDMDL
MODEL 2
REMARK VINA RESULT:      -8.1      2.454      6.130
REMARK  5 active torsions:
REMARK  status: ('A' for Active; 'I' for Inactive)
REMARK    1  A    between atoms: C_2  and  C_3 
REMARK       I    between atoms: C_3  and  N_4 
REMARK    2  A    between atoms: N_4  and  C_5 
REMARK    3  A    between atoms: C_5  and  C_6 
REMARK    4  A    between atoms: C_5  and  C_17 
REMARK    5  A    between atoms: C_7  and  O_8 
ROOT
HETATM    1  C   UNL     1      -5.614   1.772 -32.026  1.00  0.00     0.154 C 
ENDROOT
BRANCH   1   2
HETATM    2  N   UNL     1      -7.017   2.175 -32.007  1.00  0.00    -0.348 N 
HETATM    3  C   UNL     1      -7.613   2.646 -30.858  1.00  0.00     0.218 C 
HETATM    4  O   UNL     1      -7.071   2.627 -29.756  1.00  0.00    -0.274 OA
HETATM    5  H   UNL     1      -7.382   2.541 -32.875  1.00  0.00     0.163 HD
BRANCH   3   6
HETATM    6  C   UNL     1      -8.974   3.275 -31.071  1.00  0.00     0.098 C 
HETATM    7  C   UNL     1      -9.257   3.634 -32.519  1.00  0.00     0.014 C 
ENDBRANCH   3   6
ENDBRANCH   1   2
BRANCH   1   8
HETATM    8  C   UNL     1      -5.411   0.393 -32.646  1.00  0.00     0.005 A 
HETATM    9  C   UNL     1      -4.522  -0.537 -32.065  1.00  0.00     0.103 A 
HETATM   10  C   UNL     1      -4.251  -1.802 -32.613  1.00  0.00     0.100 A 
HETATM   11  C   UNL     1      -4.931  -2.148 -33.797  1.00  0.00    -0.004 A 
HETATM   12  N   UNL     1      -3.382  -2.664 -32.029  1.00  0.00    -0.257 NA
HETATM   13  C   UNL     1      -5.847  -1.256 -34.378  1.00  0.00     0.014 A 
HETATM   14  C   UNL     1      -4.677  -3.401 -34.375  1.00  0.00     0.015 A 
HETATM   15  C   UNL     1      -6.089  -0.007 -33.805  1.00  0.00     0.013 A 
HETATM   16  C   UNL     1      -3.777  -4.272 -33.777  1.00  0.00     0.020 A 
HETATM   17  C   UNL     1      -3.161  -3.861 -32.613  1.00  0.00     0.117 A 
BRANCH   9  18
HETATM   18  O   UNL     1      -3.901  -0.200 -30.880  1.00  0.00    -0.358 OA
HETATM   19  H   UNL     1      -3.813   0.782 -30.904  1.00  0.00     0.218 HD
ENDBRANCH   9  18
ENDBRANCH   1   8
BRANCH   1  20
HETATM   20  C   UNL     1      -4.740   2.867 -32.646  1.00  0.00    -0.031 A 
HETATM   21  C   UNL     1      -5.328   3.800 -33.514  1.00  0.00     0.010 A 
HETATM   22  C   UNL     1      -4.559   4.795 -34.125  1.00  0.00     0.007 A 
HETATM   23  C   UNL     1      -3.185   4.880 -33.881  1.00  0.00    -0.062 A 
HETATM   24  C   UNL     1      -2.363   5.961 -34.518  1.00  0.00     0.048 C 
HETATM   25  C   UNL     1      -2.598   3.980 -32.986  1.00  0.00     0.007 A 
HETATM   26  C   UNL     1      -3.365   2.982 -32.379  1.00  0.00     0.010 A 
ENDBRANCH   1  20
TORSDOF 5
ENDMDL
MODEL 3
REMARK VINA RESULT:      -7.9      2.981      6.049
REMARK  5 active torsions:
REMARK  status: ('A' for Active; 'I' for Inactive)
REMARK    1  A    between atoms: C_2  and  C_3 
REMARK       I    between atoms: C_3  and  N_4 
REMARK    2  A    between atoms: N_4  and  C_5 
REMARK    3  A    between atoms: C_5  and  C_6 
REMARK    4  A    between atoms: C_5  and  C_17 
REMARK    5  A    between atoms: C_7  and  O_8 
ROOT
HETATM    1  C   UNL     1      -6.622   1.004 -33.723  1.00  0.00     0.154 C 
ENDROOT
BRANCH   1   2
HETATM    2  N   UNL     1      -6.069   1.758 -32.602  1.00  0.00    -0.348 N 
HETATM    3  C   UNL     1      -5.764   3.096 -32.718  1.00  0.00     0.218 C 
HETATM    4  O   UNL     1      -5.793   3.709 -33.782  1.00  0.00    -0.274 OA
HETATM    5  H   UNL     1      -6.348   1.448 -31.682  1.00  0.00     0.163 HD
BRANCH   3   6
HETATM    6  C   UNL     1      -5.465   3.787 -31.403  1.00  0.00     0.098 C 
HETATM    7  C   UNL     1      -5.764   2.930 -30.186  1.00  0.00     0.014 C 
ENDBRANCH   3   6
ENDBRANCH   1   2
BRANCH   1   8
HETATM    8  C   UNL     1      -6.025  -0.394 -33.838  1.00  0.00     0.005 A 
HETATM    9  C   UNL     1      -5.081  -0.857 -32.895  1.00  0.00     0.103 A 
HETATM   10  C   UNL     1      -4.455  -2.112 -32.972  1.00  0.00     0.100 A 
HETATM   11  C   UNL     1      -4.819  -2.947 -34.046  1.00  0.00    -0.004 A 
HETATM   12  N   UNL     1      -3.546  -2.516 -32.050  1.00  0.00    -0.257 NA
HETATM   13  C   UNL     1      -5.781  -2.527 -34.979  1.00  0.00     0.014 A 
HETATM   14  C   UNL     1      -4.206  -4.204 -34.156  1.00  0.00     0.015 A 
HETATM   15  C   UNL     1      -6.380  -1.271 -34.871  1.00  0.00     0.013 A 
HETATM   16  C   UNL     1      -3.268  -4.604 -33.215  1.00  0.00     0.020 A 
HETATM   17  C   UNL     1      -2.975  -3.731 -32.187  1.00  0.00     0.117 A 
BRANCH   9  18
HETATM   18  O   UNL     1      -4.772  -0.045 -31.823  1.00  0.00    -0.358 OA
HETATM   19  H   UNL     1      -5.570  -0.064 -31.245  1.00  0.00     0.218 HD
ENDBRANCH   9  18
ENDBRANCH   1   8
BRANCH   1  20
HETATM   20  C   UNL     1      -8.153   1.024 -33.691  1.00  0.00    -0.031 A 
HETATM   21  C   UNL     1      -8.833   0.086 -32.899  1.00  0.00     0.010 A 
HETATM   22  C   UNL     1     -10.230   0.051 -32.867  1.00  0.00     0.007 A 
HETATM   23  C   UNL     1     -10.980   0.954 -33.627  1.00  0.00    -0.062 A 
HETATM   24  C   UNL     1     -12.478   0.933 -33.575  1.00  0.00     0.048 C 
HETATM   25  C   UNL     1     -10.312   1.919 -34.388  1.00  0.00     0.007 A 
HETATM   26  C   UNL     1      -8.916   1.951 -34.423  1.00  0.00     0.010 A 
ENDBRANCH   1  20
TORSDOF 5
ENDMDL
MODEL 4
REMARK VINA RESULT:      -7.9      3.240      6.452
REMARK  5 active torsions:
REMARK  status: ('A' for Active; 'I' for Inactive)
REMARK    1  A    between atoms: C_2  and  C_3 
REMARK       I    between atoms: C_3  and  N_4 
REMARK    2  A    between atoms: N_4  and  C_5 
REMARK    3  A    between atoms: C_5  and  C_6 
REMARK    4  A    between atoms: C_5  and  C_17 
REMARK    5  A    between atoms: C_7  and  O_8 
ROOT
HETATM    1  C   UNL     1      -7.500   1.124 -32.321  1.00  0.00     0.154 C 
ENDROOT
BRANCH   1   2
HETATM    2  N   UNL     1      -6.610   2.251 -32.057  1.00  0.00    -0.348 N 
HETATM    3  C   UNL     1      -6.588   2.875 -30.830  1.00  0.00     0.218 C 
HETATM    4  O   UNL     1      -7.395   2.639 -29.934  1.00  0.00    -0.274 OA
HETATM    5  H   UNL     1      -5.739   2.253 -32.568  1.00  0.00     0.163 HD
BRANCH   3   6
HETATM    6  C   UNL     1      -5.429   3.831 -30.633  1.00  0.00     0.098 C 
HETATM    7  C   UNL     1      -4.120   3.323 -31.210  1.00  0.00     0.014 C 
ENDBRANCH   3   6
ENDBRANCH   1   2
BRANCH   1   8
HETATM    8  C   UNL     1      -8.762   1.540 -33.069  1.00  0.00     0.005 A 
HETATM    9  C   UNL     1      -9.962   0.810 -32.923  1.00  0.00     0.103 A 
HETATM   10  C   UNL     1     -11.145   1.109 -33.620  1.00  0.00     0.100 A 
HETATM   11  C   UNL     1     -11.114   2.215 -34.492  1.00  0.00    -0.004 A 
HETATM   12  N   UNL     1     -12.275   0.377 -33.459  1.00  0.00    -0.257 NA
HETATM   13  C   UNL     1      -9.945   2.979 -34.630  1.00  0.00     0.014 A 
HETATM   14  C   UNL     1     -12.276   2.535 -35.210  1.00  0.00     0.015 A 
HETATM   15  C   UNL     1      -8.788   2.650 -33.921  1.00  0.00     0.013 A 
HETATM   16  C   UNL     1     -13.425   1.773 -35.048  1.00  0.00     0.020 A 
HETATM   17  C   UNL     1     -13.374   0.713 -34.166  1.00  0.00     0.117 A 
BRANCH   9  18
HETATM   18  O   UNL     1      -9.987  -0.240 -32.028  1.00  0.00    -0.358 OA
HETATM   19  H   UNL     1      -9.081  -0.272 -31.641  1.00  0.00     0.218 HD
ENDBRANCH   9  18
ENDBRANCH   1   8
BRANCH   1  20
HETATM   20  C   UNL     1      -6.738  -0.029 -32.982  1.00  0.00    -0.031 A 
HETATM   21  C   UNL     1      -5.492  -0.412 -32.462  1.00  0.00     0.010 A 
HETATM   22  C   UNL     1      -4.752  -1.438 -33.055  1.00  0.00     0.007 A 
HETATM   23  C   UNL     1      -5.241  -2.106 -34.183  1.00  0.00    -0.062 A 
HETATM   24  C   UNL     1      -4.457  -3.222 -34.806  1.00  0.00     0.048 C 
HETATM   25  C   UNL     1      -6.499  -1.759 -34.684  1.00  0.00     0.007 A 
HETATM   26  C   UNL     1      -7.238  -0.730 -34.094  1.00  0.00     0.010 A 
ENDBRANCH   1  20
TORSDOF 5
ENDMDL
MODEL 5
REMARK VINA RESULT:      -7.6      1.922      2.493
REMARK  5 active torsions:
REMARK  status: ('A' for Active; 'I' for Inactive)
REMARK    1  A    between atoms: C_2  and  C_3 
REMARK       I    between atoms: C_3  and  N_4 
REMARK    2  A    between atoms: N_4  and  C_5 
REMARK    3  A    between atoms: C_5  and  C_6 
REMARK    4  A    between atoms: C_5  and  C_17 
REMARK    5  A    between atoms: C_7  and  O_8 
ROOT
HETATM    1  C   UNL     1      -6.654   0.519 -33.738  1.00  0.00     0.154 C 
ENDROOT
BRANCH   1   2
HETATM    2  N   UNL     1      -7.925   0.575 -33.020  1.00  0.00    -0.348 N 
HETATM    3  C   UNL     1      -9.027   1.198 -33.562  1.00  0.00     0.218 C 
HETATM    4  O   UNL     1      -8.991   1.864 -34.594  1.00  0.00    -0.274 OA
HETATM    5  H   UNL     1      -8.116  -0.201 -32.403  1.00  0.00     0.163 HD
BRANCH   3   6
HETATM    6  C   UNL     1     -10.323   0.929 -32.826  1.00  0.00     0.098 C 
HETATM    7  C   UNL     1     -11.552   1.011 -33.714  1.00  0.00     0.014 C 
ENDBRANCH   3   6
ENDBRANCH   1   2
BRANCH   1   8
HETATM    8  C   UNL     1      -5.577   1.378 -33.084  1.00  0.00     0.005 A 
HETATM    9  C   UNL     1      -5.473   2.755 -33.378  1.00  0.00     0.103 A 
HETATM   10  C   UNL     1      -4.474   3.591 -32.851  1.00  0.00     0.100 A 
HETATM   11  C   UNL     1      -3.549   3.006 -31.965  1.00  0.00    -0.004 A 
HETATM   12  N   UNL     1      -4.403   4.908 -33.166  1.00  0.00    -0.257 NA
HETATM   13  C   UNL     1      -3.649   1.647 -31.627  1.00  0.00     0.014 A 
HETATM   14  C   UNL     1      -2.534   3.811 -31.427  1.00  0.00     0.015 A 
HETATM   15  C   UNL     1      -4.655   0.847 -32.173  1.00  0.00     0.013 A 
HETATM   16  C   UNL     1      -2.461   5.156 -31.765  1.00  0.00     0.020 A 
HETATM   17  C   UNL     1      -3.413   5.653 -32.631  1.00  0.00     0.117 A 
BRANCH   9  18
HETATM   18  O   UNL     1      -6.417   3.322 -34.210  1.00  0.00    -0.358 OA
HETATM   19  H   UNL     1      -7.224   3.424 -33.654  1.00  0.00     0.218 HD
ENDBRANCH   9  18
ENDBRANCH   1   8
BRANCH   1  20
HETATM   20  C   UNL     1      -6.228  -0.932 -33.981  1.00  0.00    -0.031 A 
HETATM   21  C   UNL     1      -4.869  -1.271 -33.883  1.00  0.00     0.010 A 
HETATM   22  C   UNL     1      -4.437  -2.577 -34.128  1.00  0.00     0.007 A 
HETATM   23  C   UNL     1      -5.353  -3.575 -34.478  1.00  0.00    -0.062 A 
HETATM   24  C   UNL     1      -4.892  -4.981 -34.719  1.00  0.00     0.048 C 
HETATM   25  C   UNL     1      -6.712  -3.256 -34.538  1.00  0.00     0.007 A 
HETATM   26  C   UNL     1      -7.145  -1.949 -34.297  1.00  0.00     0.010 A 
ENDBRANCH   1  20
TORSDOF 5
ENDMDL
MODEL 6
REMARK VINA RESULT:      -7.5     16.555     18.311
REMARK  5 active torsions:
REMARK  status: ('A' for Active; 'I' for Inactive)
REMARK    1  A    between atoms: C_2  and  C_3 
REMARK       I    between atoms: C_3  and  N_4 
REMARK    2  A    between atoms: N_4  and  C_5 
REMARK    3  A    between atoms: C_5  and  C_6 
REMARK    4  A    between atoms: C_5  and  C_17 
REMARK    5  A    between atoms: C_7  and  O_8 
ROOT
HETATM    1  C   UNL     1      -5.822 -13.860 -36.480  1.00  0.00     0.154 C 
ENDROOT
BRANCH   1   2
HETATM    2  N   UNL     1      -4.532 -14.149 -37.101  1.00  0.00    -0.348 N 
HETATM    3  C   UNL     1      -3.767 -13.150 -37.662  1.00  0.00     0.218 C 
HETATM    4  O   UNL     1      -4.162 -11.997 -37.814  1.00  0.00    -0.274 OA
HETATM    5  H   UNL     1      -4.022 -14.930 -36.714  1.00  0.00     0.163 HD
BRANCH   3   6
HETATM    6  C   UNL     1      -2.352 -13.565 -38.010  1.00  0.00     0.098 C 
HETATM    7  C   UNL     1      -1.407 -12.393 -38.203  1.00  0.00     0.014 C 
ENDBRANCH   3   6
ENDBRANCH   1   2
BRANCH   1   8
HETATM    8  C   UNL     1      -6.993 -14.114 -37.424  1.00  0.00     0.005 A 
HETATM    9  C   UNL     1      -7.623 -13.045 -38.098  1.00  0.00     0.103 A 
HETATM   10  C   UNL     1      -8.736 -13.203 -38.939  1.00  0.00     0.100 A 
HETATM   11  C   UNL     1      -9.222 -14.513 -39.122  1.00  0.00    -0.004 A 
HETATM   12  N   UNL     1      -9.319 -12.149 -39.562  1.00  0.00    -0.257 NA
HETATM   13  C   UNL     1      -8.594 -15.599 -38.492  1.00  0.00     0.014 A 
HETATM   14  C   UNL     1     -10.338 -14.705 -39.950  1.00  0.00     0.015 A 
HETATM   15  C   UNL     1      -7.490 -15.401 -37.661  1.00  0.00     0.013 A 
HETATM   16  C   UNL     1     -10.936 -13.617 -40.573  1.00  0.00     0.020 A 
HETATM   17  C   UNL     1     -10.391 -12.369 -40.351  1.00  0.00     0.117 A 
BRANCH   9  18
HETATM   18  O   UNL     1      -7.104 -11.775 -37.945  1.00  0.00    -0.358 OA
HETATM   19  H   UNL     1      -6.125 -11.892 -37.964  1.00  0.00     0.218 HD
ENDBRANCH   9  18
ENDBRANCH   1   8
BRANCH   1  20
HETATM   20  C   UNL     1      -5.948 -14.570 -35.129  1.00  0.00    -0.031 A 
HETATM   21  C   UNL     1      -4.950 -15.476 -34.737  1.00  0.00     0.010 A 
HETATM   22  C   UNL     1      -5.044 -16.167 -33.526  1.00  0.00     0.007 A 
HETATM   23  C   UNL     1      -6.138 -15.969 -32.679  1.00  0.00    -0.062 A 
HETATM   24  C   UNL     1      -6.228 -16.693 -31.369  1.00  0.00     0.048 C 
HETATM   25  C   UNL     1      -7.117 -15.039 -33.041  1.00  0.00     0.007 A 
HETATM   26  C   UNL     1      -7.026 -14.350 -34.254  1.00  0.00     0.010 A 
ENDBRANCH   1  20
TORSDOF 5
ENDMDL
MODEL 7
REMARK VINA RESULT:      -7.5      2.828      3.549
REMARK  5 active torsions:
REMARK  status: ('A' for Active; 'I' for Inactive)
REMARK    1  A    between atoms: C_2  and  C_3 
REMARK       I    between atoms: C_3  and  N_4 
REMARK    2  A    between atoms: N_4  and  C_5 
REMARK    3  A    between atoms: C_5  and  C_6 
REMARK    4  A    between atoms: C_5  and  C_17 
REMARK    5  A    between atoms: C_7  and  O_8 
ROOT
HETATM    1  C   UNL     1      -7.412   0.883 -34.115  1.00  0.00     0.154 C 
ENDROOT
BRANCH   1   2
HETATM    2  N   UNL     1      -8.731   0.569 -33.572  1.00  0.00    -0.348 N 
HETATM    3  C   UNL     1      -9.839   1.318 -33.903  1.00  0.00     0.218 C 
HETATM    4  O   UNL     1      -9.783   2.366 -34.542  1.00  0.00    -0.274 OA
HETATM    5  H   UNL     1      -8.903  -0.404 -33.367  1.00  0.00     0.163 HD
BRANCH   3   6
HETATM    6  C   UNL     1     -11.158   0.703 -33.484  1.00  0.00     0.098 C 
HETATM    7  C   UNL     1     -12.341   1.193 -34.301  1.00  0.00     0.014 C 
ENDBRANCH   3   6
ENDBRANCH   1   2
BRANCH   1   8
HETATM    8  C   UNL     1      -6.774   2.091 -33.437  1.00  0.00     0.005 A 
HETATM    9  C   UNL     1      -6.772   2.214 -32.031  1.00  0.00     0.103 A 
HETATM   10  C   UNL     1      -6.249   3.324 -31.347  1.00  0.00     0.100 A 
HETATM   11  C   UNL     1      -5.681   4.349 -32.127  1.00  0.00    -0.004 A 
HETATM   12  N   UNL     1      -6.275   3.408 -29.994  1.00  0.00    -0.257 NA
HETATM   13  C   UNL     1      -5.637   4.238 -33.526  1.00  0.00     0.014 A 
HETATM   14  C   UNL     1      -5.156   5.476 -31.475  1.00  0.00     0.015 A 
HETATM   15  C   UNL     1      -6.169   3.120 -34.170  1.00  0.00     0.013 A 
HETATM   16  C   UNL     1      -5.198   5.559 -30.090  1.00  0.00     0.020 A 
HETATM   17  C   UNL     1      -5.762   4.506 -29.399  1.00  0.00     0.117 A 
BRANCH   9  18
HETATM   18  O   UNL     1      -7.290   1.178 -31.280  1.00  0.00    -0.358 OA
HETATM   19  H   UNL     1      -8.242   1.401 -31.153  1.00  0.00     0.218 HD
ENDBRANCH   9  18
ENDBRANCH   1   8
BRANCH   1  20
HETATM   20  C   UNL     1      -6.519  -0.362 -34.132  1.00  0.00    -0.031 A 
HETATM   21  C   UNL     1      -7.035  -1.566 -34.638  1.00  0.00     0.010 A 
HETATM   22  C   UNL     1      -6.264  -2.731 -34.642  1.00  0.00     0.007 A 
HETATM   23  C   UNL     1      -4.958  -2.720 -34.141  1.00  0.00    -0.062 A 
HETATM   24  C   UNL     1      -4.122  -3.964 -34.166  1.00  0.00     0.048 C 
HETATM   25  C   UNL     1      -4.422  -1.517 -33.673  1.00  0.00     0.007 A 
HETATM   26  C   UNL     1      -5.194  -0.352 -33.664  1.00  0.00     0.010 A 
ENDBRANCH   1  20
TORSDOF 5
ENDMDL
MODEL 8
REMARK VINA RESULT:      -7.5      2.046      6.045
REMARK  5 active torsions:
REMARK  status: ('A' for Active; 'I' for Inactive)
REMARK    1  A    between atoms: C_2  and  C_3 
REMARK       I    between atoms: C_3  and  N_4 
REMARK    2  A    between atoms: N_4  and  C_5 
REMARK    3  A    between atoms: C_5  and  C_6 
REMARK    4  A    between atoms: C_5  and  C_17 
REMARK    5  A    between atoms: C_7  and  O_8 
ROOT
HETATM    1  C   UNL     1      -4.791   2.301 -31.623  1.00  0.00     0.154 C 
ENDROOT
BRANCH   1   2
HETATM    2  N   UNL     1      -6.209   2.642 -31.709  1.00  0.00    -0.348 N 
HETATM    3  C   UNL     1      -6.818   3.423 -30.752  1.00  0.00     0.218 C 
HETATM    4  O   UNL     1      -6.273   3.762 -29.705  1.00  0.00    -0.274 OA
HETATM    5  H   UNL     1      -6.589   2.711 -32.642  1.00  0.00     0.163 HD
BRANCH   3   6
HETATM    6  C   UNL     1      -8.202   3.909 -31.129  1.00  0.00     0.098 C 
HETATM    7  C   UNL     1      -9.319   3.024 -30.604  1.00  0.00     0.014 C 
ENDBRANCH   3   6
ENDBRANCH   1   2
BRANCH   1   8
HETATM    8  C   UNL     1      -4.506   0.874 -32.079  1.00  0.00     0.005 A 
HETATM    9  C   UNL     1      -5.225   0.299 -33.149  1.00  0.00     0.103 A 
HETATM   10  C   UNL     1      -5.048  -1.024 -33.586  1.00  0.00     0.100 A 
HETATM   11  C   UNL     1      -4.078  -1.796 -32.916  1.00  0.00    -0.004 A 
HETATM   12  N   UNL     1      -5.766  -1.542 -34.613  1.00  0.00    -0.257 NA
HETATM   13  C   UNL     1      -3.324  -1.240 -31.871  1.00  0.00     0.014 A 
HETATM   14  C   UNL     1      -3.882  -3.125 -33.322  1.00  0.00     0.015 A 
HETATM   15  C   UNL     1      -3.530   0.079 -31.465  1.00  0.00     0.013 A 
HETATM   16  C   UNL     1      -4.631  -3.650 -34.367  1.00  0.00     0.020 A 
HETATM   17  C   UNL     1      -5.552  -2.824 -34.976  1.00  0.00     0.117 A 
BRANCH   9  18
HETATM   18  O   UNL     1      -6.137   1.086 -33.824  1.00  0.00    -0.358 OA
HETATM   19  H   UNL     1      -7.021   0.726 -33.578  1.00  0.00     0.218 HD
ENDBRANCH   9  18
ENDBRANCH   1   8
BRANCH   1  20
HETATM   20  C   UNL     1      -3.932   3.359 -32.320  1.00  0.00    -0.031 A 
HETATM   21  C   UNL     1      -2.665   3.664 -31.797  1.00  0.00     0.010 A 
HETATM   22  C   UNL     1      -1.864   4.646 -32.385  1.00  0.00     0.007 A 
HETATM   23  C   UNL     1      -2.310   5.346 -33.511  1.00  0.00    -0.062 A 
HETATM   24  C   UNL     1      -1.441   6.384 -34.156  1.00  0.00     0.048 C 
HETATM   25  C   UNL     1      -3.553   5.022 -34.063  1.00  0.00     0.007 A 
HETATM   26  C   UNL     1      -4.357   4.043 -33.472  1.00  0.00     0.010 A 
ENDBRANCH   1  20
TORSDOF 5
ENDMDL
MODEL 9
REMARK VINA RESULT:      -7.4     17.096     19.612
REMARK  5 active torsions:
REMARK  status: ('A' for Active; 'I' for Inactive)
REMARK    1  A    between atoms: C_2  and  C_3 
REMARK       I    between atoms: C_3  and  N_4 
REMARK    2  A    between atoms: N_4  and  C_5 
REMARK    3  A    between atoms: C_5  and  C_6 
REMARK    4  A    between atoms: C_5  and  C_17 
REMARK    5  A    between atoms: C_7  and  O_8 
ROOT
HETATM    1  C   UNL     1      -4.120 -14.473 -40.637  1.00  0.00     0.154 C 
ENDROOT
BRANCH   1   2
HETATM    2  N   UNL     1      -3.044 -13.610 -40.157  1.00  0.00    -0.348 N 
HETATM    3  C   UNL     1      -2.619 -13.655 -38.847  1.00  0.00     0.218 C 
HETATM    4  O   UNL     1      -3.192 -14.296 -37.970  1.00  0.00    -0.274 OA
HETATM    5  H   UNL     1      -2.343 -13.359 -40.839  1.00  0.00     0.163 HD
BRANCH   3   6
HETATM    6  C   UNL     1      -1.328 -12.909 -38.582  1.00  0.00     0.098 C 
HETATM    7  C   UNL     1      -0.089 -13.778 -38.706  1.00  0.00     0.014 C 
ENDBRANCH   3   6
ENDBRANCH   1   2
BRANCH   1   8
HETATM    8  C   UNL     1      -5.491 -13.815 -40.521  1.00  0.00     0.005 A 
HETATM    9  C   UNL     1      -6.651 -14.593 -40.312  1.00  0.00     0.103 A 
HETATM   10  C   UNL     1      -7.947 -14.056 -40.247  1.00  0.00     0.100 A 
HETATM   11  C   UNL     1      -8.071 -12.659 -40.380  1.00  0.00    -0.004 A 
HETATM   12  N   UNL     1      -9.037 -14.839 -40.054  1.00  0.00    -0.257 NA
HETATM   13  C   UNL     1      -6.932 -11.857 -40.554  1.00  0.00     0.014 A 
HETATM   14  C   UNL     1      -9.353 -12.092 -40.328  1.00  0.00     0.015 A 
HETATM   15  C   UNL     1      -5.659 -12.428 -40.615  1.00  0.00     0.013 A 
HETATM   16  C   UNL     1     -10.465 -12.902 -40.142  1.00  0.00     0.020 A 
HETATM   17  C   UNL     1     -10.256 -14.260 -40.010  1.00  0.00     0.117 A 
BRANCH   9  18
HETATM   18  O   UNL     1      -6.505 -15.954 -40.136  1.00  0.00    -0.358 OA
HETATM   19  H   UNL     1      -5.693 -16.059 -39.587  1.00  0.00     0.218 HD
ENDBRANCH   9  18
ENDBRANCH   1   8
BRANCH   1  20
HETATM   20  C   UNL     1      -3.805 -15.009 -42.037  1.00  0.00    -0.031 A 
HETATM   21  C   UNL     1      -2.833 -16.012 -42.181  1.00  0.00     0.010 A 
HETATM   22  C   UNL     1      -2.495 -16.506 -43.444  1.00  0.00     0.007 A 
HETATM   23  C   UNL     1      -3.120 -16.008 -44.592  1.00  0.00    -0.062 A 
HETATM   24  C   UNL     1      -2.774 -16.554 -45.945  1.00  0.00     0.048 C 
HETATM   25  C   UNL     1      -4.118 -15.039 -44.455  1.00  0.00     0.007 A 
HETATM   26  C   UNL     1      -4.454 -14.542 -43.193  1.00  0.00     0.010 A 
ENDBRANCH   1  20
TORSDOF 5
ENDMDL
MODEL 10
REMARK VINA RESULT:      -7.4      2.511      3.153
REMARK  5 active torsions:
REMARK  status: ('A' for Active; 'I' for Inactive)
REMARK    1  A    between atoms: C_2  and  C_3 
REMARK       I    between atoms: C_3  and  N_4 
REMARK    2  A    between atoms: N_4  and  C_5 
REMARK    3  A    between atoms: C_5  and  C_6 
REMARK    4  A    between atoms: C_5  and  C_17 
REMARK    5  A    between atoms: C_7  and  O_8 
ROOT
HETATM    1  C   UNL     1      -7.614   0.870 -33.490  1.00  0.00     0.154 C 
ENDROOT
BRANCH   1   2
HETATM    2  N   UNL     1      -8.971   0.424 -33.184  1.00  0.00    -0.348 N 
HETATM    3  C   UNL     1     -10.073   1.108 -33.649  1.00  0.00     0.218 C 
HETATM    4  O   UNL     1     -10.007   2.197 -34.214  1.00  0.00    -0.274 OA
HETATM    5  H   UNL     1      -9.090  -0.571 -33.061  1.00  0.00     0.163 HD
BRANCH   3   6
HETATM    6  C   UNL     1     -11.385   0.370 -33.481  1.00  0.00     0.098 C 
HETATM    7  C   UNL     1     -12.561   1.068 -34.138  1.00  0.00     0.014 C 
ENDBRANCH   3   6
ENDBRANCH   1   2
BRANCH   1   8
HETATM    8  C   UNL     1      -7.087   1.875 -32.471  1.00  0.00     0.005 A 
HETATM    9  C   UNL     1      -6.373   3.020 -32.887  1.00  0.00     0.103 A 
HETATM   10  C   UNL     1      -5.817   3.956 -32.000  1.00  0.00     0.100 A 
HETATM   11  C   UNL     1      -6.013   3.731 -30.623  1.00  0.00    -0.004 A 
HETATM   12  N   UNL     1      -5.129   5.038 -32.439  1.00  0.00    -0.257 NA
HETATM   13  C   UNL     1      -6.749   2.620 -30.182  1.00  0.00     0.014 A 
HETATM   14  C   UNL     1      -5.464   4.643 -29.709  1.00  0.00     0.015 A 
HETATM   15  C   UNL     1      -7.285   1.710 -31.095  1.00  0.00     0.013 A 
HETATM   16  C   UNL     1      -4.751   5.742 -30.168  1.00  0.00     0.020 A 
HETATM   17  C   UNL     1      -4.614   5.895 -31.533  1.00  0.00     0.117 A 
BRANCH   9  18
HETATM   18  O   UNL     1      -6.231   3.250 -34.241  1.00  0.00    -0.358 OA
HETATM   19  H   UNL     1      -7.087   3.647 -34.527  1.00  0.00     0.218 HD
ENDBRANCH   9  18
ENDBRANCH   1   8
BRANCH   1  20
HETATM   20  C   UNL     1      -6.686  -0.325 -33.722  1.00  0.00    -0.031 A 
HETATM   21  C   UNL     1      -7.170  -1.441 -34.423  1.00  0.00     0.010 A 
HETATM   22  C   UNL     1      -6.364  -2.565 -34.627  1.00  0.00     0.007 A 
HETATM   23  C   UNL     1      -5.055  -2.598 -34.136  1.00  0.00    -0.062 A 
HETATM   24  C   UNL     1      -4.183  -3.794 -34.375  1.00  0.00     0.048 C 
HETATM   25  C   UNL     1      -4.551  -1.476 -33.472  1.00  0.00     0.007 A 
HETATM   26  C   UNL     1      -5.357  -0.354 -33.263  1.00  0.00     0.010 A 
ENDBRANCH   1  20
TORSDOF 5
ENDMDL
