MODEL 1
REMARK VINA RESULT:     -10.0      0.000      0.000
REMARK  6 active torsions:
REMARK  status: ('A' for Active; 'I' for Inactive)
REMARK    1  A    between atoms: C_2  and  C_3 
REMARK    2  A    between atoms: C_3  and  C_4 
REMARK    3  A    between atoms: C_6  and  N_7 
REMARK    4  A    between atoms: C_9  and  C_10 
REMARK    5  A    between atoms: C_16  and  N_17 
REMARK       I    between atoms: N_17  and  C_18 
REMARK    6  A    between atoms: C_18  and  C_19 
ROOT
HETATM    1  N   UNL     1      -6.368   0.686 -33.788  1.00  0.00    -0.044 N 
HETATM    2  N   UNL     1      -5.561  -0.411 -33.741  1.00  0.00    -0.148 NA
HETATM    3  C   UNL     1      -6.285  -1.364 -34.338  1.00  0.00     0.115 A 
HETATM    4  C   UNL     1      -7.525  -0.878 -34.808  1.00  0.00     0.087 A 
HETATM    5  C   UNL     1      -7.558   0.452 -34.460  1.00  0.00     0.152 A 
ENDROOT
BRANCH   5   6
HETATM    6  N   UNL     1      -8.548   1.406 -34.709  1.00  0.00    -0.310 N 
HETATM    7  C   UNL     1      -9.606   1.733 -33.785  1.00  0.00     0.236 C 
HETATM    8  O   UNL     1      -9.639   1.211 -32.677  1.00  0.00    -0.272 OA
HETATM    9  H   UNL     1      -8.523   1.861 -35.626  1.00  0.00     0.170 HD
BRANCH   7  10
HETATM   10  C   UNL     1     -10.639   2.761 -34.235  1.00  0.00     0.149 C 
HETATM   11  C   UNL     1     -10.374   4.129 -33.656  1.00  0.00    -0.007 A 
HETATM   12  C   UNL     1     -11.303   4.713 -32.791  1.00  0.00     0.083 A 
HETATM   13  C   UNL     1      -9.204   4.836 -33.979  1.00  0.00     0.011 A 
HETATM   14  C   UNL     1     -11.070   5.980 -32.255  1.00  0.00     0.038 A 
HETATM   15  O   UNL     1     -12.470   4.100 -32.409  1.00  0.00    -0.310 OA
HETATM   16  C   UNL     1      -9.901   6.671 -32.571  1.00  0.00     0.003 A 
HETATM   17  C   UNL     1      -8.968   6.098 -33.432  1.00  0.00     0.001 A 
HETATM   18  C   UNL     1     -12.856   2.956 -33.059  1.00  0.00     0.083 A 
HETATM   19  C   UNL     1     -12.038   2.268 -33.957  1.00  0.00    -0.007 A 
HETATM   20  C   UNL     1     -14.146   2.498 -32.783  1.00  0.00     0.038 A 
HETATM   21  C   UNL     1     -12.539   1.122 -34.597  1.00  0.00     0.011 A 
HETATM   22  C   UNL     1     -13.831   0.671 -34.328  1.00  0.00     0.001 A 
HETATM   23  C   UNL     1     -14.634   1.356 -33.418  1.00  0.00     0.003 A 
ENDBRANCH   7  10
ENDBRANCH   5   6
BRANCH   1  24
HETATM   24  C   UNL     1      -5.952   1.888 -33.196  1.00  0.00     0.732 A 
HETATM   25  N   UNL     1      -5.666   2.947 -33.888  1.00  0.00    -0.067 NA
HETATM   26  C   UNL     1      -5.308   4.059 -33.148  1.00  0.00     0.059 A 
HETATM   27  C   UNL     1      -5.176   4.057 -31.811  1.00  0.00     0.102 A 
HETATM   28  C   UNL     1      -5.462   2.820 -31.067  1.00  0.00     0.261 A 
HETATM   29  N   UNL     1      -5.889   1.785 -31.834  1.00  0.00    -0.152 N 
HETATM   30  O   UNL     1      -5.325   2.752 -29.853  1.00  0.00    -0.268 OA
HETATM   31  H   UNL     1      -6.115   0.906 -31.378  1.00  0.00     0.187 HD
BRANCH  26  32
HETATM   32  C   UNL     1      -5.074   5.331 -33.930  1.00  0.00     0.060 C 
BRANCH  32  33
HETATM   33  C   UNL     1      -4.115   5.105 -35.102  1.00  0.00     0.002 C 
HETATM   34  C   UNL     1      -2.663   5.234 -34.671  1.00  0.00     0.005 C 
ENDBRANCH  32  33
ENDBRANCH  26  32
ENDBRANCH   1  24
BRANCH   3  35
HETATM   35  C   UNL     1      -5.817  -2.773 -34.475  1.00  0.00     0.105 A 
HETATM   36  O   UNL     1      -4.581  -3.213 -34.085  1.00  0.00    -0.320 OA
HETATM   37  C   UNL     1      -4.514  -4.537 -34.376  1.00  0.00     0.142 A 
HETATM   38  C   UNL     1      -5.688  -4.965 -34.944  1.00  0.00     0.027 A 
HETATM   39  C   UNL     1      -6.530  -3.828 -35.008  1.00  0.00     0.041 A 
ENDBRANCH   3  35
TORSDOF 6
ENDMDL
MODEL 2
REMARK VINA RESULT:      -9.9      1.464      2.330
REMARK  6 active torsions:
REMARK  status: ('A' for Active; 'I' for Inactive)
REMARK    1  A    between atoms: C_2  and  C_3 
REMARK    2  A    between atoms: C_3  and  C_4 
REMARK    3  A    between atoms: C_6  and  N_7 
REMARK    4  A    between atoms: C_9  and  C_10 
REMARK    5  A    between atoms: C_16  and  N_17 
REMARK       I    between atoms: N_17  and  C_18 
REMARK    6  A    between atoms: C_18  and  C_19 
ROOT
HETATM    1  N   UNL     1      -6.797   1.343 -34.065  1.00  0.00    -0.044 N 
HETATM    2  N   UNL     1      -5.854   0.366 -33.950  1.00  0.00    -0.148 NA
HETATM    3  C   UNL     1      -6.467  -0.726 -34.420  1.00  0.00     0.115 A 
HETATM    4  C   UNL     1      -7.774  -0.451 -34.878  1.00  0.00     0.087 A 
HETATM    5  C   UNL     1      -7.968   0.893 -34.657  1.00  0.00     0.152 A 
ENDROOT
BRANCH   5   6
HETATM    6  N   UNL     1      -9.081   1.685 -34.951  1.00  0.00    -0.310 N 
HETATM    7  C   UNL     1     -10.140   1.971 -34.015  1.00  0.00     0.236 C 
HETATM    8  O   UNL     1     -10.067   1.565 -32.861  1.00  0.00    -0.272 OA
HETATM    9  H   UNL     1      -9.148   2.042 -35.909  1.00  0.00     0.170 HD
BRANCH   7  10
HETATM   10  C   UNL     1     -11.313   2.809 -34.514  1.00  0.00     0.149 C 
HETATM   11  C   UNL     1     -11.167   4.267 -34.156  1.00  0.00    -0.007 A 
HETATM   12  C   UNL     1     -12.094   4.873 -33.304  1.00  0.00     0.083 A 
HETATM   13  C   UNL     1     -10.110   5.035 -34.672  1.00  0.00     0.011 A 
HETATM   14  C   UNL     1     -11.971   6.222 -32.972  1.00  0.00     0.038 A 
HETATM   15  O   UNL     1     -13.154   4.207 -32.742  1.00  0.00    -0.310 OA
HETATM   16  C   UNL     1     -10.913   6.976 -33.478  1.00  0.00     0.003 A 
HETATM   17  C   UNL     1      -9.982   6.381 -34.328  1.00  0.00     0.001 A 
HETATM   18  C   UNL     1     -13.451   2.945 -33.192  1.00  0.00     0.083 A 
HETATM   19  C   UNL     1     -12.623   2.220 -34.051  1.00  0.00    -0.007 A 
HETATM   20  C   UNL     1     -14.657   2.402 -32.746  1.00  0.00     0.038 A 
HETATM   21  C   UNL     1     -13.034   0.947 -34.481  1.00  0.00     0.011 A 
HETATM   22  C   UNL     1     -14.244   0.410 -34.043  1.00  0.00     0.001 A 
HETATM   23  C   UNL     1     -15.054   1.135 -33.173  1.00  0.00     0.003 A 
ENDBRANCH   7  10
ENDBRANCH   5   6
BRANCH   1  24
HETATM   24  C   UNL     1      -6.522   2.640 -33.610  1.00  0.00     0.732 A 
HETATM   25  N   UNL     1      -7.038   3.125 -32.523  1.00  0.00    -0.067 NA
HETATM   26  C   UNL     1      -6.634   4.406 -32.197  1.00  0.00     0.059 A 
HETATM   27  C   UNL     1      -5.831   5.157 -32.968  1.00  0.00     0.102 A 
HETATM   28  C   UNL     1      -5.305   4.587 -34.219  1.00  0.00     0.261 A 
HETATM   29  N   UNL     1      -5.666   3.299 -34.448  1.00  0.00    -0.152 N 
HETATM   30  O   UNL     1      -4.598   5.237 -34.976  1.00  0.00    -0.268 OA
HETATM   31  H   UNL     1      -5.326   2.844 -35.290  1.00  0.00     0.187 HD
BRANCH  26  32
HETATM   32  C   UNL     1      -7.143   4.949 -30.880  1.00  0.00     0.060 C 
BRANCH  32  33
HETATM   33  C   UNL     1      -8.571   5.486 -31.004  1.00  0.00     0.002 C 
HETATM   34  C   UNL     1      -9.590   4.500 -30.455  1.00  0.00     0.005 C 
ENDBRANCH  32  33
ENDBRANCH  26  32
ENDBRANCH   1  24
BRANCH   3  35
HETATM   35  C   UNL     1      -5.824  -2.071 -34.443  1.00  0.00     0.105 A 
HETATM   36  O   UNL     1      -4.535  -2.313 -34.052  1.00  0.00    -0.320 OA
HETATM   37  C   UNL     1      -4.303  -3.639 -34.223  1.00  0.00     0.142 A 
HETATM   38  C   UNL     1      -5.423  -4.264 -34.715  1.00  0.00     0.027 A 
HETATM   39  C   UNL     1      -6.405  -3.253 -34.857  1.00  0.00     0.041 A 
ENDBRANCH   3  35
TORSDOF 6
ENDMDL
MODEL 3
REMARK VINA RESULT:      -9.7      2.761      7.043
REMARK  6 active torsions:
REMARK  status: ('A' for Active; 'I' for Inactive)
REMARK    1  A    between atoms: C_2  and  C_3 
REMARK    2  A    between atoms: C_3  and  C_4 
REMARK    3  A    between atoms: C_6  and  N_7 
REMARK    4  A    between atoms: C_9  and  C_10 
REMARK    5  A    between atoms: C_16  and  N_17 
REMARK       I    between atoms: N_17  and  C_18 
REMARK    6  A    between atoms: C_18  and  C_19 
ROOT
HETATM    1  N   UNL     1      -4.843   4.448 -31.292  1.00  0.00    -0.044 N 
HETATM    2  N   UNL     1      -3.838   5.347 -31.095  1.00  0.00    -0.148 NA
HETATM    3  C   UNL     1      -2.731   4.656 -31.388  1.00  0.00     0.115 A 
HETATM    4  C   UNL     1      -3.018   3.341 -31.816  1.00  0.00     0.087 A 
HETATM    5  C   UNL     1      -4.388   3.226 -31.764  1.00  0.00     0.152 A 
ENDROOT
BRANCH   5   6
HETATM    6  N   UNL     1      -5.197   2.140 -32.107  1.00  0.00    -0.310 N 
HETATM    7  C   UNL     1      -5.788   1.238 -31.149  1.00  0.00     0.236 C 
HETATM    8  O   UNL     1      -5.649   1.438 -29.948  1.00  0.00    -0.272 OA
HETATM    9  H   UNL     1      -5.333   1.969 -33.108  1.00  0.00     0.170 HD
BRANCH   7  10
HETATM   10  C   UNL     1      -6.601   0.068 -31.694  1.00  0.00     0.149 C 
HETATM   11  C   UNL     1      -5.775  -0.844 -32.568  1.00  0.00    -0.007 A 
HETATM   12  C   UNL     1      -6.096  -0.993 -33.919  1.00  0.00     0.083 A 
HETATM   13  C   UNL     1      -4.685  -1.557 -32.043  1.00  0.00     0.011 A 
HETATM   14  C   UNL     1      -5.343  -1.838 -34.735  1.00  0.00     0.038 A 
HETATM   15  O   UNL     1      -7.135  -0.333 -34.528  1.00  0.00    -0.310 OA
HETATM   16  C   UNL     1      -4.256  -2.534 -34.210  1.00  0.00     0.003 A 
HETATM   17  C   UNL     1      -3.927  -2.392 -32.863  1.00  0.00     0.001 A 
HETATM   18  C   UNL     1      -8.035   0.342 -33.744  1.00  0.00     0.083 A 
HETATM   19  C   UNL     1      -7.852   0.561 -32.377  1.00  0.00    -0.007 A 
HETATM   20  C   UNL     1      -9.182   0.808 -34.388  1.00  0.00     0.038 A 
HETATM   21  C   UNL     1      -8.851   1.236 -31.655  1.00  0.00     0.011 A 
HETATM   22  C   UNL     1     -10.001   1.692 -32.298  1.00  0.00     0.001 A 
HETATM   23  C   UNL     1     -10.166   1.482 -33.665  1.00  0.00     0.003 A 
ENDBRANCH   7  10
ENDBRANCH   5   6
BRANCH   1  24
HETATM   24  C   UNL     1      -6.171   4.812 -31.025  1.00  0.00     0.732 A 
HETATM   25  N   UNL     1      -7.081   4.866 -31.947  1.00  0.00    -0.067 NA
HETATM   26  C   UNL     1      -8.348   5.205 -31.509  1.00  0.00     0.059 A 
HETATM   27  C   UNL     1      -8.636   5.542 -30.241  1.00  0.00     0.102 A 
HETATM   28  C   UNL     1      -7.564   5.515 -29.234  1.00  0.00     0.261 A 
HETATM   29  N   UNL     1      -6.360   5.095 -29.701  1.00  0.00    -0.152 N 
HETATM   30  O   UNL     1      -7.762   5.845 -28.073  1.00  0.00    -0.268 OA
HETATM   31  H   UNL     1      -5.581   5.043 -29.052  1.00  0.00     0.187 HD
BRANCH  26  32
HETATM   32  C   UNL     1      -9.443   5.171 -32.551  1.00  0.00     0.060 C 
BRANCH  32  33
HETATM   33  C   UNL     1      -8.876   4.995 -33.962  1.00  0.00     0.002 C 
HETATM   34  C   UNL     1      -9.972   5.036 -35.016  1.00  0.00     0.005 C 
ENDBRANCH  32  33
ENDBRANCH  26  32
ENDBRANCH   1  24
BRANCH   3  35
HETATM   35  C   UNL     1      -1.360   5.229 -31.264  1.00  0.00     0.105 A 
HETATM   36  O   UNL     1      -0.275   4.533 -30.804  1.00  0.00    -0.320 OA
HETATM   37  C   UNL     1       0.785   5.380 -30.821  1.00  0.00     0.142 A 
HETATM   38  C   UNL     1       0.407   6.615 -31.289  1.00  0.00     0.027 A 
HETATM   39  C   UNL     1      -0.976   6.519 -31.575  1.00  0.00     0.041 A 
ENDBRANCH   3  35
TORSDOF 6
ENDMDL
MODEL 4
REMARK VINA RESULT:      -9.6      2.548      6.407
REMARK  6 active torsions:
REMARK  status: ('A' for Active; 'I' for Inactive)
REMARK    1  A    between atoms: C_2  and  C_3 
REMARK    2  A    between atoms: C_3  and  C_4 
REMARK    3  A    between atoms: C_6  and  N_7 
REMARK    4  A    between atoms: C_9  and  C_10 
REMARK    5  A    between atoms: C_16  and  N_17 
REMARK       I    between atoms: N_17  and  C_18 
REMARK    6  A    between atoms: C_18  and  C_19 
ROOT
HETATM    1  N   UNL     1      -3.966   2.654 -32.004  1.00  0.00    -0.044 N 
HETATM    2  N   UNL     1      -2.653   3.008 -31.920  1.00  0.00    -0.148 NA
HETATM    3  C   UNL     1      -2.694   4.308 -31.604  1.00  0.00     0.115 A 
HETATM    4  C   UNL     1      -4.015   4.777 -31.438  1.00  0.00     0.087 A 
HETATM    5  C   UNL     1      -4.827   3.694 -31.685  1.00  0.00     0.152 A 
ENDROOT
BRANCH   5   6
HETATM    6  N   UNL     1      -6.220   3.603 -31.633  1.00  0.00    -0.310 N 
HETATM    7  C   UNL     1      -7.093   3.930 -32.733  1.00  0.00     0.236 C 
HETATM    8  O   UNL     1      -6.622   4.250 -33.818  1.00  0.00    -0.272 OA
HETATM    9  H   UNL     1      -6.626   3.324 -30.735  1.00  0.00     0.170 HD
BRANCH   7  10
HETATM   10  C   UNL     1      -8.596   3.830 -32.493  1.00  0.00     0.149 C 
HETATM   11  C   UNL     1      -9.093   2.407 -32.572  1.00  0.00    -0.007 A 
HETATM   12  C   UNL     1     -10.007   2.042 -33.564  1.00  0.00     0.083 A 
HETATM   13  C   UNL     1      -8.657   1.437 -31.655  1.00  0.00     0.011 A 
HETATM   14  C   UNL     1     -10.477   0.731 -33.642  1.00  0.00     0.038 A 
HETATM   15  O   UNL     1     -10.486   2.913 -34.510  1.00  0.00    -0.310 OA
HETATM   16  C   UNL     1     -10.031  -0.230 -32.736  1.00  0.00     0.003 A 
HETATM   17  C   UNL     1      -9.120   0.124 -31.743  1.00  0.00     0.001 A 
HETATM   18  C   UNL     1     -10.229   4.252 -34.361  1.00  0.00     0.083 A 
HETATM   19  C   UNL     1      -9.346   4.765 -33.409  1.00  0.00    -0.007 A 
HETATM   20  C   UNL     1     -10.915   5.109 -35.223  1.00  0.00     0.038 A 
HETATM   21  C   UNL     1      -9.177   6.157 -33.314  1.00  0.00     0.011 A 
HETATM   22  C   UNL     1      -9.871   7.012 -34.170  1.00  0.00     0.001 A 
HETATM   23  C   UNL     1     -10.737   6.489 -35.127  1.00  0.00     0.003 A 
ENDBRANCH   7  10
ENDBRANCH   5   6
BRANCH   1  24
HETATM   24  C   UNL     1      -4.317   1.348 -32.378  1.00  0.00     0.732 A 
HETATM   25  N   UNL     1      -5.342   1.087 -33.129  1.00  0.00    -0.067 NA
HETATM   26  C   UNL     1      -5.526  -0.249 -33.435  1.00  0.00     0.059 A 
HETATM   27  C   UNL     1      -4.767  -1.241 -32.939  1.00  0.00     0.102 A 
HETATM   28  C   UNL     1      -3.644  -0.906 -32.050  1.00  0.00     0.261 A 
HETATM   29  N   UNL     1      -3.459   0.424 -31.852  1.00  0.00    -0.152 N 
HETATM   30  O   UNL     1      -2.943  -1.770 -31.544  1.00  0.00    -0.268 OA
HETATM   31  H   UNL     1      -2.691   0.722 -31.256  1.00  0.00     0.187 HD
BRANCH  26  32
HETATM   32  C   UNL     1      -6.652  -0.563 -34.394  1.00  0.00     0.060 C 
BRANCH  32  33
HETATM   33  C   UNL     1      -7.234  -1.957 -34.145  1.00  0.00     0.002 C 
HETATM   34  C   UNL     1      -6.605  -2.997 -35.058  1.00  0.00     0.005 C 
ENDBRANCH  32  33
ENDBRANCH  26  32
ENDBRANCH   1  24
BRANCH   3  35
HETATM   35  C   UNL     1      -1.469   5.145 -31.454  1.00  0.00     0.105 A 
HETATM   36  O   UNL     1      -0.344   4.747 -30.785  1.00  0.00    -0.320 OA
HETATM   37  C   UNL     1       0.547   5.769 -30.849  1.00  0.00     0.142 A 
HETATM   38  C   UNL     1       0.019   6.824 -31.552  1.00  0.00     0.027 A 
HETATM   39  C   UNL     1      -1.282   6.423 -31.943  1.00  0.00     0.041 A 
ENDBRANCH   3  35
TORSDOF 6
ENDMDL
MODEL 5
REMARK VINA RESULT:      -9.4      2.700      8.137
REMARK  6 active torsions:
REMARK  status: ('A' for Active; 'I' for Inactive)
REMARK    1  A    between atoms: C_2  and  C_3 
REMARK    2  A    between atoms: C_3  and  C_4 
REMARK    3  A    between atoms: C_6  and  N_7 
REMARK    4  A    between atoms: C_9  and  C_10 
REMARK    5  A    between atoms: C_16  and  N_17 
REMARK       I    between atoms: N_17  and  C_18 
REMARK    6  A    between atoms: C_18  and  C_19 
ROOT
HETATM    1  N   UNL     1      -9.159   3.789 -34.045  1.00  0.00    -0.044 N 
HETATM    2  N   UNL     1     -10.173   4.171 -34.872  1.00  0.00    -0.148 NA
HETATM    3  C   UNL     1     -10.217   5.500 -34.728  1.00  0.00     0.115 A 
HETATM    4  C   UNL     1      -9.213   5.979 -33.858  1.00  0.00     0.087 A 
HETATM    5  C   UNL     1      -8.526   4.863 -33.436  1.00  0.00     0.152 A 
ENDROOT
BRANCH   5   6
HETATM    6  N   UNL     1      -7.422   4.775 -32.585  1.00  0.00    -0.310 N 
HETATM    7  C   UNL     1      -6.054   4.723 -33.039  1.00  0.00     0.236 C 
HETATM    8  O   UNL     1      -5.798   4.824 -34.233  1.00  0.00    -0.272 OA
HETATM    9  H   UNL     1      -7.622   4.704 -31.583  1.00  0.00     0.170 HD
BRANCH   7  10
HETATM   10  C   UNL     1      -4.967   4.571 -31.979  1.00  0.00     0.149 C 
HETATM   11  C   UNL     1      -3.677   5.240 -32.385  1.00  0.00    -0.007 A 
HETATM   12  C   UNL     1      -2.523   4.474 -32.573  1.00  0.00     0.083 A 
HETATM   13  C   UNL     1      -3.611   6.630 -32.573  1.00  0.00     0.011 A 
HETATM   14  C   UNL     1      -1.324   5.083 -32.943  1.00  0.00     0.038 A 
HETATM   15  O   UNL     1      -2.487   3.110 -32.424  1.00  0.00    -0.310 OA
HETATM   16  C   UNL     1      -1.268   6.462 -33.138  1.00  0.00     0.003 A 
HETATM   17  C   UNL     1      -2.413   7.236 -32.953  1.00  0.00     0.001 A 
HETATM   18  C   UNL     1      -3.569   2.481 -31.861  1.00  0.00     0.083 A 
HETATM   19  C   UNL     1      -4.784   3.121 -31.608  1.00  0.00    -0.007 A 
HETATM   20  C   UNL     1      -3.396   1.136 -31.535  1.00  0.00     0.038 A 
HETATM   21  C   UNL     1      -5.822   2.396 -30.997  1.00  0.00     0.011 A 
HETATM   22  C   UNL     1      -5.644   1.054 -30.663  1.00  0.00     0.001 A 
HETATM   23  C   UNL     1      -4.433   0.422 -30.935  1.00  0.00     0.003 A 
ENDBRANCH   7  10
ENDBRANCH   5   6
BRANCH   1  24
HETATM   24  C   UNL     1      -8.853   2.429 -33.893  1.00  0.00     0.732 A 
HETATM   25  N   UNL     1      -7.695   1.933 -34.203  1.00  0.00    -0.067 NA
HETATM   26  C   UNL     1      -7.545   0.581 -33.956  1.00  0.00     0.059 A 
HETATM   27  C   UNL     1      -8.533  -0.211 -33.506  1.00  0.00     0.102 A 
HETATM   28  C   UNL     1      -9.847   0.382 -33.213  1.00  0.00     0.261 A 
HETATM   29  N   UNL     1      -9.913   1.726 -33.393  1.00  0.00    -0.152 N 
HETATM   30  O   UNL     1     -10.790  -0.298 -32.834  1.00  0.00    -0.268 OA
HETATM   31  H   UNL     1     -10.791   2.198 -33.196  1.00  0.00     0.187 HD
BRANCH  26  32
HETATM   32  C   UNL     1      -6.171   0.006 -34.212  1.00  0.00     0.060 C 
BRANCH  32  33
HETATM   33  C   UNL     1      -6.047  -1.424 -33.680  1.00  0.00     0.002 C 
HETATM   34  C   UNL     1      -5.809  -2.421 -34.802  1.00  0.00     0.005 C 
ENDBRANCH  32  33
ENDBRANCH  26  32
ENDBRANCH   1  24
BRANCH   3  35
HETATM   35  C   UNL     1     -11.224   6.358 -35.417  1.00  0.00     0.105 A 
HETATM   36  O   UNL     1     -12.542   6.023 -35.568  1.00  0.00    -0.320 OA
HETATM   37  C   UNL     1     -13.140   7.033 -36.249  1.00  0.00     0.142 A 
HETATM   38  C   UNL     1     -12.231   8.021 -36.540  1.00  0.00     0.027 A 
HETATM   39  C   UNL     1     -10.994   7.587 -36.003  1.00  0.00     0.041 A 
ENDBRANCH   3  35
TORSDOF 6
ENDMDL
MODEL 6
REMARK VINA RESULT:      -9.4      2.527      6.589
REMARK  6 active torsions:
REMARK  status: ('A' for Active; 'I' for Inactive)
REMARK    1  A    between atoms: C_2  and  C_3 
REMARK    2  A    between atoms: C_3  and  C_4 
REMARK    3  A    between atoms: C_6  and  N_7 
REMARK    4  A    between atoms: C_9  and  C_10 
REMARK    5  A    between atoms: C_16  and  N_17 
REMARK       I    between atoms: N_17  and  C_18 
REMARK    6  A    between atoms: C_18  and  C_19 
ROOT
HETATM    1  N   UNL     1      -4.239   2.779 -32.204  1.00  0.00    -0.044 N 
HETATM    2  N   UNL     1      -2.898   3.014 -32.164  1.00  0.00    -0.148 NA
HETATM    3  C   UNL     1      -2.803   4.218 -31.587  1.00  0.00     0.115 A 
HETATM    4  C   UNL     1      -4.063   4.734 -31.214  1.00  0.00     0.087 A 
HETATM    5  C   UNL     1      -4.981   3.787 -31.605  1.00  0.00     0.152 A 
ENDROOT
BRANCH   5   6
HETATM    6  N   UNL     1      -6.370   3.786 -31.451  1.00  0.00    -0.310 N 
HETATM    7  C   UNL     1      -7.076   2.983 -30.484  1.00  0.00     0.236 C 
HETATM    8  O   UNL     1      -6.453   2.292 -29.686  1.00  0.00    -0.272 OA
HETATM    9  H   UNL     1      -6.902   4.371 -32.103  1.00  0.00     0.170 HD
BRANCH   7  10
HETATM   10  C   UNL     1      -8.599   3.059 -30.484  1.00  0.00     0.149 C 
HETATM   11  C   UNL     1      -9.214   2.206 -31.567  1.00  0.00    -0.007 A 
HETATM   12  C   UNL     1      -9.952   2.804 -32.591  1.00  0.00     0.083 A 
HETATM   13  C   UNL     1      -9.061   0.809 -31.561  1.00  0.00     0.011 A 
HETATM   14  C   UNL     1     -10.529   2.024 -33.593  1.00  0.00     0.038 A 
HETATM   15  O   UNL     1     -10.150   4.158 -32.690  1.00  0.00    -0.310 OA
HETATM   16  C   UNL     1     -10.365   0.639 -33.587  1.00  0.00     0.003 A 
HETATM   17  C   UNL     1      -9.630   0.033 -32.571  1.00  0.00     0.001 A 
HETATM   18  C   UNL     1      -9.793   4.955 -31.632  1.00  0.00     0.083 A 
HETATM   19  C   UNL     1      -9.061   4.494 -30.536  1.00  0.00    -0.007 A 
HETATM   20  C   UNL     1     -10.211   6.284 -31.696  1.00  0.00     0.038 A 
HETATM   21  C   UNL     1      -8.774   5.382 -29.486  1.00  0.00     0.011 A 
HETATM   22  C   UNL     1      -9.200   6.709 -29.546  1.00  0.00     0.001 A 
HETATM   23  C   UNL     1      -9.916   7.161 -30.652  1.00  0.00     0.003 A 
ENDBRANCH   7  10
ENDBRANCH   5   6
BRANCH   1  24
HETATM   24  C   UNL     1      -4.728   1.610 -32.803  1.00  0.00     0.732 A 
HETATM   25  N   UNL     1      -4.183   0.447 -32.618  1.00  0.00    -0.067 NA
HETATM   26  C   UNL     1      -4.811  -0.609 -33.252  1.00  0.00     0.059 A 
HETATM   27  C   UNL     1      -5.863  -0.468 -34.075  1.00  0.00     0.102 A 
HETATM   28  C   UNL     1      -6.422   0.875 -34.298  1.00  0.00     0.261 A 
HETATM   29  N   UNL     1      -5.820   1.862 -33.587  1.00  0.00    -0.152 N 
HETATM   30  O   UNL     1      -7.356   1.065 -35.063  1.00  0.00    -0.268 OA
HETATM   31  H   UNL     1      -6.167   2.811 -33.687  1.00  0.00     0.187 HD
BRANCH  26  32
HETATM   32  C   UNL     1      -4.253  -1.984 -32.964  1.00  0.00     0.060 C 
BRANCH  32  33
HETATM   33  C   UNL     1      -4.487  -2.945 -34.132  1.00  0.00     0.002 C 
HETATM   34  C   UNL     1      -3.799  -4.282 -33.904  1.00  0.00     0.005 C 
ENDBRANCH  32  33
ENDBRANCH  26  32
ENDBRANCH   1  24
BRANCH   3  35
HETATM   35  C   UNL     1      -1.502   4.916 -31.377  1.00  0.00     0.105 A 
HETATM   36  O   UNL     1      -0.475   4.416 -30.623  1.00  0.00    -0.320 OA
HETATM   37  C   UNL     1       0.529   5.329 -30.653  1.00  0.00     0.142 A 
HETATM   38  C   UNL     1       0.173   6.412 -31.419  1.00  0.00     0.027 A 
HETATM   39  C   UNL     1      -1.138   6.147 -31.886  1.00  0.00     0.041 A 
ENDBRANCH   3  35
TORSDOF 6
ENDMDL
MODEL 7
REMARK VINA RESULT:      -9.4      1.718      5.925
REMARK  6 active torsions:
REMARK  status: ('A' for Active; 'I' for Inactive)
REMARK    1  A    between atoms: C_2  and  C_3 
REMARK    2  A    between atoms: C_3  and  C_4 
REMARK    3  A    between atoms: C_6  and  N_7 
REMARK    4  A    between atoms: C_9  and  C_10 
REMARK    5  A    between atoms: C_16  and  N_17 
REMARK       I    between atoms: N_17  and  C_18 
REMARK    6  A    between atoms: C_18  and  C_19 
ROOT
HETATM    1  N   UNL     1      -7.489   0.503 -33.760  1.00  0.00    -0.044 N 
HETATM    2  N   UNL     1      -7.544  -0.819 -34.087  1.00  0.00    -0.148 NA
HETATM    3  C   UNL     1      -6.281  -1.235 -33.947  1.00  0.00     0.115 A 
HETATM    4  C   UNL     1      -5.427  -0.208 -33.489  1.00  0.00     0.087 A 
HETATM    5  C   UNL     1      -6.224   0.906 -33.357  1.00  0.00     0.152 A 
ENDROOT
BRANCH   5   6
HETATM    6  N   UNL     1      -5.887   2.187 -32.913  1.00  0.00    -0.310 N 
HETATM    7  C   UNL     1      -5.737   2.548 -31.525  1.00  0.00     0.236 C 
HETATM    8  O   UNL     1      -5.841   1.694 -30.653  1.00  0.00    -0.272 OA
HETATM    9  H   UNL     1      -5.783   2.907 -33.634  1.00  0.00     0.170 HD
BRANCH   7  10
HETATM   10  C   UNL     1      -5.419   4.006 -31.208  1.00  0.00     0.149 C 
HETATM   11  C   UNL     1      -6.638   4.890 -31.303  1.00  0.00    -0.007 A 
HETATM   12  C   UNL     1      -6.687   5.911 -32.255  1.00  0.00     0.083 A 
HETATM   13  C   UNL     1      -7.731   4.708 -30.440  1.00  0.00     0.011 A 
HETATM   14  C   UNL     1      -7.807   6.737 -32.347  1.00  0.00     0.038 A 
HETATM   15  O   UNL     1      -5.676   6.162 -33.149  1.00  0.00    -0.310 OA
HETATM   16  C   UNL     1      -8.893   6.545 -31.495  1.00  0.00     0.003 A 
HETATM   17  C   UNL     1      -8.855   5.529 -30.541  1.00  0.00     0.001 A 
HETATM   18  C   UNL     1      -4.472   5.529 -32.974  1.00  0.00     0.083 A 
HETATM   19  C   UNL     1      -4.271   4.497 -32.055  1.00  0.00    -0.007 A 
HETATM   20  C   UNL     1      -3.420   5.980 -33.773  1.00  0.00     0.038 A 
HETATM   21  C   UNL     1      -2.989   3.936 -31.929  1.00  0.00     0.011 A 
HETATM   22  C   UNL     1      -1.936   4.393 -32.721  1.00  0.00     0.001 A 
HETATM   23  C   UNL     1      -2.152   5.413 -33.646  1.00  0.00     0.003 A 
ENDBRANCH   7  10
ENDBRANCH   5   6
BRANCH   1  24
HETATM   24  C   UNL     1      -8.643   1.295 -33.846  1.00  0.00     0.732 A 
HETATM   25  N   UNL     1      -8.599   2.577 -34.041  1.00  0.00    -0.067 NA
HETATM   26  C   UNL     1      -9.827   3.203 -34.139  1.00  0.00     0.059 A 
HETATM   27  C   UNL     1     -11.003   2.576 -33.967  1.00  0.00     0.102 A 
HETATM   28  C   UNL     1     -11.007   1.129 -33.699  1.00  0.00     0.261 A 
HETATM   29  N   UNL     1      -9.779   0.551 -33.696  1.00  0.00    -0.152 N 
HETATM   30  O   UNL     1     -12.046   0.514 -33.500  1.00  0.00    -0.268 OA
HETATM   31  H   UNL     1      -9.716  -0.449 -33.528  1.00  0.00     0.187 HD
BRANCH  26  32
HETATM   32  C   UNL     1      -9.797   4.678 -34.471  1.00  0.00     0.060 C 
BRANCH  32  33
HETATM   33  C   UNL     1     -11.195   5.300 -34.405  1.00  0.00     0.002 C 
HETATM   34  C   UNL     1     -11.259   6.615 -35.166  1.00  0.00     0.005 C 
ENDBRANCH  32  33
ENDBRANCH  26  32
ENDBRANCH   1  24
BRANCH   3  35
HETATM   35  C   UNL     1      -5.847  -2.629 -34.251  1.00  0.00     0.105 A 
HETATM   36  O   UNL     1      -4.592  -3.114 -34.002  1.00  0.00    -0.320 OA
HETATM   37  C   UNL     1      -4.568  -4.405 -34.420  1.00  0.00     0.142 A 
HETATM   38  C   UNL     1      -5.790  -4.768 -34.933  1.00  0.00     0.027 A 
HETATM   39  C   UNL     1      -6.616  -3.623 -34.825  1.00  0.00     0.041 A 
ENDBRANCH   3  35
TORSDOF 6
ENDMDL
MODEL 8
REMARK VINA RESULT:      -9.2      1.936      6.193
REMARK  6 active torsions:
REMARK  status: ('A' for Active; 'I' for Inactive)
REMARK    1  A    between atoms: C_2  and  C_3 
REMARK    2  A    between atoms: C_3  and  C_4 
REMARK    3  A    between atoms: C_6  and  N_7 
REMARK    4  A    between atoms: C_9  and  C_10 
REMARK    5  A    between atoms: C_16  and  N_17 
REMARK       I    between atoms: N_17  and  C_18 
REMARK    6  A    between atoms: C_18  and  C_19 
ROOT
HETATM    1  N   UNL     1      -7.475   0.844 -33.251  1.00  0.00    -0.044 N 
HETATM    2  N   UNL     1      -7.581  -0.481 -33.554  1.00  0.00    -0.148 NA
HETATM    3  C   UNL     1      -6.313  -0.870 -33.727  1.00  0.00     0.115 A 
HETATM    4  C   UNL     1      -5.395   0.177 -33.492  1.00  0.00     0.087 A 
HETATM    5  C   UNL     1      -6.159   1.275 -33.170  1.00  0.00     0.152 A 
ENDROOT
BRANCH   5   6
HETATM    6  N   UNL     1      -5.751   2.565 -32.823  1.00  0.00    -0.310 N 
HETATM    7  C   UNL     1      -5.911   3.720 -33.672  1.00  0.00     0.236 C 
HETATM    8  O   UNL     1      -6.493   3.618 -34.746  1.00  0.00    -0.272 OA
HETATM    9  H   UNL     1      -5.275   2.666 -31.922  1.00  0.00     0.170 HD
BRANCH   7  10
HETATM   10  C   UNL     1      -5.359   5.048 -33.165  1.00  0.00     0.149 C 
HETATM   11  C   UNL     1      -3.869   5.163 -33.369  1.00  0.00    -0.007 A 
HETATM   12  C   UNL     1      -3.020   5.270 -32.265  1.00  0.00     0.083 A 
HETATM   13  C   UNL     1      -3.315   5.172 -34.660  1.00  0.00     0.011 A 
HETATM   14  C   UNL     1      -1.640   5.383 -32.443  1.00  0.00     0.038 A 
HETATM   15  O   UNL     1      -3.462   5.262 -30.965  1.00  0.00    -0.310 OA
HETATM   16  C   UNL     1      -1.096   5.380 -33.726  1.00  0.00     0.003 A 
HETATM   17  C   UNL     1      -1.934   5.274 -34.835  1.00  0.00     0.001 A 
HETATM   18  C   UNL     1      -4.809   5.365 -30.729  1.00  0.00     0.083 A 
HETATM   19  C   UNL     1      -5.775   5.285 -31.734  1.00  0.00    -0.007 A 
HETATM   20  C   UNL     1      -5.186   5.569 -29.400  1.00  0.00     0.038 A 
HETATM   21  C   UNL     1      -7.130   5.437 -31.392  1.00  0.00     0.011 A 
HETATM   22  C   UNL     1      -7.503   5.651 -30.065  1.00  0.00     0.001 A 
HETATM   23  C   UNL     1      -6.532   5.713 -29.069  1.00  0.00     0.003 A 
ENDBRANCH   7  10
ENDBRANCH   5   6
BRANCH   1  24
HETATM   24  C   UNL     1      -8.632   1.612 -33.053  1.00  0.00     0.732 A 
HETATM   25  N   UNL     1      -9.448   1.909 -34.016  1.00  0.00    -0.067 NA
HETATM   26  C   UNL     1     -10.560   2.641 -33.644  1.00  0.00     0.059 A 
HETATM   27  C   UNL     1     -10.772   3.101 -32.400  1.00  0.00     0.102 A 
HETATM   28  C   UNL     1      -9.796   2.782 -31.345  1.00  0.00     0.261 A 
HETATM   29  N   UNL     1      -8.768   1.992 -31.747  1.00  0.00    -0.152 N 
HETATM   30  O   UNL     1      -9.920   3.203 -30.204  1.00  0.00    -0.268 OA
HETATM   31  H   UNL     1      -8.066   1.726 -31.063  1.00  0.00     0.187 HD
BRANCH  26  32
HETATM   32  C   UNL     1     -11.576   2.908 -34.732  1.00  0.00     0.060 C 
BRANCH  32  33
HETATM   33  C   UNL     1     -12.215   1.612 -35.239  1.00  0.00     0.002 C 
HETATM   34  C   UNL     1     -12.935   0.870 -34.124  1.00  0.00     0.005 C 
ENDBRANCH  32  33
ENDBRANCH  26  32
ENDBRANCH   1  24
BRANCH   3  35
HETATM   35  C   UNL     1      -5.937  -2.256 -34.128  1.00  0.00     0.105 A 
HETATM   36  O   UNL     1      -4.683  -2.785 -33.981  1.00  0.00    -0.320 OA
HETATM   37  C   UNL     1      -4.720  -4.052 -34.464  1.00  0.00     0.142 A 
HETATM   38  C   UNL     1      -5.980  -4.357 -34.920  1.00  0.00     0.027 A 
HETATM   39  C   UNL     1      -6.766  -3.199 -34.703  1.00  0.00     0.041 A 
ENDBRANCH   3  35
TORSDOF 6
ENDMDL
MODEL 9
REMARK VINA RESULT:      -9.1      2.980      7.173
REMARK  6 active torsions:
REMARK  status: ('A' for Active; 'I' for Inactive)
REMARK    1  A    between atoms: C_2  and  C_3 
REMARK    2  A    between atoms: C_3  and  C_4 
REMARK    3  A    between atoms: C_6  and  N_7 
REMARK    4  A    between atoms: C_9  and  C_10 
REMARK    5  A    between atoms: C_16  and  N_17 
REMARK       I    between atoms: N_17  and  C_18 
REMARK    6  A    between atoms: C_18  and  C_19 
ROOT
HETATM    1  N   UNL     1      -4.676   4.770 -31.511  1.00  0.00    -0.044 N 
HETATM    2  N   UNL     1      -3.641   5.657 -31.532  1.00  0.00    -0.148 NA
HETATM    3  C   UNL     1      -2.561   4.890 -31.346  1.00  0.00     0.115 A 
HETATM    4  C   UNL     1      -2.886   3.519 -31.253  1.00  0.00     0.087 A 
HETATM    5  C   UNL     1      -4.255   3.454 -31.378  1.00  0.00     0.152 A 
ENDROOT
BRANCH   5   6
HETATM    6  N   UNL     1      -5.090   2.334 -31.382  1.00  0.00    -0.310 N 
HETATM    7  C   UNL     1      -5.713   1.795 -32.565  1.00  0.00     0.236 C 
HETATM    8  O   UNL     1      -5.472   2.281 -33.664  1.00  0.00    -0.272 OA
HETATM    9  H   UNL     1      -5.289   1.910 -30.471  1.00  0.00     0.170 HD
BRANCH   7  10
HETATM   10  C   UNL     1      -6.642   0.598 -32.387  1.00  0.00     0.149 C 
HETATM   11  C   UNL     1      -6.187  -0.601 -33.183  1.00  0.00    -0.007 A 
HETATM   12  C   UNL     1      -6.993  -1.106 -34.206  1.00  0.00     0.083 A 
HETATM   13  C   UNL     1      -4.961  -1.229 -32.906  1.00  0.00     0.011 A 
HETATM   14  C   UNL     1      -6.584  -2.217 -34.944  1.00  0.00     0.038 A 
HETATM   15  O   UNL     1      -8.201  -0.559 -34.559  1.00  0.00    -0.310 OA
HETATM   16  C   UNL     1      -5.361  -2.829 -34.671  1.00  0.00     0.003 A 
HETATM   17  C   UNL     1      -4.549  -2.333 -33.653  1.00  0.00     0.001 A 
HETATM   18  C   UNL     1      -8.754   0.396 -33.743  1.00  0.00     0.083 A 
HETATM   19  C   UNL     1      -8.071   0.985 -32.676  1.00  0.00    -0.007 A 
HETATM   20  C   UNL     1     -10.071   0.759 -34.027  1.00  0.00     0.038 A 
HETATM   21  C   UNL     1      -8.738   1.930 -31.879  1.00  0.00     0.011 A 
HETATM   22  C   UNL     1     -10.057   2.285 -32.158  1.00  0.00     0.001 A 
HETATM   23  C   UNL     1     -10.723   1.703 -33.234  1.00  0.00     0.003 A 
ENDBRANCH   7  10
ENDBRANCH   5   6
BRANCH   1  24
HETATM   24  C   UNL     1      -5.996   5.229 -31.625  1.00  0.00     0.732 A 
HETATM   25  N   UNL     1      -6.677   5.660 -30.609  1.00  0.00    -0.067 NA
HETATM   26  C   UNL     1      -7.950   6.112 -30.899  1.00  0.00     0.059 A 
HETATM   27  C   UNL     1      -8.507   6.050 -32.120  1.00  0.00     0.102 A 
HETATM   28  C   UNL     1      -7.717   5.509 -33.237  1.00  0.00     0.261 A 
HETATM   29  N   UNL     1      -6.447   5.157 -32.913  1.00  0.00    -0.152 N 
HETATM   30  O   UNL     1      -8.185   5.396 -34.362  1.00  0.00    -0.268 OA
HETATM   31  H   UNL     1      -5.845   4.788 -33.644  1.00  0.00     0.187 HD
BRANCH  26  32
HETATM   32  C   UNL     1      -8.721   6.714 -29.746  1.00  0.00     0.060 C 
BRANCH  32  33
HETATM   33  C   UNL     1      -7.924   6.656 -28.440  1.00  0.00     0.002 C 
HETATM   34  C   UNL     1      -7.509   8.042 -27.974  1.00  0.00     0.005 C 
ENDBRANCH  32  33
ENDBRANCH  26  32
ENDBRANCH   1  24
BRANCH   3  35
HETATM   35  C   UNL     1      -1.180   5.445 -31.245  1.00  0.00     0.105 A 
HETATM   36  O   UNL     1      -0.086   4.716 -30.867  1.00  0.00    -0.320 OA
HETATM   37  C   UNL     1       0.982   5.555 -30.880  1.00  0.00     0.142 A 
HETATM   38  C   UNL     1       0.598   6.816 -31.265  1.00  0.00     0.027 A 
HETATM   39  C   UNL     1      -0.797   6.747 -31.501  1.00  0.00     0.041 A 
ENDBRANCH   3  35
TORSDOF 6
ENDMDL
MODEL 10
REMARK VINA RESULT:      -9.1      3.113      6.857
REMARK  6 active torsions:
REMARK  status: ('A' for Active; 'I' for Inactive)
REMARK    1  A    between atoms: C_2  and  C_3 
REMARK    2  A    between atoms: C_3  and  C_4 
REMARK    3  A    between atoms: C_6  and  N_7 
REMARK    4  A    between atoms: C_9  and  C_10 
REMARK    5  A    between atoms: C_16  and  N_17 
REMARK       I    between atoms: N_17  and  C_18 
REMARK    6  A    between atoms: C_18  and  C_19 
ROOT
HETATM    1  N   UNL     1      -5.428   0.998 -32.065  1.00  0.00    -0.044 N 
HETATM    2  N   UNL     1      -5.444  -0.360 -31.952  1.00  0.00    -0.148 NA
HETATM    3  C   UNL     1      -4.311  -0.743 -32.551  1.00  0.00     0.115 A 
HETATM    4  C   UNL     1      -3.548   0.356 -33.003  1.00  0.00     0.087 A 
HETATM    5  C   UNL     1      -4.274   1.475 -32.668  1.00  0.00     0.152 A 
ENDROOT
BRANCH   5   6
HETATM    6  N   UNL     1      -3.962   2.822 -32.864  1.00  0.00    -0.310 N 
HETATM    7  C   UNL     1      -3.130   3.597 -31.977  1.00  0.00     0.236 C 
HETATM    8  O   UNL     1      -2.593   3.062 -31.014  1.00  0.00    -0.272 OA
HETATM    9  H   UNL     1      -4.394   3.278 -33.673  1.00  0.00     0.170 HD
BRANCH   7  10
HETATM   10  C   UNL     1      -2.933   5.073 -32.307  1.00  0.00     0.149 C 
HETATM   11  C   UNL     1      -1.768   5.675 -31.561  1.00  0.00    -0.007 A 
HETATM   12  C   UNL     1      -1.985   6.702 -30.640  1.00  0.00     0.083 A 
HETATM   13  C   UNL     1      -0.457   5.221 -31.781  1.00  0.00     0.011 A 
HETATM   14  C   UNL     1      -0.913   7.269 -29.949  1.00  0.00     0.038 A 
HETATM   15  O   UNL     1      -3.227   7.208 -30.347  1.00  0.00    -0.310 OA
HETATM   16  C   UNL     1       0.384   6.807 -30.165  1.00  0.00     0.003 A 
HETATM   17  C   UNL     1       0.612   5.782 -31.081  1.00  0.00     0.001 A 
HETATM   18  C   UNL     1      -4.287   6.844 -31.138  1.00  0.00     0.083 A 
HETATM   19  C   UNL     1      -4.217   5.840 -32.106  1.00  0.00    -0.007 A 
HETATM   20  C   UNL     1      -5.475   7.548 -30.934  1.00  0.00     0.038 A 
HETATM   21  C   UNL     1      -5.351   5.565 -32.888  1.00  0.00     0.011 A 
HETATM   22  C   UNL     1      -6.535   6.277 -32.690  1.00  0.00     0.001 A 
HETATM   23  C   UNL     1      -6.598   7.265 -31.711  1.00  0.00     0.003 A 
ENDBRANCH   7  10
ENDBRANCH   5   6
BRANCH   1  24
HETATM   24  C   UNL     1      -6.509   1.753 -31.586  1.00  0.00     0.732 A 
HETATM   25  N   UNL     1      -6.376   2.661 -30.669  1.00  0.00    -0.067 NA
HETATM   26  C   UNL     1      -7.533   3.341 -30.338  1.00  0.00     0.059 A 
HETATM   27  C   UNL     1      -8.742   3.053 -30.848  1.00  0.00     0.102 A 
HETATM   28  C   UNL     1      -8.858   1.982 -31.850  1.00  0.00     0.261 A 
HETATM   29  N   UNL     1      -7.680   1.406 -32.199  1.00  0.00    -0.152 N 
HETATM   30  O   UNL     1      -9.938   1.655 -32.322  1.00  0.00    -0.268 OA
HETATM   31  H   UNL     1      -7.690   0.667 -32.896  1.00  0.00     0.187 HD
BRANCH  26  32
HETATM   32  C   UNL     1      -7.379   4.473 -29.347  1.00  0.00     0.060 C 
BRANCH  32  33
HETATM   33  C   UNL     1      -8.569   5.436 -29.400  1.00  0.00     0.002 C 
HETATM   34  C   UNL     1      -8.422   6.563 -28.390  1.00  0.00     0.005 C 
ENDBRANCH  32  33
ENDBRANCH  26  32
ENDBRANCH   1  24
BRANCH   3  35
HETATM   35  C   UNL     1      -3.923  -2.173 -32.715  1.00  0.00     0.105 A 
HETATM   36  O   UNL     1      -3.188  -2.879 -31.801  1.00  0.00    -0.320 OA
HETATM   37  C   UNL     1      -3.024  -4.132 -32.296  1.00  0.00     0.142 A 
HETATM   38  C   UNL     1      -3.644  -4.253 -33.516  1.00  0.00     0.027 A 
HETATM   39  C   UNL     1      -4.224  -2.989 -33.787  1.00  0.00     0.041 A 
ENDBRANCH   3  35
TORSDOF 6
ENDMDL
