MODEL 1
REMARK VINA RESULT:      -9.6      0.000      0.000
REMARK  8 active torsions:
REMARK  status: ('A' for Active; 'I' for Inactive)
REMARK    1  A    between atoms: C_2  and  C_3 
REMARK    2  A    between atoms: C_3  and  C_4 
REMARK       I    between atoms: C_4  and  N_5 
REMARK    3  A    between atoms: N_8  and  C_9 
REMARK    4  A    between atoms: C_12  and  N_13 
REMARK    5  A    between atoms: N_13  and  C_14 
REMARK    6  A    between atoms: C_14  and  N_15 
REMARK       I    between atoms: N_15  and  C_16 
REMARK    7  A    between atoms: C_16  and  C_17 
REMARK    8  A    between atoms: C_18  and  O_19 
ROOT
HETATM    1  N   UNL     1      -7.903   3.467 -33.696  1.00  0.00    -0.333 N 
HETATM    2  H   UNL     1      -8.215   3.830 -34.591  1.00  0.00     0.168 HD
ENDROOT
BRANCH   1   3
HETATM    3  C   UNL     1      -6.818   4.176 -33.145  1.00  0.00     0.034 A 
HETATM    4  C   UNL     1      -6.152   5.226 -33.764  1.00  0.00     0.032 A 
HETATM    5  C   UNL     1      -5.115   5.907 -33.099  1.00  0.00     0.031 A 
HETATM    6  C   UNL     1      -4.721   5.583 -31.791  1.00  0.00     0.030 A 
HETATM    7  C   UNL     1      -5.444   4.552 -31.172  1.00  0.00     0.031 A 
HETATM    8  C   UNL     1      -6.462   3.855 -31.834  1.00  0.00     0.032 A 
BRANCH   6   9
HETATM    9  N   UNL     1      -3.723   6.273 -31.084  1.00  0.00    -0.378 N 
HETATM   10  C   UNL     1      -2.356   5.713 -31.064  1.00  0.00     0.143 C 
HETATM   11  C   UNL     1      -1.335   6.743 -30.540  1.00  0.00     0.145 C 
HETATM   12  N   UNL     1      -1.739   7.389 -29.285  1.00  0.00    -0.349 N 
HETATM   13  C   UNL     1      -0.842   8.026 -28.428  1.00  0.00     0.219 C 
HETATM   14  C   UNL     1      -3.130   7.847 -29.253  1.00  0.00     0.145 C 
HETATM   15  O   UNL     1      -1.216   8.827 -27.571  1.00  0.00    -0.273 OA
HETATM   16  C   UNL     1      -4.129   6.789 -29.750  1.00  0.00     0.143 C 
BRANCH  13  17
HETATM   17  C   UNL     1       0.627   7.660 -28.581  1.00  0.00     0.103 C 
BRANCH  17  18
HETATM   18  C   UNL     1       1.539   8.553 -27.741  1.00  0.00     0.005 C 
HETATM   19  C   UNL     1       1.841   7.928 -26.390  1.00  0.00     0.005 C 
ENDBRANCH  17  18
ENDBRANCH  13  17
ENDBRANCH   6   9
ENDBRANCH   1   3
BRANCH   1  20
HETATM   20  C   UNL     1      -8.429   2.258 -33.428  1.00  0.00     0.179 C 
HETATM   21  S   UNL     1     -10.008   2.195 -32.864  1.00  0.00    -0.040 SA
BRANCH  20  22
HETATM   22  N   UNL     1      -7.768   1.078 -33.527  1.00  0.00    -0.299 N 
HETATM   23  C   UNL     1      -7.054   0.549 -34.604  1.00  0.00     0.260 C 
HETATM   24  O   UNL     1      -7.122   0.917 -35.767  1.00  0.00    -0.267 OA
HETATM   25  H   UNL     1      -7.409   0.808 -32.620  1.00  0.00     0.171 HD
BRANCH  23  26
HETATM   26  C   UNL     1      -6.116  -0.549 -34.219  1.00  0.00     0.066 A 
HETATM   27  C   UNL     1      -5.048  -0.328 -33.342  1.00  0.00     0.084 A 
HETATM   28  C   UNL     1      -4.183  -1.376 -33.010  1.00  0.00     0.050 A 
HETATM   29  C   UNL     1      -4.393  -2.671 -33.505  1.00  0.00    -0.023 A 
HETATM   30  C   UNL     1      -5.474  -2.907 -34.383  1.00  0.00    -0.025 A 
HETATM   31  C   UNL     1      -3.553  -3.737 -33.144  1.00  0.00     0.012 A 
HETATM   32  C   UNL     1      -6.313  -1.839 -34.745  1.00  0.00     0.032 A 
HETATM   33  C   UNL     1      -5.685  -4.207 -34.876  1.00  0.00     0.012 A 
HETATM   34  C   UNL     1      -4.845  -5.257 -34.500  1.00  0.00     0.001 A 
HETATM   35  C   UNL     1      -3.780  -5.023 -33.636  1.00  0.00     0.001 A 
BRANCH  27  36
HETATM   36  O   UNL     1      -4.738   0.888 -32.793  1.00  0.00    -0.355 OA
HETATM   37  C   UNL     1      -3.430   0.902 -32.224  1.00  0.00     0.210 C 
ENDBRANCH  27  36
ENDBRANCH  23  26
ENDBRANCH  20  22
ENDBRANCH   1  20
TORSDOF 8
ENDMDL
MODEL 2
REMARK VINA RESULT:      -9.4      3.661     11.489
REMARK  8 active torsions:
REMARK  status: ('A' for Active; 'I' for Inactive)
REMARK    1  A    between atoms: C_2  and  C_3 
REMARK    2  A    between atoms: C_3  and  C_4 
REMARK       I    between atoms: C_4  and  N_5 
REMARK    3  A    between atoms: N_8  and  C_9 
REMARK    4  A    between atoms: C_12  and  N_13 
REMARK    5  A    between atoms: N_13  and  C_14 
REMARK    6  A    between atoms: C_14  and  N_15 
REMARK       I    between atoms: N_15  and  C_16 
REMARK    7  A    between atoms: C_16  and  C_17 
REMARK    8  A    between atoms: C_18  and  O_19 
ROOT
HETATM    1  N   UNL     1      -3.143   3.050 -31.339  1.00  0.00    -0.333 N 
HETATM    2  H   UNL     1      -2.520   2.278 -31.125  1.00  0.00     0.168 HD
ENDROOT
BRANCH   1   3
HETATM    3  C   UNL     1      -4.463   2.650 -31.623  1.00  0.00     0.034 A 
HETATM    4  C   UNL     1      -5.607   3.235 -31.095  1.00  0.00     0.032 A 
HETATM    5  C   UNL     1      -6.884   2.795 -31.491  1.00  0.00     0.031 A 
HETATM    6  C   UNL     1      -7.067   1.776 -32.440  1.00  0.00     0.030 A 
HETATM    7  C   UNL     1      -5.895   1.239 -32.994  1.00  0.00     0.031 A 
HETATM    8  C   UNL     1      -4.620   1.655 -32.589  1.00  0.00     0.032 A 
BRANCH   6   9
HETATM    9  N   UNL     1      -8.325   1.347 -32.891  1.00  0.00    -0.378 N 
HETATM   10  C   UNL     1      -9.234   2.340 -33.499  1.00  0.00     0.143 C 
HETATM   11  C   UNL     1     -10.408   1.655 -34.227  1.00  0.00     0.145 C 
HETATM   12  N   UNL     1     -11.087   0.632 -33.423  1.00  0.00    -0.349 N 
HETATM   13  C   UNL     1     -12.378   0.179 -33.689  1.00  0.00     0.219 C 
HETATM   14  C   UNL     1     -10.189  -0.290 -32.721  1.00  0.00     0.145 C 
HETATM   15  O   UNL     1     -12.806  -0.879 -33.229  1.00  0.00    -0.273 OA
HETATM   16  C   UNL     1      -9.047   0.423 -31.977  1.00  0.00     0.143 C 
BRANCH  13  17
HETATM   17  C   UNL     1     -13.251   1.075 -34.557  1.00  0.00     0.103 C 
BRANCH  17  18
HETATM   18  C   UNL     1     -14.734   0.956 -34.207  1.00  0.00     0.005 C 
HETATM   19  C   UNL     1     -15.063   1.685 -32.915  1.00  0.00     0.005 C 
ENDBRANCH  17  18
ENDBRANCH  13  17
ENDBRANCH   6   9
ENDBRANCH   1   3
BRANCH   1  20
HETATM   20  C   UNL     1      -2.474   4.197 -31.557  1.00  0.00     0.179 C 
HETATM   21  S   UNL     1      -2.234   4.679 -33.147  1.00  0.00    -0.040 SA
BRANCH  20  22
HETATM   22  N   UNL     1      -1.928   4.979 -30.592  1.00  0.00    -0.299 N 
HETATM   23  C   UNL     1      -0.586   5.276 -30.345  1.00  0.00     0.260 C 
HETATM   24  O   UNL     1       0.381   4.666 -30.774  1.00  0.00    -0.267 OA
HETATM   25  H   UNL     1      -2.568   5.724 -30.350  1.00  0.00     0.171 HD
BRANCH  23  26
HETATM   26  C   UNL     1      -0.389   6.487 -29.491  1.00  0.00     0.066 A 
HETATM   27  C   UNL     1      -1.189   7.626 -29.636  1.00  0.00     0.084 A 
HETATM   28  C   UNL     1      -0.971   8.746 -28.826  1.00  0.00     0.050 A 
HETATM   29  C   UNL     1       0.013   8.734 -27.827  1.00  0.00    -0.023 A 
HETATM   30  C   UNL     1       0.819   7.586 -27.665  1.00  0.00    -0.025 A 
HETATM   31  C   UNL     1       0.210   9.840 -26.983  1.00  0.00     0.012 A 
HETATM   32  C   UNL     1       0.621   6.481 -28.512  1.00  0.00     0.032 A 
HETATM   33  C   UNL     1       1.803   7.575 -26.661  1.00  0.00     0.012 A 
HETATM   34  C   UNL     1       1.980   8.679 -25.825  1.00  0.00     0.001 A 
HETATM   35  C   UNL     1       1.186   9.810 -25.986  1.00  0.00     0.001 A 
BRANCH  27  36
HETATM   36  O   UNL     1      -2.179   7.760 -30.572  1.00  0.00    -0.355 OA
HETATM   37  C   UNL     1      -1.729   8.453 -31.735  1.00  0.00     0.210 C 
ENDBRANCH  27  36
ENDBRANCH  23  26
ENDBRANCH  20  22
ENDBRANCH   1  20
TORSDOF 8
ENDMDL
MODEL 3
REMARK VINA RESULT:      -9.3      1.585      2.002
REMARK  8 active torsions:
REMARK  status: ('A' for Active; 'I' for Inactive)
REMARK    1  A    between atoms: C_2  and  C_3 
REMARK    2  A    between atoms: C_3  and  C_4 
REMARK       I    between atoms: C_4  and  N_5 
REMARK    3  A    between atoms: N_8  and  C_9 
REMARK    4  A    between atoms: C_12  and  N_13 
REMARK    5  A    between atoms: N_13  and  C_14 
REMARK    6  A    between atoms: C_14  and  N_15 
REMARK       I    between atoms: N_15  and  C_16 
REMARK    7  A    between atoms: C_16  and  C_17 
REMARK    8  A    between atoms: C_18  and  O_19 
ROOT
HETATM    1  N   UNL     1      -9.525   2.175 -32.148  1.00  0.00    -0.333 N 
HETATM    2  H   UNL     1     -10.380   2.654 -31.884  1.00  0.00     0.168 HD
ENDROOT
BRANCH   1   3
HETATM    3  C   UNL     1      -8.357   2.908 -31.863  1.00  0.00     0.034 A 
HETATM    4  C   UNL     1      -7.577   2.757 -30.723  1.00  0.00     0.032 A 
HETATM    5  C   UNL     1      -6.392   3.501 -30.562  1.00  0.00     0.031 A 
HETATM    6  C   UNL     1      -5.932   4.401 -31.537  1.00  0.00     0.030 A 
HETATM    7  C   UNL     1      -6.713   4.496 -32.699  1.00  0.00     0.031 A 
HETATM    8  C   UNL     1      -7.904   3.776 -32.857  1.00  0.00     0.032 A 
BRANCH   6   9
HETATM    9  N   UNL     1      -4.732   5.122 -31.428  1.00  0.00    -0.378 N 
HETATM   10  C   UNL     1      -3.480   4.480 -31.876  1.00  0.00     0.143 C 
HETATM   11  C   UNL     1      -2.336   5.507 -31.998  1.00  0.00     0.145 C 
HETATM   12  N   UNL     1      -2.182   6.365 -30.817  1.00  0.00    -0.349 N 
HETATM   13  C   UNL     1      -1.013   7.063 -30.523  1.00  0.00     0.219 C 
HETATM   14  C   UNL     1      -3.436   6.915 -30.294  1.00  0.00     0.145 C 
HETATM   15  O   UNL     1      -0.998   8.010 -29.736  1.00  0.00    -0.273 OA
HETATM   16  C   UNL     1      -4.549   5.863 -30.152  1.00  0.00     0.143 C 
BRANCH  13  17
HETATM   17  C   UNL     1       0.261   6.579 -31.202  1.00  0.00     0.103 C 
BRANCH  17  18
HETATM   18  C   UNL     1       0.740   5.237 -30.649  1.00  0.00     0.005 C 
HETATM   19  C   UNL     1       0.752   5.231 -29.130  1.00  0.00     0.005 C 
ENDBRANCH  17  18
ENDBRANCH  13  17
ENDBRANCH   6   9
ENDBRANCH   1   3
BRANCH   1  20
HETATM   20  C   UNL     1      -9.761   1.112 -32.937  1.00  0.00     0.179 C 
HETATM   21  S   UNL     1     -11.335   0.849 -33.455  1.00  0.00    -0.040 SA
BRANCH  20  22
HETATM   22  N   UNL     1      -8.833   0.196 -33.311  1.00  0.00    -0.299 N 
HETATM   23  C   UNL     1      -7.845   0.283 -34.294  1.00  0.00     0.260 C 
HETATM   24  O   UNL     1      -7.802   1.096 -35.205  1.00  0.00    -0.267 OA
HETATM   25  H   UNL     1      -8.577  -0.379 -32.518  1.00  0.00     0.171 HD
BRANCH  23  26
HETATM   26  C   UNL     1      -6.752  -0.724 -34.137  1.00  0.00     0.066 A 
HETATM   27  C   UNL     1      -5.547  -0.407 -33.500  1.00  0.00     0.084 A 
HETATM   28  C   UNL     1      -4.542  -1.372 -33.378  1.00  0.00     0.050 A 
HETATM   29  C   UNL     1      -4.735  -2.680 -33.843  1.00  0.00    -0.023 A 
HETATM   30  C   UNL     1      -5.952  -3.014 -34.478  1.00  0.00    -0.025 A 
HETATM   31  C   UNL     1      -3.746  -3.665 -33.688  1.00  0.00     0.012 A 
HETATM   32  C   UNL     1      -6.941  -2.027 -34.634  1.00  0.00     0.032 A 
HETATM   33  C   UNL     1      -6.146  -4.327 -34.941  1.00  0.00     0.012 A 
HETATM   34  C   UNL     1      -5.155  -5.296 -34.771  1.00  0.00     0.001 A 
HETATM   35  C   UNL     1      -3.956  -4.966 -34.146  1.00  0.00     0.001 A 
BRANCH  27  36
HETATM   36  O   UNL     1      -5.239   0.832 -33.005  1.00  0.00    -0.355 OA
HETATM   37  C   UNL     1      -3.971   0.848 -32.351  1.00  0.00     0.210 C 
ENDBRANCH  27  36
ENDBRANCH  23  26
ENDBRANCH  20  22
ENDBRANCH   1  20
TORSDOF 8
ENDMDL
MODEL 4
REMARK VINA RESULT:      -9.1      2.690      4.995
REMARK  8 active torsions:
REMARK  status: ('A' for Active; 'I' for Inactive)
REMARK    1  A    between atoms: C_2  and  C_3 
REMARK    2  A    between atoms: C_3  and  C_4 
REMARK       I    between atoms: C_4  and  N_5 
REMARK    3  A    between atoms: N_8  and  C_9 
REMARK    4  A    between atoms: C_12  and  N_13 
REMARK    5  A    between atoms: N_13  and  C_14 
REMARK    6  A    between atoms: C_14  and  N_15 
REMARK       I    between atoms: N_15  and  C_16 
REMARK    7  A    between atoms: C_16  and  C_17 
REMARK    8  A    between atoms: C_18  and  O_19 
ROOT
HETATM    1  N   UNL     1      -1.352   4.852 -32.253  1.00  0.00    -0.333 N 
HETATM    2  H   UNL     1      -0.650   4.127 -32.366  1.00  0.00     0.168 HD
ENDROOT
BRANCH   1   3
HETATM    3  C   UNL     1      -1.115   5.702 -31.156  1.00  0.00     0.034 A 
HETATM    4  C   UNL     1      -2.096   6.228 -30.325  1.00  0.00     0.032 A 
HETATM    5  C   UNL     1      -1.747   7.024 -29.218  1.00  0.00     0.031 A 
HETATM    6  C   UNL     1      -0.412   7.305 -28.887  1.00  0.00     0.030 A 
HETATM    7  C   UNL     1       0.560   6.720 -29.713  1.00  0.00     0.031 A 
HETATM    8  C   UNL     1       0.220   5.946 -30.830  1.00  0.00     0.032 A 
BRANCH   6   9
HETATM    9  N   UNL     1      -0.028   8.055 -27.764  1.00  0.00    -0.378 N 
HETATM   10  C   UNL     1       1.412   8.192 -27.463  1.00  0.00     0.143 C 
HETATM   11  C   UNL     1       1.665   9.298 -26.419  1.00  0.00     0.145 C 
HETATM   12  N   UNL     1       0.810   9.196 -25.230  1.00  0.00    -0.349 N 
HETATM   13  C   UNL     1       1.113   9.803 -24.013  1.00  0.00     0.219 C 
HETATM   14  C   UNL     1      -0.606   8.945 -25.515  1.00  0.00     0.145 C 
HETATM   15  O   UNL     1       0.261   9.985 -23.144  1.00  0.00    -0.273 OA
HETATM   16  C   UNL     1      -0.829   7.816 -26.535  1.00  0.00     0.143 C 
BRANCH  13  17
HETATM   17  C   UNL     1       2.565  10.207 -23.794  1.00  0.00     0.103 C 
BRANCH  17  18
HETATM   18  C   UNL     1       3.456   9.011 -23.460  1.00  0.00     0.005 C 
HETATM   19  C   UNL     1       3.149   8.454 -22.080  1.00  0.00     0.005 C 
ENDBRANCH  17  18
ENDBRANCH  13  17
ENDBRANCH   6   9
ENDBRANCH   1   3
BRANCH   1  20
HETATM   20  C   UNL     1      -2.441   4.625 -33.009  1.00  0.00     0.179 C 
HETATM   21  S   UNL     1      -3.189   5.945 -33.727  1.00  0.00    -0.040 SA
BRANCH  20  22
HETATM   22  N   UNL     1      -3.022   3.414 -33.200  1.00  0.00    -0.299 N 
HETATM   23  C   UNL     1      -3.332   2.421 -32.269  1.00  0.00     0.260 C 
HETATM   24  O   UNL     1      -2.885   2.328 -31.136  1.00  0.00    -0.267 OA
HETATM   25  H   UNL     1      -3.659   3.459 -33.985  1.00  0.00     0.171 HD
BRANCH  23  26
HETATM   26  C   UNL     1      -4.335   1.429 -32.762  1.00  0.00     0.066 A 
HETATM   27  C   UNL     1      -5.679   1.774 -32.945  1.00  0.00     0.084 A 
HETATM   28  C   UNL     1      -6.594   0.818 -33.400  1.00  0.00     0.050 A 
HETATM   29  C   UNL     1      -6.180  -0.481 -33.727  1.00  0.00    -0.023 A 
HETATM   30  C   UNL     1      -4.823  -0.836 -33.555  1.00  0.00    -0.025 A 
HETATM   31  C   UNL     1      -7.085  -1.434 -34.222  1.00  0.00     0.012 A 
HETATM   32  C   UNL     1      -3.919   0.118 -33.058  1.00  0.00     0.032 A 
HETATM   33  C   UNL     1      -4.409  -2.138 -33.887  1.00  0.00     0.012 A 
HETATM   34  C   UNL     1      -5.320  -3.071 -34.386  1.00  0.00     0.001 A 
HETATM   35  C   UNL     1      -6.656  -2.720 -34.553  1.00  0.00     0.001 A 
BRANCH  27  36
HETATM   36  O   UNL     1      -6.206   3.006 -32.663  1.00  0.00    -0.355 OA
HETATM   37  C   UNL     1      -6.569   3.718 -33.844  1.00  0.00     0.210 C 
ENDBRANCH  27  36
ENDBRANCH  23  26
ENDBRANCH  20  22
ENDBRANCH   1  20
TORSDOF 8
ENDMDL
MODEL 5
REMARK VINA RESULT:      -9.1      1.494      2.785
REMARK  8 active torsions:
REMARK  status: ('A' for Active; 'I' for Inactive)
REMARK    1  A    between atoms: C_2  and  C_3 
REMARK    2  A    between atoms: C_3  and  C_4 
REMARK       I    between atoms: C_4  and  N_5 
REMARK    3  A    between atoms: N_8  and  C_9 
REMARK    4  A    between atoms: C_12  and  N_13 
REMARK    5  A    between atoms: N_13  and  C_14 
REMARK    6  A    between atoms: C_14  and  N_15 
REMARK       I    between atoms: N_15  and  C_16 
REMARK    7  A    between atoms: C_16  and  C_17 
REMARK    8  A    between atoms: C_18  and  O_19 
ROOT
HETATM    1  N   UNL     1      -5.718   5.253 -33.867  1.00  0.00    -0.333 N 
HETATM    2  H   UNL     1      -5.352   5.533 -34.772  1.00  0.00     0.168 HD
ENDROOT
BRANCH   1   3
HETATM    3  C   UNL     1      -4.993   5.775 -32.779  1.00  0.00     0.034 A 
HETATM    4  C   UNL     1      -5.443   5.818 -31.465  1.00  0.00     0.032 A 
HETATM    5  C   UNL     1      -4.613   6.310 -30.440  1.00  0.00     0.031 A 
HETATM    6  C   UNL     1      -3.303   6.753 -30.681  1.00  0.00     0.030 A 
HETATM    7  C   UNL     1      -2.857   6.651 -32.008  1.00  0.00     0.031 A 
HETATM    8  C   UNL     1      -3.684   6.185 -33.038  1.00  0.00     0.032 A 
BRANCH   6   9
HETATM    9  N   UNL     1      -2.434   7.204 -29.674  1.00  0.00    -0.378 N 
HETATM   10  C   UNL     1      -1.113   6.558 -29.539  1.00  0.00     0.143 C 
HETATM   11  C   UNL     1      -0.177   7.378 -28.628  1.00  0.00     0.145 C 
HETATM   12  N   UNL     1      -0.788   7.769 -27.352  1.00  0.00    -0.349 N 
HETATM   13  C   UNL     1      -0.049   8.144 -26.232  1.00  0.00     0.219 C 
HETATM   14  C   UNL     1      -2.147   8.306 -27.464  1.00  0.00     0.145 C 
HETATM   15  O   UNL     1      -0.552   8.768 -25.297  1.00  0.00    -0.273 OA
HETATM   16  C   UNL     1      -3.067   7.451 -28.352  1.00  0.00     0.143 C 
BRANCH  13  17
HETATM   17  C   UNL     1       1.411   7.716 -26.202  1.00  0.00     0.103 C 
BRANCH  17  18
HETATM   18  C   UNL     1       2.354   8.886 -25.921  1.00  0.00     0.005 C 
HETATM   19  C   UNL     1       2.907   8.829 -24.506  1.00  0.00     0.005 C 
ENDBRANCH  17  18
ENDBRANCH  13  17
ENDBRANCH   6   9
ENDBRANCH   1   3
BRANCH   1  20
HETATM   20  C   UNL     1      -6.612   4.253 -33.967  1.00  0.00     0.179 C 
HETATM   21  S   UNL     1      -8.238   4.631 -33.796  1.00  0.00    -0.040 SA
BRANCH  20  22
HETATM   22  N   UNL     1      -6.304   2.945 -34.147  1.00  0.00    -0.299 N 
HETATM   23  C   UNL     1      -5.880   1.996 -33.214  1.00  0.00     0.260 C 
HETATM   24  O   UNL     1      -5.429   2.228 -32.103  1.00  0.00    -0.267 OA
HETATM   25  H   UNL     1      -6.857   2.562 -34.903  1.00  0.00     0.171 HD
BRANCH  23  26
HETATM   26  C   UNL     1      -6.049   0.585 -33.675  1.00  0.00     0.066 A 
HETATM   27  C   UNL     1      -7.181   0.177 -34.391  1.00  0.00     0.084 A 
HETATM   28  C   UNL     1      -7.312  -1.154 -34.799  1.00  0.00     0.050 A 
HETATM   29  C   UNL     1      -6.300  -2.091 -34.545  1.00  0.00    -0.023 A 
HETATM   30  C   UNL     1      -5.150  -1.688 -33.831  1.00  0.00    -0.025 A 
HETATM   31  C   UNL     1      -6.407  -3.420 -34.987  1.00  0.00     0.012 A 
HETATM   32  C   UNL     1      -5.045  -0.358 -33.388  1.00  0.00     0.032 A 
HETATM   33  C   UNL     1      -4.135  -2.628 -33.581  1.00  0.00     0.012 A 
HETATM   34  C   UNL     1      -4.253  -3.943 -34.034  1.00  0.00     0.001 A 
HETATM   35  C   UNL     1      -5.388  -4.339 -34.736  1.00  0.00     0.001 A 
BRANCH  27  36
HETATM   36  O   UNL     1      -8.234   0.995 -34.701  1.00  0.00    -0.355 OA
HETATM   37  C   UNL     1      -9.369   0.745 -33.873  1.00  0.00     0.210 C 
ENDBRANCH  27  36
ENDBRANCH  23  26
ENDBRANCH  20  22
ENDBRANCH   1  20
TORSDOF 8
ENDMDL
MODEL 6
REMARK VINA RESULT:      -8.9      1.803      2.210
REMARK  8 active torsions:
REMARK  status: ('A' for Active; 'I' for Inactive)
REMARK    1  A    between atoms: C_2  and  C_3 
REMARK    2  A    between atoms: C_3  and  C_4 
REMARK       I    between atoms: C_4  and  N_5 
REMARK    3  A    between atoms: N_8  and  C_9 
REMARK    4  A    between atoms: C_12  and  N_13 
REMARK    5  A    between atoms: N_13  and  C_14 
REMARK    6  A    between atoms: C_14  and  N_15 
REMARK       I    between atoms: N_15  and  C_16 
REMARK    7  A    between atoms: C_16  and  C_17 
REMARK    8  A    between atoms: C_18  and  O_19 
ROOT
HETATM    1  N   UNL     1      -8.212   2.448 -30.484  1.00  0.00    -0.333 N 
HETATM    2  H   UNL     1      -8.807   2.029 -29.777  1.00  0.00     0.168 HD
ENDROOT
BRANCH   1   3
HETATM    3  C   UNL     1      -7.457   3.540 -30.012  1.00  0.00     0.034 A 
HETATM    4  C   UNL     1      -7.953   4.579 -29.234  1.00  0.00     0.032 A 
HETATM    5  C   UNL     1      -7.098   5.594 -28.765  1.00  0.00     0.031 A 
HETATM    6  C   UNL     1      -5.720   5.598 -29.033  1.00  0.00     0.030 A 
HETATM    7  C   UNL     1      -5.238   4.511 -29.778  1.00  0.00     0.031 A 
HETATM    8  C   UNL     1      -6.085   3.509 -30.267  1.00  0.00     0.032 A 
BRANCH   6   9
HETATM    9  N   UNL     1      -4.833   6.569 -28.541  1.00  0.00    -0.378 N 
HETATM   10  C   UNL     1      -3.622   6.882 -29.326  1.00  0.00     0.143 C 
HETATM   11  C   UNL     1      -2.948   8.176 -28.827  1.00  0.00     0.145 C 
HETATM   12  N   UNL     1      -2.749   8.217 -27.373  1.00  0.00    -0.349 N 
HETATM   13  C   UNL     1      -1.831   9.059 -26.748  1.00  0.00     0.219 C 
HETATM   14  C   UNL     1      -3.912   7.798 -26.586  1.00  0.00     0.145 C 
HETATM   15  O   UNL     1      -1.898   9.320 -25.547  1.00  0.00    -0.273 OA
HETATM   16  C   UNL     1      -4.544   6.488 -27.085  1.00  0.00     0.143 C 
BRANCH  13  17
HETATM   17  C   UNL     1      -0.715   9.619 -27.619  1.00  0.00     0.103 C 
BRANCH  17  18
HETATM   18  C   UNL     1       0.587   8.832 -27.473  1.00  0.00     0.005 C 
HETATM   19  C   UNL     1       0.759   7.825 -28.598  1.00  0.00     0.005 C 
ENDBRANCH  17  18
ENDBRANCH  13  17
ENDBRANCH   6   9
ENDBRANCH   1   3
BRANCH   1  20
HETATM   20  C   UNL     1      -8.516   2.022 -31.723  1.00  0.00     0.179 C 
HETATM   21  S   UNL     1      -9.830   2.723 -32.496  1.00  0.00    -0.040 SA
BRANCH  20  22
HETATM   22  N   UNL     1      -7.875   1.028 -32.386  1.00  0.00    -0.299 N 
HETATM   23  C   UNL     1      -6.848   1.109 -33.330  1.00  0.00     0.260 C 
HETATM   24  O   UNL     1      -6.518   2.105 -33.955  1.00  0.00    -0.267 OA
HETATM   25  H   UNL     1      -7.844   0.195 -31.812  1.00  0.00     0.171 HD
BRANCH  23  26
HETATM   26  C   UNL     1      -6.107  -0.175 -33.520  1.00  0.00     0.066 A 
HETATM   27  C   UNL     1      -4.797  -0.341 -33.057  1.00  0.00     0.084 A 
HETATM   28  C   UNL     1      -4.129  -1.554 -33.261  1.00  0.00     0.050 A 
HETATM   29  C   UNL     1      -4.767  -2.635 -33.884  1.00  0.00    -0.023 A 
HETATM   30  C   UNL     1      -6.093  -2.481 -34.346  1.00  0.00    -0.025 A 
HETATM   31  C   UNL     1      -4.117  -3.868 -34.055  1.00  0.00     0.012 A 
HETATM   32  C   UNL     1      -6.742  -1.246 -34.175  1.00  0.00     0.032 A 
HETATM   33  C   UNL     1      -6.733  -3.567 -34.968  1.00  0.00     0.012 A 
HETATM   34  C   UNL     1      -6.075  -4.789 -35.123  1.00  0.00     0.001 A 
HETATM   35  C   UNL     1      -4.768  -4.939 -34.668  1.00  0.00     0.001 A 
BRANCH  27  36
HETATM   36  O   UNL     1      -4.068   0.636 -32.435  1.00  0.00    -0.355 OA
HETATM   37  C   UNL     1      -3.480   0.175 -31.219  1.00  0.00     0.210 C 
ENDBRANCH  27  36
ENDBRANCH  23  26
ENDBRANCH  20  22
ENDBRANCH   1  20
TORSDOF 8
ENDMDL
MODEL 7
REMARK VINA RESULT:      -8.8      5.386      9.503
REMARK  8 active torsions:
REMARK  status: ('A' for Active; 'I' for Inactive)
REMARK    1  A    between atoms: C_2  and  C_3 
REMARK    2  A    between atoms: C_3  and  C_4 
REMARK       I    between atoms: C_4  and  N_5 
REMARK    3  A    between atoms: N_8  and  C_9 
REMARK    4  A    between atoms: C_12  and  N_13 
REMARK    5  A    between atoms: N_13  and  C_14 
REMARK    6  A    between atoms: C_14  and  N_15 
REMARK       I    between atoms: N_15  and  C_16 
REMARK    7  A    between atoms: C_16  and  C_17 
REMARK    8  A    between atoms: C_18  and  O_19 
ROOT
HETATM    1  N   UNL     1      -7.844   3.842 -31.987  1.00  0.00    -0.333 N 
HETATM    2  H   UNL     1      -7.408   4.757 -32.038  1.00  0.00     0.168 HD
ENDROOT
BRANCH   1   3
HETATM    3  C   UNL     1      -9.238   3.869 -32.188  1.00  0.00     0.034 A 
HETATM    4  C   UNL     1      -9.887   3.469 -33.349  1.00  0.00     0.032 A 
HETATM    5  C   UNL     1     -11.292   3.480 -33.425  1.00  0.00     0.031 A 
HETATM    6  C   UNL     1     -12.099   3.868 -32.344  1.00  0.00     0.030 A 
HETATM    7  C   UNL     1     -11.420   4.219 -31.168  1.00  0.00     0.031 A 
HETATM    8  C   UNL     1     -10.021   4.232 -31.091  1.00  0.00     0.032 A 
BRANCH   6   9
HETATM    9  N   UNL     1     -13.503   3.846 -32.372  1.00  0.00    -0.378 N 
HETATM   10  C   UNL     1     -14.239   4.988 -31.791  1.00  0.00     0.143 C 
HETATM   11  C   UNL     1     -15.727   4.962 -32.197  1.00  0.00     0.145 C 
HETATM   12  N   UNL     1     -16.374   3.661 -31.989  1.00  0.00    -0.349 N 
HETATM   13  C   UNL     1     -17.755   3.498 -31.894  1.00  0.00     0.219 C 
HETATM   14  C   UNL     1     -15.598   2.510 -32.459  1.00  0.00     0.145 C 
HETATM   15  O   UNL     1     -18.294   2.402 -32.045  1.00  0.00    -0.273 OA
HETATM   16  C   UNL     1     -14.127   2.546 -32.013  1.00  0.00     0.143 C 
BRANCH  13  17
HETATM   17  C   UNL     1     -18.568   4.741 -31.562  1.00  0.00     0.103 C 
BRANCH  17  18
HETATM   18  C   UNL     1     -18.881   4.849 -30.070  1.00  0.00     0.005 C 
HETATM   19  C   UNL     1     -18.459   6.197 -29.507  1.00  0.00     0.005 C 
ENDBRANCH  17  18
ENDBRANCH  13  17
ENDBRANCH   6   9
ENDBRANCH   1   3
BRANCH   1  20
HETATM   20  C   UNL     1      -7.018   2.913 -31.475  1.00  0.00     0.179 C 
HETATM   21  S   UNL     1      -6.162   3.301 -30.085  1.00  0.00    -0.040 SA
BRANCH  20  22
HETATM   22  N   UNL     1      -6.777   1.695 -32.022  1.00  0.00    -0.299 N 
HETATM   23  C   UNL     1      -6.526   1.353 -33.352  1.00  0.00     0.260 C 
HETATM   24  O   UNL     1      -6.753   2.047 -34.332  1.00  0.00    -0.267 OA
HETATM   25  H   UNL     1      -6.311   1.102 -31.348  1.00  0.00     0.171 HD
BRANCH  23  26
HETATM   26  C   UNL     1      -5.890   0.011 -33.516  1.00  0.00     0.066 A 
HETATM   27  C   UNL     1      -4.598  -0.252 -33.047  1.00  0.00     0.084 A 
HETATM   28  C   UNL     1      -4.030  -1.518 -33.225  1.00  0.00     0.050 A 
HETATM   29  C   UNL     1      -4.753  -2.557 -33.829  1.00  0.00    -0.023 A 
HETATM   30  C   UNL     1      -6.062  -2.305 -34.298  1.00  0.00    -0.025 A 
HETATM   31  C   UNL     1      -4.204  -3.841 -33.975  1.00  0.00     0.012 A 
HETATM   32  C   UNL     1      -6.609  -1.018 -34.152  1.00  0.00     0.032 A 
HETATM   33  C   UNL     1      -6.786  -3.348 -34.900  1.00  0.00     0.012 A 
HETATM   34  C   UNL     1      -6.229  -4.621 -35.030  1.00  0.00     0.001 A 
HETATM   35  C   UNL     1      -4.939  -4.868 -34.568  1.00  0.00     0.001 A 
BRANCH  27  36
HETATM   36  O   UNL     1      -3.793   0.675 -32.442  1.00  0.00    -0.355 OA
HETATM   37  C   UNL     1      -3.073   0.124 -31.340  1.00  0.00     0.210 C 
ENDBRANCH  27  36
ENDBRANCH  23  26
ENDBRANCH  20  22
ENDBRANCH   1  20
TORSDOF 8
ENDMDL
MODEL 8
REMARK VINA RESULT:      -8.6      4.460      9.212
REMARK  8 active torsions:
REMARK  status: ('A' for Active; 'I' for Inactive)
REMARK    1  A    between atoms: C_2  and  C_3 
REMARK    2  A    between atoms: C_3  and  C_4 
REMARK       I    between atoms: C_4  and  N_5 
REMARK    3  A    between atoms: N_8  and  C_9 
REMARK    4  A    between atoms: C_12  and  N_13 
REMARK    5  A    between atoms: N_13  and  C_14 
REMARK    6  A    between atoms: C_14  and  N_15 
REMARK       I    between atoms: N_15  and  C_16 
REMARK    7  A    between atoms: C_16  and  C_17 
REMARK    8  A    between atoms: C_18  and  O_19 
ROOT
HETATM    1  N   UNL     1      -6.365   4.377 -32.478  1.00  0.00    -0.333 N 
HETATM    2  H   UNL     1      -6.083   4.998 -31.726  1.00  0.00     0.168 HD
ENDROOT
BRANCH   1   3
HETATM    3  C   UNL     1      -7.734   4.049 -32.457  1.00  0.00     0.034 A 
HETATM    4  C   UNL     1      -8.470   3.763 -31.314  1.00  0.00     0.032 A 
HETATM    5  C   UNL     1      -9.851   3.503 -31.398  1.00  0.00     0.031 A 
HETATM    6  C   UNL     1     -10.550   3.542 -32.615  1.00  0.00     0.030 A 
HETATM    7  C   UNL     1      -9.792   3.883 -33.745  1.00  0.00     0.031 A 
HETATM    8  C   UNL     1      -8.413   4.120 -33.674  1.00  0.00     0.032 A 
BRANCH   6   9
HETATM    9  N   UNL     1     -11.934   3.334 -32.726  1.00  0.00    -0.378 N 
HETATM   10  C   UNL     1     -12.798   3.704 -31.586  1.00  0.00     0.143 C 
HETATM   11  C   UNL     1     -14.285   3.725 -31.993  1.00  0.00     0.145 C 
HETATM   12  N   UNL     1     -14.720   2.520 -32.709  1.00  0.00    -0.349 N 
HETATM   13  C   UNL     1     -16.054   2.131 -32.817  1.00  0.00     0.219 C 
HETATM   14  C   UNL     1     -13.809   2.077 -33.769  1.00  0.00     0.145 C 
HETATM   15  O   UNL     1     -16.432   1.327 -33.669  1.00  0.00    -0.273 OA
HETATM   16  C   UNL     1     -12.337   2.035 -33.326  1.00  0.00     0.143 C 
BRANCH  13  17
HETATM   17  C   UNL     1     -17.022   2.726 -31.805  1.00  0.00     0.103 C 
BRANCH  17  18
HETATM   18  C   UNL     1     -18.081   3.610 -32.464  1.00  0.00     0.005 C 
HETATM   19  C   UNL     1     -17.951   5.058 -32.023  1.00  0.00     0.005 C 
ENDBRANCH  17  18
ENDBRANCH  13  17
ENDBRANCH   6   9
ENDBRANCH   1   3
BRANCH   1  20
HETATM   20  C   UNL     1      -5.309   3.833 -33.110  1.00  0.00     0.179 C 
HETATM   21  S   UNL     1      -4.168   4.869 -33.773  1.00  0.00    -0.040 SA
BRANCH  20  22
HETATM   22  N   UNL     1      -5.114   2.504 -33.301  1.00  0.00    -0.299 N 
HETATM   23  C   UNL     1      -5.283   1.444 -32.409  1.00  0.00     0.260 C 
HETATM   24  O   UNL     1      -5.369   1.530 -31.193  1.00  0.00    -0.267 OA
HETATM   25  H   UNL     1      -5.300   2.265 -34.267  1.00  0.00     0.171 HD
BRANCH  23  26
HETATM   26  C   UNL     1      -5.391   0.111 -33.075  1.00  0.00     0.066 A 
HETATM   27  C   UNL     1      -6.349  -0.140 -34.064  1.00  0.00     0.084 A 
HETATM   28  C   UNL     1      -6.429  -1.403 -34.661  1.00  0.00     0.050 A 
HETATM   29  C   UNL     1      -5.528  -2.422 -34.320  1.00  0.00    -0.023 A 
HETATM   30  C   UNL     1      -4.551  -2.176 -33.330  1.00  0.00    -0.025 A 
HETATM   31  C   UNL     1      -5.577  -3.679 -34.944  1.00  0.00     0.012 A 
HETATM   32  C   UNL     1      -4.505  -0.918 -32.705  1.00  0.00     0.032 A 
HETATM   33  C   UNL     1      -3.647  -3.198 -32.992  1.00  0.00     0.012 A 
HETATM   34  C   UNL     1      -3.704  -4.439 -33.627  1.00  0.00     0.001 A 
HETATM   35  C   UNL     1      -4.668  -4.680 -34.602  1.00  0.00     0.001 A 
BRANCH  27  36
HETATM   36  O   UNL     1      -7.282   0.771 -34.484  1.00  0.00    -0.355 OA
HETATM   37  C   UNL     1      -8.592   0.450 -34.017  1.00  0.00     0.210 C 
ENDBRANCH  27  36
ENDBRANCH  23  26
ENDBRANCH  20  22
ENDBRANCH   1  20
TORSDOF 8
ENDMDL
MODEL 9
REMARK VINA RESULT:      -8.2      3.529      5.684
REMARK  8 active torsions:
REMARK  status: ('A' for Active; 'I' for Inactive)
REMARK    1  A    between atoms: C_2  and  C_3 
REMARK    2  A    between atoms: C_3  and  C_4 
REMARK       I    between atoms: C_4  and  N_5 
REMARK    3  A    between atoms: N_8  and  C_9 
REMARK    4  A    between atoms: C_12  and  N_13 
REMARK    5  A    between atoms: N_13  and  C_14 
REMARK    6  A    between atoms: C_14  and  N_15 
REMARK       I    between atoms: N_15  and  C_16 
REMARK    7  A    between atoms: C_16  and  C_17 
REMARK    8  A    between atoms: C_18  and  O_19 
ROOT
HETATM    1  N   UNL     1      -1.097   4.952 -32.172  1.00  0.00    -0.333 N 
HETATM    2  H   UNL     1      -0.390   4.227 -32.109  1.00  0.00     0.168 HD
ENDROOT
BRANCH   1   3
HETATM    3  C   UNL     1      -1.127   5.810 -31.056  1.00  0.00     0.034 A 
HETATM    4  C   UNL     1      -2.279   6.327 -30.476  1.00  0.00     0.032 A 
HETATM    5  C   UNL     1      -2.201   7.132 -29.323  1.00  0.00     0.031 A 
HETATM    6  C   UNL     1      -0.981   7.430 -28.697  1.00  0.00     0.030 A 
HETATM    7  C   UNL     1       0.161   6.854 -29.275  1.00  0.00     0.031 A 
HETATM    8  C   UNL     1       0.095   6.071 -30.434  1.00  0.00     0.032 A 
BRANCH   6   9
HETATM    9  N   UNL     1      -0.873   8.190 -27.521  1.00  0.00    -0.378 N 
HETATM   10  C   UNL     1       0.461   8.675 -27.112  1.00  0.00     0.143 C 
HETATM   11  C   UNL     1       0.355   9.748 -26.010  1.00  0.00     0.145 C 
HETATM   12  N   UNL     1      -0.514   9.364 -24.891  1.00  0.00    -0.349 N 
HETATM   13  C   UNL     1      -0.452   9.960 -23.633  1.00  0.00     0.219 C 
HETATM   14  C   UNL     1      -1.796   8.774 -25.287  1.00  0.00     0.145 C 
HETATM   15  O   UNL     1      -1.373   9.867 -22.821  1.00  0.00    -0.273 OA
HETATM   16  C   UNL     1      -1.657   7.684 -26.363  1.00  0.00     0.143 C 
BRANCH  13  17
HETATM   17  C   UNL     1       0.829  10.710 -23.295  1.00  0.00     0.103 C 
BRANCH  17  18
HETATM   18  C   UNL     1       1.800   9.860 -22.476  1.00  0.00     0.005 C 
HETATM   19  C   UNL     1       2.810   9.155 -23.366  1.00  0.00     0.005 C 
ENDBRANCH  17  18
ENDBRANCH  13  17
ENDBRANCH   6   9
ENDBRANCH   1   3
BRANCH   1  20
HETATM   20  C   UNL     1      -1.974   4.722 -33.166  1.00  0.00     0.179 C 
HETATM   21  S   UNL     1      -1.734   5.510 -34.627  1.00  0.00    -0.040 SA
BRANCH  20  22
HETATM   22  N   UNL     1      -3.076   3.937 -33.068  1.00  0.00    -0.299 N 
HETATM   23  C   UNL     1      -3.427   3.019 -32.077  1.00  0.00     0.260 C 
HETATM   24  O   UNL     1      -2.677   2.532 -31.245  1.00  0.00    -0.267 OA
HETATM   25  H   UNL     1      -3.866   4.397 -33.503  1.00  0.00     0.171 HD
BRANCH  23  26
HETATM   26  C   UNL     1      -4.880   2.666 -32.074  1.00  0.00     0.066 A 
HETATM   27  C   UNL     1      -5.841   3.520 -31.524  1.00  0.00     0.084 A 
HETATM   28  C   UNL     1      -7.192   3.155 -31.529  1.00  0.00     0.050 A 
HETATM   29  C   UNL     1      -7.614   1.957 -32.124  1.00  0.00    -0.023 A 
HETATM   30  C   UNL     1      -6.652   1.092 -32.691  1.00  0.00    -0.025 A 
HETATM   31  C   UNL     1      -8.972   1.603 -32.170  1.00  0.00     0.012 A 
HETATM   32  C   UNL     1      -5.293   1.447 -32.643  1.00  0.00     0.032 A 
HETATM   33  C   UNL     1      -7.077  -0.107 -33.290  1.00  0.00     0.012 A 
HETATM   34  C   UNL     1      -8.432  -0.440 -33.334  1.00  0.00     0.001 A 
HETATM   35  C   UNL     1      -9.379   0.413 -32.774  1.00  0.00     0.001 A 
BRANCH  27  36
HETATM   36  O   UNL     1      -5.557   4.714 -30.916  1.00  0.00    -0.355 OA
HETATM   37  C   UNL     1      -5.960   4.729 -29.548  1.00  0.00     0.210 C 
ENDBRANCH  27  36
ENDBRANCH  23  26
ENDBRANCH  20  22
ENDBRANCH   1  20
TORSDOF 8
ENDMDL
MODEL 10
REMARK VINA RESULT:      -8.2      3.148      5.570
REMARK  8 active torsions:
REMARK  status: ('A' for Active; 'I' for Inactive)
REMARK    1  A    between atoms: C_2  and  C_3 
REMARK    2  A    between atoms: C_3  and  C_4 
REMARK       I    between atoms: C_4  and  N_5 
REMARK    3  A    between atoms: N_8  and  C_9 
REMARK    4  A    between atoms: C_12  and  N_13 
REMARK    5  A    between atoms: N_13  and  C_14 
REMARK    6  A    between atoms: C_14  and  N_15 
REMARK       I    between atoms: N_15  and  C_16 
REMARK    7  A    between atoms: C_16  and  C_17 
REMARK    8  A    between atoms: C_18  and  O_19 
ROOT
HETATM    1  N   UNL     1      -1.237   4.980 -32.437  1.00  0.00    -0.333 N 
HETATM    2  H   UNL     1      -0.567   4.233 -32.587  1.00  0.00     0.168 HD
ENDROOT
BRANCH   1   3
HETATM    3  C   UNL     1      -0.936   5.796 -31.329  1.00  0.00     0.034 A 
HETATM    4  C   UNL     1      -1.844   6.184 -30.352  1.00  0.00     0.032 A 
HETATM    5  C   UNL     1      -1.426   6.955 -29.251  1.00  0.00     0.031 A 
HETATM    6  C   UNL     1      -0.089   7.347 -29.073  1.00  0.00     0.030 A 
HETATM    7  C   UNL     1       0.815   6.899 -30.048  1.00  0.00     0.031 A 
HETATM    8  C   UNL     1       0.403   6.150 -31.158  1.00  0.00     0.032 A 
BRANCH   6   9
HETATM    9  N   UNL     1       0.369   8.075 -27.963  1.00  0.00    -0.378 N 
HETATM   10  C   UNL     1       1.225   7.391 -26.974  1.00  0.00     0.143 C 
HETATM   11  C   UNL     1       1.899   8.399 -26.021  1.00  0.00     0.145 C 
HETATM   12  N   UNL     1       0.969   9.375 -25.439  1.00  0.00    -0.349 N 
HETATM   13  C   UNL     1       1.245  10.100 -24.282  1.00  0.00     0.219 C 
HETATM   14  C   UNL     1       0.036   9.976 -26.396  1.00  0.00     0.145 C 
HETATM   15  O   UNL     1       0.625  11.123 -23.990  1.00  0.00    -0.273 OA
HETATM   16  C   UNL     1      -0.645   8.945 -27.311  1.00  0.00     0.143 C 
BRANCH  13  17
HETATM   17  C   UNL     1       2.334   9.548 -23.373  1.00  0.00     0.103 C 
BRANCH  17  18
HETATM   18  C   UNL     1       3.631  10.351 -23.466  1.00  0.00     0.005 C 
HETATM   19  C   UNL     1       4.322  10.453 -22.116  1.00  0.00     0.005 C 
ENDBRANCH  17  18
ENDBRANCH  13  17
ENDBRANCH   6   9
ENDBRANCH   1   3
BRANCH   1  20
HETATM   20  C   UNL     1      -2.356   4.813 -33.165  1.00  0.00     0.179 C 
HETATM   21  S   UNL     1      -2.926   6.122 -34.045  1.00  0.00    -0.040 SA
BRANCH  20  22
HETATM   22  N   UNL     1      -3.097   3.678 -33.207  1.00  0.00    -0.299 N 
HETATM   23  C   UNL     1      -3.342   2.739 -32.203  1.00  0.00     0.260 C 
HETATM   24  O   UNL     1      -2.707   2.605 -31.168  1.00  0.00    -0.267 OA
HETATM   25  H   UNL     1      -3.859   3.789 -33.864  1.00  0.00     0.171 HD
BRANCH  23  26
HETATM   26  C   UNL     1      -4.527   1.869 -32.472  1.00  0.00     0.066 A 
HETATM   27  C   UNL     1      -4.387   0.503 -32.747  1.00  0.00     0.084 A 
HETATM   28  C   UNL     1      -5.517  -0.281 -33.003  1.00  0.00     0.050 A 
HETATM   29  C   UNL     1      -6.806   0.267 -32.942  1.00  0.00    -0.023 A 
HETATM   30  C   UNL     1      -6.959   1.642 -32.656  1.00  0.00    -0.025 A 
HETATM   31  C   UNL     1      -7.947  -0.523 -33.159  1.00  0.00     0.012 A 
HETATM   32  C   UNL     1      -5.816   2.432 -32.442  1.00  0.00     0.032 A 
HETATM   33  C   UNL     1      -8.252   2.189 -32.593  1.00  0.00     0.012 A 
HETATM   34  C   UNL     1      -9.376   1.388 -32.802  1.00  0.00     0.001 A 
HETATM   35  C   UNL     1      -9.224   0.034 -33.086  1.00  0.00     0.001 A 
BRANCH  27  36
HETATM   36  O   UNL     1      -3.186  -0.148 -32.833  1.00  0.00    -0.355 OA
HETATM   37  C   UNL     1      -3.049  -1.156 -31.834  1.00  0.00     0.210 C 
ENDBRANCH  27  36
ENDBRANCH  23  26
ENDBRANCH  20  22
ENDBRANCH   1  20
TORSDOF 8
ENDMDL
