MODEL 1
REMARK VINA RESULT:      -8.0      0.000      0.000
REMARK  4 active torsions:
REMARK  status: ('A' for Active; 'I' for Inactive)
REMARK    1  A    between atoms: C_2  and  N_3 
REMARK    2  A    between atoms: C_2  and  C_4 
REMARK    3  A    between atoms: C_7  and  C_10 
REMARK       I    between atoms: C_10  and  N_12 
REMARK    4  A    between atoms: N_12  and  C_13 
ROOT
HETATM    1  C   UNL     1      -9.214   0.994 -33.266  1.00  0.00     0.226 C 
HETATM    2  O   UNL     1      -9.449   1.574 -32.206  1.00  0.00    -0.273 OA
HETATM    3  N   UNL     1      -9.941   1.213 -34.423  1.00  0.00    -0.326 N 
HETATM    4  H   UNL     1      -9.542   0.881 -35.291  1.00  0.00     0.169 HD
ENDROOT
BRANCH   1   5
HETATM    5  C   UNL     1      -8.140  -0.109 -33.350  1.00  0.00     0.078 C 
HETATM    6  C   UNL     1      -7.012   0.208 -32.350  1.00  0.00     0.014 C 
HETATM    7  C   UNL     1      -5.901  -0.839 -32.362  1.00  0.00     0.007 C 
HETATM    8  C   UNL     1      -5.316  -1.034 -33.769  1.00  0.00     0.018 C 
HETATM    9  C   UNL     1      -6.446  -1.395 -34.748  1.00  0.00     0.007 C 
HETATM   10  C   UNL     1      -7.556  -0.343 -34.750  1.00  0.00     0.014 C 
BRANCH   8  11
HETATM   11  C   UNL     1      -4.135  -2.043 -33.770  1.00  0.00     0.218 C 
HETATM   12  C   UNL     1      -3.560  -2.357 -32.388  1.00  0.00     0.043 C 
BRANCH  11  13
HETATM   13  N   UNL     1      -4.550  -3.299 -34.400  1.00  0.00     0.082 N 
HETATM   14  H   UNL     1      -3.726  -3.846 -34.653  1.00  0.00     0.313 HD
HETATM   15  H   UNL     1      -5.033  -3.102 -35.275  1.00  0.00     0.313 HD
ENDBRANCH  11  13
ENDBRANCH   8  11
ENDBRANCH   1   5
BRANCH   3  16
HETATM   16  C   UNL     1     -11.080   2.041 -34.541  1.00  0.00     0.050 A 
HETATM   17  C   UNL     1     -11.017   3.382 -34.953  1.00  0.00     0.047 A 
HETATM   18  C   UNL     1     -12.165   4.157 -35.048  1.00  0.00     0.092 A 
HETATM   19  N   UNL     1     -13.366   3.652 -34.747  1.00  0.00    -0.351 N 
HETATM   20  H   UNL     1     -14.200   4.230 -34.826  1.00  0.00     0.166 HD
HETATM   21  C   UNL     1     -13.449   2.359 -34.335  1.00  0.00     0.117 A 
HETATM   22  N   UNL     1     -14.581   1.670 -33.990  1.00  0.00    -0.352 N 
HETATM   23  C   UNL     1     -12.349   1.521 -34.206  1.00  0.00     0.036 A 
HETATM   24  H   UNL     1     -15.533   2.018 -33.990  1.00  0.00     0.166 HD
HETATM   25  C   UNL     1     -14.232   0.389 -33.644  1.00  0.00     0.090 A 
HETATM   26  C   UNL     1     -12.863   0.268 -33.767  1.00  0.00     0.034 A 
ENDBRANCH   3  16
TORSDOF 4
ENDMDL
MODEL 2
REMARK VINA RESULT:      -7.8      4.910      6.926
REMARK  4 active torsions:
REMARK  status: ('A' for Active; 'I' for Inactive)
REMARK    1  A    between atoms: C_2  and  N_3 
REMARK    2  A    between atoms: C_2  and  C_4 
REMARK    3  A    between atoms: C_7  and  C_10 
REMARK       I    between atoms: C_10  and  N_12 
REMARK    4  A    between atoms: N_12  and  C_13 
ROOT
HETATM    1  C   UNL     1      -6.129   1.217 -32.413  1.00  0.00     0.226 C 
HETATM    2  O   UNL     1      -6.736   2.043 -33.093  1.00  0.00    -0.273 OA
HETATM    3  N   UNL     1      -5.327   1.568 -31.339  1.00  0.00    -0.326 N 
HETATM    4  H   UNL     1      -5.059   0.832 -30.700  1.00  0.00     0.169 HD
ENDROOT
BRANCH   1   5
HETATM    5  C   UNL     1      -6.139  -0.280 -32.777  1.00  0.00     0.078 C 
HETATM    6  C   UNL     1      -4.737  -0.692 -33.264  1.00  0.00     0.014 C 
HETATM    7  C   UNL     1      -4.653  -2.168 -33.643  1.00  0.00     0.007 C 
HETATM    8  C   UNL     1      -5.706  -2.547 -34.696  1.00  0.00     0.018 C 
HETATM    9  C   UNL     1      -7.105  -2.173 -34.178  1.00  0.00     0.007 C 
HETATM   10  C   UNL     1      -7.199  -0.692 -33.807  1.00  0.00     0.014 C 
BRANCH   8  11
HETATM   11  C   UNL     1      -5.573  -4.029 -35.139  1.00  0.00     0.218 C 
HETATM   12  C   UNL     1      -4.626  -4.871 -34.284  1.00  0.00     0.043 C 
BRANCH  11  13
HETATM   13  N   UNL     1      -6.891  -4.670 -35.146  1.00  0.00     0.082 N 
HETATM   14  H   UNL     1      -6.786  -5.674 -35.002  1.00  0.00     0.313 HD
HETATM   15  H   UNL     1      -7.320  -4.564 -36.064  1.00  0.00     0.313 HD
ENDBRANCH  11  13
ENDBRANCH   8  11
ENDBRANCH   1   5
BRANCH   3  16
HETATM   16  C   UNL     1      -5.024   2.885 -30.929  1.00  0.00     0.050 A 
HETATM   17  C   UNL     1      -5.745   3.567 -29.935  1.00  0.00     0.047 A 
HETATM   18  C   UNL     1      -5.410   4.864 -29.569  1.00  0.00     0.092 A 
HETATM   19  N   UNL     1      -4.394   5.506 -30.154  1.00  0.00    -0.351 N 
HETATM   20  H   UNL     1      -4.157   6.456 -29.874  1.00  0.00     0.166 HD
HETATM   21  C   UNL     1      -3.690   4.870 -31.127  1.00  0.00     0.117 A 
HETATM   22  N   UNL     1      -2.622   5.358 -31.833  1.00  0.00    -0.352 N 
HETATM   23  C   UNL     1      -3.964   3.577 -31.556  1.00  0.00     0.036 A 
HETATM   24  H   UNL     1      -2.192   6.271 -31.737  1.00  0.00     0.166 HD
HETATM   25  C   UNL     1      -2.194   4.395 -32.711  1.00  0.00     0.090 A 
HETATM   26  C   UNL     1      -3.002   3.288 -32.564  1.00  0.00     0.034 A 
ENDBRANCH   3  16
TORSDOF 4
ENDMDL
MODEL 3
REMARK VINA RESULT:      -7.8      5.176      6.840
REMARK  4 active torsions:
REMARK  status: ('A' for Active; 'I' for Inactive)
REMARK    1  A    between atoms: C_2  and  N_3 
REMARK    2  A    between atoms: C_2  and  C_4 
REMARK    3  A    between atoms: C_7  and  C_10 
REMARK       I    between atoms: C_10  and  N_12 
REMARK    4  A    between atoms: N_12  and  C_13 
ROOT
HETATM    1  C   UNL     1      -5.523   1.337 -33.022  1.00  0.00     0.226 C 
HETATM    2  O   UNL     1      -6.224   2.178 -33.585  1.00  0.00    -0.273 OA
HETATM    3  N   UNL     1      -4.432   1.668 -32.236  1.00  0.00    -0.326 N 
HETATM    4  H   UNL     1      -4.062   0.948 -31.630  1.00  0.00     0.169 HD
ENDROOT
BRANCH   1   5
HETATM    5  C   UNL     1      -5.756  -0.171 -33.240  1.00  0.00     0.078 C 
HETATM    6  C   UNL     1      -4.403  -0.860 -33.493  1.00  0.00     0.014 C 
HETATM    7  C   UNL     1      -4.537  -2.364 -33.715  1.00  0.00     0.007 C 
HETATM    8  C   UNL     1      -5.512  -2.686 -34.859  1.00  0.00     0.018 C 
HETATM    9  C   UNL     1      -6.873  -2.031 -34.571  1.00  0.00     0.007 C 
HETATM   10  C   UNL     1      -6.746  -0.521 -34.360  1.00  0.00     0.014 C 
BRANCH   8  11
HETATM   11  C   UNL     1      -5.593  -4.211 -35.137  1.00  0.00     0.218 C 
HETATM   12  C   UNL     1      -4.702  -5.075 -34.242  1.00  0.00     0.043 C 
BRANCH  11  13
HETATM   13  N   UNL     1      -6.977  -4.673 -35.001  1.00  0.00     0.082 N 
HETATM   14  H   UNL     1      -7.527  -3.971 -34.504  1.00  0.00     0.313 HD
HETATM   15  H   UNL     1      -7.006  -5.511 -34.422  1.00  0.00     0.313 HD
ENDBRANCH  11  13
ENDBRANCH   8  11
ENDBRANCH   1   5
BRANCH   3  16
HETATM   16  C   UNL     1      -3.921   2.969 -32.036  1.00  0.00     0.050 A 
HETATM   17  C   UNL     1      -2.860   3.503 -32.785  1.00  0.00     0.047 A 
HETATM   18  C   UNL     1      -2.390   4.788 -32.547  1.00  0.00     0.092 A 
HETATM   19  N   UNL     1      -2.931   5.556 -31.596  1.00  0.00    -0.351 N 
HETATM   20  H   UNL     1      -2.579   6.498 -31.435  1.00  0.00     0.166 HD
HETATM   21  C   UNL     1      -3.951   5.056 -30.851  1.00  0.00     0.117 A 
HETATM   22  N   UNL     1      -4.630   5.688 -29.843  1.00  0.00    -0.352 N 
HETATM   23  C   UNL     1      -4.474   3.780 -31.020  1.00  0.00     0.036 A 
HETATM   24  H   UNL     1      -4.475   6.628 -29.498  1.00  0.00     0.166 HD
HETATM   25  C   UNL     1      -5.593   4.840 -29.358  1.00  0.00     0.090 A 
HETATM   26  C   UNL     1      -5.520   3.656 -30.063  1.00  0.00     0.034 A 
ENDBRANCH   3  16
TORSDOF 4
ENDMDL
MODEL 4
REMARK VINA RESULT:      -7.7      1.550      7.791
REMARK  4 active torsions:
REMARK  status: ('A' for Active; 'I' for Inactive)
REMARK    1  A    between atoms: C_2  and  N_3 
REMARK    2  A    between atoms: C_2  and  C_4 
REMARK    3  A    between atoms: C_7  and  C_10 
REMARK       I    between atoms: C_10  and  N_12 
REMARK    4  A    between atoms: N_12  and  C_13 
ROOT
HETATM    1  C   UNL     1      -7.645   1.327 -33.138  1.00  0.00     0.226 C 
HETATM    2  O   UNL     1      -6.803   2.050 -33.673  1.00  0.00    -0.273 OA
HETATM    3  N   UNL     1      -7.327   0.129 -32.521  1.00  0.00    -0.326 N 
HETATM    4  H   UNL     1      -8.024  -0.278 -31.912  1.00  0.00     0.169 HD
ENDROOT
BRANCH   1   5
HETATM    5  C   UNL     1      -9.147   1.664 -33.209  1.00  0.00     0.078 C 
HETATM    6  C   UNL     1      -9.951   0.359 -33.354  1.00  0.00     0.014 C 
HETATM    7  C   UNL     1     -11.457   0.597 -33.426  1.00  0.00     0.007 C 
HETATM    8  C   UNL     1     -11.826   1.568 -34.558  1.00  0.00     0.018 C 
HETATM    9  C   UNL     1     -11.052   2.884 -34.376  1.00  0.00     0.007 C 
HETATM   10  C   UNL     1      -9.541   2.653 -34.315  1.00  0.00     0.014 C 
BRANCH   8  11
HETATM   11  C   UNL     1     -13.362   1.753 -34.683  1.00  0.00     0.218 C 
HETATM   12  C   UNL     1     -14.194   0.574 -34.174  1.00  0.00     0.043 C 
BRANCH  11  13
HETATM   13  N   UNL     1     -13.781   2.962 -33.969  1.00  0.00     0.082 N 
HETATM   14  H   UNL     1     -13.345   2.986 -33.047  1.00  0.00     0.313 HD
HETATM   15  H   UNL     1     -14.785   2.933 -33.802  1.00  0.00     0.313 HD
ENDBRANCH  11  13
ENDBRANCH   8  11
ENDBRANCH   1   5
BRANCH   3  16
HETATM   16  C   UNL     1      -6.048  -0.469 -32.486  1.00  0.00     0.050 A 
HETATM   17  C   UNL     1      -5.066  -0.134 -31.539  1.00  0.00     0.047 A 
HETATM   18  C   UNL     1      -3.821  -0.749 -31.549  1.00  0.00     0.092 A 
HETATM   19  N   UNL     1      -3.517  -1.677 -32.462  1.00  0.00    -0.351 N 
HETATM   20  H   UNL     1      -2.601  -2.122 -32.456  1.00  0.00     0.166 HD
HETATM   21  C   UNL     1      -4.447  -2.009 -33.396  1.00  0.00     0.117 A 
HETATM   22  N   UNL     1      -4.323  -2.932 -34.400  1.00  0.00    -0.352 N 
HETATM   23  C   UNL     1      -5.712  -1.436 -33.459  1.00  0.00     0.036 A 
HETATM   24  H   UNL     1      -3.516  -3.510 -34.601  1.00  0.00     0.166 HD
HETATM   25  C   UNL     1      -5.494  -2.971 -35.112  1.00  0.00     0.090 A 
HETATM   26  C   UNL     1      -6.368  -2.060 -34.557  1.00  0.00     0.034 A 
ENDBRANCH   3  16
TORSDOF 4
ENDMDL
MODEL 5
REMARK VINA RESULT:      -7.6      4.328      5.906
REMARK  4 active torsions:
REMARK  status: ('A' for Active; 'I' for Inactive)
REMARK    1  A    between atoms: C_2  and  N_3 
REMARK    2  A    between atoms: C_2  and  C_4 
REMARK    3  A    between atoms: C_7  and  C_10 
REMARK       I    between atoms: C_10  and  N_12 
REMARK    4  A    between atoms: N_12  and  C_13 
ROOT
HETATM    1  C   UNL     1      -6.112   1.113 -32.503  1.00  0.00     0.226 C 
HETATM    2  O   UNL     1      -6.240   1.481 -31.336  1.00  0.00    -0.273 OA
HETATM    3  N   UNL     1      -6.053   1.995 -33.570  1.00  0.00    -0.326 N 
HETATM    4  H   UNL     1      -5.715   1.634 -34.452  1.00  0.00     0.169 HD
ENDROOT
BRANCH   1   5
HETATM    5  C   UNL     1      -6.108  -0.383 -32.873  1.00  0.00     0.078 C 
HETATM    6  C   UNL     1      -4.734  -0.755 -33.461  1.00  0.00     0.014 C 
HETATM    7  C   UNL     1      -4.636  -2.227 -33.852  1.00  0.00     0.007 C 
HETATM    8  C   UNL     1      -5.752  -2.632 -34.828  1.00  0.00     0.018 C 
HETATM    9  C   UNL     1      -7.120  -2.298 -34.210  1.00  0.00     0.007 C 
HETATM   10  C   UNL     1      -7.227  -0.821 -33.827  1.00  0.00     0.014 C 
BRANCH   8  11
HETATM   11  C   UNL     1      -5.610  -4.108 -35.287  1.00  0.00     0.218 C 
HETATM   12  C   UNL     1      -4.760  -4.987 -34.368  1.00  0.00     0.043 C 
BRANCH  11  13
HETATM   13  N   UNL     1      -6.935  -4.719 -35.423  1.00  0.00     0.082 N 
HETATM   14  H   UNL     1      -7.489  -4.531 -34.587  1.00  0.00     0.313 HD
HETATM   15  H   UNL     1      -6.843  -5.733 -35.473  1.00  0.00     0.313 HD
ENDBRANCH  11  13
ENDBRANCH   8  11
ENDBRANCH   1   5
BRANCH   3  16
HETATM   16  C   UNL     1      -6.214   3.396 -33.494  1.00  0.00     0.050 A 
HETATM   17  C   UNL     1      -7.458   4.036 -33.615  1.00  0.00     0.047 A 
HETATM   18  C   UNL     1      -7.564   5.418 -33.538  1.00  0.00     0.092 A 
HETATM   19  N   UNL     1      -6.484   6.184 -33.349  1.00  0.00    -0.351 N 
HETATM   20  H   UNL     1      -6.577   7.196 -33.291  1.00  0.00     0.166 HD
HETATM   21  C   UNL     1      -5.268   5.587 -33.241  1.00  0.00     0.117 A 
HETATM   22  N   UNL     1      -4.059   6.198 -33.043  1.00  0.00    -0.352 N 
HETATM   23  C   UNL     1      -5.076   4.213 -33.315  1.00  0.00     0.036 A 
HETATM   24  H   UNL     1      -3.885   7.191 -32.945  1.00  0.00     0.166 HD
HETATM   25  C   UNL     1      -3.082   5.237 -32.980  1.00  0.00     0.090 A 
HETATM   26  C   UNL     1      -3.678   4.004 -33.145  1.00  0.00     0.034 A 
ENDBRANCH   3  16
TORSDOF 4
ENDMDL
MODEL 6
REMARK VINA RESULT:      -7.4      3.380      4.583
REMARK  4 active torsions:
REMARK  status: ('A' for Active; 'I' for Inactive)
REMARK    1  A    between atoms: C_2  and  N_3 
REMARK    2  A    between atoms: C_2  and  C_4 
REMARK    3  A    between atoms: C_7  and  C_10 
REMARK       I    between atoms: C_10  and  N_12 
REMARK    4  A    between atoms: N_12  and  C_13 
ROOT
HETATM    1  C   UNL     1      -5.795   1.130 -32.712  1.00  0.00     0.226 C 
HETATM    2  O   UNL     1      -5.460   1.533 -31.598  1.00  0.00    -0.273 OA
HETATM    3  N   UNL     1      -6.189   1.978 -33.733  1.00  0.00    -0.326 N 
HETATM    4  H   UNL     1      -6.218   1.596 -34.669  1.00  0.00     0.169 HD
ENDROOT
BRANCH   1   5
HETATM    5  C   UNL     1      -5.895  -0.377 -33.020  1.00  0.00     0.078 C 
HETATM    6  C   UNL     1      -4.525  -0.885 -33.506  1.00  0.00     0.014 C 
HETATM    7  C   UNL     1      -4.529  -2.377 -33.831  1.00  0.00     0.007 C 
HETATM    8  C   UNL     1      -5.616  -2.734 -34.856  1.00  0.00     0.018 C 
HETATM    9  C   UNL     1      -6.985  -2.263 -34.336  1.00  0.00     0.007 C 
HETATM   10  C   UNL     1      -6.990  -0.766 -34.021  1.00  0.00     0.014 C 
BRANCH   8  11
HETATM   11  C   UNL     1      -5.573  -4.236 -35.244  1.00  0.00     0.218 C 
HETATM   12  C   UNL     1      -4.744  -5.117 -34.309  1.00  0.00     0.043 C 
BRANCH  11  13
HETATM   13  N   UNL     1      -6.934  -4.776 -35.310  1.00  0.00     0.082 N 
HETATM   14  H   UNL     1      -6.897  -5.785 -35.458  1.00  0.00     0.313 HD
HETATM   15  H   UNL     1      -7.417  -4.393 -36.121  1.00  0.00     0.313 HD
ENDBRANCH  11  13
ENDBRANCH   8  11
ENDBRANCH   1   5
BRANCH   3  16
HETATM   16  C   UNL     1      -6.347   3.378 -33.631  1.00  0.00     0.050 A 
HETATM   17  C   UNL     1      -5.270   4.265 -33.471  1.00  0.00     0.047 A 
HETATM   18  C   UNL     1      -5.477   5.634 -33.372  1.00  0.00     0.092 A 
HETATM   19  N   UNL     1      -6.709   6.151 -33.421  1.00  0.00    -0.351 N 
HETATM   20  H   UNL     1      -6.845   7.158 -33.350  1.00  0.00     0.166 HD
HETATM   21  C   UNL     1      -7.767   5.311 -33.563  1.00  0.00     0.117 A 
HETATM   22  N   UNL     1      -9.092   5.651 -33.638  1.00  0.00    -0.352 N 
HETATM   23  C   UNL     1      -7.646   3.931 -33.663  1.00  0.00     0.036 A 
HETATM   24  H   UNL     1      -9.487   6.584 -33.599  1.00  0.00     0.166 HD
HETATM   25  C   UNL     1      -9.835   4.508 -33.792  1.00  0.00     0.090 A 
HETATM   26  C   UNL     1      -8.971   3.432 -33.809  1.00  0.00     0.034 A 
ENDBRANCH   3  16
TORSDOF 4
ENDMDL
MODEL 7
REMARK VINA RESULT:      -7.2      0.719      2.358
REMARK  4 active torsions:
REMARK  status: ('A' for Active; 'I' for Inactive)
REMARK    1  A    between atoms: C_2  and  N_3 
REMARK    2  A    between atoms: C_2  and  C_4 
REMARK    3  A    between atoms: C_7  and  C_10 
REMARK       I    between atoms: C_10  and  N_12 
REMARK    4  A    between atoms: N_12  and  C_13 
ROOT
HETATM    1  C   UNL     1      -9.078   0.802 -32.962  1.00  0.00     0.226 C 
HETATM    2  O   UNL     1      -9.570   0.761 -31.835  1.00  0.00    -0.273 OA
HETATM    3  N   UNL     1      -9.799   1.170 -34.086  1.00  0.00    -0.326 N 
HETATM    4  H   UNL     1      -9.273   1.404 -34.918  1.00  0.00     0.169 HD
ENDROOT
BRANCH   1   5
HETATM    5  C   UNL     1      -7.629   0.343 -33.218  1.00  0.00     0.078 C 
HETATM    6  C   UNL     1      -7.650  -0.963 -34.034  1.00  0.00     0.014 C 
HETATM    7  C   UNL     1      -6.251  -1.491 -34.340  1.00  0.00     0.007 C 
HETATM    8  C   UNL     1      -5.422  -1.683 -33.061  1.00  0.00     0.018 C 
HETATM    9  C   UNL     1      -5.370  -0.360 -32.280  1.00  0.00     0.007 C 
HETATM   10  C   UNL     1      -6.770   0.168 -31.959  1.00  0.00     0.014 C 
BRANCH   8  11
HETATM   11  C   UNL     1      -4.026  -2.292 -33.364  1.00  0.00     0.218 C 
HETATM   12  C   UNL     1      -3.232  -2.724 -32.130  1.00  0.00     0.043 C 
BRANCH  11  13
HETATM   13  N   UNL     1      -4.165  -3.445 -34.257  1.00  0.00     0.082 N 
HETATM   14  H   UNL     1      -4.463  -4.261 -33.722  1.00  0.00     0.313 HD
HETATM   15  H   UNL     1      -3.258  -3.686 -34.652  1.00  0.00     0.313 HD
ENDBRANCH  11  13
ENDBRANCH   8  11
ENDBRANCH   1   5
BRANCH   3  16
HETATM   16  C   UNL     1     -11.180   1.460 -34.124  1.00  0.00     0.050 A 
HETATM   17  C   UNL     1     -12.171   0.539 -33.745  1.00  0.00     0.047 A 
HETATM   18  C   UNL     1     -13.518   0.870 -33.804  1.00  0.00     0.092 A 
HETATM   19  N   UNL     1     -13.915   2.074 -34.228  1.00  0.00    -0.351 N 
HETATM   20  H   UNL     1     -14.906   2.304 -34.263  1.00  0.00     0.166 HD
HETATM   21  C   UNL     1     -12.975   2.977 -34.612  1.00  0.00     0.117 A 
HETATM   22  N   UNL     1     -13.185   4.252 -35.067  1.00  0.00    -0.352 N 
HETATM   23  C   UNL     1     -11.609   2.722 -34.589  1.00  0.00     0.036 A 
HETATM   24  H   UNL     1     -14.076   4.718 -35.186  1.00  0.00     0.166 HD
HETATM   25  C   UNL     1     -11.971   4.833 -35.334  1.00  0.00     0.090 A 
HETATM   26  C   UNL     1     -10.982   3.914 -35.051  1.00  0.00     0.034 A 
ENDBRANCH   3  16
TORSDOF 4
ENDMDL
MODEL 8
REMARK VINA RESULT:      -7.1     14.545     17.563
REMARK  4 active torsions:
REMARK  status: ('A' for Active; 'I' for Inactive)
REMARK    1  A    between atoms: C_2  and  N_3 
REMARK    2  A    between atoms: C_2  and  C_4 
REMARK    3  A    between atoms: C_7  and  C_10 
REMARK       I    between atoms: C_10  and  N_12 
REMARK    4  A    between atoms: N_12  and  C_13 
ROOT
HETATM    1  C   UNL     1      -4.087 -12.493 -38.738  1.00  0.00     0.226 C 
HETATM    2  O   UNL     1      -3.366 -11.654 -38.197  1.00  0.00    -0.273 OA
HETATM    3  N   UNL     1      -3.603 -13.684 -39.252  1.00  0.00    -0.326 N 
HETATM    4  H   UNL     1      -4.278 -14.408 -39.461  1.00  0.00     0.169 HD
ENDROOT
BRANCH   1   5
HETATM    5  C   UNL     1      -5.586 -12.224 -38.973  1.00  0.00     0.078 C 
HETATM    6  C   UNL     1      -6.410 -13.034 -37.954  1.00  0.00     0.014 C 
HETATM    7  C   UNL     1      -7.914 -12.824 -38.109  1.00  0.00     0.007 C 
HETATM    8  C   UNL     1      -8.389 -13.138 -39.537  1.00  0.00     0.018 C 
HETATM    9  C   UNL     1      -7.591 -12.289 -40.540  1.00  0.00     0.007 C 
HETATM   10  C   UNL     1      -6.083 -12.505 -40.397  1.00  0.00     0.014 C 
BRANCH   8  11
HETATM   11  C   UNL     1      -9.928 -12.999 -39.677  1.00  0.00     0.218 C 
HETATM   12  C   UNL     1     -10.396 -11.719 -40.371  1.00  0.00     0.043 C 
BRANCH  11  13
HETATM   13  N   UNL     1     -10.471 -14.149 -40.404  1.00  0.00     0.082 N 
HETATM   14  H   UNL     1     -11.491 -14.108 -40.403  1.00  0.00     0.313 HD
HETATM   15  H   UNL     1     -10.227 -15.011 -39.918  1.00  0.00     0.313 HD
ENDBRANCH  11  13
ENDBRANCH   8  11
ENDBRANCH   1   5
BRANCH   3  16
HETATM   16  C   UNL     1      -2.245 -14.069 -39.312  1.00  0.00     0.050 A 
HETATM   17  C   UNL     1      -1.481 -14.017 -40.489  1.00  0.00     0.047 A 
HETATM   18  C   UNL     1      -0.150 -14.409 -40.498  1.00  0.00     0.092 A 
HETATM   19  N   UNL     1       0.446 -14.853 -39.386  1.00  0.00    -0.351 N 
HETATM   20  H   UNL     1       1.425 -15.134 -39.406  1.00  0.00     0.166 HD
HETATM   21  C   UNL     1      -0.277 -14.924 -38.238  1.00  0.00     0.117 A 
HETATM   22  N   UNL     1       0.157 -15.344 -37.008  1.00  0.00    -0.352 N 
HETATM   23  C   UNL     1      -1.614 -14.557 -38.147  1.00  0.00     0.036 A 
HETATM   24  H   UNL     1       1.086 -15.667 -36.766  1.00  0.00     0.166 HD
HETATM   25  C   UNL     1      -0.881 -15.249 -36.116  1.00  0.00     0.090 A 
HETATM   26  C   UNL     1      -1.985 -14.768 -36.789  1.00  0.00     0.034 A 
ENDBRANCH   3  16
TORSDOF 4
ENDMDL
MODEL 9
REMARK VINA RESULT:      -7.1      1.798      8.041
REMARK  4 active torsions:
REMARK  status: ('A' for Active; 'I' for Inactive)
REMARK    1  A    between atoms: C_2  and  N_3 
REMARK    2  A    between atoms: C_2  and  C_4 
REMARK    3  A    between atoms: C_7  and  C_10 
REMARK       I    between atoms: C_10  and  N_12 
REMARK    4  A    between atoms: N_12  and  C_13 
ROOT
HETATM    1  C   UNL     1      -7.763   0.588 -34.350  1.00  0.00     0.226 C 
HETATM    2  O   UNL     1      -6.862   1.198 -34.927  1.00  0.00    -0.273 OA
HETATM    3  N   UNL     1      -7.555  -0.604 -33.677  1.00  0.00    -0.326 N 
HETATM    4  H   UNL     1      -8.280  -0.911 -33.043  1.00  0.00     0.169 HD
ENDROOT
BRANCH   1   5
HETATM    5  C   UNL     1      -9.226   1.067 -34.423  1.00  0.00     0.078 C 
HETATM    6  C   UNL     1      -9.262   2.601 -34.296  1.00  0.00     0.014 C 
HETATM    7  C   UNL     1     -10.678   3.167 -34.364  1.00  0.00     0.007 C 
HETATM    8  C   UNL     1     -11.597   2.531 -33.310  1.00  0.00     0.018 C 
HETATM    9  C   UNL     1     -11.588   1.002 -33.478  1.00  0.00     0.007 C 
HETATM   10  C   UNL     1     -10.172   0.428 -33.398  1.00  0.00     0.014 C 
BRANCH   8  11
HETATM   11  C   UNL     1     -13.017   3.158 -33.327  1.00  0.00     0.218 C 
HETATM   12  C   UNL     1     -13.094   4.554 -33.947  1.00  0.00     0.043 C 
BRANCH  11  13
HETATM   13  N   UNL     1     -13.945   2.278 -34.041  1.00  0.00     0.082 N 
HETATM   14  H   UNL     1     -13.825   2.394 -35.047  1.00  0.00     0.313 HD
HETATM   15  H   UNL     1     -14.905   2.555 -33.841  1.00  0.00     0.313 HD
ENDBRANCH  11  13
ENDBRANCH   8  11
ENDBRANCH   1   5
BRANCH   3  16
HETATM   16  C   UNL     1      -6.340  -1.324 -33.625  1.00  0.00     0.050 A 
HETATM   17  C   UNL     1      -6.049  -2.405 -34.472  1.00  0.00     0.047 A 
HETATM   18  C   UNL     1      -4.841  -3.084 -34.379  1.00  0.00     0.092 A 
HETATM   19  N   UNL     1      -3.919  -2.731 -33.477  1.00  0.00    -0.351 N 
HETATM   20  H   UNL     1      -3.035  -3.235 -33.423  1.00  0.00     0.166 HD
HETATM   21  C   UNL     1      -4.184  -1.694 -32.639  1.00  0.00     0.117 A 
HETATM   22  N   UNL     1      -3.368  -1.188 -31.662  1.00  0.00    -0.352 N 
HETATM   23  C   UNL     1      -5.369  -0.969 -32.663  1.00  0.00     0.036 A 
HETATM   24  H   UNL     1      -2.440  -1.508 -31.415  1.00  0.00     0.166 HD
HETATM   25  C   UNL     1      -4.006  -0.137 -31.054  1.00  0.00     0.090 A 
HETATM   26  C   UNL     1      -5.241   0.021 -31.648  1.00  0.00     0.034 A 
ENDBRANCH   3  16
TORSDOF 4
ENDMDL
MODEL 10
REMARK VINA RESULT:      -7.0      5.404      7.591
REMARK  4 active torsions:
REMARK  status: ('A' for Active; 'I' for Inactive)
REMARK    1  A    between atoms: C_2  and  N_3 
REMARK    2  A    between atoms: C_2  and  C_4 
REMARK    3  A    between atoms: C_7  and  C_10 
REMARK       I    between atoms: C_10  and  N_12 
REMARK    4  A    between atoms: N_12  and  C_13 
ROOT
HETATM    1  C   UNL     1      -5.680   3.207 -33.202  1.00  0.00     0.226 C 
HETATM    2  O   UNL     1      -6.270   3.959 -33.979  1.00  0.00    -0.273 OA
HETATM    3  N   UNL     1      -4.671   3.637 -32.357  1.00  0.00    -0.326 N 
HETATM    4  H   UNL     1      -4.408   3.022 -31.599  1.00  0.00     0.169 HD
ENDROOT
BRANCH   1   5
HETATM    5  C   UNL     1      -5.962   1.692 -33.190  1.00  0.00     0.078 C 
HETATM    6  C   UNL     1      -4.672   0.942 -32.807  1.00  0.00     0.014 C 
HETATM    7  C   UNL     1      -4.860  -0.573 -32.764  1.00  0.00     0.007 C 
HETATM    8  C   UNL     1      -5.409  -1.116 -34.092  1.00  0.00     0.018 C 
HETATM    9  C   UNL     1      -6.720  -0.392 -34.440  1.00  0.00     0.007 C 
HETATM   10  C   UNL     1      -6.535   1.126 -34.496  1.00  0.00     0.014 C 
BRANCH   8  11
HETATM   11  C   UNL     1      -5.528  -2.664 -34.077  1.00  0.00     0.218 C 
HETATM   12  C   UNL     1      -6.783  -3.218 -34.754  1.00  0.00     0.043 C 
BRANCH  11  13
HETATM   13  N   UNL     1      -4.352  -3.264 -34.713  1.00  0.00     0.082 N 
HETATM   14  H   UNL     1      -4.148  -4.165 -34.280  1.00  0.00     0.313 HD
HETATM   15  H   UNL     1      -3.534  -2.682 -34.541  1.00  0.00     0.313 HD
ENDBRANCH  11  13
ENDBRANCH   8  11
ENDBRANCH   1   5
BRANCH   3  16
HETATM   16  C   UNL     1      -4.122   4.938 -32.319  1.00  0.00     0.050 A 
HETATM   17  C   UNL     1      -4.595   5.948 -31.466  1.00  0.00     0.047 A 
HETATM   18  C   UNL     1      -4.024   7.214 -31.469  1.00  0.00     0.092 A 
HETATM   19  N   UNL     1      -3.008   7.511 -32.286  1.00  0.00    -0.351 N 
HETATM   20  H   UNL     1      -2.597   8.443 -32.275  1.00  0.00     0.166 HD
HETATM   21  C   UNL     1      -2.542   6.553 -33.129  1.00  0.00     0.117 A 
HETATM   22  N   UNL     1      -1.516   6.666 -34.028  1.00  0.00    -0.352 N 
HETATM   23  C   UNL     1      -3.062   5.266 -33.193  1.00  0.00     0.036 A 
HETATM   24  H   UNL     1      -0.944   7.484 -34.203  1.00  0.00     0.166 HD
HETATM   25  C   UNL     1      -1.356   5.466 -34.673  1.00  0.00     0.090 A 
HETATM   26  C   UNL     1      -2.296   4.584 -34.180  1.00  0.00     0.034 A 
ENDBRANCH   3  16
TORSDOF 4
ENDMDL
