MODEL 1
REMARK VINA RESULT:      -9.8      0.000      0.000
REMARK  3 active torsions:
REMARK  status: ('A' for Active; 'I' for Inactive)
REMARK    1  A    between atoms: N_12  and  C_13 
REMARK    2  A    between atoms: C_13  and  C_14 
REMARK       I    between atoms: C_14  and  N_15 
REMARK    3  A    between atoms: N_15  and  C_16 
ROOT
HETATM    1  C   UNL     1      -6.719  -4.928 -35.874  1.00  0.00     0.048 C 
HETATM    2  C   UNL     1      -5.763  -4.240 -34.944  1.00  0.00    -0.061 A 
HETATM    3  C   UNL     1      -5.970  -2.902 -34.569  1.00  0.00     0.021 A 
HETATM    4  C   UNL     1      -5.065  -2.272 -33.690  1.00  0.00     0.005 A 
HETATM    5  C   UNL     1      -3.974  -3.003 -33.208  1.00  0.00     0.044 A 
HETATM    6  N   UNL     1      -3.254  -2.170 -32.373  1.00  0.00    -0.350 N 
HETATM    7  H   UNL     1      -2.413  -2.425 -31.869  1.00  0.00     0.166 HD
HETATM    8  C   UNL     1      -3.857  -0.947 -32.316  1.00  0.00     0.116 A 
HETATM    9  C   UNL     1      -4.972  -0.981 -33.115  1.00  0.00     0.028 A 
HETATM   10  C   UNL     1      -3.461   0.209 -31.566  1.00  0.00     0.291 A 
HETATM   11  O   UNL     1      -2.476   0.224 -30.835  1.00  0.00    -0.264 OA
HETATM   12  N   UNL     1      -4.312   1.312 -31.774  1.00  0.00    -0.224 N 
HETATM   13  N   UNL     1      -5.479   1.278 -32.567  1.00  0.00    -0.180 NA
HETATM   14  C   UNL     1      -5.792   0.191 -33.212  1.00  0.00     0.153 A 
HETATM   15  C   UNL     1      -3.746  -4.335 -33.566  1.00  0.00     0.031 A 
HETATM   16  C   UNL     1      -4.659  -4.937 -34.441  1.00  0.00     0.009 A 
ENDROOT
BRANCH  12  17
HETATM   17  C   UNL     1      -4.120   2.508 -30.968  1.00  0.00     0.258 C 
BRANCH  17  18
HETATM   18  C   UNL     1      -3.242   3.668 -31.468  1.00  0.00     0.244 C 
HETATM   19  N   UNL     1      -3.813   4.820 -32.012  1.00  0.00    -0.320 N 
HETATM   20  C   UNL     1      -5.248   5.050 -32.137  1.00  0.00     0.159 C 
HETATM   21  O   UNL     1      -2.024   3.582 -31.247  1.00  0.00    -0.271 OA
BRANCH  19  22
HETATM   22  C   UNL     1      -2.995   5.973 -32.238  1.00  0.00     0.043 A 
HETATM   23  C   UNL     1      -2.329   6.176 -33.461  1.00  0.00    -0.035 A 
HETATM   24  C   UNL     1      -2.293   5.137 -34.547  1.00  0.00     0.050 C 
HETATM   25  C   UNL     1      -1.655   7.391 -33.672  1.00  0.00     0.009 A 
HETATM   26  C   UNL     1      -1.618   8.375 -32.682  1.00  0.00     0.007 A 
HETATM   27  C   UNL     1      -2.241   8.162 -31.452  1.00  0.00    -0.060 A 
HETATM   28  C   UNL     1      -2.241   9.223 -30.392  1.00  0.00     0.048 C 
HETATM   29  C   UNL     1      -2.927   6.960 -31.240  1.00  0.00     0.037 A 
ENDBRANCH  19  22
ENDBRANCH  17  18
ENDBRANCH  12  17
TORSDOF 3
ENDMDL
MODEL 2
REMARK VINA RESULT:      -9.3      2.129      2.957
REMARK  3 active torsions:
REMARK  status: ('A' for Active; 'I' for Inactive)
REMARK    1  A    between atoms: N_12  and  C_13 
REMARK    2  A    between atoms: C_13  and  C_14 
REMARK       I    between atoms: C_14  and  N_15 
REMARK    3  A    between atoms: N_15  and  C_16 
ROOT
HETATM    1  C   UNL     1      -3.881  -5.343 -34.074  1.00  0.00     0.048 C 
HETATM    2  C   UNL     1      -4.691  -4.085 -34.185  1.00  0.00    -0.061 A 
HETATM    3  C   UNL     1      -4.216  -2.880 -33.641  1.00  0.00     0.021 A 
HETATM    4  C   UNL     1      -4.987  -1.705 -33.758  1.00  0.00     0.005 A 
HETATM    5  C   UNL     1      -6.217  -1.770 -34.421  1.00  0.00     0.044 A 
HETATM    6  N   UNL     1      -6.764  -0.501 -34.404  1.00  0.00    -0.350 N 
HETATM    7  H   UNL     1      -7.651  -0.237 -34.815  1.00  0.00     0.166 HD
HETATM    8  C   UNL     1      -5.919   0.352 -33.756  1.00  0.00     0.116 A 
HETATM    9  C   UNL     1      -4.819  -0.360 -33.349  1.00  0.00     0.028 A 
HETATM   10  C   UNL     1      -6.079   1.757 -33.517  1.00  0.00     0.291 A 
HETATM   11  O   UNL     1      -7.055   2.392 -33.905  1.00  0.00    -0.264 OA
HETATM   12  N   UNL     1      -5.011   2.312 -32.785  1.00  0.00    -0.224 N 
HETATM   13  N   UNL     1      -3.860   1.596 -32.391  1.00  0.00    -0.180 NA
HETATM   14  C   UNL     1      -3.769   0.324 -32.652  1.00  0.00     0.153 A 
HETATM   15  C   UNL     1      -6.713  -2.957 -34.970  1.00  0.00     0.031 A 
HETATM   16  C   UNL     1      -5.927  -4.109 -34.839  1.00  0.00     0.009 A 
ENDROOT
BRANCH  12  17
HETATM   17  C   UNL     1      -4.965   3.753 -32.596  1.00  0.00     0.258 C 
BRANCH  17  18
HETATM   18  C   UNL     1      -3.856   4.406 -31.753  1.00  0.00     0.244 C 
HETATM   19  N   UNL     1      -2.618   4.726 -32.314  1.00  0.00    -0.320 N 
HETATM   20  C   UNL     1      -2.266   4.507 -33.712  1.00  0.00     0.159 C 
HETATM   21  O   UNL     1      -4.160   4.748 -30.599  1.00  0.00    -0.271 OA
BRANCH  19  22
HETATM   22  C   UNL     1      -1.703   5.549 -31.583  1.00  0.00     0.043 A 
HETATM   23  C   UNL     1      -1.819   6.952 -31.573  1.00  0.00    -0.035 A 
HETATM   24  C   UNL     1      -2.797   7.690 -32.444  1.00  0.00     0.050 C 
HETATM   25  C   UNL     1      -0.977   7.695 -30.729  1.00  0.00     0.009 A 
HETATM   26  C   UNL     1      -0.021   7.065 -29.929  1.00  0.00     0.007 A 
HETATM   27  C   UNL     1       0.127   5.678 -29.966  1.00  0.00    -0.060 A 
HETATM   28  C   UNL     1       1.124   4.983 -29.088  1.00  0.00     0.048 C 
HETATM   29  C   UNL     1      -0.719   4.930 -30.794  1.00  0.00     0.037 A 
ENDBRANCH  19  22
ENDBRANCH  17  18
ENDBRANCH  12  17
TORSDOF 3
ENDMDL
MODEL 3
REMARK VINA RESULT:      -9.2      2.945      9.875
REMARK  3 active torsions:
REMARK  status: ('A' for Active; 'I' for Inactive)
REMARK    1  A    between atoms: N_12  and  C_13 
REMARK    2  A    between atoms: C_13  and  C_14 
REMARK       I    between atoms: C_14  and  N_15 
REMARK    3  A    between atoms: N_15  and  C_16 
ROOT
HETATM    1  C   UNL     1       2.266   8.633 -25.956  1.00  0.00     0.048 C 
HETATM    2  C   UNL     1       1.135   8.553 -26.940  1.00  0.00    -0.061 A 
HETATM    3  C   UNL     1       1.031   7.465 -27.822  1.00  0.00     0.021 A 
HETATM    4  C   UNL     1      -0.040   7.402 -28.736  1.00  0.00     0.005 A 
HETATM    5  C   UNL     1      -0.983   8.436 -28.742  1.00  0.00     0.044 A 
HETATM    6  N   UNL     1      -1.920   8.138 -29.712  1.00  0.00    -0.350 N 
HETATM    7  H   UNL     1      -2.730   8.701 -29.941  1.00  0.00     0.166 HD
HETATM    8  C   UNL     1      -1.596   6.955 -30.311  1.00  0.00     0.116 A 
HETATM    9  C   UNL     1      -0.447   6.481 -29.732  1.00  0.00     0.028 A 
HETATM   10  C   UNL     1      -2.294   6.265 -31.357  1.00  0.00     0.291 A 
HETATM   11  O   UNL     1      -3.334   6.683 -31.853  1.00  0.00    -0.264 OA
HETATM   12  N   UNL     1      -1.648   5.076 -31.751  1.00  0.00    -0.224 N 
HETATM   13  N   UNL     1      -0.484   4.563 -31.140  1.00  0.00    -0.180 NA
HETATM   14  C   UNL     1       0.094   5.232 -30.184  1.00  0.00     0.153 A 
HETATM   15  C   UNL     1      -0.901   9.530 -27.874  1.00  0.00     0.031 A 
HETATM   16  C   UNL     1       0.173   9.568 -26.976  1.00  0.00     0.009 A 
ENDROOT
BRANCH  12  17
HETATM   17  C   UNL     1      -2.315   4.197 -32.697  1.00  0.00     0.258 C 
BRANCH  17  18
HETATM   18  C   UNL     1      -3.320   3.134 -32.219  1.00  0.00     0.244 C 
HETATM   19  N   UNL     1      -4.643   3.140 -32.667  1.00  0.00    -0.320 N 
HETATM   20  C   UNL     1      -5.186   4.102 -33.620  1.00  0.00     0.159 C 
HETATM   21  O   UNL     1      -2.867   2.210 -31.526  1.00  0.00    -0.271 OA
BRANCH  19  22
HETATM   22  C   UNL     1      -5.481   2.011 -32.405  1.00  0.00     0.043 A 
HETATM   23  C   UNL     1      -6.325   1.964 -31.279  1.00  0.00    -0.035 A 
HETATM   24  C   UNL     1      -6.291   3.008 -30.198  1.00  0.00     0.050 C 
HETATM   25  C   UNL     1      -7.224   0.892 -31.150  1.00  0.00     0.009 A 
HETATM   26  C   UNL     1      -7.269  -0.128 -32.102  1.00  0.00     0.007 A 
HETATM   27  C   UNL     1      -6.406  -0.110 -33.198  1.00  0.00    -0.060 A 
HETATM   28  C   UNL     1      -6.466  -1.179 -34.247  1.00  0.00     0.048 C 
HETATM   29  C   UNL     1      -5.518   0.963 -33.341  1.00  0.00     0.037 A 
ENDBRANCH  19  22
ENDBRANCH  17  18
ENDBRANCH  12  17
TORSDOF 3
ENDMDL
MODEL 4
REMARK VINA RESULT:      -9.2      2.108      3.060
REMARK  3 active torsions:
REMARK  status: ('A' for Active; 'I' for Inactive)
REMARK    1  A    between atoms: N_12  and  C_13 
REMARK    2  A    between atoms: C_13  and  C_14 
REMARK       I    between atoms: C_14  and  N_15 
REMARK    3  A    between atoms: N_15  and  C_16 
ROOT
HETATM    1  C   UNL     1      -3.403  -4.934 -33.840  1.00  0.00     0.048 C 
HETATM    2  C   UNL     1      -4.397  -3.827 -34.037  1.00  0.00    -0.061 A 
HETATM    3  C   UNL     1      -4.139  -2.539 -33.540  1.00  0.00     0.021 A 
HETATM    4  C   UNL     1      -5.081  -1.509 -33.739  1.00  0.00     0.005 A 
HETATM    5  C   UNL     1      -6.260  -1.798 -34.434  1.00  0.00     0.044 A 
HETATM    6  N   UNL     1      -7.001  -0.634 -34.497  1.00  0.00    -0.350 N 
HETATM    7  H   UNL     1      -7.902  -0.533 -34.948  1.00  0.00     0.166 HD
HETATM    8  C   UNL     1      -6.326   0.371 -33.867  1.00  0.00     0.116 A 
HETATM    9  C   UNL     1      -5.144  -0.137 -33.392  1.00  0.00     0.028 A 
HETATM   10  C   UNL     1      -6.716   1.742 -33.704  1.00  0.00     0.291 A 
HETATM   11  O   UNL     1      -7.764   2.194 -34.152  1.00  0.00    -0.264 OA
HETATM   12  N   UNL     1      -5.777   2.491 -32.968  1.00  0.00    -0.224 N 
HETATM   13  N   UNL     1      -4.543   1.987 -32.504  1.00  0.00    -0.180 NA
HETATM   14  C   UNL     1      -4.242   0.736 -32.698  1.00  0.00     0.153 A 
HETATM   15  C   UNL     1      -6.540  -3.073 -34.938  1.00  0.00     0.031 A 
HETATM   16  C   UNL     1      -5.588  -4.077 -34.727  1.00  0.00     0.009 A 
ENDROOT
BRANCH  12  17
HETATM   17  C   UNL     1      -5.967   3.929 -32.849  1.00  0.00     0.258 C 
BRANCH  17  18
HETATM   18  C   UNL     1      -4.764   4.878 -32.708  1.00  0.00     0.244 C 
HETATM   19  N   UNL     1      -4.320   5.296 -31.452  1.00  0.00    -0.320 N 
HETATM   20  C   UNL     1      -4.911   4.875 -30.186  1.00  0.00     0.159 C 
HETATM   21  O   UNL     1      -4.138   5.144 -33.746  1.00  0.00    -0.271 OA
BRANCH  19  22
HETATM   22  C   UNL     1      -3.063   5.971 -31.336  1.00  0.00     0.043 A 
HETATM   23  C   UNL     1      -2.987   7.369 -31.196  1.00  0.00    -0.035 A 
HETATM   24  C   UNL     1      -4.191   8.262 -31.317  1.00  0.00     0.050 C 
HETATM   25  C   UNL     1      -1.736   7.959 -30.949  1.00  0.00     0.009 A 
HETATM   26  C   UNL     1      -0.578   7.182 -30.869  1.00  0.00     0.007 A 
HETATM   27  C   UNL     1      -0.641   5.800 -31.049  1.00  0.00    -0.060 A 
HETATM   28  C   UNL     1       0.587   4.948 -30.931  1.00  0.00     0.048 C 
HETATM   29  C   UNL     1      -1.887   5.204 -31.281  1.00  0.00     0.037 A 
ENDBRANCH  19  22
ENDBRANCH  17  18
ENDBRANCH  12  17
TORSDOF 3
ENDMDL
MODEL 5
REMARK VINA RESULT:      -9.2      5.418      7.895
REMARK  3 active torsions:
REMARK  status: ('A' for Active; 'I' for Inactive)
REMARK    1  A    between atoms: N_12  and  C_13 
REMARK    2  A    between atoms: C_13  and  C_14 
REMARK       I    between atoms: C_14  and  N_15 
REMARK    3  A    between atoms: N_15  and  C_16 
ROOT
HETATM    1  C   UNL     1      -3.375  -4.920 -33.888  1.00  0.00     0.048 C 
HETATM    2  C   UNL     1      -3.751  -3.563 -33.368  1.00  0.00    -0.061 A 
HETATM    3  C   UNL     1      -4.792  -2.833 -33.965  1.00  0.00     0.021 A 
HETATM    4  C   UNL     1      -5.136  -1.562 -33.461  1.00  0.00     0.005 A 
HETATM    5  C   UNL     1      -4.425  -1.056 -32.367  1.00  0.00     0.044 A 
HETATM    6  N   UNL     1      -4.953   0.185 -32.068  1.00  0.00    -0.350 N 
HETATM    7  H   UNL     1      -4.646   0.790 -31.316  1.00  0.00     0.166 HD
HETATM    8  C   UNL     1      -5.968   0.471 -32.935  1.00  0.00     0.116 A 
HETATM    9  C   UNL     1      -6.102  -0.584 -33.801  1.00  0.00     0.028 A 
HETATM   10  C   UNL     1      -6.798   1.639 -32.983  1.00  0.00     0.291 A 
HETATM   11  O   UNL     1      -6.687   2.569 -32.190  1.00  0.00    -0.264 OA
HETATM   12  N   UNL     1      -7.730   1.603 -34.039  1.00  0.00    -0.224 N 
HETATM   13  N   UNL     1      -7.899   0.509 -34.914  1.00  0.00    -0.180 NA
HETATM   14  C   UNL     1      -7.122  -0.530 -34.808  1.00  0.00     0.153 A 
HETATM   15  C   UNL     1      -3.385  -1.763 -31.756  1.00  0.00     0.031 A 
HETATM   16  C   UNL     1      -3.063  -3.023 -32.276  1.00  0.00     0.009 A 
ENDROOT
BRANCH  12  17
HETATM   17  C   UNL     1      -8.735   2.651 -34.123  1.00  0.00     0.258 C 
BRANCH  17  18
HETATM   18  C   UNL     1     -10.093   2.505 -33.414  1.00  0.00     0.244 C 
HETATM   19  N   UNL     1     -11.222   3.187 -33.873  1.00  0.00    -0.320 N 
HETATM   20  C   UNL     1     -11.240   4.057 -35.043  1.00  0.00     0.159 C 
HETATM   21  O   UNL     1     -10.161   1.662 -32.506  1.00  0.00    -0.271 OA
BRANCH  19  22
HETATM   22  C   UNL     1     -12.511   2.846 -33.354  1.00  0.00     0.043 A 
HETATM   23  C   UNL     1     -13.059   3.513 -32.242  1.00  0.00    -0.035 A 
HETATM   24  C   UNL     1     -12.278   4.506 -31.428  1.00  0.00     0.050 C 
HETATM   25  C   UNL     1     -14.382   3.229 -31.866  1.00  0.00     0.009 A 
HETATM   26  C   UNL     1     -15.141   2.283 -32.559  1.00  0.00     0.007 A 
HETATM   27  C   UNL     1     -14.589   1.588 -33.636  1.00  0.00    -0.060 A 
HETATM   28  C   UNL     1     -15.402   0.596 -34.413  1.00  0.00     0.048 C 
HETATM   29  C   UNL     1     -13.276   1.877 -34.026  1.00  0.00     0.037 A 
ENDBRANCH  19  22
ENDBRANCH  17  18
ENDBRANCH  12  17
TORSDOF 3
ENDMDL
MODEL 6
REMARK VINA RESULT:      -9.0      5.817      7.915
REMARK  3 active torsions:
REMARK  status: ('A' for Active; 'I' for Inactive)
REMARK    1  A    between atoms: N_12  and  C_13 
REMARK    2  A    between atoms: C_13  and  C_14 
REMARK       I    between atoms: C_14  and  N_15 
REMARK    3  A    between atoms: N_15  and  C_16 
ROOT
HETATM    1  C   UNL     1      -5.619  -4.853 -35.062  1.00  0.00     0.048 C 
HETATM    2  C   UNL     1      -5.487  -3.444 -34.563  1.00  0.00    -0.061 A 
HETATM    3  C   UNL     1      -6.554  -2.539 -34.689  1.00  0.00     0.021 A 
HETATM    4  C   UNL     1      -6.416  -1.220 -34.210  1.00  0.00     0.005 A 
HETATM    5  C   UNL     1      -5.207  -0.843 -33.614  1.00  0.00     0.044 A 
HETATM    6  N   UNL     1      -5.329   0.478 -33.230  1.00  0.00    -0.350 N 
HETATM    7  H   UNL     1      -4.615   1.025 -32.764  1.00  0.00     0.166 HD
HETATM    8  C   UNL     1      -6.570   0.938 -33.564  1.00  0.00     0.116 A 
HETATM    9  C   UNL     1      -7.259  -0.084 -34.166  1.00  0.00     0.028 A 
HETATM   10  C   UNL     1      -7.129   2.241 -33.342  1.00  0.00     0.291 A 
HETATM   11  O   UNL     1      -6.515   3.142 -32.781  1.00  0.00    -0.264 OA
HETATM   12  N   UNL     1      -8.437   2.366 -33.849  1.00  0.00    -0.224 N 
HETATM   13  N   UNL     1      -9.166   1.313 -34.440  1.00  0.00    -0.180 NA
HETATM   14  C   UNL     1      -8.607   0.148 -34.599  1.00  0.00     0.153 A 
HETATM   15  C   UNL     1      -4.130  -1.725 -33.478  1.00  0.00     0.031 A 
HETATM   16  C   UNL     1      -4.294  -3.028 -33.962  1.00  0.00     0.009 A 
ENDROOT
BRANCH  12  17
HETATM   17  C   UNL     1      -9.184   3.583 -33.568  1.00  0.00     0.258 C 
BRANCH  17  18
HETATM   18  C   UNL     1     -10.612   3.522 -33.000  1.00  0.00     0.244 C 
HETATM   19  N   UNL     1     -11.725   3.656 -33.833  1.00  0.00    -0.320 N 
HETATM   20  C   UNL     1     -11.655   3.836 -35.279  1.00  0.00     0.159 C 
HETATM   21  O   UNL     1     -10.724   3.222 -31.801  1.00  0.00    -0.271 OA
BRANCH  19  22
HETATM   22  C   UNL     1     -13.028   3.352 -33.325  1.00  0.00     0.043 A 
HETATM   23  C   UNL     1     -13.546   2.043 -33.360  1.00  0.00    -0.035 A 
HETATM   24  C   UNL     1     -12.850   0.915 -34.069  1.00  0.00     0.050 C 
HETATM   25  C   UNL     1     -14.771   1.782 -32.724  1.00  0.00     0.009 A 
HETATM   26  C   UNL     1     -15.483   2.801 -32.087  1.00  0.00     0.007 A 
HETATM   27  C   UNL     1     -14.995   4.108 -32.084  1.00  0.00    -0.060 A 
HETATM   28  C   UNL     1     -15.729   5.206 -31.375  1.00  0.00     0.048 C 
HETATM   29  C   UNL     1     -13.767   4.373 -32.704  1.00  0.00     0.037 A 
ENDBRANCH  19  22
ENDBRANCH  17  18
ENDBRANCH  12  17
TORSDOF 3
ENDMDL
MODEL 7
REMARK VINA RESULT:      -8.9      1.919      2.755
REMARK  3 active torsions:
REMARK  status: ('A' for Active; 'I' for Inactive)
REMARK    1  A    between atoms: N_12  and  C_13 
REMARK    2  A    between atoms: C_13  and  C_14 
REMARK       I    between atoms: C_14  and  N_15 
REMARK    3  A    between atoms: N_15  and  C_16 
ROOT
HETATM    1  C   UNL     1      -3.396  -4.917 -33.833  1.00  0.00     0.048 C 
HETATM    2  C   UNL     1      -4.358  -3.780 -34.018  1.00  0.00    -0.061 A 
HETATM    3  C   UNL     1      -4.079  -2.513 -33.478  1.00  0.00     0.021 A 
HETATM    4  C   UNL     1      -4.991  -1.454 -33.666  1.00  0.00     0.005 A 
HETATM    5  C   UNL     1      -6.162  -1.694 -34.393  1.00  0.00     0.044 A 
HETATM    6  N   UNL     1      -6.872  -0.510 -34.437  1.00  0.00    -0.350 N 
HETATM    7  H   UNL     1      -7.761  -0.373 -34.903  1.00  0.00     0.166 HD
HETATM    8  C   UNL     1      -6.186   0.459 -33.764  1.00  0.00     0.116 A 
HETATM    9  C   UNL     1      -5.027  -0.092 -33.281  1.00  0.00     0.028 A 
HETATM   10  C   UNL     1      -6.545   1.834 -33.569  1.00  0.00     0.291 A 
HETATM   11  O   UNL     1      -7.572   2.326 -34.026  1.00  0.00    -0.264 OA
HETATM   12  N   UNL     1      -5.603   2.539 -32.794  1.00  0.00    -0.224 N 
HETATM   13  N   UNL     1      -4.393   1.990 -32.320  1.00  0.00    -0.180 NA
HETATM   14  C   UNL     1      -4.118   0.738 -32.544  1.00  0.00     0.153 A 
HETATM   15  C   UNL     1      -6.463  -2.946 -34.939  1.00  0.00     0.031 A 
HETATM   16  C   UNL     1      -5.541  -3.980 -34.738  1.00  0.00     0.009 A 
ENDROOT
BRANCH  12  17
HETATM   17  C   UNL     1      -5.760   3.976 -32.637  1.00  0.00     0.258 C 
BRANCH  17  18
HETATM   18  C   UNL     1      -4.783   4.790 -31.770  1.00  0.00     0.244 C 
HETATM   19  N   UNL     1      -3.800   5.592 -32.352  1.00  0.00    -0.320 N 
HETATM   20  C   UNL     1      -3.616   5.757 -33.790  1.00  0.00     0.159 C 
HETATM   21  O   UNL     1      -4.995   4.797 -30.547  1.00  0.00    -0.271 OA
BRANCH  19  22
HETATM   22  C   UNL     1      -3.073   6.519 -31.540  1.00  0.00     0.043 A 
HETATM   23  C   UNL     1      -1.795   6.215 -31.036  1.00  0.00    -0.035 A 
HETATM   24  C   UNL     1      -1.173   4.853 -31.175  1.00  0.00     0.050 C 
HETATM   25  C   UNL     1      -1.075   7.216 -30.362  1.00  0.00     0.009 A 
HETATM   26  C   UNL     1      -1.621   8.486 -30.166  1.00  0.00     0.007 A 
HETATM   27  C   UNL     1      -2.905   8.781 -30.626  1.00  0.00    -0.060 A 
HETATM   28  C   UNL     1      -3.491  10.150 -30.456  1.00  0.00     0.048 C 
HETATM   29  C   UNL     1      -3.622   7.793 -31.312  1.00  0.00     0.037 A 
ENDBRANCH  19  22
ENDBRANCH  17  18
ENDBRANCH  12  17
TORSDOF 3
ENDMDL
MODEL 8
REMARK VINA RESULT:      -8.7      1.793      2.570
REMARK  3 active torsions:
REMARK  status: ('A' for Active; 'I' for Inactive)
REMARK    1  A    between atoms: N_12  and  C_13 
REMARK    2  A    between atoms: C_13  and  C_14 
REMARK       I    between atoms: C_14  and  N_15 
REMARK    3  A    between atoms: N_15  and  C_16 
ROOT
HETATM    1  C   UNL     1      -6.584  -4.520 -35.637  1.00  0.00     0.048 C 
HETATM    2  C   UNL     1      -5.926  -3.402 -34.882  1.00  0.00    -0.061 A 
HETATM    3  C   UNL     1      -6.581  -2.172 -34.713  1.00  0.00     0.021 A 
HETATM    4  C   UNL     1      -5.950  -1.134 -33.995  1.00  0.00     0.005 A 
HETATM    5  C   UNL     1      -4.676  -1.360 -33.464  1.00  0.00     0.044 A 
HETATM    6  N   UNL     1      -4.289  -0.206 -32.811  1.00  0.00    -0.350 N 
HETATM    7  H   UNL     1      -3.413  -0.072 -32.321  1.00  0.00     0.166 HD
HETATM    8  C   UNL     1      -5.276   0.732 -32.917  1.00  0.00     0.116 A 
HETATM    9  C   UNL     1      -6.308   0.189 -33.638  1.00  0.00     0.028 A 
HETATM   10  C   UNL     1      -5.303   2.062 -32.382  1.00  0.00     0.291 A 
HETATM   11  O   UNL     1      -4.386   2.532 -31.717  1.00  0.00    -0.264 OA
HETATM   12  N   UNL     1      -6.480   2.760 -32.716  1.00  0.00    -0.224 N 
HETATM   13  N   UNL     1      -7.562   2.200 -33.428  1.00  0.00    -0.180 NA
HETATM   14  C   UNL     1      -7.481   0.980 -33.874  1.00  0.00     0.153 A 
HETATM   15  C   UNL     1      -4.003  -2.576 -33.618  1.00  0.00     0.031 A 
HETATM   16  C   UNL     1      -4.651  -3.589 -34.335  1.00  0.00     0.009 A 
ENDROOT
BRANCH  12  17
HETATM   17  C   UNL     1      -6.713   4.067 -32.121  1.00  0.00     0.258 C 
BRANCH  17  18
HETATM   18  C   UNL     1      -5.675   5.194 -32.254  1.00  0.00     0.244 C 
HETATM   19  N   UNL     1      -5.049   5.733 -31.128  1.00  0.00    -0.320 N 
HETATM   20  C   UNL     1      -5.285   5.285 -29.760  1.00  0.00     0.159 C 
HETATM   21  O   UNL     1      -5.332   5.504 -33.405  1.00  0.00    -0.271 OA
BRANCH  19  22
HETATM   22  C   UNL     1      -3.920   6.597 -31.294  1.00  0.00     0.043 A 
HETATM   23  C   UNL     1      -4.047   7.997 -31.229  1.00  0.00    -0.035 A 
HETATM   24  C   UNL     1      -5.380   8.686 -31.144  1.00  0.00     0.050 C 
HETATM   25  C   UNL     1      -2.884   8.786 -31.262  1.00  0.00     0.009 A 
HETATM   26  C   UNL     1      -1.622   8.201 -31.384  1.00  0.00     0.007 A 
HETATM   27  C   UNL     1      -1.492   6.816 -31.491  1.00  0.00    -0.060 A 
HETATM   28  C   UNL     1      -0.142   6.171 -31.586  1.00  0.00     0.048 C 
HETATM   29  C   UNL     1      -2.646   6.023 -31.444  1.00  0.00     0.037 A 
ENDBRANCH  19  22
ENDBRANCH  17  18
ENDBRANCH  12  17
TORSDOF 3
ENDMDL
MODEL 9
REMARK VINA RESULT:      -8.6      5.241      6.710
REMARK  3 active torsions:
REMARK  status: ('A' for Active; 'I' for Inactive)
REMARK    1  A    between atoms: N_12  and  C_13 
REMARK    2  A    between atoms: C_13  and  C_14 
REMARK       I    between atoms: C_14  and  N_15 
REMARK    3  A    between atoms: N_15  and  C_16 
ROOT
HETATM    1  C   UNL     1      -6.162  -4.817 -35.373  1.00  0.00     0.048 C 
HETATM    2  C   UNL     1      -5.804  -3.486 -34.778  1.00  0.00    -0.061 A 
HETATM    3  C   UNL     1      -6.737  -2.436 -34.764  1.00  0.00     0.021 A 
HETATM    4  C   UNL     1      -6.386  -1.193 -34.197  1.00  0.00     0.005 A 
HETATM    5  C   UNL     1      -5.105  -1.037 -33.655  1.00  0.00     0.044 A 
HETATM    6  N   UNL     1      -5.017   0.251 -33.165  1.00  0.00    -0.350 N 
HETATM    7  H   UNL     1      -4.208   0.653 -32.707  1.00  0.00     0.166 HD
HETATM    8  C   UNL     1      -6.196   0.904 -33.381  1.00  0.00     0.116 A 
HETATM    9  C   UNL     1      -7.055   0.041 -34.012  1.00  0.00     0.028 A 
HETATM   10  C   UNL     1      -6.551   2.247 -33.025  1.00  0.00     0.291 A 
HETATM   11  O   UNL     1      -5.785   3.005 -32.439  1.00  0.00    -0.264 OA
HETATM   12  N   UNL     1      -7.853   2.594 -33.434  1.00  0.00    -0.224 N 
HETATM   13  N   UNL     1      -8.756   1.704 -34.054  1.00  0.00    -0.180 NA
HETATM   14  C   UNL     1      -8.378   0.491 -34.337  1.00  0.00     0.153 A 
HETATM   15  C   UNL     1      -4.159  -2.067 -33.657  1.00  0.00     0.031 A 
HETATM   16  C   UNL     1      -4.533  -3.290 -34.227  1.00  0.00     0.009 A 
ENDROOT
BRANCH  12  17
HETATM   17  C   UNL     1      -8.403   3.873 -33.013  1.00  0.00     0.258 C 
BRANCH  17  18
HETATM   18  C   UNL     1      -9.436   4.615 -33.878  1.00  0.00     0.244 C 
HETATM   19  N   UNL     1     -10.790   4.623 -33.537  1.00  0.00    -0.320 N 
HETATM   20  C   UNL     1     -11.345   3.974 -32.354  1.00  0.00     0.159 C 
HETATM   21  O   UNL     1      -8.992   5.305 -34.810  1.00  0.00    -0.271 OA
BRANCH  19  22
HETATM   22  C   UNL     1     -11.683   5.515 -34.211  1.00  0.00     0.043 A 
HETATM   23  C   UNL     1     -12.489   5.082 -35.281  1.00  0.00    -0.035 A 
HETATM   24  C   UNL     1     -12.357   3.716 -35.893  1.00  0.00     0.050 C 
HETATM   25  C   UNL     1     -13.443   5.967 -35.811  1.00  0.00     0.009 A 
HETATM   26  C   UNL     1     -13.580   7.263 -35.310  1.00  0.00     0.007 A 
HETATM   27  C   UNL     1     -12.756   7.711 -34.278  1.00  0.00    -0.060 A 
HETATM   28  C   UNL     1     -12.914   9.088 -33.705  1.00  0.00     0.048 C 
HETATM   29  C   UNL     1     -11.812   6.831 -33.735  1.00  0.00     0.037 A 
ENDBRANCH  19  22
ENDBRANCH  17  18
ENDBRANCH  12  17
TORSDOF 3
ENDMDL
MODEL 10
REMARK VINA RESULT:      -8.4      2.950      4.274
REMARK  3 active torsions:
REMARK  status: ('A' for Active; 'I' for Inactive)
REMARK    1  A    between atoms: N_12  and  C_13 
REMARK    2  A    between atoms: C_13  and  C_14 
REMARK       I    between atoms: C_14  and  N_15 
REMARK    3  A    between atoms: N_15  and  C_16 
ROOT
HETATM    1  C   UNL     1      -6.423  -4.687 -35.665  1.00  0.00     0.048 C 
HETATM    2  C   UNL     1      -5.586  -3.802 -34.788  1.00  0.00    -0.061 A 
HETATM    3  C   UNL     1      -5.922  -2.450 -34.612  1.00  0.00     0.021 A 
HETATM    4  C   UNL     1      -5.128  -1.633 -33.780  1.00  0.00     0.005 A 
HETATM    5  C   UNL     1      -4.016  -2.196 -33.145  1.00  0.00     0.044 A 
HETATM    6  N   UNL     1      -3.420  -1.202 -32.394  1.00  0.00    -0.350 N 
HETATM    7  H   UNL     1      -2.596  -1.314 -31.816  1.00  0.00     0.166 HD
HETATM    8  C   UNL     1      -4.120  -0.039 -32.538  1.00  0.00     0.116 A 
HETATM    9  C   UNL     1      -5.175  -0.274 -33.383  1.00  0.00     0.028 A 
HETATM   10  C   UNL     1      -3.866   1.236 -31.933  1.00  0.00     0.291 A 
HETATM   11  O   UNL     1      -2.934   1.433 -31.159  1.00  0.00    -0.264 OA
HETATM   12  N   UNL     1      -4.786   2.224 -32.335  1.00  0.00    -0.224 N 
HETATM   13  N   UNL     1      -5.893   1.985 -33.177  1.00  0.00    -0.180 NA
HETATM   14  C   UNL     1      -6.076   0.800 -33.683  1.00  0.00     0.153 A 
HETATM   15  C   UNL     1      -3.661  -3.539 -33.305  1.00  0.00     0.031 A 
HETATM   16  C   UNL     1      -4.466  -4.328 -34.136  1.00  0.00     0.009 A 
ENDROOT
BRANCH  12  17
HETATM   17  C   UNL     1      -4.741   3.528 -31.691  1.00  0.00     0.258 C 
BRANCH  17  18
HETATM   18  C   UNL     1      -5.994   4.417 -31.614  1.00  0.00     0.244 C 
HETATM   19  N   UNL     1      -7.069   4.077 -30.790  1.00  0.00    -0.320 N 
HETATM   20  C   UNL     1      -7.106   2.901 -29.927  1.00  0.00     0.159 C 
HETATM   21  O   UNL     1      -5.947   5.502 -32.214  1.00  0.00    -0.271 OA
BRANCH  19  22
HETATM   22  C   UNL     1      -8.104   5.035 -30.549  1.00  0.00     0.043 A 
HETATM   23  C   UNL     1      -9.266   5.080 -31.343  1.00  0.00    -0.035 A 
HETATM   24  C   UNL     1      -9.433   4.246 -32.583  1.00  0.00     0.050 C 
HETATM   25  C   UNL     1     -10.306   5.949 -30.974  1.00  0.00     0.009 A 
HETATM   26  C   UNL     1     -10.189   6.778 -29.856  1.00  0.00     0.007 A 
HETATM   27  C   UNL     1      -9.022   6.769 -29.090  1.00  0.00    -0.060 A 
HETATM   28  C   UNL     1      -8.894   7.627 -27.867  1.00  0.00     0.048 C 
HETATM   29  C   UNL     1      -7.988   5.894 -29.444  1.00  0.00     0.037 A 
ENDBRANCH  19  22
ENDBRANCH  17  18
ENDBRANCH  12  17
TORSDOF 3
ENDMDL
