MODEL 1
REMARK VINA RESULT:      -9.6      0.000      0.000
REMARK  6 active torsions:
REMARK  status: ('A' for Active; 'I' for Inactive)
REMARK    1  A    between atoms: O_2  and  C_3 
REMARK    2  A    between atoms: C_5  and  N_6 
REMARK    3  A    between atoms: C_8  and  C_9 
REMARK    4  A    between atoms: C_9  and  N_10 
REMARK       I    between atoms: N_10  and  C_11 
REMARK       I    between atoms: C_11  and  N_12 
REMARK    5  A    between atoms: N_12  and  C_13 
REMARK    6  A    between atoms: C_13  and  C_14 
ROOT
HETATM    1  N   UNL     1      -5.506   4.169 -34.409  1.00  0.00    -0.343 N 
HETATM    2  C   UNL     1      -6.060   3.239 -33.570  1.00  0.00     0.316 C 
HETATM    3  N   UNL     1      -6.630   2.210 -34.268  1.00  0.00    -0.339 N 
HETATM    4  O   UNL     1      -6.059   3.331 -32.350  1.00  0.00    -0.248 OA
HETATM    5  H   UNL     1      -5.795   4.139 -35.374  1.00  0.00     0.164 HD
HETATM    6  H   UNL     1      -6.301   2.048 -35.206  1.00  0.00     0.164 HD
ENDROOT
BRANCH   1   7
HETATM    7  C   UNL     1      -4.938   5.410 -33.913  1.00  0.00     0.130 C 
BRANCH   7   8
HETATM    8  C   UNL     1      -3.475   5.249 -33.517  1.00  0.00     0.023 C 
HETATM    9  C   UNL     1      -3.219   5.606 -32.048  1.00  0.00     0.129 C 
HETATM   10  N   UNL     1      -1.797   5.945 -32.013  1.00  0.00    -0.380 N 
HETATM   11  C   UNL     1      -1.261   6.117 -33.363  1.00  0.00     0.123 C 
HETATM   12  C   UNL     1      -2.505   6.176 -34.246  1.00  0.00     0.028 C 
BRANCH  10  13
HETATM   13  C   UNL     1      -1.018   5.894 -30.878  1.00  0.00     0.032 A 
HETATM   14  C   UNL     1      -1.325   6.654 -29.733  1.00  0.00     0.066 A 
HETATM   15  C   UNL     1      -0.544   6.599 -28.570  1.00  0.00     0.070 A 
HETATM   16  C   UNL     1       0.571   5.766 -28.535  1.00  0.00     0.037 A 
HETATM   17  C   UNL     1       0.913   5.013 -29.651  1.00  0.00     0.005 A 
HETATM   18  C   UNL     1       0.130   5.086 -30.806  1.00  0.00     0.029 A 
BRANCH  15  19
HETATM   19  O   UNL     1      -0.768   7.298 -27.415  1.00  0.00    -0.356 OA
HETATM   20  C   UNL     1      -1.319   6.577 -26.322  1.00  0.00     0.210 C 
ENDBRANCH  15  19
ENDBRANCH  10  13
ENDBRANCH   7   8
ENDBRANCH   1   7
BRANCH   3  21
HETATM   21  C   UNL     1      -7.256   1.093 -33.595  1.00  0.00     0.162 C 
BRANCH  21  22
HETATM   22  C   UNL     1      -6.434  -0.164 -33.731  1.00  0.00    -0.040 A 
HETATM   23  C   UNL     1      -6.999  -1.334 -34.260  1.00  0.00     0.021 A 
HETATM   24  C   UNL     1      -6.252  -2.520 -34.373  1.00  0.00    -0.025 A 
HETATM   25  C   UNL     1      -4.904  -2.531 -33.950  1.00  0.00    -0.026 A 
HETATM   26  C   UNL     1      -6.817  -3.696 -34.893  1.00  0.00     0.012 A 
HETATM   27  C   UNL     1      -4.342  -1.359 -33.420  1.00  0.00     0.013 A 
HETATM   28  C   UNL     1      -4.158  -3.715 -34.060  1.00  0.00     0.012 A 
HETATM   29  C   UNL     1      -5.100  -0.192 -33.306  1.00  0.00     0.010 A 
HETATM   30  C   UNL     1      -4.735  -4.876 -34.579  1.00  0.00     0.001 A 
HETATM   31  C   UNL     1      -6.063  -4.867 -34.994  1.00  0.00     0.001 A 
ENDBRANCH  21  22
ENDBRANCH   3  21
TORSDOF 6
ENDMDL
MODEL 2
REMARK VINA RESULT:      -9.4      1.971      2.481
REMARK  6 active torsions:
REMARK  status: ('A' for Active; 'I' for Inactive)
REMARK    1  A    between atoms: O_2  and  C_3 
REMARK    2  A    between atoms: C_5  and  N_6 
REMARK    3  A    between atoms: C_8  and  C_9 
REMARK    4  A    between atoms: C_9  and  N_10 
REMARK       I    between atoms: N_10  and  C_11 
REMARK       I    between atoms: C_11  and  N_12 
REMARK    5  A    between atoms: N_12  and  C_13 
REMARK    6  A    between atoms: C_13  and  C_14 
ROOT
HETATM    1  N   UNL     1      -3.767   3.943 -31.881  1.00  0.00    -0.343 N 
HETATM    2  C   UNL     1      -4.657   3.398 -32.769  1.00  0.00     0.316 C 
HETATM    3  N   UNL     1      -5.093   2.171 -32.353  1.00  0.00    -0.339 N 
HETATM    4  O   UNL     1      -5.001   3.938 -33.812  1.00  0.00    -0.248 OA
HETATM    5  H   UNL     1      -3.352   3.313 -31.211  1.00  0.00     0.164 HD
HETATM    6  H   UNL     1      -5.028   1.965 -31.369  1.00  0.00     0.164 HD
ENDROOT
BRANCH   1   7
HETATM    7  C   UNL     1      -3.077   5.191 -32.153  1.00  0.00     0.130 C 
BRANCH   7   8
HETATM    8  C   UNL     1      -1.902   5.410 -31.208  1.00  0.00     0.023 C 
HETATM    9  C   UNL     1      -1.990   6.745 -30.458  1.00  0.00     0.129 C 
HETATM   10  N   UNL     1      -0.603   7.030 -30.089  1.00  0.00    -0.380 N 
HETATM   11  C   UNL     1       0.325   6.156 -30.807  1.00  0.00     0.123 C 
HETATM   12  C   UNL     1      -0.540   5.513 -31.888  1.00  0.00     0.028 C 
BRANCH  10  13
HETATM   13  C   UNL     1      -0.234   7.855 -29.050  1.00  0.00     0.032 A 
HETATM   14  C   UNL     1      -1.147   8.741 -28.446  1.00  0.00     0.066 A 
HETATM   15  C   UNL     1      -0.783   9.575 -27.380  1.00  0.00     0.070 A 
HETATM   16  C   UNL     1       0.521   9.532 -26.894  1.00  0.00     0.037 A 
HETATM   17  C   UNL     1       1.454   8.683 -27.477  1.00  0.00     0.005 A 
HETATM   18  C   UNL     1       1.077   7.864 -28.545  1.00  0.00     0.029 A 
BRANCH  15  19
HETATM   19  O   UNL     1      -1.601  10.461 -26.733  1.00  0.00    -0.356 OA
HETATM   20  C   UNL     1      -1.024  11.219 -25.679  1.00  0.00     0.210 C 
ENDBRANCH  15  19
ENDBRANCH  10  13
ENDBRANCH   7   8
ENDBRANCH   1   7
BRANCH   3  21
HETATM   21  C   UNL     1      -6.061   1.411 -33.115  1.00  0.00     0.162 C 
BRANCH  21  22
HETATM   22  C   UNL     1      -5.574   0.010 -33.385  1.00  0.00    -0.040 A 
HETATM   23  C   UNL     1      -6.419  -0.938 -33.980  1.00  0.00     0.021 A 
HETATM   24  C   UNL     1      -5.987  -2.255 -34.218  1.00  0.00    -0.025 A 
HETATM   25  C   UNL     1      -4.674  -2.628 -33.853  1.00  0.00    -0.026 A 
HETATM   26  C   UNL     1      -6.833  -3.210 -34.805  1.00  0.00     0.012 A 
HETATM   27  C   UNL     1      -3.831  -1.678 -33.256  1.00  0.00     0.013 A 
HETATM   28  C   UNL     1      -4.242  -3.944 -34.088  1.00  0.00     0.012 A 
HETATM   29  C   UNL     1      -4.278  -0.376 -33.019  1.00  0.00     0.010 A 
HETATM   30  C   UNL     1      -5.096  -4.881 -34.673  1.00  0.00     0.001 A 
HETATM   31  C   UNL     1      -6.390  -4.515 -35.030  1.00  0.00     0.001 A 
ENDBRANCH  21  22
ENDBRANCH   3  21
TORSDOF 6
ENDMDL
MODEL 3
REMARK VINA RESULT:      -9.2      4.642      8.860
REMARK  6 active torsions:
REMARK  status: ('A' for Active; 'I' for Inactive)
REMARK    1  A    between atoms: O_2  and  C_3 
REMARK    2  A    between atoms: C_5  and  N_6 
REMARK    3  A    between atoms: C_8  and  C_9 
REMARK    4  A    between atoms: C_9  and  N_10 
REMARK       I    between atoms: N_10  and  C_11 
REMARK       I    between atoms: C_11  and  N_12 
REMARK    5  A    between atoms: N_12  and  C_13 
REMARK    6  A    between atoms: C_13  and  C_14 
ROOT
HETATM    1  N   UNL     1      -7.394   4.122 -33.102  1.00  0.00    -0.343 N 
HETATM    2  C   UNL     1      -6.640   3.171 -32.468  1.00  0.00     0.316 C 
HETATM    3  N   UNL     1      -5.924   2.421 -33.360  1.00  0.00    -0.339 N 
HETATM    4  O   UNL     1      -6.626   3.004 -31.256  1.00  0.00    -0.248 OA
HETATM    5  H   UNL     1      -7.542   3.998 -34.092  1.00  0.00     0.164 HD
HETATM    6  H   UNL     1      -5.738   2.828 -34.263  1.00  0.00     0.164 HD
ENDROOT
BRANCH   1   7
HETATM    7  C   UNL     1      -8.326   4.971 -32.382  1.00  0.00     0.130 C 
BRANCH   7   8
HETATM    8  C   UNL     1      -9.744   4.854 -32.929  1.00  0.00     0.023 C 
HETATM    9  C   UNL     1     -10.342   3.458 -32.720  1.00  0.00     0.129 C 
HETATM   10  N   UNL     1     -11.377   3.364 -33.750  1.00  0.00    -0.380 N 
HETATM   11  C   UNL     1     -11.242   4.438 -34.734  1.00  0.00     0.123 C 
HETATM   12  C   UNL     1      -9.867   5.034 -34.439  1.00  0.00     0.028 C 
BRANCH  10  13
HETATM   13  C   UNL     1     -12.459   2.514 -33.683  1.00  0.00     0.032 A 
HETATM   14  C   UNL     1     -13.484   2.692 -32.734  1.00  0.00     0.066 A 
HETATM   15  C   UNL     1     -14.595   1.839 -32.668  1.00  0.00     0.070 A 
HETATM   16  C   UNL     1     -14.697   0.780 -33.566  1.00  0.00     0.037 A 
HETATM   17  C   UNL     1     -13.696   0.564 -34.505  1.00  0.00     0.005 A 
HETATM   18  C   UNL     1     -12.591   1.418 -34.552  1.00  0.00     0.029 A 
BRANCH  15  19
HETATM   19  O   UNL     1     -15.635   1.938 -31.785  1.00  0.00    -0.356 OA
HETATM   20  C   UNL     1     -16.782   2.657 -32.218  1.00  0.00     0.210 C 
ENDBRANCH  15  19
ENDBRANCH  10  13
ENDBRANCH   7   8
ENDBRANCH   1   7
BRANCH   3  21
HETATM   21  C   UNL     1      -5.032   1.370 -32.923  1.00  0.00     0.162 C 
BRANCH  21  22
HETATM   22  C   UNL     1      -5.463   0.025 -33.450  1.00  0.00    -0.040 A 
HETATM   23  C   UNL     1      -4.605  -1.082 -33.374  1.00  0.00     0.021 A 
HETATM   24  C   UNL     1      -4.984  -2.337 -33.881  1.00  0.00    -0.025 A 
HETATM   25  C   UNL     1      -6.258  -2.487 -34.475  1.00  0.00    -0.026 A 
HETATM   26  C   UNL     1      -4.124  -3.446 -33.815  1.00  0.00     0.012 A 
HETATM   27  C   UNL     1      -7.113  -1.377 -34.551  1.00  0.00     0.013 A 
HETATM   28  C   UNL     1      -6.636  -3.740 -34.984  1.00  0.00     0.012 A 
HETATM   29  C   UNL     1      -6.718  -0.135 -34.050  1.00  0.00     0.010 A 
HETATM   30  C   UNL     1      -5.769  -4.831 -34.911  1.00  0.00     0.001 A 
HETATM   31  C   UNL     1      -4.514  -4.684 -34.328  1.00  0.00     0.001 A 
ENDBRANCH  21  22
ENDBRANCH   3  21
TORSDOF 6
ENDMDL
MODEL 4
REMARK VINA RESULT:      -9.1      2.106      3.264
REMARK  6 active torsions:
REMARK  status: ('A' for Active; 'I' for Inactive)
REMARK    1  A    between atoms: O_2  and  C_3 
REMARK    2  A    between atoms: C_5  and  N_6 
REMARK    3  A    between atoms: C_8  and  C_9 
REMARK    4  A    between atoms: C_9  and  N_10 
REMARK       I    between atoms: N_10  and  C_11 
REMARK       I    between atoms: C_11  and  N_12 
REMARK    5  A    between atoms: N_12  and  C_13 
REMARK    6  A    between atoms: C_13  and  C_14 
ROOT
HETATM    1  N   UNL     1      -1.708   4.535 -31.793  1.00  0.00    -0.343 N 
HETATM    2  C   UNL     1      -2.988   4.098 -32.012  1.00  0.00     0.316 C 
HETATM    3  N   UNL     1      -3.283   3.007 -31.242  1.00  0.00    -0.339 N 
HETATM    4  O   UNL     1      -3.760   4.611 -32.810  1.00  0.00    -0.248 OA
HETATM    5  H   UNL     1      -1.082   3.892 -31.333  1.00  0.00     0.164 HD
HETATM    6  H   UNL     1      -2.738   2.867 -30.406  1.00  0.00     0.164 HD
ENDROOT
BRANCH   1   7
HETATM    7  C   UNL     1      -1.120   5.611 -32.571  1.00  0.00     0.130 C 
BRANCH   7   8
HETATM    8  C   UNL     1      -0.918   6.871 -31.739  1.00  0.00     0.023 C 
HETATM    9  C   UNL     1      -0.396   6.569 -30.330  1.00  0.00     0.129 C 
HETATM   10  N   UNL     1      -0.801   7.738 -29.549  1.00  0.00    -0.380 N 
HETATM   11  C   UNL     1      -1.769   8.553 -30.283  1.00  0.00     0.123 C 
HETATM   12  C   UNL     1      -2.191   7.662 -31.448  1.00  0.00     0.028 C 
BRANCH  10  13
HETATM   13  C   UNL     1      -0.193   8.134 -28.378  1.00  0.00     0.032 A 
HETATM   14  C   UNL     1      -0.937   8.438 -27.222  1.00  0.00     0.066 A 
HETATM   15  C   UNL     1      -0.325   8.830 -26.023  1.00  0.00     0.070 A 
HETATM   16  C   UNL     1       1.062   8.923 -25.963  1.00  0.00     0.037 A 
HETATM   17  C   UNL     1       1.828   8.647 -27.089  1.00  0.00     0.005 A 
HETATM   18  C   UNL     1       1.202   8.265 -28.279  1.00  0.00     0.029 A 
BRANCH  15  19
HETATM   19  O   UNL     1      -0.967   9.140 -24.855  1.00  0.00    -0.356 OA
HETATM   20  C   UNL     1      -2.380   8.989 -24.836  1.00  0.00     0.210 C 
ENDBRANCH  15  19
ENDBRANCH  10  13
ENDBRANCH   7   8
ENDBRANCH   1   7
BRANCH   3  21
HETATM   21  C   UNL     1      -4.588   2.383 -31.280  1.00  0.00     0.162 C 
BRANCH  21  22
HETATM   22  C   UNL     1      -4.565   1.101 -32.073  1.00  0.00    -0.040 A 
HETATM   23  C   UNL     1      -5.747   0.570 -32.610  1.00  0.00     0.021 A 
HETATM   24  C   UNL     1      -5.744  -0.636 -33.332  1.00  0.00    -0.025 A 
HETATM   25  C   UNL     1      -4.525  -1.325 -33.524  1.00  0.00    -0.026 A 
HETATM   26  C   UNL     1      -6.927  -1.176 -33.864  1.00  0.00     0.012 A 
HETATM   27  C   UNL     1      -3.344  -0.792 -32.984  1.00  0.00     0.013 A 
HETATM   28  C   UNL     1      -4.522  -2.530 -34.244  1.00  0.00     0.012 A 
HETATM   29  C   UNL     1      -3.365   0.403 -32.262  1.00  0.00     0.010 A 
HETATM   30  C   UNL     1      -5.707  -3.053 -34.765  1.00  0.00     0.001 A 
HETATM   31  C   UNL     1      -6.908  -2.377 -34.575  1.00  0.00     0.001 A 
ENDBRANCH  21  22
ENDBRANCH   3  21
TORSDOF 6
ENDMDL
MODEL 5
REMARK VINA RESULT:      -9.0      2.934     11.449
REMARK  6 active torsions:
REMARK  status: ('A' for Active; 'I' for Inactive)
REMARK    1  A    between atoms: O_2  and  C_3 
REMARK    2  A    between atoms: C_5  and  N_6 
REMARK    3  A    between atoms: C_8  and  C_9 
REMARK    4  A    between atoms: C_9  and  N_10 
REMARK       I    between atoms: N_10  and  C_11 
REMARK       I    between atoms: C_11  and  N_12 
REMARK    5  A    between atoms: N_12  and  C_13 
REMARK    6  A    between atoms: C_13  and  C_14 
ROOT
HETATM    1  N   UNL     1      -3.076   4.796 -30.853  1.00  0.00    -0.343 N 
HETATM    2  C   UNL     1      -1.972   5.553 -31.145  1.00  0.00     0.316 C 
HETATM    3  N   UNL     1      -1.282   5.891 -30.013  1.00  0.00    -0.339 N 
HETATM    4  O   UNL     1      -1.656   5.896 -32.276  1.00  0.00    -0.248 OA
HETATM    5  H   UNL     1      -3.390   4.802 -29.895  1.00  0.00     0.164 HD
HETATM    6  H   UNL     1      -1.411   5.310 -29.200  1.00  0.00     0.164 HD
ENDROOT
BRANCH   1   7
HETATM    7  C   UNL     1      -4.031   4.406 -31.875  1.00  0.00     0.130 C 
BRANCH   7   8
HETATM    8  C   UNL     1      -3.781   2.989 -32.378  1.00  0.00     0.023 C 
HETATM    9  C   UNL     1      -5.065   2.295 -32.846  1.00  0.00     0.129 C 
HETATM   10  N   UNL     1      -4.752   0.870 -32.736  1.00  0.00    -0.380 N 
HETATM   11  C   UNL     1      -3.528   0.657 -31.965  1.00  0.00     0.123 C 
HETATM   12  C   UNL     1      -3.255   2.016 -31.326  1.00  0.00     0.028 C 
BRANCH  10  13
HETATM   13  C   UNL     1      -5.398  -0.120 -33.443  1.00  0.00     0.032 A 
HETATM   14  C   UNL     1      -4.862  -1.417 -33.561  1.00  0.00     0.066 A 
HETATM   15  C   UNL     1      -5.520  -2.433 -34.268  1.00  0.00     0.070 A 
HETATM   16  C   UNL     1      -6.742  -2.162 -34.875  1.00  0.00     0.037 A 
HETATM   17  C   UNL     1      -7.293  -0.889 -34.794  1.00  0.00     0.005 A 
HETATM   18  C   UNL     1      -6.622   0.116 -34.092  1.00  0.00     0.029 A 
BRANCH  15  19
HETATM   19  O   UNL     1      -5.076  -3.717 -34.432  1.00  0.00    -0.356 OA
HETATM   20  C   UNL     1      -5.938  -4.614 -35.120  1.00  0.00     0.210 C 
ENDBRANCH  15  19
ENDBRANCH  10  13
ENDBRANCH   7   8
ENDBRANCH   1   7
BRANCH   3  21
HETATM   21  C   UNL     1      -0.063   6.667 -30.072  1.00  0.00     0.162 C 
BRANCH  21  22
HETATM   22  C   UNL     1       0.010   7.666 -28.944  1.00  0.00    -0.040 A 
HETATM   23  C   UNL     1       1.069   7.630 -28.025  1.00  0.00     0.021 A 
HETATM   24  C   UNL     1       1.139   8.541 -26.956  1.00  0.00    -0.025 A 
HETATM   25  C   UNL     1       0.125   9.514 -26.808  1.00  0.00    -0.026 A 
HETATM   26  C   UNL     1       2.193   8.503 -26.027  1.00  0.00     0.012 A 
HETATM   27  C   UNL     1      -0.933   9.546 -27.730  1.00  0.00     0.013 A 
HETATM   28  C   UNL     1       0.194  10.423 -25.740  1.00  0.00     0.012 A 
HETATM   29  C   UNL     1      -0.993   8.630 -28.781  1.00  0.00     0.010 A 
HETATM   30  C   UNL     1       1.248  10.370 -24.826  1.00  0.00     0.001 A 
HETATM   31  C   UNL     1       2.245   9.411 -24.968  1.00  0.00     0.001 A 
ENDBRANCH  21  22
ENDBRANCH   3  21
TORSDOF 6
ENDMDL
MODEL 6
REMARK VINA RESULT:      -9.0      2.168     10.099
REMARK  6 active torsions:
REMARK  status: ('A' for Active; 'I' for Inactive)
REMARK    1  A    between atoms: O_2  and  C_3 
REMARK    2  A    between atoms: C_5  and  N_6 
REMARK    3  A    between atoms: C_8  and  C_9 
REMARK    4  A    between atoms: C_9  and  N_10 
REMARK       I    between atoms: N_10  and  C_11 
REMARK       I    between atoms: C_11  and  N_12 
REMARK    5  A    between atoms: N_12  and  C_13 
REMARK    6  A    between atoms: C_13  and  C_14 
ROOT
HETATM    1  N   UNL     1      -5.089   4.133 -31.784  1.00  0.00    -0.343 N 
HETATM    2  C   UNL     1      -3.732   3.963 -31.857  1.00  0.00     0.316 C 
HETATM    3  N   UNL     1      -3.137   4.978 -32.555  1.00  0.00    -0.339 N 
HETATM    4  O   UNL     1      -3.134   3.012 -31.374  1.00  0.00    -0.248 OA
HETATM    5  H   UNL     1      -5.501   4.786 -32.434  1.00  0.00     0.164 HD
HETATM    6  H   UNL     1      -3.634   5.852 -32.618  1.00  0.00     0.164 HD
ENDROOT
BRANCH   1   7
HETATM    7  C   UNL     1      -5.958   3.133 -31.191  1.00  0.00     0.130 C 
BRANCH   7   8
HETATM    8  C   UNL     1      -6.511   2.168 -32.233  1.00  0.00     0.023 C 
HETATM    9  C   UNL     1      -5.720   0.856 -32.299  1.00  0.00     0.129 C 
HETATM   10  N   UNL     1      -5.993   0.350 -33.644  1.00  0.00    -0.380 N 
HETATM   11  C   UNL     1      -6.616   1.378 -34.478  1.00  0.00     0.123 C 
HETATM   12  C   UNL     1      -6.432   2.663 -33.675  1.00  0.00     0.028 C 
BRANCH  10  13
HETATM   13  C   UNL     1      -5.882  -0.973 -34.009  1.00  0.00     0.032 A 
HETATM   14  C   UNL     1      -4.708  -1.713 -33.770  1.00  0.00     0.066 A 
HETATM   15  C   UNL     1      -4.591  -3.063 -34.127  1.00  0.00     0.070 A 
HETATM   16  C   UNL     1      -5.666  -3.703 -34.738  1.00  0.00     0.037 A 
HETATM   17  C   UNL     1      -6.834  -3.001 -35.005  1.00  0.00     0.005 A 
HETATM   18  C   UNL     1      -6.932  -1.652 -34.650  1.00  0.00     0.029 A 
BRANCH  15  19
HETATM   19  O   UNL     1      -3.494  -3.857 -33.932  1.00  0.00    -0.356 OA
HETATM   20  C   UNL     1      -3.728  -5.169 -33.437  1.00  0.00     0.210 C 
ENDBRANCH  15  19
ENDBRANCH  10  13
ENDBRANCH   7   8
ENDBRANCH   1   7
BRANCH   3  21
HETATM   21  C   UNL     1      -1.703   5.030 -32.741  1.00  0.00     0.162 C 
BRANCH  21  22
HETATM   22  C   UNL     1      -1.023   5.744 -31.601  1.00  0.00    -0.040 A 
HETATM   23  C   UNL     1      -1.650   6.822 -30.957  1.00  0.00     0.021 A 
HETATM   24  C   UNL     1      -1.020   7.512 -29.907  1.00  0.00    -0.025 A 
HETATM   25  C   UNL     1       0.268   7.109 -29.489  1.00  0.00    -0.026 A 
HETATM   26  C   UNL     1      -1.640   8.597 -29.266  1.00  0.00     0.012 A 
HETATM   27  C   UNL     1       0.893   6.032 -30.136  1.00  0.00     0.013 A 
HETATM   28  C   UNL     1       0.899   7.799 -28.441  1.00  0.00     0.012 A 
HETATM   29  C   UNL     1       0.258   5.362 -31.183  1.00  0.00     0.010 A 
HETATM   30  C   UNL     1       0.269   8.876 -27.816  1.00  0.00     0.001 A 
HETATM   31  C   UNL     1      -0.999   9.275 -28.228  1.00  0.00     0.001 A 
ENDBRANCH  21  22
ENDBRANCH   3  21
TORSDOF 6
ENDMDL
MODEL 7
REMARK VINA RESULT:      -8.9      1.533      2.054
REMARK  6 active torsions:
REMARK  status: ('A' for Active; 'I' for Inactive)
REMARK    1  A    between atoms: O_2  and  C_3 
REMARK    2  A    between atoms: C_5  and  N_6 
REMARK    3  A    between atoms: C_8  and  C_9 
REMARK    4  A    between atoms: C_9  and  N_10 
REMARK       I    between atoms: N_10  and  C_11 
REMARK       I    between atoms: C_11  and  N_12 
REMARK    5  A    between atoms: N_12  and  C_13 
REMARK    6  A    between atoms: C_13  and  C_14 
ROOT
HETATM    1  N   UNL     1      -6.499   4.415 -33.328  1.00  0.00    -0.343 N 
HETATM    2  C   UNL     1      -7.373   3.392 -33.585  1.00  0.00     0.316 C 
HETATM    3  N   UNL     1      -6.733   2.309 -34.121  1.00  0.00    -0.339 N 
HETATM    4  O   UNL     1      -8.577   3.452 -33.377  1.00  0.00    -0.248 OA
HETATM    5  H   UNL     1      -5.599   4.367 -33.780  1.00  0.00     0.164 HD
HETATM    6  H   UNL     1      -5.745   2.222 -33.948  1.00  0.00     0.164 HD
ENDROOT
BRANCH   1   7
HETATM    7  C   UNL     1      -6.952   5.713 -32.860  1.00  0.00     0.130 C 
BRANCH   7   8
HETATM    8  C   UNL     1      -5.983   6.327 -31.856  1.00  0.00     0.023 C 
HETATM    9  C   UNL     1      -4.518   6.024 -32.190  1.00  0.00     0.129 C 
HETATM   10  N   UNL     1      -3.830   6.165 -30.907  1.00  0.00    -0.380 N 
HETATM   11  C   UNL     1      -4.785   6.220 -29.800  1.00  0.00     0.123 C 
HETATM   12  C   UNL     1      -6.106   5.789 -30.432  1.00  0.00     0.028 C 
BRANCH  10  13
HETATM   13  C   UNL     1      -2.485   6.428 -30.775  1.00  0.00     0.032 A 
HETATM   14  C   UNL     1      -1.990   7.270 -29.760  1.00  0.00     0.066 A 
HETATM   15  C   UNL     1      -0.621   7.533 -29.612  1.00  0.00     0.070 A 
HETATM   16  C   UNL     1       0.286   6.947 -30.490  1.00  0.00     0.037 A 
HETATM   17  C   UNL     1      -0.168   6.125 -31.514  1.00  0.00     0.005 A 
HETATM   18  C   UNL     1      -1.536   5.879 -31.654  1.00  0.00     0.029 A 
BRANCH  15  19
HETATM   19  O   UNL     1      -0.053   8.332 -28.658  1.00  0.00    -0.356 OA
HETATM   20  C   UNL     1       1.042   7.790 -27.932  1.00  0.00     0.210 C 
ENDBRANCH  15  19
ENDBRANCH  10  13
ENDBRANCH   7   8
ENDBRANCH   1   7
BRANCH   3  21
HETATM   21  C   UNL     1      -7.447   1.094 -34.452  1.00  0.00     0.162 C 
BRANCH  21  22
HETATM   22  C   UNL     1      -6.565  -0.121 -34.304  1.00  0.00    -0.040 A 
HETATM   23  C   UNL     1      -6.990  -1.373 -34.772  1.00  0.00     0.021 A 
HETATM   24  C   UNL     1      -6.189  -2.519 -34.621  1.00  0.00    -0.025 A 
HETATM   25  C   UNL     1      -4.930  -2.405 -33.991  1.00  0.00    -0.026 A 
HETATM   26  C   UNL     1      -6.615  -3.777 -35.080  1.00  0.00     0.012 A 
HETATM   27  C   UNL     1      -4.509  -1.150 -33.523  1.00  0.00     0.013 A 
HETATM   28  C   UNL     1      -4.131  -3.549 -33.839  1.00  0.00     0.012 A 
HETATM   29  C   UNL     1      -5.319  -0.024 -33.673  1.00  0.00     0.010 A 
HETATM   30  C   UNL     1      -4.569  -4.792 -34.300  1.00  0.00     0.001 A 
HETATM   31  C   UNL     1      -5.810  -4.906 -34.919  1.00  0.00     0.001 A 
ENDBRANCH  21  22
ENDBRANCH   3  21
TORSDOF 6
ENDMDL
MODEL 8
REMARK VINA RESULT:      -8.7      2.007      3.176
REMARK  6 active torsions:
REMARK  status: ('A' for Active; 'I' for Inactive)
REMARK    1  A    between atoms: O_2  and  C_3 
REMARK    2  A    between atoms: C_5  and  N_6 
REMARK    3  A    between atoms: C_8  and  C_9 
REMARK    4  A    between atoms: C_9  and  N_10 
REMARK       I    between atoms: N_10  and  C_11 
REMARK       I    between atoms: C_11  and  N_12 
REMARK    5  A    between atoms: N_12  and  C_13 
REMARK    6  A    between atoms: C_13  and  C_14 
ROOT
HETATM    1  N   UNL     1      -2.960   3.762 -31.987  1.00  0.00    -0.343 N 
HETATM    2  C   UNL     1      -4.053   3.644 -32.804  1.00  0.00     0.316 C 
HETATM    3  N   UNL     1      -4.907   2.671 -32.364  1.00  0.00    -0.339 N 
HETATM    4  O   UNL     1      -4.230   4.315 -33.812  1.00  0.00    -0.248 OA
HETATM    5  H   UNL     1      -2.780   2.995 -31.357  1.00  0.00     0.164 HD
HETATM    6  H   UNL     1      -4.858   2.418 -31.389  1.00  0.00     0.164 HD
ENDROOT
BRANCH   1   7
HETATM    7  C   UNL     1      -1.856   4.650 -32.304  1.00  0.00     0.130 C 
BRANCH   7   8
HETATM    8  C   UNL     1      -1.164   5.169 -31.050  1.00  0.00     0.023 C 
HETATM    9  C   UNL     1      -1.669   6.554 -30.629  1.00  0.00     0.129 C 
HETATM   10  N   UNL     1      -0.568   7.102 -29.836  1.00  0.00    -0.380 N 
HETATM   11  C   UNL     1       0.648   6.306 -30.002  1.00  0.00     0.123 C 
HETATM   12  C   UNL     1       0.337   5.404 -31.193  1.00  0.00     0.028 C 
BRANCH  10  13
HETATM   13  C   UNL     1      -0.714   8.097 -28.895  1.00  0.00     0.032 A 
HETATM   14  C   UNL     1      -0.032   8.059 -27.664  1.00  0.00     0.066 A 
HETATM   15  C   UNL     1      -0.165   9.075 -26.707  1.00  0.00     0.070 A 
HETATM   16  C   UNL     1      -0.994  10.160 -26.973  1.00  0.00     0.037 A 
HETATM   17  C   UNL     1      -1.695  10.223 -28.171  1.00  0.00     0.005 A 
HETATM   18  C   UNL     1      -1.558   9.199 -29.112  1.00  0.00     0.029 A 
BRANCH  15  19
HETATM   19  O   UNL     1       0.458   9.121 -25.489  1.00  0.00    -0.356 OA
HETATM   20  C   UNL     1       1.785   8.615 -25.425  1.00  0.00     0.210 C 
ENDBRANCH  15  19
ENDBRANCH  10  13
ENDBRANCH   7   8
ENDBRANCH   1   7
BRANCH   3  21
HETATM   21  C   UNL     1      -6.147   2.381 -33.051  1.00  0.00     0.162 C 
BRANCH  21  22
HETATM   22  C   UNL     1      -6.168   0.969 -33.580  1.00  0.00    -0.040 A 
HETATM   23  C   UNL     1      -5.183   0.047 -33.197  1.00  0.00     0.021 A 
HETATM   24  C   UNL     1      -5.177  -1.266 -33.699  1.00  0.00    -0.025 A 
HETATM   25  C   UNL     1      -6.186  -1.665 -34.604  1.00  0.00    -0.026 A 
HETATM   26  C   UNL     1      -4.187  -2.190 -33.325  1.00  0.00     0.012 A 
HETATM   27  C   UNL     1      -7.169  -0.739 -34.987  1.00  0.00     0.013 A 
HETATM   28  C   UNL     1      -6.179  -2.976 -35.108  1.00  0.00     0.012 A 
HETATM   29  C   UNL     1      -7.156   0.564 -34.485  1.00  0.00     0.010 A 
HETATM   30  C   UNL     1      -5.187  -3.881 -34.726  1.00  0.00     0.001 A 
HETATM   31  C   UNL     1      -4.192  -3.489 -33.836  1.00  0.00     0.001 A 
ENDBRANCH  21  22
ENDBRANCH   3  21
TORSDOF 6
ENDMDL
MODEL 9
REMARK VINA RESULT:      -8.4      2.731      3.678
REMARK  6 active torsions:
REMARK  status: ('A' for Active; 'I' for Inactive)
REMARK    1  A    between atoms: O_2  and  C_3 
REMARK    2  A    between atoms: C_5  and  N_6 
REMARK    3  A    between atoms: C_8  and  C_9 
REMARK    4  A    between atoms: C_9  and  N_10 
REMARK       I    between atoms: N_10  and  C_11 
REMARK       I    between atoms: C_11  and  N_12 
REMARK    5  A    between atoms: N_12  and  C_13 
REMARK    6  A    between atoms: C_13  and  C_14 
ROOT
HETATM    1  N   UNL     1      -8.247   4.381 -29.876  1.00  0.00    -0.343 N 
HETATM    2  C   UNL     1      -8.655   3.595 -30.921  1.00  0.00     0.316 C 
HETATM    3  N   UNL     1      -8.460   2.268 -30.656  1.00  0.00    -0.339 N 
HETATM    4  O   UNL     1      -9.118   4.031 -31.966  1.00  0.00    -0.248 OA
HETATM    5  H   UNL     1      -7.641   3.951 -29.194  1.00  0.00     0.164 HD
HETATM    6  H   UNL     1      -8.398   1.992 -29.688  1.00  0.00     0.164 HD
ENDROOT
BRANCH   1   7
HETATM    7  C   UNL     1      -8.247   5.831 -29.959  1.00  0.00     0.130 C 
BRANCH   7   8
HETATM    8  C   UNL     1      -6.840   6.408 -29.867  1.00  0.00     0.023 C 
HETATM    9  C   UNL     1      -5.921   5.902 -30.985  1.00  0.00     0.129 C 
HETATM   10  N   UNL     1      -4.576   6.070 -30.435  1.00  0.00    -0.380 N 
HETATM   11  C   UNL     1      -4.623   6.337 -28.998  1.00  0.00     0.123 C 
HETATM   12  C   UNL     1      -6.065   6.016 -28.612  1.00  0.00     0.028 C 
BRANCH  10  13
HETATM   13  C   UNL     1      -3.436   6.179 -31.200  1.00  0.00     0.032 A 
HETATM   14  C   UNL     1      -2.272   5.443 -30.906  1.00  0.00     0.066 A 
HETATM   15  C   UNL     1      -1.112   5.539 -31.687  1.00  0.00     0.070 A 
HETATM   16  C   UNL     1      -1.101   6.384 -32.793  1.00  0.00     0.037 A 
HETATM   17  C   UNL     1      -2.226   7.138 -33.104  1.00  0.00     0.005 A 
HETATM   18  C   UNL     1      -3.372   7.037 -32.310  1.00  0.00     0.029 A 
BRANCH  15  19
HETATM   19  O   UNL     1       0.059   4.863 -31.477  1.00  0.00    -0.356 OA
HETATM   20  C   UNL     1       0.643   4.972 -30.186  1.00  0.00     0.210 C 
ENDBRANCH  15  19
ENDBRANCH  10  13
ENDBRANCH   7   8
ENDBRANCH   1   7
BRANCH   3  21
HETATM   21  C   UNL     1      -8.841   1.242 -31.602  1.00  0.00     0.162 C 
BRANCH  21  22
HETATM   22  C   UNL     1      -7.651   0.426 -32.041  1.00  0.00    -0.040 A 
HETATM   23  C   UNL     1      -7.742  -0.434 -33.145  1.00  0.00     0.021 A 
HETATM   24  C   UNL     1      -6.647  -1.217 -33.553  1.00  0.00    -0.025 A 
HETATM   25  C   UNL     1      -5.431  -1.131 -32.839  1.00  0.00    -0.026 A 
HETATM   26  C   UNL     1      -6.737  -2.087 -34.653  1.00  0.00     0.012 A 
HETATM   27  C   UNL     1      -5.344  -0.271 -31.734  1.00  0.00     0.013 A 
HETATM   28  C   UNL     1      -4.339  -1.915 -33.245  1.00  0.00     0.012 A 
HETATM   29  C   UNL     1      -6.443   0.494 -31.336  1.00  0.00     0.010 A 
HETATM   30  C   UNL     1      -4.445  -2.774 -34.339  1.00  0.00     0.001 A 
HETATM   31  C   UNL     1      -5.643  -2.861 -35.042  1.00  0.00     0.001 A 
ENDBRANCH  21  22
ENDBRANCH   3  21
TORSDOF 6
ENDMDL
MODEL 10
REMARK VINA RESULT:      -8.4      2.887      4.399
REMARK  6 active torsions:
REMARK  status: ('A' for Active; 'I' for Inactive)
REMARK    1  A    between atoms: O_2  and  C_3 
REMARK    2  A    between atoms: C_5  and  N_6 
REMARK    3  A    between atoms: C_8  and  C_9 
REMARK    4  A    between atoms: C_9  and  N_10 
REMARK       I    between atoms: N_10  and  C_11 
REMARK       I    between atoms: C_11  and  N_12 
REMARK    5  A    between atoms: N_12  and  C_13 
REMARK    6  A    between atoms: C_13  and  C_14 
ROOT
HETATM    1  N   UNL     1      -9.396   2.615 -32.183  1.00  0.00    -0.343 N 
HETATM    2  C   UNL     1      -9.131   2.156 -33.446  1.00  0.00     0.316 C 
HETATM    3  N   UNL     1      -8.429   0.983 -33.416  1.00  0.00    -0.339 N 
HETATM    4  O   UNL     1      -9.467   2.736 -34.469  1.00  0.00    -0.248 OA
HETATM    5  H   UNL     1      -8.850   2.219 -31.433  1.00  0.00     0.164 HD
HETATM    6  H   UNL     1      -8.490   0.427 -32.578  1.00  0.00     0.164 HD
ENDROOT
BRANCH   1   7
HETATM    7  C   UNL     1     -10.032   3.899 -31.949  1.00  0.00     0.130 C 
BRANCH   7   8
HETATM    8  C   UNL     1      -9.020   4.981 -31.590  1.00  0.00     0.023 C 
HETATM    9  C   UNL     1      -7.608   4.655 -32.089  1.00  0.00     0.129 C 
HETATM   10  N   UNL     1      -6.738   5.436 -31.210  1.00  0.00    -0.380 N 
HETATM   11  C   UNL     1      -7.476   5.947 -30.055  1.00  0.00     0.123 C 
HETATM   12  C   UNL     1      -8.795   5.179 -30.093  1.00  0.00     0.028 C 
BRANCH  10  13
HETATM   13  C   UNL     1      -5.456   5.820 -31.535  1.00  0.00     0.032 A 
HETATM   14  C   UNL     1      -4.997   5.823 -32.866  1.00  0.00     0.066 A 
HETATM   15  C   UNL     1      -3.697   6.224 -33.206  1.00  0.00     0.070 A 
HETATM   16  C   UNL     1      -2.826   6.637 -32.202  1.00  0.00     0.037 A 
HETATM   17  C   UNL     1      -3.239   6.632 -30.876  1.00  0.00     0.005 A 
HETATM   18  C   UNL     1      -4.535   6.221 -30.552  1.00  0.00     0.029 A 
BRANCH  15  19
HETATM   19  O   UNL     1      -3.169   6.261 -34.468  1.00  0.00    -0.356 OA
HETATM   20  C   UNL     1      -2.334   5.175 -34.848  1.00  0.00     0.210 C 
ENDBRANCH  15  19
ENDBRANCH  10  13
ENDBRANCH   7   8
ENDBRANCH   1   7
BRANCH   3  21
HETATM   21  C   UNL     1      -8.056   0.292 -34.631  1.00  0.00     0.162 C 
BRANCH  21  22
HETATM   22  C   UNL     1      -6.926  -0.677 -34.391  1.00  0.00    -0.040 A 
HETATM   23  C   UNL     1      -7.047  -2.024 -34.763  1.00  0.00     0.021 A 
HETATM   24  C   UNL     1      -6.010  -2.944 -34.526  1.00  0.00    -0.025 A 
HETATM   25  C   UNL     1      -4.822  -2.500 -33.904  1.00  0.00    -0.026 A 
HETATM   26  C   UNL     1      -6.132  -4.295 -34.888  1.00  0.00     0.012 A 
HETATM   27  C   UNL     1      -4.704  -1.152 -33.531  1.00  0.00     0.013 A 
HETATM   28  C   UNL     1      -3.787  -3.419 -33.664  1.00  0.00     0.012 A 
HETATM   29  C   UNL     1      -5.746  -0.253 -33.767  1.00  0.00     0.010 A 
HETATM   30  C   UNL     1      -3.924  -4.759 -34.031  1.00  0.00     0.001 A 
HETATM   31  C   UNL     1      -5.095  -5.197 -34.641  1.00  0.00     0.001 A 
ENDBRANCH  21  22
ENDBRANCH   3  21
TORSDOF 6
ENDMDL
