MODEL 1
REMARK VINA RESULT:      -9.0      0.000      0.000
REMARK  9 active torsions:
REMARK  status: ('A' for Active; 'I' for Inactive)
REMARK    1  A    between atoms: C_3  and  C_4 
REMARK    2  A    between atoms: C_4  and  C_5 
REMARK       I    between atoms: C_5  and  N_6 
REMARK    3  A    between atoms: N_6  and  C_7 
REMARK    4  A    between atoms: C_7  and  C_8 
REMARK    5  A    between atoms: C_17  and  N_18 
REMARK       I    between atoms: N_18  and  C_19 
REMARK    6  A    between atoms: C_19  and  C_20 
REMARK    7  A    between atoms: C_28  and  C_29 
REMARK    8  A    between atoms: C_29  and  O_30 
REMARK    9  A    between atoms: C_32  and  O_33 
ROOT
HETATM    1  C   UNL     1      -6.006   3.001 -34.054  1.00  0.00     0.016 C 
HETATM    2  C   UNL     1      -6.159   2.950 -32.500  1.00  0.00    -0.030 C 
HETATM    3  C   UNL     1      -4.725   2.776 -31.822  1.00  0.00     0.056 C 
HETATM    4  C   UNL     1      -4.009   4.109 -31.735  1.00  0.00     0.056 C 
HETATM    5  C   UNL     1      -4.599   5.322 -32.033  1.00  0.00     0.012 C 
HETATM    6  S   UNL     1      -3.489   6.594 -31.812  1.00  0.00    -0.055 SA
HETATM    7  C   UNL     1      -2.433   5.478 -31.067  1.00  0.00     0.173 C 
HETATM    8  N   UNL     1      -2.751   4.211 -31.165  1.00  0.00    -0.227 NA
HETATM    9  C   UNL     1      -6.016   5.535 -32.424  1.00  0.00     0.055 C 
HETATM   10  C   UNL     1      -6.866   4.293 -32.033  1.00  0.00     0.012 C 
HETATM   11  C   UNL     1      -7.433   4.293 -30.540  1.00  0.00     0.008 C 
HETATM   12  C   UNL     1      -8.667   5.245 -30.534  1.00  0.00     0.020 C 
HETATM   13  C   UNL     1      -7.947   2.874 -30.140  1.00  0.00     0.128 C 
HETATM   14  C   UNL     1      -8.299   2.022 -31.352  1.00  0.00     0.033 C 
HETATM   15  C   UNL     1      -7.058   1.712 -32.188  1.00  0.00     0.013 C 
ENDROOT
BRANCH   3  16
HETATM   16  C   UNL     1      -3.864   1.714 -32.530  1.00  0.00     0.114 C 
BRANCH  16  17
HETATM   17  C   UNL     1      -3.740   0.419 -31.753  1.00  0.00     0.218 C 
HETATM   18  N   UNL     1      -3.181  -0.612 -32.459  1.00  0.00    -0.355 N 
HETATM   19  H   UNL     1      -2.476  -0.349 -33.149  1.00  0.00     0.162 HD
HETATM   20  O   UNL     1      -4.165   0.317 -30.605  1.00  0.00    -0.274 OA
BRANCH  18  21
HETATM   21  C   UNL     1      -3.044  -1.926 -31.878  1.00  0.00     0.187 C 
BRANCH  21  22
HETATM   22  C   UNL     1      -3.583  -2.929 -32.831  1.00  0.00     0.070 A 
HETATM   23  O   UNL     1      -4.465  -2.476 -33.772  1.00  0.00    -0.325 OA
HETATM   24  C   UNL     1      -4.825  -3.545 -34.528  1.00  0.00     0.142 A 
HETATM   25  C   UNL     1      -4.192  -4.683 -34.088  1.00  0.00     0.027 A 
HETATM   26  C   UNL     1      -3.395  -4.287 -32.987  1.00  0.00     0.036 A 
ENDBRANCH  21  22
ENDBRANCH  18  21
ENDBRANCH  16  17
ENDBRANCH   3  16
BRANCH  11  27
HETATM   27  C   UNL     1      -6.466   4.795 -29.433  1.00  0.00     0.176 C 
BRANCH  27  28
HETATM   28  O   UNL     1      -7.076   4.840 -28.148  1.00  0.00    -0.400 OA
HETATM   29  H   UNL     1      -6.403   5.203 -27.546  1.00  0.00     0.209 HD
ENDBRANCH  27  28
ENDBRANCH  11  27
BRANCH   7  30
HETATM   30  N   UNL     1      -1.427   6.087 -30.370  1.00  0.00    -0.305 N 
HETATM   31  C   UNL     1      -0.142   5.591 -30.370  1.00  0.00     0.227 C 
HETATM   32  O   UNL     1       0.291   4.753 -31.164  1.00  0.00    -0.273 OA
HETATM   33  H   UNL     1      -1.730   6.720 -29.648  1.00  0.00     0.171 HD
BRANCH  31  34
HETATM   34  C   UNL     1       0.735   6.156 -29.220  1.00  0.00     0.078 C 
HETATM   35  C   UNL     1       0.763   7.687 -28.931  1.00  0.00     0.014 C 
HETATM   36  C   UNL     1       0.847   7.343 -27.434  1.00  0.00     0.002 C 
HETATM   37  C   UNL     1       0.163   6.008 -27.778  1.00  0.00     0.014 C 
ENDBRANCH  31  34
ENDBRANCH   7  30
BRANCH  13  38
HETATM   38  O   UNL     1      -6.970   2.177 -29.366  1.00  0.00    -0.395 OA
HETATM   39  H   UNL     1      -7.252   1.248 -29.284  1.00  0.00     0.210 HD
ENDBRANCH  13  38
TORSDOF 9
ENDMDL
MODEL 2
REMARK VINA RESULT:      -8.9      2.839      7.864
REMARK  9 active torsions:
REMARK  status: ('A' for Active; 'I' for Inactive)
REMARK    1  A    between atoms: C_3  and  C_4 
REMARK    2  A    between atoms: C_4  and  C_5 
REMARK       I    between atoms: C_5  and  N_6 
REMARK    3  A    between atoms: N_6  and  C_7 
REMARK    4  A    between atoms: C_7  and  C_8 
REMARK    5  A    between atoms: C_17  and  N_18 
REMARK       I    between atoms: N_18  and  C_19 
REMARK    6  A    between atoms: C_19  and  C_20 
REMARK    7  A    between atoms: C_28  and  C_29 
REMARK    8  A    between atoms: C_29  and  O_30 
REMARK    9  A    between atoms: C_32  and  O_33 
ROOT
HETATM    1  C   UNL     1      -7.528   4.238 -29.605  1.00  0.00     0.016 C 
HETATM    2  C   UNL     1      -7.660   4.404 -31.153  1.00  0.00    -0.030 C 
HETATM    3  C   UNL     1      -6.397   3.751 -31.876  1.00  0.00     0.056 C 
HETATM    4  C   UNL     1      -6.567   2.249 -31.995  1.00  0.00     0.056 C 
HETATM    5  C   UNL     1      -7.734   1.578 -31.686  1.00  0.00     0.012 C 
HETATM    6  S   UNL     1      -7.547  -0.093 -31.952  1.00  0.00    -0.055 SA
HETATM    7  C   UNL     1      -6.062   0.244 -32.723  1.00  0.00     0.173 C 
HETATM    8  N   UNL     1      -5.602   1.465 -32.605  1.00  0.00    -0.227 NA
HETATM    9  C   UNL     1      -9.012   2.197 -31.252  1.00  0.00     0.055 C 
HETATM   10  C   UNL     1      -9.015   3.711 -31.607  1.00  0.00     0.012 C 
HETATM   11  C   UNL     1      -9.516   4.069 -33.080  1.00  0.00     0.008 C 
HETATM   12  C   UNL     1     -11.072   3.985 -33.053  1.00  0.00     0.020 C 
HETATM   13  C   UNL     1      -9.142   5.538 -33.453  1.00  0.00     0.128 C 
HETATM   14  C   UNL     1      -8.920   6.410 -32.225  1.00  0.00     0.033 C 
HETATM   15  C   UNL     1      -7.704   5.941 -31.427  1.00  0.00     0.013 C 
ENDROOT
BRANCH   3  16
HETATM   16  C   UNL     1      -5.069   4.119 -31.189  1.00  0.00     0.114 C 
BRANCH  16  17
HETATM   17  C   UNL     1      -4.095   4.837 -32.101  1.00  0.00     0.218 C 
HETATM   18  N   UNL     1      -2.935   4.150 -32.340  1.00  0.00    -0.355 N 
HETATM   19  H   UNL     1      -3.016   3.133 -32.361  1.00  0.00     0.162 HD
HETATM   20  O   UNL     1      -4.330   5.964 -32.529  1.00  0.00    -0.274 OA
BRANCH  18  21
HETATM   21  C   UNL     1      -1.883   4.722 -33.146  1.00  0.00     0.187 C 
BRANCH  21  22
HETATM   22  C   UNL     1      -0.911   5.401 -32.250  1.00  0.00     0.070 A 
HETATM   23  O   UNL     1      -0.344   4.642 -31.265  1.00  0.00    -0.325 OA
HETATM   24  C   UNL     1       0.500   5.451 -30.575  1.00  0.00     0.142 A 
HETATM   25  C   UNL     1       0.484   6.722 -31.096  1.00  0.00     0.027 A 
HETATM   26  C   UNL     1      -0.432   6.693 -32.174  1.00  0.00     0.036 A 
ENDBRANCH  21  22
ENDBRANCH  18  21
ENDBRANCH  16  17
ENDBRANCH   3  16
BRANCH  11  27
HETATM   27  C   UNL     1      -9.029   3.133 -34.221  1.00  0.00     0.176 C 
BRANCH  27  28
HETATM   28  O   UNL     1     -10.052   2.262 -34.691  1.00  0.00    -0.400 OA
HETATM   29  H   UNL     1      -9.596   1.551 -35.176  1.00  0.00     0.209 HD
ENDBRANCH  27  28
ENDBRANCH  11  27
BRANCH   7  30
HETATM   30  N   UNL     1      -5.596  -0.811 -33.456  1.00  0.00    -0.305 N 
HETATM   31  C   UNL     1      -6.147  -1.149 -34.672  1.00  0.00     0.227 C 
HETATM   32  O   UNL     1      -6.895  -0.424 -35.334  1.00  0.00    -0.273 OA
HETATM   33  H   UNL     1      -5.047  -1.480 -32.940  1.00  0.00     0.171 HD
BRANCH  31  34
HETATM   34  C   UNL     1      -5.777  -2.582 -35.139  1.00  0.00     0.078 C 
HETATM   35  C   UNL     1      -4.736  -3.425 -34.343  1.00  0.00     0.014 C 
HETATM   36  C   UNL     1      -5.596  -4.665 -34.645  1.00  0.00     0.002 C 
HETATM   37  C   UNL     1      -6.794  -3.709 -34.783  1.00  0.00     0.014 C 
ENDBRANCH  31  34
ENDBRANCH   7  30
BRANCH  13  38
HETATM   38  O   UNL     1      -7.960   5.576 -34.254  1.00  0.00    -0.395 OA
HETATM   39  H   UNL     1      -8.194   5.293 -35.156  1.00  0.00     0.210 HD
ENDBRANCH  13  38
TORSDOF 9
ENDMDL
MODEL 3
REMARK VINA RESULT:      -8.6      3.674      7.509
REMARK  9 active torsions:
REMARK  status: ('A' for Active; 'I' for Inactive)
REMARK    1  A    between atoms: C_3  and  C_4 
REMARK    2  A    between atoms: C_4  and  C_5 
REMARK       I    between atoms: C_5  and  N_6 
REMARK    3  A    between atoms: N_6  and  C_7 
REMARK    4  A    between atoms: C_7  and  C_8 
REMARK    5  A    between atoms: C_17  and  N_18 
REMARK       I    between atoms: N_18  and  C_19 
REMARK    6  A    between atoms: C_19  and  C_20 
REMARK    7  A    between atoms: C_28  and  C_29 
REMARK    8  A    between atoms: C_29  and  O_30 
REMARK    9  A    between atoms: C_32  and  O_33 
ROOT
HETATM    1  C   UNL     1      -5.656   3.066 -29.305  1.00  0.00     0.016 C 
HETATM    2  C   UNL     1      -5.575   3.282 -30.850  1.00  0.00    -0.030 C 
HETATM    3  C   UNL     1      -6.174   2.010 -31.605  1.00  0.00     0.056 C 
HETATM    4  C   UNL     1      -7.687   2.077 -31.648  1.00  0.00     0.056 C 
HETATM    5  C   UNL     1      -8.422   3.178 -31.251  1.00  0.00     0.012 C 
HETATM    6  S   UNL     1     -10.087   2.884 -31.449  1.00  0.00    -0.055 SA
HETATM    7  C   UNL     1      -9.686   1.465 -32.309  1.00  0.00     0.173 C 
HETATM    8  N   UNL     1      -8.432   1.089 -32.270  1.00  0.00    -0.227 NA
HETATM    9  C   UNL     1      -7.872   4.475 -30.781  1.00  0.00     0.055 C 
HETATM   10  C   UNL     1      -6.382   4.603 -31.203  1.00  0.00     0.012 C 
HETATM   11  C   UNL     1      -6.132   5.197 -32.664  1.00  0.00     0.008 C 
HETATM   12  C   UNL     1      -6.322   6.740 -32.555  1.00  0.00     0.020 C 
HETATM   13  C   UNL     1      -4.660   4.947 -33.122  1.00  0.00     0.128 C 
HETATM   14  C   UNL     1      -3.716   4.731 -31.948  1.00  0.00     0.033 C 
HETATM   15  C   UNL     1      -4.060   3.449 -31.191  1.00  0.00     0.013 C 
ENDROOT
BRANCH   3  16
HETATM   16  C   UNL     1      -5.681   0.682 -31.003  1.00  0.00     0.114 C 
BRANCH  16  17
HETATM   17  C   UNL     1      -4.710  -0.064 -31.896  1.00  0.00     0.218 C 
HETATM   18  N   UNL     1      -5.284  -0.641 -32.997  1.00  0.00    -0.355 N 
HETATM   19  H   UNL     1      -6.083  -0.145 -33.394  1.00  0.00     0.162 HD
HETATM   20  O   UNL     1      -3.522  -0.171 -31.603  1.00  0.00    -0.274 OA
BRANCH  18  21
HETATM   21  C   UNL     1      -4.502  -1.431 -33.917  1.00  0.00     0.187 C 
BRANCH  21  22
HETATM   22  C   UNL     1      -5.298  -2.618 -34.322  1.00  0.00     0.070 A 
HETATM   23  O   UNL     1      -4.619  -3.794 -34.481  1.00  0.00    -0.325 OA
HETATM   24  C   UNL     1      -5.528  -4.733 -34.848  1.00  0.00     0.142 A 
HETATM   25  C   UNL     1      -6.784  -4.182 -34.932  1.00  0.00     0.027 A 
HETATM   26  C   UNL     1      -6.636  -2.814 -34.601  1.00  0.00     0.036 A 
ENDBRANCH  21  22
ENDBRANCH  18  21
ENDBRANCH  16  17
ENDBRANCH   3  16
BRANCH  11  27
HETATM   27  C   UNL     1      -7.086   4.699 -33.785  1.00  0.00     0.176 C 
BRANCH  27  28
HETATM   28  O   UNL     1      -8.059   5.671 -34.152  1.00  0.00    -0.400 OA
HETATM   29  H   UNL     1      -8.027   6.355 -33.460  1.00  0.00     0.209 HD
ENDBRANCH  27  28
ENDBRANCH  11  27
BRANCH   7  30
HETATM   30  N   UNL     1     -10.740   0.959 -33.015  1.00  0.00    -0.305 N 
HETATM   31  C   UNL     1     -11.207   1.571 -34.158  1.00  0.00     0.227 C 
HETATM   32  O   UNL     1     -10.600   2.435 -34.794  1.00  0.00    -0.273 OA
HETATM   33  H   UNL     1     -11.321   0.309 -32.510  1.00  0.00     0.171 HD
BRANCH  31  34
HETATM   34  C   UNL     1     -12.629   1.102 -34.570  1.00  0.00     0.078 C 
HETATM   35  C   UNL     1     -13.326  -0.062 -33.804  1.00  0.00     0.014 C 
HETATM   36  C   UNL     1     -14.653   0.698 -33.975  1.00  0.00     0.002 C 
HETATM   37  C   UNL     1     -13.816   1.986 -34.079  1.00  0.00     0.014 C 
ENDBRANCH  31  34
ENDBRANCH   7  30
BRANCH  13  38
HETATM   38  O   UNL     1      -4.580   3.810 -33.982  1.00  0.00    -0.395 OA
HETATM   39  H   UNL     1      -3.750   3.871 -34.490  1.00  0.00     0.210 HD
ENDBRANCH  13  38
TORSDOF 9
ENDMDL
MODEL 4
REMARK VINA RESULT:      -8.0      3.095      9.271
REMARK  9 active torsions:
REMARK  status: ('A' for Active; 'I' for Inactive)
REMARK    1  A    between atoms: C_3  and  C_4 
REMARK    2  A    between atoms: C_4  and  C_5 
REMARK       I    between atoms: C_5  and  N_6 
REMARK    3  A    between atoms: N_6  and  C_7 
REMARK    4  A    between atoms: C_7  and  C_8 
REMARK    5  A    between atoms: C_17  and  N_18 
REMARK       I    between atoms: N_18  and  C_19 
REMARK    6  A    between atoms: C_19  and  C_20 
REMARK    7  A    between atoms: C_28  and  C_29 
REMARK    8  A    between atoms: C_29  and  O_30 
REMARK    9  A    between atoms: C_32  and  O_33 
ROOT
HETATM    1  C   UNL     1      -3.074   9.066 -30.768  1.00  0.00     0.016 C 
HETATM    2  C   UNL     1      -2.326   7.890 -30.063  1.00  0.00    -0.030 C 
HETATM    3  C   UNL     1      -3.361   6.728 -29.705  1.00  0.00     0.056 C 
HETATM    4  C   UNL     1      -3.633   5.863 -30.920  1.00  0.00     0.056 C 
HETATM    5  C   UNL     1      -2.937   5.963 -32.109  1.00  0.00     0.012 C 
HETATM    6  S   UNL     1      -3.519   4.825 -33.235  1.00  0.00    -0.055 SA
HETATM    7  C   UNL     1      -4.422   4.110 -31.974  1.00  0.00     0.173 C 
HETATM    8  N   UNL     1      -4.489   4.777 -30.849  1.00  0.00    -0.227 NA
HETATM    9  C   UNL     1      -1.792   6.868 -32.382  1.00  0.00     0.055 C 
HETATM   10  C   UNL     1      -1.187   7.375 -31.043  1.00  0.00     0.012 C 
HETATM   11  C   UNL     1      -0.085   6.425 -30.385  1.00  0.00     0.008 C 
HETATM   12  C   UNL     1       1.237   6.667 -31.173  1.00  0.00     0.020 C 
HETATM   13  C   UNL     1       0.184   6.829 -28.901  1.00  0.00     0.128 C 
HETATM   14  C   UNL     1      -0.201   8.274 -28.615  1.00  0.00     0.033 C 
HETATM   15  C   UNL     1      -1.708   8.483 -28.756  1.00  0.00     0.013 C 
ENDROOT
BRANCH   3  16
HETATM   16  C   UNL     1      -4.664   7.269 -29.090  1.00  0.00     0.114 C 
BRANCH  16  17
HETATM   17  C   UNL     1      -4.777   7.023 -27.599  1.00  0.00     0.218 C 
HETATM   18  N   UNL     1      -4.554   8.131 -26.826  1.00  0.00    -0.355 N 
HETATM   19  H   UNL     1      -4.843   9.022 -27.231  1.00  0.00     0.162 HD
HETATM   20  O   UNL     1      -4.996   5.902 -27.149  1.00  0.00    -0.274 OA
BRANCH  18  21
HETATM   21  C   UNL     1      -4.572   8.050 -25.385  1.00  0.00     0.187 C 
BRANCH  21  22
HETATM   22  C   UNL     1      -3.375   8.751 -24.853  1.00  0.00     0.070 A 
HETATM   23  O   UNL     1      -2.801   9.693 -25.659  1.00  0.00    -0.325 OA
HETATM   24  C   UNL     1      -1.738  10.201 -24.984  1.00  0.00     0.142 A 
HETATM   25  C   UNL     1      -1.614   9.599 -23.755  1.00  0.00     0.027 A 
HETATM   26  C   UNL     1      -2.667   8.657 -23.672  1.00  0.00     0.036 A 
ENDBRANCH  21  22
ENDBRANCH  18  21
ENDBRANCH  16  17
ENDBRANCH   3  16
BRANCH  11  27
HETATM   27  C   UNL     1      -0.372   4.899 -30.434  1.00  0.00     0.176 C 
BRANCH  27  28
HETATM   28  O   UNL     1       0.639   4.129 -29.792  1.00  0.00    -0.400 OA
HETATM   29  H   UNL     1       0.288   3.910 -28.911  1.00  0.00     0.209 HD
ENDBRANCH  27  28
ENDBRANCH  11  27
BRANCH   7  30
HETATM   30  N   UNL     1      -4.880   2.864 -32.294  1.00  0.00    -0.305 N 
HETATM   31  C   UNL     1      -4.116   1.736 -32.091  1.00  0.00     0.227 C 
HETATM   32  O   UNL     1      -3.104   1.687 -31.388  1.00  0.00    -0.273 OA
HETATM   33  H   UNL     1      -5.657   2.846 -32.936  1.00  0.00     0.171 HD
BRANCH  31  34
HETATM   34  C   UNL     1      -4.622   0.499 -32.881  1.00  0.00     0.078 C 
HETATM   35  C   UNL     1      -4.766  -0.882 -32.172  1.00  0.00     0.014 C 
HETATM   36  C   UNL     1      -6.028  -1.119 -33.019  1.00  0.00     0.002 C 
HETATM   37  C   UNL     1      -6.161   0.412 -33.116  1.00  0.00     0.014 C 
ENDBRANCH  31  34
ENDBRANCH   7  30
BRANCH  13  38
HETATM   38  O   UNL     1      -0.536   5.983 -28.004  1.00  0.00    -0.395 OA
HETATM   39  H   UNL     1      -0.242   5.066 -28.149  1.00  0.00     0.210 HD
ENDBRANCH  13  38
TORSDOF 9
ENDMDL
MODEL 5
REMARK VINA RESULT:      -8.0      3.789      7.250
REMARK  9 active torsions:
REMARK  status: ('A' for Active; 'I' for Inactive)
REMARK    1  A    between atoms: C_3  and  C_4 
REMARK    2  A    between atoms: C_4  and  C_5 
REMARK       I    between atoms: C_5  and  N_6 
REMARK    3  A    between atoms: N_6  and  C_7 
REMARK    4  A    between atoms: C_7  and  C_8 
REMARK    5  A    between atoms: C_17  and  N_18 
REMARK       I    between atoms: N_18  and  C_19 
REMARK    6  A    between atoms: C_19  and  C_20 
REMARK    7  A    between atoms: C_28  and  C_29 
REMARK    8  A    between atoms: C_29  and  O_30 
REMARK    9  A    between atoms: C_32  and  O_33 
ROOT
HETATM    1  C   UNL     1      -6.083   1.015 -29.578  1.00  0.00     0.016 C 
HETATM    2  C   UNL     1      -5.765   1.971 -30.772  1.00  0.00    -0.030 C 
HETATM    3  C   UNL     1      -6.865   1.794 -31.914  1.00  0.00     0.056 C 
HETATM    4  C   UNL     1      -8.115   2.583 -31.579  1.00  0.00     0.056 C 
HETATM    5  C   UNL     1      -8.206   3.473 -30.526  1.00  0.00     0.012 C 
HETATM    6  S   UNL     1      -9.758   4.171 -30.471  1.00  0.00    -0.055 SA
HETATM    7  C   UNL     1     -10.074   3.473 -31.997  1.00  0.00     0.173 C 
HETATM    8  N   UNL     1      -9.205   2.597 -32.434  1.00  0.00    -0.227 NA
HETATM    9  C   UNL     1      -7.110   3.847 -29.598  1.00  0.00     0.055 C 
HETATM   10  C   UNL     1      -5.737   3.458 -30.215  1.00  0.00     0.012 C 
HETATM   11  C   UNL     1      -5.087   4.548 -31.184  1.00  0.00     0.008 C 
HETATM   12  C   UNL     1      -4.461   5.641 -30.267  1.00  0.00     0.020 C 
HETATM   13  C   UNL     1      -3.923   3.927 -32.019  1.00  0.00     0.128 C 
HETATM   14  C   UNL     1      -3.335   2.686 -31.361  1.00  0.00     0.033 C 
HETATM   15  C   UNL     1      -4.358   1.553 -31.307  1.00  0.00     0.013 C 
ENDROOT
BRANCH   3  16
HETATM   16  C   UNL     1      -7.186   0.315 -32.198  1.00  0.00     0.114 C 
BRANCH  16  17
HETATM   17  C   UNL     1      -6.768  -0.140 -33.581  1.00  0.00     0.218 C 
HETATM   18  N   UNL     1      -6.575  -1.491 -33.697  1.00  0.00    -0.355 N 
HETATM   19  H   UNL     1      -7.172  -2.078 -33.113  1.00  0.00     0.162 HD
HETATM   20  O   UNL     1      -6.574   0.664 -34.489  1.00  0.00    -0.274 OA
BRANCH  18  21
HETATM   21  C   UNL     1      -6.123  -2.075 -34.936  1.00  0.00     0.187 C 
BRANCH  21  22
HETATM   22  C   UNL     1      -5.389  -3.331 -34.633  1.00  0.00     0.070 A 
HETATM   23  O   UNL     1      -4.155  -3.203 -34.059  1.00  0.00    -0.325 OA
HETATM   24  C   UNL     1      -3.672  -4.457 -33.871  1.00  0.00     0.142 A 
HETATM   25  C   UNL     1      -4.573  -5.394 -34.317  1.00  0.00     0.027 A 
HETATM   26  C   UNL     1      -5.679  -4.668 -34.816  1.00  0.00     0.036 A 
ENDBRANCH  21  22
ENDBRANCH  18  21
ENDBRANCH  16  17
ENDBRANCH   3  16
BRANCH  11  27
HETATM   27  C   UNL     1      -6.057   5.272 -32.158  1.00  0.00     0.176 C 
BRANCH  27  28
HETATM   28  O   UNL     1      -5.399   6.233 -32.976  1.00  0.00    -0.400 OA
HETATM   29  H   UNL     1      -5.507   5.922 -33.892  1.00  0.00     0.209 HD
ENDBRANCH  27  28
ENDBRANCH  11  27
BRANCH   7  30
HETATM   30  N   UNL     1     -11.170   4.014 -32.608  1.00  0.00    -0.305 N 
HETATM   31  C   UNL     1     -12.046   3.243 -33.340  1.00  0.00     0.227 C 
HETATM   32  O   UNL     1     -12.099   2.011 -33.307  1.00  0.00    -0.273 OA
HETATM   33  H   UNL     1     -11.139   5.012 -32.736  1.00  0.00     0.171 HD
BRANCH  31  34
HETATM   34  C   UNL     1     -12.963   4.074 -34.277  1.00  0.00     0.078 C 
HETATM   35  C   UNL     1     -12.928   5.631 -34.234  1.00  0.00     0.014 C 
HETATM   36  C   UNL     1     -13.123   5.620 -35.760  1.00  0.00     0.002 C 
HETATM   37  C   UNL     1     -12.490   4.217 -35.756  1.00  0.00     0.014 C 
ENDBRANCH  31  34
ENDBRANCH   7  30
BRANCH  13  38
HETATM   38  O   UNL     1      -4.366   3.576 -33.330  1.00  0.00    -0.395 OA
HETATM   39  H   UNL     1      -5.181   4.076 -33.519  1.00  0.00     0.210 HD
ENDBRANCH  13  38
TORSDOF 9
ENDMDL
MODEL 6
REMARK VINA RESULT:      -8.0      4.210      9.406
REMARK  9 active torsions:
REMARK  status: ('A' for Active; 'I' for Inactive)
REMARK    1  A    between atoms: C_3  and  C_4 
REMARK    2  A    between atoms: C_4  and  C_5 
REMARK       I    between atoms: C_5  and  N_6 
REMARK    3  A    between atoms: N_6  and  C_7 
REMARK    4  A    between atoms: C_7  and  C_8 
REMARK    5  A    between atoms: C_17  and  N_18 
REMARK       I    between atoms: N_18  and  C_19 
REMARK    6  A    between atoms: C_19  and  C_20 
REMARK    7  A    between atoms: C_28  and  C_29 
REMARK    8  A    between atoms: C_29  and  O_30 
REMARK    9  A    between atoms: C_32  and  O_33 
ROOT
HETATM    1  C   UNL     1      -5.704   4.125 -34.201  1.00  0.00     0.016 C 
HETATM    2  C   UNL     1      -5.915   3.401 -32.833  1.00  0.00    -0.030 C 
HETATM    3  C   UNL     1      -7.299   3.861 -32.185  1.00  0.00     0.056 C 
HETATM    4  C   UNL     1      -8.456   3.097 -32.798  1.00  0.00     0.056 C 
HETATM    5  C   UNL     1      -8.303   2.027 -33.659  1.00  0.00     0.012 C 
HETATM    6  S   UNL     1      -9.824   1.424 -34.133  1.00  0.00    -0.055 SA
HETATM    7  C   UNL     1     -10.536   2.421 -32.944  1.00  0.00     0.173 C 
HETATM    8  N   UNL     1      -9.759   3.313 -32.382  1.00  0.00    -0.227 NA
HETATM    9  C   UNL     1      -7.017   1.415 -34.078  1.00  0.00     0.055 C 
HETATM   10  C   UNL     1      -5.886   1.835 -33.097  1.00  0.00     0.012 C 
HETATM   11  C   UNL     1      -5.728   0.917 -31.800  1.00  0.00     0.008 C 
HETATM   12  C   UNL     1      -4.973  -0.368 -32.255  1.00  0.00     0.020 C 
HETATM   13  C   UNL     1      -4.836   1.618 -30.727  1.00  0.00     0.128 C 
HETATM   14  C   UNL     1      -3.919   2.671 -31.334  1.00  0.00     0.033 C 
HETATM   15  C   UNL     1      -4.722   3.831 -31.920  1.00  0.00     0.013 C 
ENDROOT
BRANCH   3  16
HETATM   16  C   UNL     1      -7.513   5.383 -32.273  1.00  0.00     0.114 C 
BRANCH  16  17
HETATM   17  C   UNL     1      -7.574   6.064 -30.921  1.00  0.00     0.218 C 
HETATM   18  N   UNL     1      -7.094   5.308 -29.886  1.00  0.00    -0.355 N 
HETATM   19  H   UNL     1      -6.328   4.673 -30.116  1.00  0.00     0.162 HD
HETATM   20  O   UNL     1      -8.069   7.181 -30.788  1.00  0.00    -0.274 OA
BRANCH  18  21
HETATM   21  C   UNL     1      -7.132   5.794 -28.528  1.00  0.00     0.187 C 
BRANCH  21  22
HETATM   22  C   UNL     1      -5.784   6.300 -28.164  1.00  0.00     0.070 A 
HETATM   23  O   UNL     1      -5.475   6.336 -26.832  1.00  0.00    -0.325 OA
HETATM   24  C   UNL     1      -4.213   6.825 -26.729  1.00  0.00     0.142 A 
HETATM   25  C   UNL     1      -3.701   7.108 -27.973  1.00  0.00     0.027 A 
HETATM   26  C   UNL     1      -4.718   6.776 -28.899  1.00  0.00     0.036 A 
ENDBRANCH  21  22
ENDBRANCH  18  21
ENDBRANCH  16  17
ENDBRANCH   3  16
BRANCH  11  27
HETATM   27  C   UNL     1      -7.045   0.454 -31.117  1.00  0.00     0.176 C 
BRANCH  27  28
HETATM   28  O   UNL     1      -6.815  -0.256 -29.905  1.00  0.00    -0.400 OA
HETATM   29  H   UNL     1      -7.214   0.283 -29.200  1.00  0.00     0.209 HD
ENDBRANCH  27  28
ENDBRANCH  11  27
BRANCH   7  30
HETATM   30  N   UNL     1     -11.829   2.075 -32.670  1.00  0.00    -0.305 N 
HETATM   31  C   UNL     1     -12.883   2.904 -32.984  1.00  0.00     0.227 C 
HETATM   32  O   UNL     1     -12.818   3.870 -33.749  1.00  0.00    -0.273 OA
HETATM   33  H   UNL     1     -11.940   1.346 -31.984  1.00  0.00     0.171 HD
BRANCH  31  34
HETATM   34  C   UNL     1     -14.196   2.541 -32.238  1.00  0.00     0.078 C 
HETATM   35  C   UNL     1     -15.341   3.590 -32.104  1.00  0.00     0.014 C 
HETATM   36  C   UNL     1     -16.340   2.434 -32.281  1.00  0.00     0.002 C 
HETATM   37  C   UNL     1     -15.227   1.684 -33.033  1.00  0.00     0.014 C 
ENDBRANCH  31  34
ENDBRANCH   7  30
BRANCH  13  38
HETATM   38  O   UNL     1      -5.639   2.242 -29.725  1.00  0.00    -0.395 OA
HETATM   39  H   UNL     1      -6.319   2.779 -30.170  1.00  0.00     0.210 HD
ENDBRANCH  13  38
TORSDOF 9
ENDMDL
MODEL 7
REMARK VINA RESULT:      -7.6      1.592      2.138
REMARK  9 active torsions:
REMARK  status: ('A' for Active; 'I' for Inactive)
REMARK    1  A    between atoms: C_3  and  C_4 
REMARK    2  A    between atoms: C_4  and  C_5 
REMARK       I    between atoms: C_5  and  N_6 
REMARK    3  A    between atoms: N_6  and  C_7 
REMARK    4  A    between atoms: C_7  and  C_8 
REMARK    5  A    between atoms: C_17  and  N_18 
REMARK       I    between atoms: N_18  and  C_19 
REMARK    6  A    between atoms: C_19  and  C_20 
REMARK    7  A    between atoms: C_28  and  C_29 
REMARK    8  A    between atoms: C_29  and  O_30 
REMARK    9  A    between atoms: C_32  and  O_33 
ROOT
HETATM    1  C   UNL     1      -6.037   0.122 -33.063  1.00  0.00     0.016 C 
HETATM    2  C   UNL     1      -6.852   1.175 -32.246  1.00  0.00    -0.030 C 
HETATM    3  C   UNL     1      -5.953   1.753 -31.061  1.00  0.00     0.056 C 
HETATM    4  C   UNL     1      -5.022   2.833 -31.575  1.00  0.00     0.056 C 
HETATM    5  C   UNL     1      -5.083   3.361 -32.850  1.00  0.00     0.012 C 
HETATM    6  S   UNL     1      -3.885   4.553 -33.057  1.00  0.00    -0.055 SA
HETATM    7  C   UNL     1      -3.589   4.480 -31.377  1.00  0.00     0.173 C 
HETATM    8  N   UNL     1      -4.155   3.496 -30.723  1.00  0.00    -0.227 NA
HETATM    9  C   UNL     1      -6.081   3.018 -33.894  1.00  0.00     0.055 C 
HETATM   10  C   UNL     1      -7.310   2.322 -33.244  1.00  0.00     0.012 C 
HETATM   11  C   UNL     1      -8.443   3.304 -32.696  1.00  0.00     0.008 C 
HETATM   12  C   UNL     1      -9.260   3.776 -33.936  1.00  0.00     0.020 C 
HETATM   13  C   UNL     1      -9.433   2.543 -31.758  1.00  0.00     0.128 C 
HETATM   14  C   UNL     1      -9.438   1.043 -32.015  1.00  0.00     0.033 C 
HETATM   15  C   UNL     1      -8.089   0.418 -31.665  1.00  0.00     0.013 C 
ENDROOT
BRANCH   3  16
HETATM   16  C   UNL     1      -5.184   0.649 -30.312  1.00  0.00     0.114 C 
BRANCH  16  17
HETATM   17  C   UNL     1      -3.992   0.115 -31.080  1.00  0.00     0.218 C 
HETATM   18  N   UNL     1      -4.066  -1.218 -31.383  1.00  0.00    -0.355 N 
HETATM   19  H   UNL     1      -5.003  -1.585 -31.554  1.00  0.00     0.162 HD
HETATM   20  O   UNL     1      -3.030   0.830 -31.348  1.00  0.00    -0.274 OA
BRANCH  18  21
HETATM   21  C   UNL     1      -2.985  -1.889 -32.064  1.00  0.00     0.187 C 
BRANCH  21  22
HETATM   22  C   UNL     1      -3.554  -2.957 -32.925  1.00  0.00     0.070 A 
HETATM   23  O   UNL     1      -3.195  -4.244 -32.633  1.00  0.00    -0.325 OA
HETATM   24  C   UNL     1      -3.820  -5.046 -33.532  1.00  0.00     0.142 A 
HETATM   25  C   UNL     1      -4.576  -4.298 -34.403  1.00  0.00     0.027 A 
HETATM   26  C   UNL     1      -4.399  -2.948 -34.016  1.00  0.00     0.036 A 
ENDBRANCH  21  22
ENDBRANCH  18  21
ENDBRANCH  16  17
ENDBRANCH   3  16
BRANCH  11  27
HETATM   27  C   UNL     1      -7.953   4.582 -31.960  1.00  0.00     0.176 C 
BRANCH  27  28
HETATM   28  O   UNL     1      -9.022   5.442 -31.580  1.00  0.00    -0.400 OA
HETATM   29  H   UNL     1      -8.703   5.938 -30.806  1.00  0.00     0.209 HD
ENDBRANCH  27  28
ENDBRANCH  11  27
BRANCH   7  30
HETATM   30  N   UNL     1      -2.862   5.543 -30.922  1.00  0.00    -0.305 N 
HETATM   31  C   UNL     1      -1.500   5.461 -30.730  1.00  0.00     0.227 C 
HETATM   32  O   UNL     1      -0.777   4.566 -31.175  1.00  0.00    -0.273 OA
HETATM   33  H   UNL     1      -3.398   6.267 -30.471  1.00  0.00     0.171 HD
BRANCH  31  34
HETATM   34  C   UNL     1      -0.934   6.598 -29.837  1.00  0.00     0.078 C 
HETATM   35  C   UNL     1      -0.190   6.261 -28.510  1.00  0.00     0.014 C 
HETATM   36  C   UNL     1       0.759   7.433 -28.813  1.00  0.00     0.002 C 
HETATM   37  C   UNL     1       0.412   7.233 -30.299  1.00  0.00     0.014 C 
ENDBRANCH  31  34
ENDBRANCH   7  30
BRANCH  13  38
HETATM   38  O   UNL     1      -9.107   2.765 -30.385  1.00  0.00    -0.395 OA
HETATM   39  H   UNL     1      -8.238   3.204 -30.346  1.00  0.00     0.210 HD
ENDBRANCH  13  38
TORSDOF 9
ENDMDL
MODEL 8
REMARK VINA RESULT:      -7.5      2.236      7.490
REMARK  9 active torsions:
REMARK  status: ('A' for Active; 'I' for Inactive)
REMARK    1  A    between atoms: C_3  and  C_4 
REMARK    2  A    between atoms: C_4  and  C_5 
REMARK       I    between atoms: C_5  and  N_6 
REMARK    3  A    between atoms: N_6  and  C_7 
REMARK    4  A    between atoms: C_7  and  C_8 
REMARK    5  A    between atoms: C_17  and  N_18 
REMARK       I    between atoms: N_18  and  C_19 
REMARK    6  A    between atoms: C_19  and  C_20 
REMARK    7  A    between atoms: C_28  and  C_29 
REMARK    8  A    between atoms: C_29  and  O_30 
REMARK    9  A    between atoms: C_32  and  O_33 
ROOT
HETATM    1  C   UNL     1      -3.169   8.861 -31.085  1.00  0.00     0.016 C 
HETATM    2  C   UNL     1      -2.421   7.736 -30.300  1.00  0.00    -0.030 C 
HETATM    3  C   UNL     1      -3.424   6.534 -29.992  1.00  0.00     0.056 C 
HETATM    4  C   UNL     1      -3.565   5.633 -31.203  1.00  0.00     0.056 C 
HETATM    5  C   UNL     1      -2.789   5.742 -32.340  1.00  0.00     0.012 C 
HETATM    6  S   UNL     1      -3.232   4.556 -33.479  1.00  0.00    -0.055 SA
HETATM    7  C   UNL     1      -4.191   3.824 -32.271  1.00  0.00     0.173 C 
HETATM    8  N   UNL     1      -4.373   4.508 -31.169  1.00  0.00    -0.227 NA
HETATM    9  C   UNL     1      -1.670   6.696 -32.550  1.00  0.00     0.055 C 
HETATM   10  C   UNL     1      -1.190   7.258 -31.182  1.00  0.00     0.012 C 
HETATM   11  C   UNL     1      -0.097   6.375 -30.424  1.00  0.00     0.008 C 
HETATM   12  C   UNL     1       1.268   6.665 -31.119  1.00  0.00     0.020 C 
HETATM   13  C   UNL     1       0.043   6.821 -28.934  1.00  0.00     0.128 C 
HETATM   14  C   UNL     1      -0.429   8.251 -28.710  1.00  0.00     0.033 C 
HETATM   15  C   UNL     1      -1.930   8.384 -28.966  1.00  0.00     0.013 C 
ENDROOT
BRANCH   3  16
HETATM   16  C   UNL     1      -4.793   7.024 -29.486  1.00  0.00     0.114 C 
BRANCH  16  17
HETATM   17  C   UNL     1      -5.882   6.968 -30.539  1.00  0.00     0.218 C 
HETATM   18  N   UNL     1      -6.788   5.957 -30.361  1.00  0.00    -0.355 N 
HETATM   19  H   UNL     1      -6.985   5.701 -29.392  1.00  0.00     0.162 HD
HETATM   20  O   UNL     1      -5.894   7.745 -31.490  1.00  0.00    -0.274 OA
BRANCH  18  21
HETATM   21  C   UNL     1      -7.855   5.737 -31.307  1.00  0.00     0.187 C 
BRANCH  21  22
HETATM   22  C   UNL     1      -8.262   4.310 -31.244  1.00  0.00     0.070 A 
HETATM   23  O   UNL     1      -7.579   3.436 -32.043  1.00  0.00    -0.325 OA
HETATM   24  C   UNL     1      -8.108   2.204 -31.830  1.00  0.00     0.142 A 
HETATM   25  C   UNL     1      -9.125   2.269 -30.908  1.00  0.00     0.027 A 
HETATM   26  C   UNL     1      -9.230   3.629 -30.534  1.00  0.00     0.036 A 
ENDBRANCH  21  22
ENDBRANCH  18  21
ENDBRANCH  16  17
ENDBRANCH   3  16
BRANCH  11  27
HETATM   27  C   UNL     1      -0.307   4.836 -30.458  1.00  0.00     0.176 C 
BRANCH  27  28
HETATM   28  O   UNL     1       0.694   4.128 -29.736  1.00  0.00    -0.400 OA
HETATM   29  H   UNL     1       1.531   4.296 -30.204  1.00  0.00     0.209 HD
ENDBRANCH  27  28
ENDBRANCH  11  27
BRANCH   7  30
HETATM   30  N   UNL     1      -4.566   2.551 -32.594  1.00  0.00    -0.305 N 
HETATM   31  C   UNL     1      -3.855   1.453 -32.163  1.00  0.00     0.227 C 
HETATM   32  O   UNL     1      -3.010   1.469 -31.264  1.00  0.00    -0.273 OA
HETATM   33  H   UNL     1      -5.193   2.476 -33.380  1.00  0.00     0.171 HD
BRANCH  31  34
HETATM   34  C   UNL     1      -4.178   0.158 -32.955  1.00  0.00     0.078 C 
HETATM   35  C   UNL     1      -4.550  -1.154 -32.201  1.00  0.00     0.014 C 
HETATM   36  C   UNL     1      -5.555  -1.448 -33.328  1.00  0.00     0.002 C 
HETATM   37  C   UNL     1      -5.604   0.069 -33.580  1.00  0.00     0.014 C 
ENDBRANCH  31  34
ENDBRANCH   7  30
BRANCH  13  38
HETATM   38  O   UNL     1      -0.701   5.960 -28.072  1.00  0.00    -0.395 OA
HETATM   39  H   UNL     1      -1.444   6.469 -27.699  1.00  0.00     0.210 HD
ENDBRANCH  13  38
TORSDOF 9
ENDMDL
MODEL 9
REMARK VINA RESULT:      -7.5      4.325      9.585
REMARK  9 active torsions:
REMARK  status: ('A' for Active; 'I' for Inactive)
REMARK    1  A    between atoms: C_3  and  C_4 
REMARK    2  A    between atoms: C_4  and  C_5 
REMARK       I    between atoms: C_5  and  N_6 
REMARK    3  A    between atoms: N_6  and  C_7 
REMARK    4  A    between atoms: C_7  and  C_8 
REMARK    5  A    between atoms: C_17  and  N_18 
REMARK       I    between atoms: N_18  and  C_19 
REMARK    6  A    between atoms: C_19  and  C_20 
REMARK    7  A    between atoms: C_28  and  C_29 
REMARK    8  A    between atoms: C_29  and  O_30 
REMARK    9  A    between atoms: C_32  and  O_33 
ROOT
HETATM    1  C   UNL     1      -5.338   4.056 -34.574  1.00  0.00     0.016 C 
HETATM    2  C   UNL     1      -5.628   3.704 -33.080  1.00  0.00    -0.030 C 
HETATM    3  C   UNL     1      -7.159   4.003 -32.741  1.00  0.00     0.056 C 
HETATM    4  C   UNL     1      -8.042   2.864 -33.210  1.00  0.00     0.056 C 
HETATM    5  C   UNL     1      -7.560   1.662 -33.691  1.00  0.00     0.012 C 
HETATM    6  S   UNL     1      -8.848   0.631 -34.111  1.00  0.00    -0.055 SA
HETATM    7  C   UNL     1      -9.913   1.730 -33.353  1.00  0.00     0.173 C 
HETATM    8  N   UNL     1      -9.412   2.890 -33.009  1.00  0.00    -0.227 NA
HETATM    9  C   UNL     1      -6.133   1.261 -33.777  1.00  0.00     0.055 C 
HETATM   10  C   UNL     1      -5.270   2.172 -32.859  1.00  0.00     0.012 C 
HETATM   11  C   UNL     1      -5.156   1.701 -31.338  1.00  0.00     0.008 C 
HETATM   12  C   UNL     1      -4.115   0.541 -31.309  1.00  0.00     0.020 C 
HETATM   13  C   UNL     1      -4.591   2.847 -30.441  1.00  0.00     0.128 C 
HETATM   14  C   UNL     1      -3.798   3.872 -31.240  1.00  0.00     0.033 C 
HETATM   15  C   UNL     1      -4.696   4.620 -32.224  1.00  0.00     0.013 C 
ENDROOT
BRANCH   3  16
HETATM   16  C   UNL     1      -7.632   5.356 -33.302  1.00  0.00     0.114 C 
BRANCH  16  17
HETATM   17  C   UNL     1      -8.389   6.198 -32.294  1.00  0.00     0.218 C 
HETATM   18  N   UNL     1      -8.895   5.491 -31.236  1.00  0.00    -0.355 N 
HETATM   19  H   UNL     1      -8.345   4.685 -30.935  1.00  0.00     0.162 HD
HETATM   20  O   UNL     1      -8.564   7.401 -32.466  1.00  0.00    -0.274 OA
BRANCH  18  21
HETATM   21  C   UNL     1      -9.686   6.139 -30.218  1.00  0.00     0.187 C 
BRANCH  21  22
HETATM   22  C   UNL     1     -11.116   5.804 -30.440  1.00  0.00     0.070 A 
HETATM   23  O   UNL     1     -12.019   6.820 -30.292  1.00  0.00    -0.325 OA
HETATM   24  C   UNL     1     -13.248   6.299 -30.538  1.00  0.00     0.142 A 
HETATM   25  C   UNL     1     -13.155   4.962 -30.840  1.00  0.00     0.027 A 
HETATM   26  C   UNL     1     -11.779   4.640 -30.770  1.00  0.00     0.036 A 
ENDBRANCH  21  22
ENDBRANCH  18  21
ENDBRANCH  16  17
ENDBRANCH   3  16
BRANCH  11  27
HETATM   27  C   UNL     1      -6.457   1.160 -30.683  1.00  0.00     0.176 C 
BRANCH  27  28
HETATM   28  O   UNL     1      -6.316   0.933 -29.284  1.00  0.00    -0.400 OA
HETATM   29  H   UNL     1      -5.864   0.076 -29.197  1.00  0.00     0.209 HD
ENDBRANCH  27  28
ENDBRANCH  11  27
BRANCH   7  30
HETATM   30  N   UNL     1     -11.147   1.193 -33.118  1.00  0.00    -0.305 N 
HETATM   31  C   UNL     1     -12.193   1.370 -33.996  1.00  0.00     0.227 C 
HETATM   32  O   UNL     1     -12.080   1.773 -35.157  1.00  0.00    -0.273 OA
HETATM   33  H   UNL     1     -11.322   0.925 -32.163  1.00  0.00     0.171 HD
BRANCH  31  34
HETATM   34  C   UNL     1     -13.580   1.055 -33.373  1.00  0.00     0.078 C 
HETATM   35  C   UNL     1     -14.454   2.201 -32.779  1.00  0.00     0.014 C 
HETATM   36  C   UNL     1     -15.688   1.466 -33.329  1.00  0.00     0.002 C 
HETATM   37  C   UNL     1     -14.753   0.834 -34.376  1.00  0.00     0.014 C 
ENDBRANCH  31  34
ENDBRANCH   7  30
BRANCH  13  38
HETATM   38  O   UNL     1      -5.645   3.525 -29.756  1.00  0.00    -0.395 OA
HETATM   39  H   UNL     1      -5.262   4.292 -29.292  1.00  0.00     0.210 HD
ENDBRANCH  13  38
TORSDOF 9
ENDMDL
MODEL 10
REMARK VINA RESULT:      -7.5     17.343     19.879
REMARK  9 active torsions:
REMARK  status: ('A' for Active; 'I' for Inactive)
REMARK    1  A    between atoms: C_3  and  C_4 
REMARK    2  A    between atoms: C_4  and  C_5 
REMARK       I    between atoms: C_5  and  N_6 
REMARK    3  A    between atoms: N_6  and  C_7 
REMARK    4  A    between atoms: C_7  and  C_8 
REMARK    5  A    between atoms: C_17  and  N_18 
REMARK       I    between atoms: N_18  and  C_19 
REMARK    6  A    between atoms: C_19  and  C_20 
REMARK    7  A    between atoms: C_28  and  C_29 
REMARK    8  A    between atoms: C_29  and  O_30 
REMARK    9  A    between atoms: C_32  and  O_33 
ROOT
HETATM    1  C   UNL     1      -6.453 -12.306 -41.131  1.00  0.00     0.016 C 
HETATM    2  C   UNL     1      -5.591 -13.584 -40.880  1.00  0.00    -0.030 C 
HETATM    3  C   UNL     1      -5.012 -13.562 -39.393  1.00  0.00     0.056 C 
HETATM    4  C   UNL     1      -6.057 -14.040 -38.405  1.00  0.00     0.056 C 
HETATM    5  C   UNL     1      -7.270 -14.590 -38.772  1.00  0.00     0.012 C 
HETATM    6  S   UNL     1      -8.173 -15.012 -37.391  1.00  0.00    -0.055 SA
HETATM    7  C   UNL     1      -6.781 -14.713 -36.449  1.00  0.00     0.173 C 
HETATM    8  N   UNL     1      -5.778 -14.124 -37.051  1.00  0.00    -0.227 NA
HETATM    9  C   UNL     1      -7.728 -14.857 -40.159  1.00  0.00     0.055 C 
HETATM   10  C   UNL     1      -6.513 -14.854 -41.128  1.00  0.00     0.012 C 
HETATM   11  C   UNL     1      -5.747 -16.247 -41.272  1.00  0.00     0.008 C 
HETATM   12  C   UNL     1      -6.610 -17.132 -42.221  1.00  0.00     0.020 C 
HETATM   13  C   UNL     1      -4.360 -16.051 -41.962  1.00  0.00     0.128 C 
HETATM   14  C   UNL     1      -4.302 -14.779 -42.796  1.00  0.00     0.033 C 
HETATM   15  C   UNL     1      -4.423 -13.536 -41.916  1.00  0.00     0.013 C 
ENDROOT
BRANCH   3  16
HETATM   16  C   UNL     1      -4.448 -12.184 -39.002  1.00  0.00     0.114 C 
BRANCH  16  17
HETATM   17  C   UNL     1      -3.036 -12.241 -38.454  1.00  0.00     0.218 C 
HETATM   18  N   UNL     1      -2.653 -13.479 -38.010  1.00  0.00    -0.355 N 
HETATM   19  H   UNL     1      -3.051 -14.274 -38.511  1.00  0.00     0.162 HD
HETATM   20  O   UNL     1      -2.337 -11.234 -38.377  1.00  0.00    -0.274 OA
BRANCH  18  21
HETATM   21  C   UNL     1      -1.357 -13.687 -37.411  1.00  0.00     0.187 C 
BRANCH  21  22
HETATM   22  C   UNL     1      -0.448 -14.270 -38.430  1.00  0.00     0.070 A 
HETATM   23  O   UNL     1      -0.998 -14.586 -39.641  1.00  0.00    -0.325 OA
HETATM   24  C   UNL     1      -0.002 -15.098 -40.409  1.00  0.00     0.142 A 
HETATM   25  C   UNL     1       1.182 -15.121 -39.713  1.00  0.00     0.027 A 
HETATM   26  C   UNL     1       0.894 -14.594 -38.432  1.00  0.00     0.036 A 
ENDBRANCH  21  22
ENDBRANCH  18  21
ENDBRANCH  16  17
ENDBRANCH   3  16
BRANCH  11  27
HETATM   27  C   UNL     1      -5.535 -17.057 -39.963  1.00  0.00     0.176 C 
BRANCH  27  28
HETATM   28  O   UNL     1      -5.035 -18.368 -40.202  1.00  0.00    -0.400 OA
HETATM   29  H   UNL     1      -5.787 -18.883 -40.542  1.00  0.00     0.209 HD
ENDBRANCH  27  28
ENDBRANCH  11  27
BRANCH   7  30
HETATM   30  N   UNL     1      -6.875 -15.231 -35.188  1.00  0.00    -0.305 N 
HETATM   31  C   UNL     1      -7.116 -14.433 -34.092  1.00  0.00     0.227 C 
HETATM   32  O   UNL     1      -7.524 -13.270 -34.142  1.00  0.00    -0.273 OA
HETATM   33  H   UNL     1      -6.478 -16.150 -35.073  1.00  0.00     0.171 HD
BRANCH  31  34
HETATM   34  C   UNL     1      -6.779 -15.122 -32.742  1.00  0.00     0.078 C 
HETATM   35  C   UNL     1      -6.663 -16.674 -32.658  1.00  0.00     0.014 C 
HETATM   36  C   UNL     1      -5.510 -16.475 -31.659  1.00  0.00     0.002 C 
HETATM   37  C   UNL     1      -5.281 -15.100 -32.311  1.00  0.00     0.014 C 
ENDBRANCH  31  34
ENDBRANCH   7  30
BRANCH  13  38
HETATM   38  O   UNL     1      -3.311 -16.006 -40.994  1.00  0.00    -0.395 OA
HETATM   39  H   UNL     1      -2.460 -16.055 -41.466  1.00  0.00     0.210 HD
ENDBRANCH  13  38
TORSDOF 9
ENDMDL
